data_PCOD9144758
_publ_section_title
;
Structure prediction by ZEFSAII (Michael W. Deem and Ramdas Pophale) SiO2 
 PCOD9144758
Probable space group: P 2/M
;
_chemical_formula_sum "Si O2"
_cell_formula_units_Z 28
_cell_length_a 12.838278
_cell_length_b 22.040537
_cell_length_c 5.247397
_cell_angle_alpha 90.000000
_cell_angle_beta 74.652415
_cell_angle_gamma 90.000000
_cell_volume 1431.865158
_symmetry_space_group_name_H-M "P 2/M"
_symmetry_group_IT_number 10
_symmetry_cell_setting 'monoclinic'
loop_
_space_group_symop_operation_xyz
x,y,z
-x,y,-z
-x,-y,-z
x,-y,z
loop_
_atom_site_type_symbol
_atom_site_label
_atom_site_fract_x
_atom_site_fract_y
_atom_site_fract_z
Si Si1 0.380079 0.127768 0.518299
Si Si2 0.360948 0.269131 0.449521
Si Si3 0.235995 0.113520 0.115884
Si Si4 0.500000 0.631976 0.500000
Si Si5 0.622418 0.430816 0.040479
Si Si6 0.245428 0.686599 0.043288
Si Si7 0.070446 0.225120 0.199274
Si Si8 0.924971 0.000000 0.798229
O O1 0.500000 0.102676 0.500000
O O2 0.393306 0.200185 0.465777
O O3 0.315590 0.106470 0.308050
O O4 0.306904 0.117251 0.813790
O O5 0.455713 0.317865 0.331454
O O6 0.286393 0.274750 0.255446
O O7 0.303142 0.292395 0.744533
O O8 0.162677 0.174079 0.175474
O O9 0.152563 0.058261 0.155916
O O10 0.405855 0.587790 0.650744
O O11 0.655803 0.500000 0.984406
O O12 0.500000 0.425121 0.000000
O O13 0.714089 0.381501 0.916297
O O14 0.122710 0.708869 0.104284
O O15 0.000000 0.227688 0.500000
O O16 0.000000 0.206861 0.000000
O O17 0.000000 0.000000 0.500000
O O18 0.000000 0.000000 0.000000
#
# Coordination Sequence:
#
# PCOD9144758 Si02
#       8
#     4   4   4   2   4   4   4   2
#     4  12  23  40  64  99 137 176 207 250 312 390
#     4  11  19  34  55  85 123 162 196 247 297 369
#     4  12  25  44  67  99 131 165 217 263 314 386
#     4  10  19  30  54  82 124 163 208 240 304 369
#     4  10  20  34  54  84 122 163 206 254 312 381
#     4  11  22  37  56  87 121 157 204 255 319 374
#     4  12  23  39  64  90 121 155 206 273 326 365
#     4  12  26  50  75  98 127 174 220 276 334 368
#
# _framework density 19.554914
#
# number of rings (size 3 to 8) (size 9 to 14) (size 15 to 20)
#    0.000    0.714    5.000    4.071    0.000    0.000 
#    0.000    2.143    0.000    0.857    0.000    0.000 
#    0.000    0.000    0.000    0.000    0.000    0.000 
#
# Total GULP energy -156109.816161 kJ/mol
# GULP energy per Si atom -5575.350577 kJ/mol
# Density = 1.951041 g / cm^3
# Si number density = 19.554914 Si / 1000 Ang^3
#
#
#
# Elastic Constant Matrix: (Units=GPa)
#
#
# Indices 1 2 3 4 5 6 
#
# 1 126.8449 58.3900 53.5413 0.0000 14.3478 0.0000
# 2 58.3900 131.7449 28.8695 0.0000 -5.5793 0.0000
# 3 53.5413 28.8695 126.8412 0.0000 4.5833 0.0000
# 4 0.0000 0.0000 0.0000 15.3577 0.0000 -6.0984
# 5 14.3478 -5.5793 4.5833 0.0000 41.1412 0.0000
# 6 0.0000 0.0000 0.0000 -6.0984 0.0000 60.1871
#
#
#
# Elastic Compliance Matrix: (Units=1/GPa)
#
#
# Indices 1 2 3 4 5 6 
#
# 1 0.012231 -0.004752 -0.003920 0.000000 -0.004473 0.000000
# 2 -0.004752 0.009904 -0.000358 0.000000 0.003040 0.000000
# 3 -0.003920 -0.000358 0.009611 0.000000 0.000248 0.000000
# 4 0.000000 0.000000 0.000000 0.067844 0.000000 0.006874
# 5 -0.004473 0.003040 0.000248 0.000000 0.026251 0.000000
# 6 0.000000 0.000000 0.000000 0.006874 0.000000 0.017311
#
#
# Mechanical properties :
#
#
# Convention : Reuss Voigt Hill
#
# Bulk Modulus (GPa) = 73.06357 74.11474 73.58915
# Shear Modulus (GPa) = 30.16153 39.64589 34.90371
#
# Velocity S-wave (km/s) = 3.93160 4.50757 4.22940
# Velocity P-wave (km/s) = 7.61934 8.06684 7.84628
#
# Compressibility (1/GPa) = 0.01368671
#
# Stress axis : x y z
#
# Youngs Moduli (GPa) = 81.75613 100.97362 104.04607
#
# Poissons Ratio (x) = 0.47978 0.40786
# Poissons Ratio (y) = 0.38847 0.03728
# Poissons Ratio (z) = 0.32048 0.03617
#
# Static dielectric constant tensor:
#      x y z
#    x 3.008810 0.000000 -0.214970 
#    y 0.000000 1.685700 0.000000 
#    z -0.214970 0.000000 1.806170 
# 
# From -- ./inp_files/7719.got.cif
#   From: 2010.05.17/outbox.cif.g08.bks.cpg/sg10_4_cif.got.tgz:7719.got - 2010.06.03 11:33:40.
