data_PCOD9144115
_publ_section_title
;
Structure prediction by ZEFSAII (Michael W. Deem and Ramdas Pophale) SiO2 
 PCOD9144115
Probable space group: P 2/M
;
_chemical_formula_sum "Si O2"
_cell_formula_units_Z 28
_cell_length_a 12.182782
_cell_length_b 8.615742
_cell_length_c 16.097301
_cell_angle_alpha 90.000000
_cell_angle_beta 56.215853
_cell_angle_gamma 90.000000
_cell_volume 1404.318279
_symmetry_space_group_name_H-M "P 2/M"
_symmetry_group_IT_number 10
_symmetry_cell_setting 'monoclinic'
loop_
_space_group_symop_operation_xyz
x,y,z
-x,y,-z
-x,-y,-z
x,-y,z
loop_
_atom_site_type_symbol
_atom_site_label
_atom_site_fract_x
_atom_site_fract_y
_atom_site_fract_z
Si Si1 0.136383 0.814416 0.484385
Si Si2 0.134400 0.182446 0.150502
Si Si3 0.152281 0.317918 0.964115
Si Si4 0.330025 0.689197 0.732653
Si Si5 0.139146 0.685681 0.668645
Si Si6 0.602825 0.312921 0.885779
Si Si7 0.404991 0.686954 0.299294
O O1 0.144835 0.757743 0.575353
O O2 0.263652 0.754498 0.381739
O O3 0.000000 0.758068 0.500000
O O4 0.135437 0.000000 0.483165
O O5 0.254902 0.239942 0.156300
O O6 0.999695 0.269983 0.230628
O O7 0.113785 0.000000 0.169730
O O8 0.170571 0.223457 0.040468
O O9 0.182151 0.500000 0.969040
O O10 0.242426 0.266283 0.849475
O O11 0.000000 0.308115 0.000000
O O12 0.329364 0.500000 0.731345
O O13 0.256937 0.740620 0.679861
O O14 0.479414 0.739759 0.687048
O O15 0.147328 0.500000 0.658195
O O16 0.614575 0.500000 0.886234
O O17 0.557864 0.274070 0.811416
O O18 0.500000 0.262524 0.000000
O O19 0.397101 0.500000 0.307722
#
# Coordination Sequence:
#
# PCOD9144115 Si02
#       7
#     4   4   4   4   4   4   4
#     4  11  25  44  63  86 119 156 196 247 307 362
#     4  12  24  36  55  88 129 163 198 247 307 366
#     4  10  18  35  61  86 118 162 209 249 291 346
#     4   9  19  37  62  92 121 152 197 252 301 348
#     4  11  22  40  65  90 116 153 204 251 296 354
#     4  10  21  39  64  90 118 157 208 256 296 351
#     4  10  21  39  64  91 119 154 198 248 301 357
#
# _framework density 19.938499
#
# number of rings (size 3 to 8) (size 9 to 14) (size 15 to 20)
#    0.000    1.571    1.429    3.857    0.000    7.429 
#    0.000    6.429    0.000    0.000    0.000    0.000 
#    0.000    0.000    0.000    0.000    0.000    0.000 
#
# Total GULP energy -156530.127114 kJ/mol
# GULP energy per Si atom -5590.361683 kJ/mol
# Density = 1.989312 g / cm^3
# Si number density = 19.938499 Si / 1000 Ang^3
#
#
#
# Elastic Constant Matrix: (Units=GPa)
#
#
# Indices 1 2 3 4 5 6 
#
# 1 156.4742 30.2519 63.3888 0.0000 1.8222 0.0000
# 2 30.2519 13.3158 17.9231 0.0000 2.6924 0.0000
# 3 63.3888 17.9231 111.5216 0.0000 5.4085 0.0000
# 4 0.0000 0.0000 0.0000 -17.8356 0.0000 16.6641
# 5 1.8222 2.6924 5.4085 0.0000 34.6075 0.0000
# 6 0.0000 0.0000 0.0000 16.6641 0.0000 -7.2854
#
#
#
# Elastic Compliance Matrix: (Units=1/GPa)
#
#
# Indices 1 2 3 4 5 6 
#
# 1 0.012315 -0.023980 -0.003230 0.000000 0.001722 0.000000
# 2 -0.023980 0.143418 -0.009008 0.000000 -0.008487 0.000000
# 3 -0.003230 -0.009008 0.012301 0.000000 -0.001052 0.000000
# 4 0.000000 0.000000 0.000000 0.049308 0.000000 0.112784
# 5 0.001722 -0.008487 -0.001052 0.000000 0.029629 0.000000
# 6 0.000000 0.000000 0.000000 0.112784 0.000000 0.120713
#
#
# Mechanical properties :
#
#
# Convention : Reuss Voigt Hill
#
# Bulk Modulus (GPa) = 10.46019 56.04879 33.25449
# Shear Modulus (GPa) = 10.59353 13.21381 11.90367
#
# Velocity S-wave (km/s) = 2.30752 2.57714 2.44605
# Velocity P-wave (km/s) = 3.51527 6.08502 4.96913
#
# Compressibility (1/GPa) = 0.09560052
#
# Stress axis : x y z
#
# Youngs Moduli (GPa) = 81.20032 6.97262 81.29283
#
# Poissons Ratio (x) = 0.16720 0.26254
# Poissons Ratio (y) = 1.94717 0.73225
# Poissons Ratio (z) = 0.26224 0.06281
#
# Static dielectric constant tensor:
#      x y z
#    x 1.704030 0.000000 0.007010 
#    y 0.000000 1.674270 0.000000 
#    z 0.007010 0.000000 1.683280 
# 
# From -- ./inp_files/63644.got.cif
#   From: 2010.05.17/outbox.cif.g08.bks.cpg/sg10_32_cif.got.tgz:63644.got - 2010.06.03 11:33:40.
