data_PCOD9144509
_publ_section_title
;
Structure prediction by ZEFSAII (Michael W. Deem and Ramdas Pophale) SiO2 
 PCOD9144509
Probable space group: P 2/M
;
_chemical_formula_sum "Si O2"
_cell_formula_units_Z 32
_cell_length_a 7.498639
_cell_length_b 7.304206
_cell_length_c 26.194124
_cell_angle_alpha 90.000000
_cell_angle_beta 107.535784
_cell_angle_gamma 90.000000
_cell_volume 1368.022454
_symmetry_space_group_name_H-M "P 2/M"
_symmetry_group_IT_number 10
_symmetry_cell_setting 'monoclinic'
loop_
_space_group_symop_operation_xyz
x,y,z
-x,y,-z
-x,-y,-z
x,-y,z
loop_
_atom_site_type_symbol
_atom_site_label
_atom_site_fract_x
_atom_site_fract_y
_atom_site_fract_z
Si Si1 0.112773 0.723174 0.682948
Si Si2 0.161202 0.781525 0.134726
Si Si3 0.414286 0.222473 0.071085
Si Si4 0.902933 0.717730 0.568295
Si Si5 0.491300 0.275617 0.659488
Si Si6 0.211805 0.223178 0.952037
Si Si7 0.136064 0.282318 0.252342
Si Si8 0.302166 0.282216 0.543804
O O1 0.118645 0.500000 0.681531
O O2 0.313021 0.780980 0.678482
O O3 0.951299 0.783001 0.628970
O O4 0.048330 0.782410 0.733411
O O5 0.344260 0.715813 0.120215
O O6 0.146740 0.747967 0.193254
O O7 0.980972 0.712471 0.088414
O O8 0.160321 0.000000 0.129070
O O9 0.616571 0.281675 0.069197
O O10 0.421162 0.000000 0.071244
O O11 0.265728 0.275979 0.014274
O O12 0.868114 0.500000 0.569766
O O13 0.741474 0.790161 0.516751
O O14 0.102544 0.738362 0.556136
O O15 0.491939 0.500000 0.658122
O O16 0.679808 0.213385 0.702660
O O17 0.453709 0.215300 0.597772
O O18 0.207265 0.000000 0.952077
O O19 0.138292 0.500000 0.259410
O O20 0.335286 0.500000 0.541002
#
# Coordination Sequence:
#
# PCOD9144509 Si02
#       8
#     4   4   4   4   4   4   4   4
#     4   8  14  25  39  54  77 110 142 172 209 252
#     4  10  19  30  46  67  89 113 141 174 208 240
#     4   8  14  26  46  71  93 110 133 169 211 251
#     4   7   9  15  30  51  73  98 128 164 210 257
#     4   8  14  25  39  54  77 110 142 172 209 252
#     4   8  14  26  46  71  93 110 133 169 211 251
#     4  10  20  31  42  59  84 116 151 176 198 240
#     4   7   9  15  30  51  73  98 128 164 210 257
#
# _framework density 23.39143
#
# number of rings (size 3 to 8) (size 9 to 14) (size 15 to 20)
#    0.000    3.750    0.000    3.375    0.000    2.500 
#    0.000    0.625    0.000    5.250    0.000    1.750 
#    0.000    2.000    0.000    6.250    0.000    5.000 
#
# Total GULP energy -178501.135708 kJ/mol
# GULP energy per Si atom -5578.160491 kJ/mol
# Density = 2.333819 g / cm^3
# Si number density = 23.391430 Si / 1000 Ang^3
#
#
#
# Elastic Constant Matrix: (Units=GPa)
#
#
# Indices 1 2 3 4 5 6 
#
# 1 59.1061 0.9283 26.8359 0.0000 -11.9549 0.0000
# 2 0.9283 90.4519 -3.4135 0.0000 0.2946 0.0000
# 3 26.8359 -3.4135 59.5989 0.0000 -37.2735 0.0000
# 4 0.0000 0.0000 0.0000 -21.3872 0.0000 -39.8349
# 5 -11.9549 0.2946 -37.2735 0.0000 33.0772 0.0000
# 6 0.0000 0.0000 0.0000 -39.8349 0.0000 -49.0239
#
#
#
# Elastic Compliance Matrix: (Units=1/GPa)
#
#
# Indices 1 2 3 4 5 6 
#
# 1 0.022468 -0.000843 -0.017211 0.000000 -0.011267 0.000000
# 2 -0.000843 0.011154 0.002594 0.000000 0.002519 0.000000
# 3 -0.017211 0.002594 0.070355 0.000000 0.073037 0.000000
# 4 0.000000 0.000000 0.000000 0.091065 0.000000 -0.073996
# 5 -0.011267 0.002519 0.073037 0.000000 0.108440 0.000000
# 6 0.000000 0.000000 0.000000 -0.073996 0.000000 0.039728
#
#
# Mechanical properties :
#
#
# Convention : Reuss Voigt Hill
#
# Bulk Modulus (GPa) = 13.68842 28.65090 21.16966
# Shear Modulus (GPa) = 12.54758 4.85365 8.70062
#
# Velocity S-wave (km/s) = 2.31858 1.44204 1.93071
# Velocity P-wave (km/s) = 3.61004 3.87913 3.74700
#
# Compressibility (1/GPa) = 0.07305445
#
# Stress axis : x y z
#
# Youngs Moduli (GPa) = 44.50867 89.65446 14.21366
#
# Poissons Ratio (x) = 0.07562 0.24464
# Poissons Ratio (y) = 0.03754 -0.03687
# Poissons Ratio (z) = 0.76605 -0.23255
#
# Static dielectric constant tensor:
#      x y z
#    x 1.886180 0.000000 -0.026780 
#    y 0.000000 1.994470 0.000000 
#    z -0.026780 0.000000 1.877450 
# 
# From -- ./inp_files/82361.got.cif
#   From: 2010.05.17/outbox.cif.g08.bks.cpg/sg10_42_cif.got.tgz:82361.got - 2010.06.03 11:33:40.
