data_PCOD9144013
_publ_section_title
;
Structure prediction by ZEFSAII (Michael W. Deem and Ramdas Pophale) SiO2 
 PCOD9144013
Probable space group: P 2/M
;
_chemical_formula_sum "Si O2"
_cell_formula_units_Z 28
_cell_length_a 15.907530
_cell_length_b 15.992155
_cell_length_c 9.480300
_cell_angle_alpha 90.000000
_cell_angle_beta 140.650298
_cell_angle_gamma 90.000000
_cell_volume 1529.173062
_symmetry_space_group_name_H-M "P 2/M"
_symmetry_group_IT_number 10
_symmetry_cell_setting 'monoclinic'
loop_
_space_group_symop_operation_xyz
x,y,z
-x,y,-z
-x,-y,-z
x,-y,z
loop_
_atom_site_type_symbol
_atom_site_label
_atom_site_fract_x
_atom_site_fract_y
_atom_site_fract_z
Si Si1 0.767196 0.321014 0.508920
Si Si2 0.506296 0.775374 0.157757
Si Si3 0.299063 0.680935 0.063485
Si Si4 0.620885 0.500000 0.947408
Si Si5 0.988437 0.243942 0.324347
Si Si6 0.314373 0.786814 0.355509
Si Si7 0.090139 0.095231 0.976885
Si Si8 0.686900 0.500000 0.365492
O O1 0.880090 0.292358 0.550483
O O2 0.784084 0.268953 0.674732
O O3 0.763068 0.419053 0.518173
O O4 0.617028 0.296016 0.268526
O O5 0.370037 0.734845 0.032360
O O6 0.572064 0.813893 0.385171
O O7 0.500000 0.823335 0.000000
O O8 0.335842 0.584607 0.079125
O O9 0.351469 0.723494 0.277148
O O10 0.142406 0.698823 0.862868
O O11 0.462255 0.500000 0.765907
O O12 0.679138 0.500000 0.183582
O O13 0.000000 0.219085 0.500000
O O14 0.972664 0.160915 0.211903
O O15 0.234866 0.866266 0.196810
O O16 0.097576 0.000000 0.935338
O O17 0.000000 0.095789 0.000000
#
# Coordination Sequence:
#
# PCOD9144013 Si02
#       8
#     4   4   4   2   4   4   4   2
#     4  10  21  35  55  82 114 154 195 239 290 334
#     4  10  18  34  57  80 109 151 199 232 279 339
#     4  11  22  34  56  81 115 156 197 244 285 329
#     4  11  20  34  52  83 113 155 209 243 280 330
#     4  11  22  37  58  87 120 150 191 240 291 347
#     4   9  21  36  57  83 116 143 192 238 285 347
#     4  10  19  37  64  88 114 151 187 232 289 356
#     4  11  20  32  56  79 116 153 202 249 282 329
#
# _framework density 18.310549999999999
#
# number of rings (size 3 to 8) (size 9 to 14) (size 15 to 20)
#    0.857    0.857    2.857    3.000    0.000    1.429 
#    0.000    2.857    0.000    9.857    0.000    0.000 
#    0.000    0.000    0.000    0.000    0.000    0.000 
#
# Total GULP energy -155890.060428 kJ/mol
# GULP energy per Si atom -5567.502158 kJ/mol
# Density = 1.826887 g / cm^3
# Si number density = 18.310550 Si / 1000 Ang^3
#
#
#
# Elastic Constant Matrix: (Units=GPa)
#
#
# Indices 1 2 3 4 5 6 
#
# 1 101.8343 25.6862 16.2446 0.0000 3.9952 0.0000
# 2 25.6862 102.6710 14.1296 0.0000 10.6319 0.0000
# 3 16.2446 14.1296 42.0372 0.0000 -1.4312 0.0000
# 4 0.0000 0.0000 0.0000 11.1170 0.0000 -0.6823
# 5 3.9952 10.6319 -1.4312 0.0000 31.3346 0.0000
# 6 0.0000 0.0000 0.0000 -0.6823 0.0000 18.6140
#
#
#
# Elastic Compliance Matrix: (Units=1/GPa)
#
#
# Indices 1 2 3 4 5 6 
#
# 1 0.010964 -0.002171 -0.003535 0.000000 -0.000823 0.000000
# 2 -0.002171 0.011071 -0.003005 0.000000 -0.003617 0.000000
# 3 -0.003535 -0.003005 0.026256 0.000000 0.002670 0.000000
# 4 0.000000 0.000000 0.000000 0.090155 0.000000 0.003305
# 5 -0.000823 -0.003617 0.002670 0.000000 0.033368 0.000000
# 6 0.000000 0.000000 0.000000 0.003305 0.000000 0.053844
#
#
# Mechanical properties :
#
#
# Convention : Reuss Voigt Hill
#
# Bulk Modulus (GPa) = 32.39674 39.85150 36.12412
# Shear Modulus (GPa) = 19.73402 24.91192 22.32297
#
# Velocity S-wave (km/s) = 3.28646 3.69253 3.49539
# Velocity P-wave (km/s) = 5.66855 6.32386 6.00515
#
# Compressibility (1/GPa) = 0.03086730
#
# Stress axis : x y z
#
# Youngs Moduli (GPa) = 91.20997 90.32453 38.08721
#
# Poissons Ratio (x) = 0.19612 0.13464
# Poissons Ratio (y) = 0.19804 0.11447
# Poissons Ratio (z) = 0.32242 0.27146
#
# Static dielectric constant tensor:
#      x y z
#    x 1.649540 0.000000 -0.015460 
#    y 0.000000 1.581650 0.000000 
#    z -0.015460 0.000000 1.692540 
# 
# From -- ./inp_files/30223.got.cif
#   From: 2010.05.17/outbox.cif.g08.bks.cpg/sg10_16_cif.got.tgz:30223.got - 2010.06.03 11:33:40.
