data_PCOD9144459
_publ_section_title
;
Structure prediction by ZEFSAII (Michael W. Deem and Ramdas Pophale) SiO2 
 PCOD9144459
Probable space group: P 2/M
;
_chemical_formula_sum "Si O2"
_cell_formula_units_Z 32
_cell_length_a 28.389287
_cell_length_b 9.142424
_cell_length_c 21.423678
_cell_angle_alpha 90.000000
_cell_angle_beta 21.165005
_cell_angle_gamma 90.000000
_cell_volume 2007.628314
_symmetry_space_group_name_H-M "P 2/M"
_symmetry_group_IT_number 10
_symmetry_cell_setting 'monoclinic'
loop_
_space_group_symop_operation_xyz
x,y,z
-x,y,-z
-x,-y,-z
x,-y,z
loop_
_atom_site_type_symbol
_atom_site_label
_atom_site_fract_x
_atom_site_fract_y
_atom_site_fract_z
Si Si1 0.418173 0.668142 0.459457
Si Si2 0.308743 0.675114 0.224810
Si Si3 0.008744 0.325982 0.561854
Si Si4 0.794950 0.825672 0.911716
Si Si5 0.474493 0.823740 0.124714
Si Si6 0.502384 0.826247 0.759436
Si Si7 0.723916 0.331370 0.122836
Si Si8 0.346889 0.168626 0.668482
O O1 0.376811 0.500000 0.508568
O O2 0.417693 0.741257 0.392150
O O3 0.570715 0.671163 0.292207
O O4 0.342042 0.755642 0.607082
O O5 0.333429 0.500000 0.194888
O O6 0.155987 0.698694 0.403102
O O7 0.361968 0.750243 0.222015
O O8 0.393177 0.751514 0.065830
O O9 0.981042 0.500000 0.600098
O O10 0.000000 0.283503 0.500000
O O11 0.905040 0.240609 0.731554
O O12 0.807198 0.000000 0.901155
O O13 0.651293 0.792767 0.060877
O O14 0.797640 0.754410 0.977061
O O15 0.460931 0.792868 0.214766
O O16 0.477738 0.000000 0.111880
O O17 0.517795 0.000000 0.729978
O O18 0.764760 0.500000 0.075386
O O19 0.729292 0.254590 0.183366
O O20 0.500000 0.171211 0.500000
O O21 0.306921 0.000000 0.715049
#
# Coordination Sequence:
#
# PCOD9144459 Si02
#       8
#     4   4   4   4   4   4   4   4
#     4   9  16  24  37  58  83 114 149 183 219 262
#     4  10  20  33  49  68  89 114 147 185 224 267
#     4  10  21  35  49  66  90 119 149 183 224 267
#     4  10  19  30  45  65  89 117 151 187 223 266
#     4  10  19  32  50  68  89 116 147 184 225 268
#     4   9  18  30  43  63  90 119 149 183 224 266
#     4   9  16  26  39  56  82 115 150 184 219 262
#     4   9  15  23  36  54  80 114 149 184 220 259
#
# _framework density 15.939206
#
# number of rings (size 3 to 8) (size 9 to 14) (size 15 to 20)
#    0.000    2.500    0.000    3.750    0.000    7.250 
#    0.000    0.000    0.000    0.000    0.000    0.000 
#    0.000    1.000    0.000   10.500    0.000    8.875 
#
# Total GULP energy -178404.251178 kJ/mol
# GULP energy per Si atom -5575.132849 kJ/mol
# Density = 1.590293 g / cm^3
# Si number density = 15.939206 Si / 1000 Ang^3
#
#
#
# Elastic Constant Matrix: (Units=GPa)
#
#
# Indices 1 2 3 4 5 6 
#
# 1 97.2679 65.4275 53.0091 0.0000 41.2706 0.0000
# 2 65.4275 101.5261 55.0419 0.0000 29.1521 0.0000
# 3 53.0091 55.0419 74.5660 0.0000 30.8595 0.0000
# 4 0.0000 0.0000 0.0000 27.4362 0.0000 11.0658
# 5 41.2706 29.1521 30.8595 0.0000 30.4580 0.0000
# 6 0.0000 0.0000 0.0000 11.0658 0.0000 16.6035
#
#
#
# Elastic Compliance Matrix: (Units=1/GPa)
#
#
# Indices 1 2 3 4 5 6 
#
# 1 0.031178 -0.010286 -0.002002 0.000000 -0.030373 0.000000
# 2 -0.010286 0.020458 -0.009392 0.000000 0.003871 0.000000
# 3 -0.002002 -0.009392 0.029144 0.000000 -0.017827 0.000000
# 4 0.000000 0.000000 0.000000 0.049848 0.000000 -0.033222
# 5 -0.030373 0.003871 -0.017827 0.000000 0.088344 0.000000
# 6 0.000000 0.000000 0.000000 -0.033222 0.000000 0.082370
#
#
# Mechanical properties :
#
#
# Convention : Reuss Voigt Hill
#
# Bulk Modulus (GPa) = 26.72219 68.92410 47.82315
# Shear Modulus (GPa) = 13.99882 21.55832 17.77857
#
# Velocity S-wave (km/s) = 2.96677 3.68167 3.34338
# Velocity P-wave (km/s) = 5.34201 7.83637 6.70618
#
# Compressibility (1/GPa) = 0.03742208
#
# Stress axis : x y z
#
# Youngs Moduli (GPa) = 32.07434 48.88039 34.31195
#
# Poissons Ratio (x) = 0.50276 0.06869
# Poissons Ratio (y) = 0.32990 0.32224
# Poissons Ratio (z) = 0.06421 0.45906
#
# Static dielectric constant tensor:
#      x y z
#    x 1.526650 0.000000 0.006040 
#    y 0.000000 1.535110 0.000000 
#    z 0.006040 0.000000 1.506070 
# 
# From -- ./inp_files/56421.got.cif
#   From: 2010.05.17/outbox.cif.g08.bks.cpg/sg10_29_cif.got.tgz:56421.got - 2010.06.03 11:33:40.
