data_PCOD9144302
_publ_section_title
;
Structure prediction by ZEFSAII (Michael W. Deem and Ramdas Pophale) SiO2 
 PCOD9144302
Probable space group: P 2/M
;
_chemical_formula_sum "Si O2"
_cell_formula_units_Z 28
_cell_length_a 29.008544
_cell_length_b 7.377350
_cell_length_c 22.169286
_cell_angle_alpha 90.000000
_cell_angle_beta 163.430612
_cell_angle_gamma 90.000000
_cell_volume 1352.980310
_symmetry_space_group_name_H-M "P 2/M"
_symmetry_group_IT_number 10
_symmetry_cell_setting 'monoclinic'
loop_
_space_group_symop_operation_xyz
x,y,z
-x,y,-z
-x,-y,-z
x,-y,z
loop_
_atom_site_type_symbol
_atom_site_label
_atom_site_fract_x
_atom_site_fract_y
_atom_site_fract_z
Si Si1 0.751818 0.220464 0.309466
Si Si2 0.330252 0.282298 0.258612
Si Si3 0.930027 0.779160 0.347571
Si Si4 0.524116 0.779381 0.128656
Si Si5 0.429064 0.221542 0.136753
Si Si6 0.862476 0.707679 0.872781
Si Si7 0.479397 0.785595 0.616099
O O1 0.666546 0.281267 0.263470
O O2 0.934554 0.276774 0.530184
O O3 0.748706 0.000000 0.305569
O O4 0.640741 0.273781 0.112974
O O5 0.500000 0.215609 0.500000
O O6 0.327010 0.500000 0.260014
O O7 0.184780 0.215294 0.119631
O O8 0.364023 0.242939 0.230734
O O9 0.000000 0.721542 0.500000
O O10 0.923563 0.000000 0.341814
O O11 0.752761 0.719837 0.107111
O O12 0.531293 0.721467 0.206572
O O13 0.523666 0.000000 0.128329
O O14 0.487326 0.283216 0.274945
O O15 0.429354 0.000000 0.139001
O O16 0.915084 0.500000 0.949224
O O17 0.686805 0.707459 0.619786
O O18 0.000000 0.786644 0.000000
O O19 0.451572 0.000000 0.583821
#
# Coordination Sequence:
#
# PCOD9144302 Si02
#       7
#     4   4   4   4   4   4   4
#     4   8  12  17  29  45  59  89 143 192 219 244
#     4   8  15  30  51  70  88 115 152 189 221 260
#     4   9  13  19  31  46  65  99 146 187 215 247
#     4   8  12  19  29  43  65  97 139 182 218 252
#     4   9  16  24  33  50  82 117 146 179 221 264
#     4   9  18  34  55  74  89 112 152 197 229 261
#     4  10  19  29  43  68 101 131 151 177 227 285
#
# _framework density 20.695053999999999
#
# number of rings (size 3 to 8) (size 9 to 14) (size 15 to 20)
#    0.000    3.286    1.429    2.143    0.000    2.857 
#    0.000    1.429    0.000    3.429    0.000    0.000 
#    0.000    2.286    0.000   10.286    0.000   11.857 
#
# Total GULP energy -155931.688826 kJ/mol
# GULP energy per Si atom -5568.988887 kJ/mol
# Density = 2.064795 g / cm^3
# Si number density = 20.695054 Si / 1000 Ang^3
#
#
#
# Elastic Constant Matrix: (Units=GPa)
#
#
# Indices 1 2 3 4 5 6 
#
# 1 190.1736 -1.9427 44.9961 0.0000 8.0684 0.0000
# 2 -1.9427 74.1817 -5.2441 0.0000 1.1824 0.0000
# 3 44.9961 -5.2441 44.3623 0.0000 8.9532 0.0000
# 4 0.0000 0.0000 0.0000 -3.4778 0.0000 -6.8006
# 5 8.0684 1.1824 8.9532 0.0000 36.9907 0.0000
# 6 0.0000 0.0000 0.0000 -6.8006 0.0000 10.4879
#
#
#
# Elastic Compliance Matrix: (Units=1/GPa)
#
#
# Indices 1 2 3 4 5 6 
#
# 1 0.006928 -0.000325 -0.007110 0.000000 0.000220 0.000000
# 2 -0.000325 0.013636 0.002118 0.000000 -0.000878 0.000000
# 3 -0.007110 0.002118 0.031229 0.000000 -0.006076 0.000000
# 4 0.000000 0.000000 0.000000 -0.126785 0.000000 -0.082210
# 5 0.000220 -0.000878 -0.006076 0.000000 0.028484 0.000000
# 6 0.000000 0.000000 0.000000 -0.082210 0.000000 0.042041
#
#
# Mechanical properties :
#
#
# Convention : Reuss Voigt Hill
#
# Bulk Modulus (GPa) = 24.29479 42.70401 33.49940
# Shear Modulus (GPa) = 251.42637 26.86074 139.14356
#
# Velocity S-wave (km/s) = 11.03426 3.60659 8.20860
# Velocity P-wave (km/s) = 13.19487 6.16628 10.29873
#
# Compressibility (1/GPa) = 0.04116108
#
# Stress axis : x y z
#
# Youngs Moduli (GPa) = 144.34428 73.33719 32.02101
#
# Poissons Ratio (x) = 0.02381 0.22766
# Poissons Ratio (y) = 0.04687 -0.06783
# Poissons Ratio (z) = 1.02624 -0.15535
#
# Static dielectric constant tensor:
#      x y z
#    x 1.802940 0.000000 0.026650 
#    y 0.000000 1.801640 0.000000 
#    z 0.026650 0.000000 1.699510 
# 
# From -- ./inp_files/86692.got.cif
#   From: 2010.05.17/outbox.cif.g08.bks.cpg/sg10_44_cif.got.tgz:86692.got - 2010.06.03 11:33:40.
