data_PCOD9144976
_publ_section_title
;
Structure prediction by ZEFSAII (Michael W. Deem and Ramdas Pophale) SiO2 
 PCOD9144976
Probable space group: P 2/M
;
_chemical_formula_sum "Si O2"
_cell_formula_units_Z 32
_cell_length_a 24.356552
_cell_length_b 7.304037
_cell_length_c 9.830353
_cell_angle_alpha 90.000000
_cell_angle_beta 49.952790
_cell_angle_gamma 90.000000
_cell_volume 1338.755700
_symmetry_space_group_name_H-M "P 2/M"
_symmetry_group_IT_number 10
_symmetry_cell_setting 'monoclinic'
loop_
_space_group_symop_operation_xyz
x,y,z
-x,y,-z
-x,-y,-z
x,-y,z
loop_
_atom_site_type_symbol
_atom_site_label
_atom_site_fract_x
_atom_site_fract_y
_atom_site_fract_z
Si Si1 0.233490 0.724736 0.082390
Si Si2 0.103885 0.779190 0.936369
Si Si3 0.921130 0.708045 0.611977
Si Si4 0.642190 0.722996 0.929005
Si Si5 0.377126 0.276923 0.349412
Si Si6 0.510566 0.277288 0.326794
Si Si7 0.048757 0.220636 0.727951
Si Si8 0.265820 0.292230 0.743283
O O1 0.230353 0.500000 0.085083
O O2 0.151234 0.789965 0.212323
O O3 0.279770 0.777277 0.139285
O O4 0.273261 0.787498 0.881916
O O5 0.083147 0.724976 0.816030
O O6 0.180993 0.706333 0.852184
O O7 0.107640 0.000000 0.935036
O O8 0.035260 0.724397 0.136122
O O9 0.927018 0.500000 0.653309
O O10 0.910498 0.705300 0.466540
O O11 0.000000 0.795513 0.500000
O O12 0.640906 0.500000 0.929039
O O13 0.624921 0.785363 0.803610
O O14 0.583163 0.779388 0.134425
O O15 0.377552 0.500000 0.340238
O O16 0.445556 0.223760 0.330561
O O17 0.308359 0.215489 0.547290
O O18 0.500000 0.216509 0.500000
O O19 0.511117 0.500000 0.330527
O O20 0.050363 0.000000 0.720497
O O21 0.293145 0.500000 0.712168
#
# Coordination Sequence:
#
# PCOD9144976 Si02
#       8
#     4   4   4   4   4   4   4   4
#     4   9  18  30  43  64  98 132 161 201 253 297
#     4   9  19  35  52  70  96 127 160 205 254 297
#     4  10  20  32  48  70  99 131 166 206 251 299
#     4   9  16  26  40  60  93 133 164 199 247 291
#     4   9  17  26  40  66  95 125 166 205 240 290
#     4   9  15  24  39  59  91 133 168 197 238 294
#     4   9  19  35  52  70  93 125 165 206 251 299
#     4  10  19  31  49  72  98 128 165 201 242 297
#
# _framework density 23.902792000000002
#
# number of rings (size 3 to 8) (size 9 to 14) (size 15 to 20)
#    0.000    2.750    0.000    2.625    1.750    6.750 
#    0.000    1.875    0.000    0.000    0.000    0.000 
#    0.000    7.500    0.000    0.000    0.000    0.250 
#
# Total GULP energy -178794.305410 kJ/mol
# GULP energy per Si atom -5587.322044 kJ/mol
# Density = 2.384839 g / cm^3
# Si number density = 23.902792 Si / 1000 Ang^3
#
#
#
# Elastic Constant Matrix: (Units=GPa)
#
#
# Indices 1 2 3 4 5 6 
#
# 1 148.2060 2.5486 72.7601 0.0000 9.3289 0.0000
# 2 2.5486 100.0851 4.1812 0.0000 5.4316 0.0000
# 3 72.7601 4.1812 163.2058 0.0000 15.9665 0.0000
# 4 0.0000 0.0000 0.0000 61.7459 0.0000 -59.5477
# 5 9.3289 5.4316 15.9665 0.0000 38.5874 0.0000
# 6 0.0000 0.0000 0.0000 -59.5477 0.0000 114.1229
#
#
#
# Elastic Compliance Matrix: (Units=1/GPa)
#
#
# Indices 1 2 3 4 5 6 
#
# 1 0.008648 -0.000034 -0.003804 0.000000 -0.000512 0.000000
# 2 -0.000034 0.010071 -0.000110 0.000000 -0.001364 0.000000
# 3 -0.003804 -0.000110 0.008061 0.000000 -0.002400 0.000000
# 4 0.000000 0.000000 0.000000 0.032600 0.000000 0.017010
# 5 -0.000512 -0.001364 -0.002400 0.000000 0.027224 0.000000
# 6 0.000000 0.000000 0.000000 0.017010 0.000000 0.017638
#
#
# Mechanical properties :
#
#
# Convention : Reuss Voigt Hill
#
# Bulk Modulus (GPa) = 52.95302 63.38630 58.16966
# Shear Modulus (GPa) = 42.21820 65.02505 53.62163
#
# Velocity S-wave (km/s) = 4.20723 5.22140 4.74151
# Velocity P-wave (km/s) = 6.76777 7.93263 7.37324
#
# Compressibility (1/GPa) = 0.01888467
#
# Stress axis : x y z
#
# Youngs Moduli (GPa) = 115.63474 99.29532 124.05478
#
# Poissons Ratio (x) = 0.00333 0.47196
# Poissons Ratio (y) = 0.00387 0.01360
# Poissons Ratio (z) = 0.43993 0.01088
#
# Static dielectric constant tensor:
#      x y z
#    x 1.882040 0.000000 0.006270 
#    y 0.000000 1.908000 0.000000 
#    z 0.006270 0.000000 1.884940 
# 
# From -- ./inp_files/34831.got.cif
#   From: 2010.05.17/outbox.cif.g08.bks.cpg/sg10_18_cif.got.tgz:34831.got - 2010.06.03 11:33:40.
