data_PCOD9144689
_publ_section_title
;
Structure prediction by ZEFSAII (Michael W. Deem and Ramdas Pophale) SiO2 
 PCOD9144689
Probable space group: P 2/M
;
_chemical_formula_sum "Si O2"
_cell_formula_units_Z 28
_cell_length_a 7.228125
_cell_length_b 34.435937
_cell_length_c 5.304722
_cell_angle_alpha 90.000000
_cell_angle_beta 101.916570
_cell_angle_gamma 90.000000
_cell_volume 1291.928620
_symmetry_space_group_name_H-M "P 2/M"
_symmetry_group_IT_number 10
_symmetry_cell_setting 'monoclinic'
loop_
_space_group_symop_operation_xyz
x,y,z
-x,y,-z
-x,-y,-z
x,-y,z
loop_
_atom_site_type_symbol
_atom_site_label
_atom_site_fract_x
_atom_site_fract_y
_atom_site_fract_z
Si Si1 0.723338 0.753826 0.084694
Si Si2 0.731749 0.455672 0.576399
Si Si3 0.277385 0.209173 0.416588
Si Si4 0.125516 0.670760 0.785810
Si Si5 0.868346 0.958232 0.713057
Si Si6 0.725534 0.414062 0.075100
Si Si7 0.129352 0.125996 0.286029
O O1 0.802100 0.781085 0.329357
O O2 0.749961 0.709558 0.176238
O O3 0.500000 0.761674 0.000000
O O4 0.801770 0.763906 0.830019
O O5 0.500000 0.454848 0.500000
O O6 0.786371 0.500000 0.644202
O O7 0.796984 0.441210 0.321528
O O8 0.794834 0.427236 0.819204
O O9 0.500000 0.217752 0.500000
O O10 0.253209 0.164521 0.333865
O O11 0.234222 0.630235 0.842412
O O12 0.000000 0.670148 0.500000
O O13 0.000000 0.673526 0.000000
O O14 0.768463 0.916211 0.688350
O O15 0.000000 0.958222 0.500000
O O16 0.763923 0.000000 0.684003
O O17 0.000000 0.958231 0.000000
O O18 0.500000 0.419110 0.000000
O O19 0.000000 0.126613 0.500000
O O20 0.000000 0.128227 0.000000
#
# Coordination Sequence:
#
# PCOD9144689 Si02
#       7
#     4   4   4   4   4   4   4
#     4  10  22  40  58  76 101 137 176 209 253 312
#     4   9  17  31  56  87 110 134 177 223 252 285
#     4  10  21  36  54  76 104 134 165 209 261 312
#     4  12  25  39  57  81 109 138 172 217 261 301
#     4   8  14  25  41  64  94 127 165 207 248 291
#     4  10  20  36  58  81 109 143 175 211 256 306
#     4  10  19  30  49  75 101 132 170 212 254 302
#
# _framework density 21.673026
#
# number of rings (size 3 to 8) (size 9 to 14) (size 15 to 20)
#    0.000    2.143    0.000    3.429    0.000    5.143 
#    0.000    5.714    0.000    9.000    0.000    0.000 
#    0.000   14.857    0.000    0.000    0.000    2.286 
#
# Total GULP energy -156348.710094 kJ/mol
# GULP energy per Si atom -5583.882503 kJ/mol
# Density = 2.162370 g / cm^3
# Si number density = 21.673026 Si / 1000 Ang^3
#
#
#
# Elastic Constant Matrix: (Units=GPa)
#
#
# Indices 1 2 3 4 5 6 
#
# 1 23.6458 -21.7871 26.7559 0.0000 1.6299 0.0000
# 2 -21.7871 153.3210 58.8860 0.0000 12.8342 0.0000
# 3 26.7559 58.8860 188.1028 0.0000 -9.6057 0.0000
# 4 0.0000 0.0000 0.0000 -78.9523 0.0000 -114.2038
# 5 1.6299 12.8342 -9.6057 0.0000 26.9193 0.0000
# 6 0.0000 0.0000 0.0000 -114.2038 0.0000 -86.3473
#
#
#
# Elastic Compliance Matrix: (Units=1/GPa)
#
#
# Indices 1 2 3 4 5 6 
#
# 1 0.088069 0.022446 -0.020751 0.000000 -0.023439 0.000000
# 2 0.022446 0.013696 -0.008030 0.000000 -0.010754 0.000000
# 3 -0.020751 -0.008030 0.011246 0.000000 0.009098 0.000000
# 4 0.000000 0.000000 0.000000 0.013871 0.000000 -0.018345
# 5 -0.023439 -0.010754 0.009098 0.000000 0.046941 0.000000
# 6 0.000000 0.000000 0.000000 -0.018345 0.000000 0.012683
#
#
# Mechanical properties :
#
#
# Convention : Reuss Voigt Hill
#
# Bulk Modulus (GPa) = 9.96583 54.75324 32.35954
# Shear Modulus (GPa) = 21.49425 -7.59510 6.94958
#
# Velocity S-wave (km/s) = 3.15262 -1.87404 1.79263
# Velocity P-wave (km/s) = 4.22615 4.54263 4.38724
#
# Compressibility (1/GPa) = 0.10034285
#
# Stress axis : x y z
#
# Youngs Moduli (GPa) = 11.35479 73.01391 88.91979
#
# Poissons Ratio (x) = -1.63890 1.84515
# Poissons Ratio (y) = -0.25487 0.71398
# Poissons Ratio (z) = 0.23562 0.58627
#
# Static dielectric constant tensor:
#      x y z
#    x 1.793470 0.000000 0.000810 
#    y 0.000000 1.822360 0.000000 
#    z 0.000810 0.000000 1.779790 
# 
# From -- ./inp_files/5473.got.cif
#   From: 2010.05.17/outbox.cif.g08.bks.cpg/sg10_3_cif.got.tgz:5473.got - 2010.06.03 11:33:40.
