data_PCOD9144049
_publ_section_title
;
Structure prediction by ZEFSAII (Michael W. Deem and Ramdas Pophale) SiO2 
 PCOD9144049
Probable space group: P 2/M
;
_chemical_formula_sum "Si O2"
_cell_formula_units_Z 25
_cell_length_a 14.895916
_cell_length_b 7.417116
_cell_length_c 15.825662
_cell_angle_alpha 90.000000
_cell_angle_beta 139.396644
_cell_angle_gamma 90.000000
_cell_volume 1137.952640
_symmetry_space_group_name_H-M "P 2/M"
_symmetry_group_IT_number 10
_symmetry_cell_setting 'monoclinic'
loop_
_space_group_symop_operation_xyz
x,y,z
-x,y,-z
-x,-y,-z
x,-y,z
loop_
_atom_site_type_symbol
_atom_site_label
_atom_site_fract_x
_atom_site_fract_y
_atom_site_fract_z
Si Si1 0.065518 0.220129 0.458190
Si Si2 0.623042 0.789248 0.327568
Si Si3 0.885656 0.706253 0.800262
Si Si4 0.608943 0.716633 0.508394
Si Si5 0.430421 0.779464 0.038854
Si Si6 0.886364 0.780938 0.169559
Si Si7 0.000000 0.000000 0.000000
O O1 0.222093 0.286172 0.563848
O O2 0.000000 0.273889 0.500000
O O3 0.972127 0.277083 0.313029
O O4 0.066488 0.000000 0.456395
O O5 0.574267 0.776276 0.389091
O O6 0.520887 0.716768 0.183291
O O7 0.637286 0.000000 0.316597
O O8 0.857983 0.500000 0.806159
O O9 0.763189 0.765895 0.648887
O O10 0.029215 0.716675 0.851353
O O11 0.900862 0.842387 0.887665
O O12 0.500000 0.780991 0.500000
O O13 0.604303 0.500000 0.503616
O O14 0.428089 0.000000 0.036678
O O15 0.500000 0.724626 0.000000
O O16 0.271761 0.722847 0.935511
O O17 0.887703 0.000000 0.166050
#
# Coordination Sequence:
#
# PCOD9144049 Si02
#       7
#     4   4   4   4   4   4   1
#     4   9  16  27  52  85 116 158 208 255 309 375
#     4  10  19  33  57  88 121 158 208 259 315 375
#     4  11  24  44  68  95 129 169 213 271 333 391
#     4  10  23  43  64  88 123 166 213 268 329 390
#     4   9  18  32  54  91 132 169 216 268 319 385
#     4  10  18  34  59  86 128 170 208 263 322 379
#     4  12  26  44  70  94 132 164 220 272 320 406
#
# _framework density 21.969280000000001
#
# number of rings (size 3 to 8) (size 9 to 14) (size 15 to 20)
#    0.000    2.080    2.400    1.200    1.120    5.440 
#    2.880    2.400    0.000    5.760    0.000    0.000 
#    0.000    0.000    0.000    0.000    0.000    0.000 
#
# Total GULP energy -139459.352889 kJ/mol
# GULP energy per Si atom -5578.374116 kJ/mol
# Density = 2.191928 g / cm^3
# Si number density = 21.969280 Si / 1000 Ang^3
#
#
#
# Elastic Constant Matrix: (Units=GPa)
#
#
# Indices 1 2 3 4 5 6 
#
# 1 115.2811 -5.2253 58.2143 0.0000 19.5783 0.0000
# 2 -5.2253 91.3492 23.8667 0.0000 -2.1247 0.0000
# 3 58.2143 23.8667 181.9403 0.0000 10.4935 0.0000
# 4 0.0000 0.0000 0.0000 12.9394 0.0000 -26.1477
# 5 19.5783 -2.1247 10.4935 0.0000 34.5183 0.0000
# 6 0.0000 0.0000 0.0000 -26.1477 0.0000 34.2009
#
#
#
# Elastic Compliance Matrix: (Units=1/GPa)
#
#
# Indices 1 2 3 4 5 6 
#
# 1 0.011432 0.001456 -0.003542 0.000000 -0.005318 0.000000
# 2 0.001456 0.011568 -0.002012 0.000000 0.000498 0.000000
# 3 -0.003542 -0.002012 0.006906 0.000000 -0.000214 0.000000
# 4 0.000000 0.000000 0.000000 -0.141817 0.000000 -0.108423
# 5 -0.005318 0.000498 -0.000214 0.000000 0.032082 0.000000
# 6 0.000000 0.000000 0.000000 -0.108423 0.000000 -0.053654
#
#
# Mechanical properties :
#
#
# Convention : Reuss Voigt Hill
#
# Bulk Modulus (GPa) = 46.06382 60.25355 53.15869
# Shear Modulus (GPa) = -42.35490 37.11272 -2.62109
#
# Velocity S-wave (km/s) = -4.39557 4.11457 -1.09346
# Velocity P-wave (km/s) = 2.17909 7.07522 4.75974
#
# Compressibility (1/GPa) = 0.02170901
#
# Stress axis : x y z
#
# Youngs Moduli (GPa) = 87.47170 86.44908 144.80280
#
# Poissons Ratio (x) = -0.12585 0.51292
# Poissons Ratio (y) = -0.12733 0.29133
# Poissons Ratio (z) = 0.30984 0.17393
#
# Static dielectric constant tensor:
#      x y z
#    x 1.778520 0.000000 0.002230 
#    y 0.000000 1.802020 0.000000 
#    z 0.002230 0.000000 1.777350 
# 
# From -- ./inp_files/66735.got.cif
#   From: 2010.05.17/outbox.cif.g08.bks.cpg/sg10_34_cif.got.tgz:66735.got - 2010.06.03 11:33:40.
