data_PCOD9144403
_publ_section_title
;
Structure prediction by ZEFSAII (Michael W. Deem and Ramdas Pophale) SiO2 
 PCOD9144403
Probable space group: P 2/M
;
_chemical_formula_sum "Si O2"
_cell_formula_units_Z 30
_cell_length_a 12.262475
_cell_length_b 16.911180
_cell_length_c 11.211587
_cell_angle_alpha 90.000000
_cell_angle_beta 138.802951
_cell_angle_gamma 90.000000
_cell_volume 1531.349427
_symmetry_space_group_name_H-M "P 2/M"
_symmetry_group_IT_number 10
_symmetry_cell_setting 'monoclinic'
loop_
_space_group_symop_operation_xyz
x,y,z
-x,y,-z
-x,-y,-z
x,-y,z
loop_
_atom_site_type_symbol
_atom_site_label
_atom_site_fract_x
_atom_site_fract_y
_atom_site_fract_z
Si Si1 0.905031 0.588164 0.297016
Si Si2 0.314176 0.249950 0.395228
Si Si3 0.242847 0.092265 0.020052
Si Si4 0.822157 0.092631 0.313609
Si Si5 0.000000 0.175704 0.000000
Si Si6 0.621422 0.645790 0.190673
Si Si7 0.763949 0.409821 0.556300
Si Si8 0.573346 0.810658 0.266952
O O1 0.834589 0.500000 0.212158
O O2 0.777057 0.655683 0.229058
O O3 0.000000 0.578737 0.500000
O O4 0.041968 0.607130 0.311339
O O5 0.500000 0.232759 0.500000
O O6 0.154461 0.223454 0.187051
O O7 0.302460 0.343701 0.410231
O O8 0.313809 0.208658 0.525033
O O9 0.196210 0.098666 0.842870
O O10 0.279108 0.000000 0.076584
O O11 0.092276 0.122965 0.976648
O O12 0.405573 0.146480 0.169207
O O13 0.673578 0.135133 0.258430
O O14 0.000000 0.125405 0.500000
O O15 0.816627 0.000000 0.342049
O O16 0.675565 0.600001 0.354160
O O17 0.546329 0.727356 0.177293
O O18 0.500000 0.602462 0.000000
O O19 0.746399 0.500000 0.581802
#
# Coordination Sequence:
#
# PCOD9144403 Si02
#       8
#     4   4   4   4   2   4   4   4
#     4   8  15  30  49  75 113 152 191 239 298 367
#     4  11  24  45  66  91 125 167 218 277 328 385
#     4  11  23  41  66  95 130 173 221 267 323 390
#     4  10  21  37  59  91 129 164 204 258 320 388
#     4  12  25  46  71  90 128 174 222 278 323 386
#     4  10  19  29  53  88 127 163 202 250 314 383
#     4   9  20  38  60  85 121 168 213 262 320 381
#     4  11  22  39  61  91 128 167 215 267 327 389
#
# _framework density 19.590565000000002
#
# number of rings (size 3 to 8) (size 9 to 14) (size 15 to 20)
#    0.000    1.867    1.333    3.800    0.000    7.200 
#    0.000    3.000    0.000    0.000    0.000    0.000 
#    0.000    0.000    0.000    0.000    0.000    0.000 
#
# Total GULP energy -167166.324673 kJ/mol
# GULP energy per Si atom -5572.210822 kJ/mol
# Density = 1.954598 g / cm^3
# Si number density = 19.590565 Si / 1000 Ang^3
#
#
#
# Elastic Constant Matrix: (Units=GPa)
#
#
# Indices 1 2 3 4 5 6 
#
# 1 101.0752 45.2037 18.9864 0.0000 14.6326 0.0000
# 2 45.2037 85.1089 31.4530 0.0000 8.0764 0.0000
# 3 18.9864 31.4530 87.9003 0.0000 8.7824 0.0000
# 4 0.0000 0.0000 0.0000 -17.8620 0.0000 10.9889
# 5 14.6326 8.0764 8.7824 0.0000 26.6617 0.0000
# 6 0.0000 0.0000 0.0000 10.9889 0.0000 28.3352
#
#
#
# Elastic Compliance Matrix: (Units=1/GPa)
#
#
# Indices 1 2 3 4 5 6 
#
# 1 0.013711 -0.006765 0.000006 0.000000 -0.005478 0.000000
# 2 -0.006765 0.017053 -0.004649 0.000000 0.000078 0.000000
# 3 0.000006 -0.004649 0.013337 0.000000 -0.002989 0.000000
# 4 0.000000 0.000000 0.000000 -0.045200 0.000000 0.017530
# 5 -0.005478 0.000078 -0.002989 0.000000 0.041474 0.000000
# 6 0.000000 0.000000 0.000000 0.017530 0.000000 0.028494
#
#
# Mechanical properties :
#
#
# Convention : Reuss Voigt Hill
#
# Bulk Modulus (GPa) = 46.97701 51.70784 49.34242
# Shear Modulus (GPa) = 50.61850 19.32306 34.97078
#
# Velocity S-wave (km/s) = 5.08864 3.14402 4.22961
# Velocity P-wave (km/s) = 7.65227 6.29535 7.00673
#
# Compressibility (1/GPa) = 0.02128701
#
# Stress axis : x y z
#
# Youngs Moduli (GPa) = 72.93519 58.64017 74.97841
#
# Poissons Ratio (x) = 0.39668 -0.00048
# Poissons Ratio (y) = 0.49339 0.34855
# Poissons Ratio (z) = -0.00046 0.27260
#
# Static dielectric constant tensor:
#      x y z
#    x 1.702380 0.000000 0.046410 
#    y 0.000000 1.698030 0.000000 
#    z 0.046410 0.000000 1.739600 
# 
# From -- ./inp_files/47913.got.cif
#   From: 2010.05.17/outbox.cif.g08.bks.cpg/sg10_24_cif.got.tgz:47913.got - 2010.06.03 11:33:40.
