data_PCOD9144611
_publ_section_title
;
Structure prediction by ZEFSAII (Michael W. Deem and Ramdas Pophale) SiO2 
 PCOD9144611
Probable space group: P 2/M
;
_chemical_formula_sum "Si O2"
_cell_formula_units_Z 32
_cell_length_a 11.404260
_cell_length_b 7.438575
_cell_length_c 18.045333
_cell_angle_alpha 90.000000
_cell_angle_beta 68.097964
_cell_angle_gamma 90.000000
_cell_volume 1420.322251
_symmetry_space_group_name_H-M "P 2/M"
_symmetry_group_IT_number 10
_symmetry_cell_setting 'monoclinic'
loop_
_space_group_symop_operation_xyz
x,y,z
-x,y,-z
-x,-y,-z
x,-y,z
loop_
_atom_site_type_symbol
_atom_site_label
_atom_site_fract_x
_atom_site_fract_y
_atom_site_fract_z
Si Si1 0.138152 0.710332 0.489387
Si Si2 0.406823 0.719653 0.956729
Si Si3 0.630377 0.702894 0.657653
Si Si4 0.919699 0.215215 0.334690
Si Si5 0.600302 0.278889 0.205785
Si Si6 0.793601 0.785458 0.754374
Si Si7 0.155407 0.712881 0.087931
Si Si8 0.123434 0.707619 0.823446
O O1 0.134171 0.500000 0.468543
O O2 0.260558 0.788357 0.418922
O O3 0.150135 0.724805 0.574868
O O4 0.000000 0.787569 0.500000
O O5 0.406809 0.500000 0.958239
O O6 0.445207 0.774594 0.865375
O O7 0.500000 0.779397 0.000000
O O8 0.263817 0.780655 0.008015
O O9 0.609662 0.500000 0.634185
O O10 0.493497 0.784170 0.707211
O O11 0.692822 0.697350 0.724607
O O12 0.874605 0.287625 0.266474
O O13 0.066904 0.268912 0.306721
O O14 0.915207 0.000000 0.331400
O O15 0.599646 0.500000 0.209015
O O16 0.744198 0.215991 0.180747
O O17 0.791520 0.736654 0.841180
O O18 0.781549 0.000000 0.750671
O O19 0.144161 0.500000 0.077402
O O20 0.012384 0.787328 0.120358
O O21 0.122447 0.500000 0.848455
#
# Coordination Sequence:
#
# PCOD9144611 Si02
#       8
#     4   4   4   4   4   4   4   4
#     4  10  19  31  50  78 105 128 161 207 254 301
#     4   9  16  27  47  77 107 130 160 204 253 300
#     4  10  19  32  51  73 100 132 165 202 253 305
#     4  10  20  33  51  74 102 134 166 205 252 300
#     4   9  18  32  51  75 101 132 169 209 249 294
#     4  10  19  30  47  73 103 132 164 204 249 300
#     4   9  17  29  49  74  99 132 168 205 248 290
#     4   9  18  33  52  73  99 132 174 213 243 285
#
# _framework density 22.530097999999999
#
# number of rings (size 3 to 8) (size 9 to 14) (size 15 to 20)
#    0.000    2.500    1.250    1.500    0.000    4.250 
#    0.000    3.750    0.000    7.875    0.000    3.500 
#    0.000    0.000    0.000    0.000    0.000    0.000 
#
# Total GULP energy -178634.923229 kJ/mol
# GULP energy per Si atom -5582.341351 kJ/mol
# Density = 2.247882 g / cm^3
# Si number density = 22.530098 Si / 1000 Ang^3
#
#
#
# Elastic Constant Matrix: (Units=GPa)
#
#
# Indices 1 2 3 4 5 6 
#
# 1 69.8211 3.5846 25.3551 0.0000 -14.2599 0.0000
# 2 3.5846 75.7938 -0.2455 0.0000 -7.6608 0.0000
# 3 25.3551 -0.2455 138.7386 0.0000 -38.6655 0.0000
# 4 0.0000 0.0000 0.0000 49.0435 0.0000 38.0331
# 5 -14.2599 -7.6608 -38.6655 0.0000 25.0132 0.0000
# 6 0.0000 0.0000 0.0000 38.0331 0.0000 15.7368
#
#
#
# Elastic Compliance Matrix: (Units=1/GPa)
#
#
# Indices 1 2 3 4 5 6 
#
# 1 0.016247 0.000063 -0.000672 0.000000 0.008243 0.000000
# 2 0.000063 0.013967 0.002135 0.000000 0.007614 0.000000
# 3 -0.000672 0.002135 0.013018 0.000000 0.020394 0.000000
# 4 0.000000 0.000000 0.000000 -0.023323 0.000000 0.056368
# 5 0.008243 0.007614 0.020394 0.000000 0.078536 0.000000
# 6 0.000000 0.000000 0.000000 0.056368 0.000000 -0.072687
#
#
# Mechanical properties :
#
#
# Convention : Reuss Voigt Hill
#
# Bulk Modulus (GPa) = 21.60571 37.97130 29.78851
# Shear Modulus (GPa) = 131.11826 35.00267 83.06046
#
# Velocity S-wave (km/s) = 7.63697 3.94584 6.07836
# Velocity P-wave (km/s) = 9.34745 6.13594 7.90647
#
# Compressibility (1/GPa) = 0.04628406
#
# Stress axis : x y z
#
# Youngs Moduli (GPa) = 61.55163 71.59605 76.81574
#
# Poissons Ratio (x) = -0.00448 0.05161
# Poissons Ratio (y) = -0.00385 -0.16402
# Poissons Ratio (z) = 0.04135 -0.15288
#
# Static dielectric constant tensor:
#      x y z
#    x 1.833830 0.000000 -0.040200 
#    y 0.000000 1.851170 0.000000 
#    z -0.040200 0.000000 1.831590 
# 
# From -- ./inp_files/83352.got.cif
#   From: 2010.05.17/outbox.cif.g08.bks.cpg/sg10_42_cif.got.tgz:83352.got - 2010.06.03 11:33:40.
