data_PCOD9144898
_publ_section_title
;
Structure prediction by ZEFSAII (Michael W. Deem and Ramdas Pophale) SiO2 
 PCOD9144898
Probable space group: P 2/M
;
_chemical_formula_sum "Si O2"
_cell_formula_units_Z 32
_cell_length_a 29.151597
_cell_length_b 9.226728
_cell_length_c 21.354195
_cell_angle_alpha 90.000000
_cell_angle_beta 20.283645
_cell_angle_gamma 90.000000
_cell_volume 1991.163517
_symmetry_space_group_name_H-M "P 2/M"
_symmetry_group_IT_number 10
_symmetry_cell_setting 'monoclinic'
loop_
_space_group_symop_operation_xyz
x,y,z
-x,y,-z
-x,-y,-z
x,-y,z
loop_
_atom_site_type_symbol
_atom_site_label
_atom_site_fract_x
_atom_site_fract_y
_atom_site_fract_z
Si Si1 0.610708 0.328215 0.410753
Si Si2 0.384584 0.826840 0.464473
Si Si3 0.868943 0.673787 0.866351
Si Si4 0.782916 0.169233 0.786637
Si Si5 0.037642 0.168393 0.552886
Si Si6 0.114306 0.326107 0.010655
Si Si7 0.620838 0.326483 0.094854
Si Si8 0.923813 0.173656 0.161349
O O1 0.500000 0.303426 0.500000
O O2 0.607296 0.500000 0.431309
O O3 0.587593 0.234875 0.501967
O O4 0.752643 0.293833 0.198680
O O5 0.485835 0.749483 0.288070
O O6 0.231355 0.792924 0.645642
O O7 0.401685 0.000000 0.440850
O O8 0.878329 0.500000 0.852263
O O9 0.867724 0.719729 0.940208
O O10 0.991685 0.741136 0.671323
O O11 0.733538 0.711817 0.002740
O O12 0.837205 0.217076 0.649153
O O13 0.911579 0.174141 0.667308
O O14 0.742754 0.000000 0.834464
O O15 0.674851 0.265925 0.959715
O O16 0.057541 0.000000 0.543950
O O17 0.097079 0.500000 0.032054
O O18 0.993542 0.250246 0.130299
O O19 0.608248 0.500000 0.109762
O O20 0.938370 0.000000 0.148393
O O21 0.000000 0.218387 0.000000
#
# Coordination Sequence:
#
# PCOD9144898 Si02
#       8
#     4   4   4   4   4   4   4   4
#     4  10  20  34  51  71  98 128 157 192 236 287
#     4  11  22  35  51  70  94 125 161 202 247 288
#     4   9  18  31  46  70 103 132 159 197 239 284
#     4   8  14  26  43  66  98 131 165 198 231 276
#     4   8  14  25  43  67  96 132 166 196 230 277
#     4  10  20  33  51  72  94 125 163 199 240 286
#     4  10  19  31  48  71 102 133 162 197 239 287
#     4  10  21  38  54  69  92 120 158 210 252 285
#
# _framework density 16.071006000000001
#
# number of rings (size 3 to 8) (size 9 to 14) (size 15 to 20)
#    0.000    2.500    1.250    2.250    0.000    5.000 
#    0.000    3.750    0.000    0.000    0.000    0.875 
#    0.000    7.000    0.000    0.000    0.000    0.000 
#
# Total GULP energy -178377.057828 kJ/mol
# GULP energy per Si atom -5574.283057 kJ/mol
# Density = 1.603443 g / cm^3
# Si number density = 16.071006 Si / 1000 Ang^3
#
#
#
# Elastic Constant Matrix: (Units=GPa)
#
#
# Indices 1 2 3 4 5 6 
#
# 1 18.0650 15.3730 32.3945 0.0000 -3.6176 0.0000
# 2 15.3730 34.2596 53.4745 0.0000 0.0755 0.0000
# 3 32.3945 53.4745 130.4482 0.0000 11.0895 0.0000
# 4 0.0000 0.0000 0.0000 20.4006 0.0000 13.1831
# 5 -3.6176 0.0755 11.0895 0.0000 20.4216 0.0000
# 6 0.0000 0.0000 0.0000 13.1831 0.0000 17.9104
#
#
#
# Elastic Compliance Matrix: (Units=1/GPa)
#
#
# Indices 1 2 3 4 5 6 
#
# 1 0.126565 -0.007063 -0.031917 0.000000 0.039778 0.000000
# 2 -0.007063 0.088789 -0.036179 0.000000 0.018067 0.000000
# 3 -0.031917 -0.036179 0.032387 0.000000 -0.023107 0.000000
# 4 0.000000 0.000000 0.000000 0.093483 0.000000 -0.068809
# 5 0.039778 0.018067 -0.023107 0.000000 0.068495 0.000000
# 6 0.000000 0.000000 0.000000 -0.068809 0.000000 0.106480
#
#
# Mechanical properties :
#
#
# Convention : Reuss Voigt Hill
#
# Bulk Modulus (GPa) = 10.26439 42.80633 26.53536
# Shear Modulus (GPa) = 7.15317 17.18191 12.16754
#
# Velocity S-wave (km/s) = 2.11202 3.27329 2.75455
# Velocity P-wave (km/s) = 3.51401 6.40152 5.16371
#
# Compressibility (1/GPa) = 0.09742419
#
# Stress axis : x y z
#
# Youngs Moduli (GPa) = 7.90106 11.26269 30.87662
#
# Poissons Ratio (x) = 0.07955 0.98548
# Poissons Ratio (y) = 0.05580 1.11709
# Poissons Ratio (z) = 0.25217 0.40747
#
# Static dielectric constant tensor:
#      x y z
#    x 1.517610 0.000000 0.011080 
#    y 0.000000 1.535150 0.000000 
#    z 0.011080 0.000000 1.543410 
# 
# From -- ./inp_files/52785.got.cif
#   From: 2010.05.17/outbox.cif.g08.bks.cpg/sg10_27_cif.got.tgz:52785.got - 2010.06.03 11:33:40.
