data_PCOD9144435
_publ_section_title
;
Structure prediction by ZEFSAII (Michael W. Deem and Ramdas Pophale) SiO2 
 PCOD9144435
Probable space group: P 2/M
;
_chemical_formula_sum "Si O2"
_cell_formula_units_Z 32
_cell_length_a 15.316757
_cell_length_b 9.134871
_cell_length_c 14.390492
_cell_angle_alpha 90.000000
_cell_angle_beta 92.663382
_cell_angle_gamma 90.000000
_cell_volume 2011.293708
_symmetry_space_group_name_H-M "P 2/M"
_symmetry_group_IT_number 10
_symmetry_cell_setting 'monoclinic'
loop_
_space_group_symop_operation_xyz
x,y,z
-x,y,-z
-x,-y,-z
x,-y,z
loop_
_atom_site_type_symbol
_atom_site_label
_atom_site_fract_x
_atom_site_fract_y
_atom_site_fract_z
Si Si1 0.524054 0.670238 0.179574
Si Si2 0.204231 0.166683 0.814456
Si Si3 0.099858 0.176972 0.981282
Si Si4 0.602299 0.679157 0.510894
Si Si5 0.253294 0.675570 0.102763
Si Si6 0.370828 0.167391 0.963533
Si Si7 0.310173 0.669403 0.672917
Si Si8 0.647481 0.677676 0.717659
O O1 0.511011 0.500000 0.151753
O O2 0.550484 0.765079 0.092072
O O3 0.605221 0.674040 0.255373
O O4 0.440475 0.723084 0.232716
O O5 0.128210 0.224694 0.878541
O O6 0.288945 0.165870 0.886881
O O7 0.232786 0.252194 0.724440
O O8 0.183910 0.000000 0.788318
O O9 0.111897 0.000000 0.985684
O O10 0.167312 0.250999 0.055772
O O11 0.000000 0.210553 0.000000
O O12 0.500000 0.722072 0.500000
O O13 0.602298 0.500000 0.507891
O O14 0.657491 0.729855 0.424493
O O15 0.642777 0.727283 0.611180
O O16 0.248594 0.500000 0.094555
O O17 0.272979 0.717108 0.210556
O O18 0.335124 0.733306 0.045327
O O19 0.386462 0.000000 0.993250
O O20 0.286440 0.500000 0.659088
O O21 0.644774 0.500000 0.714368
#
# Coordination Sequence:
#
# PCOD9144435 Si02
#       8
#     4   4   4   4   4   4   4   4
#     4   9  15  25  41  61  83 113 154 194 227 256
#     4   8  15  27  43  63  88 113 136 172 222 269
#     4   9  18  34  54  72  90 115 144 174 217 275
#     4   9  14  24  42  64  87 116 158 199 226 254
#     4  10  19  30  44  65  92 118 144 180 224 268
#     4   9  17  29  42  57  83 120 156 186 219 261
#     4   9  15  23  42  66  86 113 152 193 221 249
#     4   9  17  27  40  61  90 120 151 189 231 267
#
# _framework density 15.910156000000001
#
# number of rings (size 3 to 8) (size 9 to 14) (size 15 to 20)
#    0.000    3.000    1.250    1.500    0.000    3.750 
#    0.000    3.750    0.000    2.625    0.000    0.875 
#    0.000    7.000    0.000    0.000    0.000    0.000 
#
# Total GULP energy -178215.575640 kJ/mol
# GULP energy per Si atom -5569.236739 kJ/mol
# Density = 1.587394 g / cm^3
# Si number density = 15.910156 Si / 1000 Ang^3
#
#
#
# Elastic Constant Matrix: (Units=GPa)
#
#
# Indices 1 2 3 4 5 6 
#
# 1 78.9433 26.0229 57.6632 0.0000 -21.3004 0.0000
# 2 26.0229 31.6026 35.7207 0.0000 -5.8113 0.0000
# 3 57.6632 35.7207 134.3688 0.0000 -17.1280 0.0000
# 4 0.0000 0.0000 0.0000 4.1643 0.0000 -5.4552
# 5 -21.3004 -5.8113 -17.1280 0.0000 21.1498 0.0000
# 6 0.0000 0.0000 0.0000 -5.4552 0.0000 15.9322
#
#
#
# Elastic Compliance Matrix: (Units=1/GPa)
#
#
# Indices 1 2 3 4 5 6 
#
# 1 0.025250 -0.011199 -0.005586 0.000000 0.017829 0.000000
# 2 -0.011199 0.050374 -0.009209 0.000000 -0.004896 0.000000
# 3 -0.005586 -0.009209 0.012543 0.000000 0.002002 0.000000
# 4 0.000000 0.000000 0.000000 0.435453 0.000000 0.149099
# 5 0.017829 -0.004896 0.002002 0.000000 0.065513 0.000000
# 6 0.000000 0.000000 0.000000 0.149099 0.000000 0.113818
#
#
# Mechanical properties :
#
#
# Convention : Reuss Voigt Hill
#
# Bulk Modulus (GPa) = 27.64181 53.74759 40.69470
# Shear Modulus (GPa) = 6.51892 16.61647 11.56770
#
# Velocity S-wave (km/s) = 2.02638 3.23521 2.69934
# Velocity P-wave (km/s) = 4.78397 6.91453 5.94547
#
# Compressibility (1/GPa) = 0.03617708
#
# Stress axis : x y z
#
# Youngs Moduli (GPa) = 39.60451 19.85144 79.72777
#
# Poissons Ratio (x) = 0.22233 0.44534
# Poissons Ratio (y) = 0.44355 0.73425
# Poissons Ratio (z) = 0.22122 0.18282
#
# Static dielectric constant tensor:
#      x y z
#    x 1.532170 0.000000 0.000570 
#    y 0.000000 1.540310 0.000000 
#    z 0.000570 0.000000 1.552310 
# 
# From -- ./inp_files/66093.got.cif
#   From: 2010.05.17/outbox.cif.g08.bks.cpg/sg10_34_cif.got.tgz:66093.got - 2010.06.03 11:33:40.
