data_PCOD9144502
_publ_section_title
;
Structure prediction by ZEFSAII (Michael W. Deem and Ramdas Pophale) SiO2 
 PCOD9144502
Probable space group: P 2/M
;
_chemical_formula_sum "Si O2"
_cell_formula_units_Z 32
_cell_length_a 14.227353
_cell_length_b 8.764734
_cell_length_c 17.021436
_cell_angle_alpha 90.000000
_cell_angle_beta 93.802663
_cell_angle_gamma 90.000000
_cell_volume 2117.882399
_symmetry_space_group_name_H-M "P 2/M"
_symmetry_group_IT_number 10
_symmetry_cell_setting 'monoclinic'
loop_
_space_group_symop_operation_xyz
x,y,z
-x,y,-z
-x,-y,-z
x,-y,z
loop_
_atom_site_type_symbol
_atom_site_label
_atom_site_fract_x
_atom_site_fract_y
_atom_site_fract_z
Si Si1 0.191424 0.818453 0.725512
Si Si2 0.539488 0.675564 0.912674
Si Si3 0.990586 0.684046 0.767135
Si Si4 0.925137 0.816280 0.928162
Si Si5 0.660961 0.316374 0.146799
Si Si6 0.080130 0.679541 0.397470
Si Si7 0.139732 0.319784 0.563526
Si Si8 0.279121 0.818578 0.017050
O O1 0.277684 0.752322 0.780113
O O2 0.194752 0.767359 0.634606
O O3 0.094662 0.750108 0.756358
O O4 0.188306 0.000000 0.731417
O O5 0.561432 0.500000 0.893425
O O6 0.449467 0.730214 0.858076
O O7 0.634318 0.772183 0.921769
O O8 0.500000 0.675218 0.000000
O O9 0.996348 0.500000 0.763712
O O10 0.953107 0.737925 0.848533
O O11 0.922600 0.738723 0.691652
O O12 0.820860 0.774259 0.951662
O O13 0.928383 0.000000 0.917911
O O14 0.000000 0.776282 0.000000
O O15 0.663597 0.500000 0.148484
O O16 0.703870 0.260880 0.066071
O O17 0.103726 0.500000 0.395361
O O18 0.140907 0.741523 0.473934
O O19 0.970414 0.689277 0.417224
O O20 0.164301 0.500000 0.566175
O O21 0.279433 0.000000 0.004422
#
# Coordination Sequence:
#
# PCOD9144502 Si02
#       8
#     4   4   4   4   4   4   4   4
#     4  11  20  28  40  62  91 116 140 174 214 255
#     4   8  16  30  46  63  83 107 138 177 214 252
#     4  10  19  31  46  62  81 112 152 184 211 247
#     4  10  21  34  44  59  87 118 147 180 214 245
#     4  10  19  31  46  63  84 112 145 177 212 254
#     4   7  12  24  42  60  78 104 140 178 209 241
#     4   8  13  25  42  58  80 110 140 169 205 250
#     4  10  19  30  46  65  86 113 143 178 218 254
#
# _framework density 15.109432
#
# number of rings (size 3 to 8) (size 9 to 14) (size 15 to 20)
#    0.000    2.750    0.000    5.250    0.000    5.000 
#    0.000    5.625    0.000    0.000    0.000    0.000 
#    0.000    1.000    0.000   11.250    0.000    5.875 
#
# Total GULP energy -178168.497224 kJ/mol
# GULP energy per Si atom -5567.765538 kJ/mol
# Density = 1.507504 g / cm^3
# Si number density = 15.109432 Si / 1000 Ang^3
#
#
#
# Elastic Constant Matrix: (Units=GPa)
#
#
# Indices 1 2 3 4 5 6 
#
# 1 83.8415 33.1078 56.4295 0.0000 20.9783 0.0000
# 2 33.1078 47.9469 39.6827 0.0000 9.6508 0.0000
# 3 56.4295 39.6827 132.5754 0.0000 24.6715 0.0000
# 4 0.0000 0.0000 0.0000 9.8679 0.0000 2.1603
# 5 20.9783 9.6508 24.6715 0.0000 21.6017 0.0000
# 6 0.0000 0.0000 0.0000 2.1603 0.0000 17.6808
#
#
#
# Elastic Compliance Matrix: (Units=1/GPa)
#
#
# Indices 1 2 3 4 5 6 
#
# 1 0.021174 -0.008774 -0.004177 0.000000 -0.011873 0.000000
# 2 -0.008774 0.031595 -0.005945 0.000000 0.001195 0.000000
# 3 -0.004177 -0.005945 0.012510 0.000000 -0.007576 0.000000
# 4 0.000000 0.000000 0.000000 0.104124 0.000000 -0.012722
# 5 -0.011873 0.001195 -0.007576 0.000000 0.065941 0.000000
# 6 0.000000 0.000000 0.000000 -0.012722 0.000000 0.058113
#
#
# Mechanical properties :
#
#
# Convention : Reuss Voigt Hill
#
# Bulk Modulus (GPa) = 36.38097 58.08932 47.23515
# Shear Modulus (GPa) = 14.68819 18.83967 16.76393
#
# Velocity S-wave (km/s) = 3.12127 3.53495 3.33453
# Velocity P-wave (km/s) = 6.09265 7.42902 6.79377
#
# Compressibility (1/GPa) = 0.02748690
#
# Stress axis : x y z
#
# Youngs Moduli (GPa) = 47.22797 31.65104 79.93715
#
# Poissons Ratio (x) = 0.27771 0.33388
# Poissons Ratio (y) = 0.41439 0.47520
# Poissons Ratio (z) = 0.19726 0.18816
#
# Static dielectric constant tensor:
#      x y z
#    x 1.487570 0.000000 0.023690 
#    y 0.000000 1.507110 0.000000 
#    z 0.023690 0.000000 1.530230 
# 
# From -- ./inp_files/66200.got.cif
#   From: 2010.05.17/outbox.cif.g08.bks.cpg/sg10_34_cif.got.tgz:66200.got - 2010.06.03 11:33:40.
