data_PCOD9144398
_publ_section_title
;
Structure prediction by ZEFSAII (Michael W. Deem and Ramdas Pophale) SiO2 
 PCOD9144398
Probable space group: P 2/M
;
_chemical_formula_sum "Si O2"
_cell_formula_units_Z 32
_cell_length_a 20.321670
_cell_length_b 7.808406
_cell_length_c 14.795308
_cell_angle_alpha 90.000000
_cell_angle_beta 45.928965
_cell_angle_gamma 90.000000
_cell_volume 1686.783230
_symmetry_space_group_name_H-M "P 2/M"
_symmetry_group_IT_number 10
_symmetry_cell_setting 'monoclinic'
loop_
_space_group_symop_operation_xyz
x,y,z
-x,y,-z
-x,-y,-z
x,-y,z
loop_
_atom_site_type_symbol
_atom_site_label
_atom_site_fract_x
_atom_site_fract_y
_atom_site_fract_z
Si Si1 0.823335 0.800749 0.716590
Si Si2 0.677398 0.297480 0.003103
Si Si3 0.184297 0.706993 0.982860
Si Si4 0.846108 0.699046 0.371720
Si Si5 0.103138 0.290417 0.875433
Si Si6 0.965140 0.797383 0.724532
Si Si7 0.516398 0.206972 0.880911
Si Si8 0.281368 0.201695 0.353237
O O1 0.909443 0.728159 0.690549
O O2 0.787388 0.723586 0.657231
O O3 0.846992 0.000000 0.677951
O O4 0.736482 0.791561 0.867641
O O5 0.693885 0.500000 0.976534
O O6 0.722530 0.243284 0.055015
O O7 0.570659 0.263282 0.093989
O O8 0.178798 0.500000 0.987485
O O9 0.168107 0.763887 0.895963
O O10 0.102561 0.770283 0.125685
O O11 0.824025 0.500000 0.382515
O O12 0.867215 0.770733 0.251811
O O13 0.764095 0.780601 0.506149
O O14 0.938525 0.716473 0.342268
O O15 0.102062 0.500000 0.872913
O O16 0.000000 0.237898 0.000000
O O17 0.980248 0.000000 0.697901
O O18 0.615659 0.270373 0.753778
O O19 0.516234 0.000000 0.880228
O O20 0.500000 0.262911 0.000000
O O21 0.288454 0.000000 0.324581
#
# Coordination Sequence:
#
# PCOD9144398 Si02
#       8
#     4   4   4   4   4   4   4   4
#     4   9  18  34  52  70 100 142 178 200 240 307
#     4  10  19  29  50  82 109 127 159 218 262 291
#     4   9  17  32  52  76 104 134 168 206 256 304
#     4  11  22  35  52  74 103 137 171 212 257 303
#     4   9  16  31  55  75  97 135 174 205 247 307
#     4  10  19  31  50  75 103 136 173 210 245 295
#     4  10  19  35  57  75  98 137 176 205 246 308
#     4  10  21  37  54  72  99 136 175 212 247 297
#
# _framework density 18.971021
#
# number of rings (size 3 to 8) (size 9 to 14) (size 15 to 20)
#    0.000    2.250    2.500    1.125    0.000    2.750 
#    0.000    4.375    0.000    0.750    0.000    5.250 
#    0.000    0.000    0.000    0.000    0.000    0.000 
#
# Total GULP energy -178529.007503 kJ/mol
# GULP energy per Si atom -5579.031484 kJ/mol
# Density = 1.892784 g / cm^3
# Si number density = 18.971021 Si / 1000 Ang^3
#
#
#
# Elastic Constant Matrix: (Units=GPa)
#
#
# Indices 1 2 3 4 5 6 
#
# 1 122.3707 3.4831 61.9310 0.0000 5.2432 0.0000
# 2 3.4831 21.9193 -5.3007 0.0000 1.7067 0.0000
# 3 61.9310 -5.3007 95.5821 0.0000 3.8918 0.0000
# 4 0.0000 0.0000 0.0000 21.1385 0.0000 -4.3121
# 5 5.2432 1.7067 3.8918 0.0000 20.9320 0.0000
# 6 0.0000 0.0000 0.0000 -4.3121 0.0000 21.3402
#
#
#
# Elastic Compliance Matrix: (Units=1/GPa)
#
#
# Indices 1 2 3 4 5 6 
#
# 1 0.012529 -0.003894 -0.008282 0.000000 -0.001281 0.000000
# 2 -0.003894 0.047836 0.005335 0.000000 -0.003917 0.000000
# 3 -0.008282 0.005335 0.016180 0.000000 -0.001369 0.000000
# 4 0.000000 0.000000 0.000000 0.049341 0.000000 0.009970
# 5 -0.001281 -0.003917 -0.001369 0.000000 0.048669 0.000000
# 6 0.000000 0.000000 0.000000 0.009970 0.000000 0.048874
#
#
# Mechanical properties :
#
#
# Convention : Reuss Voigt Hill
#
# Bulk Modulus (GPa) = 15.90734 40.01100 27.95917
# Shear Modulus (GPa) = 19.37505 24.66605 22.02055
#
# Velocity S-wave (km/s) = 3.19924 3.60973 3.41067
# Velocity P-wave (km/s) = 4.69576 6.20564 5.50273
#
# Compressibility (1/GPa) = 0.06286406
#
# Stress axis : x y z
#
# Youngs Moduli (GPa) = 79.81525 20.90478 61.80529
#
# Poissons Ratio (x) = 0.08140 0.51185
# Poissons Ratio (y) = 0.31079 -0.32975
# Poissons Ratio (z) = 0.66101 -0.11153
#
# Static dielectric constant tensor:
#      x y z
#    x 1.691410 0.000000 0.010740 
#    y 0.000000 1.698580 0.000000 
#    z 0.010740 0.000000 1.634670 
# 
# From -- ./inp_files/58288.got.cif
#   From: 2010.05.17/outbox.cif.g08.bks.cpg/sg10_30_cif.got.tgz:58288.got - 2010.06.03 11:33:40.
