data_PCOD9144700
_publ_section_title
;
Structure prediction by ZEFSAII (Michael W. Deem and Ramdas Pophale) SiO2 
 PCOD9144700
Probable space group: P 2/M
;
_chemical_formula_sum "Si O2"
_cell_formula_units_Z 32
_cell_length_a 15.585247
_cell_length_b 9.023902
_cell_length_c 15.750407
_cell_angle_alpha 90.000000
_cell_angle_beta 122.420849
_cell_angle_gamma 90.000000
_cell_volume 1869.866767
_symmetry_space_group_name_H-M "P 2/M"
_symmetry_group_IT_number 10
_symmetry_cell_setting 'monoclinic'
loop_
_space_group_symop_operation_xyz
x,y,z
-x,y,-z
-x,-y,-z
x,-y,z
loop_
_atom_site_type_symbol
_atom_site_label
_atom_site_fract_x
_atom_site_fract_y
_atom_site_fract_z
Si Si1 0.826391 0.174267 0.888527
Si Si2 0.555500 0.822644 0.160160
Si Si3 0.364027 0.323309 0.292169
Si Si4 0.740543 0.677328 0.583193
Si Si5 0.590719 0.678319 0.356208
Si Si6 0.864619 0.676273 0.083579
Si Si7 0.066925 0.825344 0.237398
Si Si8 0.343533 0.821876 0.966962
O O1 0.713548 0.233398 0.808017
O O2 0.889589 0.194800 0.835441
O O3 0.825065 0.000000 0.908719
O O4 0.871264 0.264117 0.990671
O O5 0.596003 0.745617 0.265628
O O6 0.620220 0.789816 0.109879
O O7 0.556350 0.000000 0.171537
O O8 0.438773 0.779244 0.077466
O O9 0.351658 0.500000 0.269655
O O10 0.330053 0.296213 0.371260
O O11 0.480316 0.282727 0.336539
O O12 0.757575 0.500000 0.588224
O O13 0.679438 0.725875 0.467456
O O14 0.846457 0.758929 0.655989
O O15 0.594458 0.500000 0.353332
O O16 0.865835 0.500000 0.085681
O O17 0.758768 0.739235 0.063019
O O18 0.960240 0.741901 0.185023
O O19 0.053870 0.000000 0.244654
O O20 0.329742 0.000000 0.967103
#
# Coordination Sequence:
#
# PCOD9144700 Si02
#       8
#     4   4   4   4   4   4   4   4
#     4  10  20  33  49  72 103 136 169 206 247 291
#     4   9  19  35  55  77 102 133 165 200 246 298
#     4   9  17  30  48  72 103 138 173 205 242 292
#     4   9  18  33  50  70 101 138 173 209 247 289
#     4  10  19  30  49  76 104 135 169 206 249 295
#     4  12  23  33  51  77 101 130 167 205 250 301
#     4  10  21  36  52  71  98 134 173 211 249 289
#     4   9  19  37  56  75 102 133 164 201 247 297
#
# _framework density 17.113520000000001
#
# number of rings (size 3 to 8) (size 9 to 14) (size 15 to 20)
#    0.000    2.250    0.000    4.125    0.000    8.500 
#    0.000    1.250    0.000    4.500    0.000    5.250 
#    0.000    0.000    0.000    0.000    0.000    0.000 
#
# Total GULP energy -178664.473641 kJ/mol
# GULP energy per Si atom -5583.264801 kJ/mol
# Density = 1.707457 g / cm^3
# Si number density = 17.113520 Si / 1000 Ang^3
#
#
#
# Elastic Constant Matrix: (Units=GPa)
#
#
# Indices 1 2 3 4 5 6 
#
# 1 52.9014 37.9278 38.3782 0.0000 18.1295 0.0000
# 2 37.9278 56.1482 45.5869 0.0000 12.1212 0.0000
# 3 38.3782 45.5869 120.3912 0.0000 15.4704 0.0000
# 4 0.0000 0.0000 0.0000 22.7155 0.0000 -7.4517
# 5 18.1295 12.1212 15.4704 0.0000 21.1969 0.0000
# 6 0.0000 0.0000 0.0000 -7.4517 0.0000 17.4076
#
#
#
# Elastic Compliance Matrix: (Units=1/GPa)
#
#
# Indices 1 2 3 4 5 6 
#
# 1 0.046071 -0.023873 -0.002579 0.000000 -0.023870 0.000000
# 2 -0.023873 0.039512 -0.007803 0.000000 0.003519 0.000000
# 3 -0.002579 -0.007803 0.012388 0.000000 -0.002373 0.000000
# 4 0.000000 0.000000 0.000000 0.051215 0.000000 0.021924
# 5 -0.023870 0.003519 -0.002373 0.000000 0.067312 0.000000
# 6 0.000000 0.000000 0.000000 0.021924 0.000000 0.066831
#
#
# Mechanical properties :
#
#
# Convention : Reuss Voigt Hill
#
# Bulk Modulus (GPa) = 33.94570 52.58074 43.26322
# Shear Modulus (GPa) = 13.82512 19.43385 16.62949
#
# Velocity S-wave (km/s) = 2.84535 3.37350 3.12062
# Velocity P-wave (km/s) = 5.53835 6.77978 6.19026
#
# Compressibility (1/GPa) = 0.02945882
#
# Stress axis : x y z
#
# Youngs Moduli (GPa) = 21.70586 25.30857 80.72164
#
# Poissons Ratio (x) = 0.60420 0.20820
# Poissons Ratio (y) = 0.51819 0.62991
# Poissons Ratio (z) = 0.05598 0.19750
#
# Static dielectric constant tensor:
#      x y z
#    x 1.571250 0.000000 0.001720 
#    y 0.000000 1.567550 0.000000 
#    z 0.001720 0.000000 1.568920 
# 
# From -- ./inp_files/66560.got.cif
#   From: 2010.05.17/outbox.cif.g08.bks.cpg/sg10_34_cif.got.tgz:66560.got - 2010.06.03 11:33:40.
