data_PCOD9144580
_publ_section_title
;
Structure prediction by ZEFSAII (Michael W. Deem and Ramdas Pophale) SiO2 
 PCOD9144580
Probable space group: P 2/M
;
_chemical_formula_sum "Si O2"
_cell_formula_units_Z 32
_cell_length_a 17.268081
_cell_length_b 7.369994
_cell_length_c 18.039884
_cell_angle_alpha 90.000000
_cell_angle_beta 34.584573
_cell_angle_gamma 90.000000
_cell_volume 1303.179511
_symmetry_space_group_name_H-M "P 2/M"
_symmetry_group_IT_number 10
_symmetry_cell_setting 'monoclinic'
loop_
_space_group_symop_operation_xyz
x,y,z
-x,y,-z
-x,-y,-z
x,-y,z
loop_
_atom_site_type_symbol
_atom_site_label
_atom_site_fract_x
_atom_site_fract_y
_atom_site_fract_z
Si Si1 0.075642 0.278896 0.364519
Si Si2 0.331055 0.291607 0.083281
Si Si3 0.170863 0.215840 0.674344
Si Si4 0.868014 0.217798 0.894232
Si Si5 0.565106 0.290674 0.794703
Si Si6 0.636974 0.779268 0.348944
Si Si7 0.195852 0.717661 0.492494
Si Si8 0.366564 0.217552 0.815649
O O1 0.084762 0.500000 0.356713
O O2 0.230110 0.213882 0.226395
O O3 0.000000 0.228599 0.500000
O O4 0.960749 0.220561 0.395213
O O5 0.360521 0.500000 0.078471
O O6 0.223839 0.292627 0.099561
O O7 0.471196 0.214281 0.936327
O O8 0.243686 0.285487 0.690494
O O9 0.246041 0.241054 0.536035
O O10 0.019706 0.290139 0.781515
O O11 0.158856 0.000000 0.693699
O O12 0.870503 0.000000 0.881262
O O13 0.784369 0.252934 0.034771
O O14 0.593043 0.500000 0.792397
O O15 0.705032 0.212150 0.650758
O O16 0.469005 0.290567 0.797213
O O17 0.500000 0.735752 0.500000
O O18 0.625192 0.714430 0.274280
O O19 0.647851 0.000000 0.335976
O O20 0.194600 0.500000 0.486177
O O21 0.389385 0.000000 0.797988
#
# Coordination Sequence:
#
# PCOD9144580 Si02
#       8
#     4   4   4   4   4   4   4   4
#     4   9  17  30  50  73  95 122 154 186 225 276
#     4   9  16  30  50  69  93 125 154 182 227 279
#     4  10  19  30  47  69  93 121 157 198 234 272
#     4   9  17  28  45  70  93 117 154 197 232 268
#     4   9  18  30  47  71  96 122 155 194 231 269
#     4   9  17  28  42  62  89 122 158 194 232 274
#     4  10  19  32  49  71  96 121 154 194 231 273
#     4   9  17  30  47  66  92 125 159 192 233 277
#
# _framework density 24.555327999999999
#
# number of rings (size 3 to 8) (size 9 to 14) (size 15 to 20)
#    0.000    2.750    1.250    0.750    0.000    2.000 
#    0.000    3.750    0.000    7.500    0.000    4.375 
#    0.000    5.000    0.000    0.000    0.000    0.000 
#
# Total GULP energy -178686.478515 kJ/mol
# GULP energy per Si atom -5583.952454 kJ/mol
# Density = 2.449944 g / cm^3
# Si number density = 24.555328 Si / 1000 Ang^3
#
#
#
# Elastic Constant Matrix: (Units=GPa)
#
#
# Indices 1 2 3 4 5 6 
#
# 1 108.7192 3.7594 41.1620 0.0000 16.6211 0.0000
# 2 3.7594 87.7828 13.6410 0.0000 0.1966 0.0000
# 3 41.1620 13.6410 165.1753 0.0000 7.0897 0.0000
# 4 0.0000 0.0000 0.0000 2.7027 0.0000 -0.9567
# 5 16.6211 0.1966 7.0897 0.0000 50.4955 0.0000
# 6 0.0000 0.0000 0.0000 -0.9567 0.0000 -4.2412
#
#
#
# Elastic Compliance Matrix: (Units=1/GPa)
#
#
# Indices 1 2 3 4 5 6 
#
# 1 0.010631 -0.000058 -0.002509 0.000000 -0.003147 0.000000
# 2 -0.000058 0.011541 -0.000943 0.000000 0.000107 0.000000
# 3 -0.002509 -0.000943 0.006763 0.000000 -0.000120 0.000000
# 4 0.000000 0.000000 0.000000 0.342637 0.000000 -0.077287
# 5 -0.003147 0.000107 -0.000120 0.000000 0.020856 0.000000
# 6 0.000000 0.000000 0.000000 -0.077287 0.000000 -0.218350
#
#
# Mechanical properties :
#
#
# Convention : Reuss Voigt Hill
#
# Bulk Modulus (GPa) = 45.63580 53.20023 49.41801
# Shear Modulus (GPa) = 26.53877 29.99907 28.26892
#
# Velocity S-wave (km/s) = 3.29108 3.49906 3.39666
# Velocity P-wave (km/s) = 5.75038 6.16742 5.96255
#
# Compressibility (1/GPa) = 0.02191262
#
# Stress axis : x y z
#
# Youngs Moduli (GPa) = 94.06270 86.65087 147.87299
#
# Poissons Ratio (x) = 0.00505 0.37108
# Poissons Ratio (y) = 0.00548 0.13946
# Poissons Ratio (z) = 0.23604 0.08172
#
# Static dielectric constant tensor:
#      x y z
#    x 1.958570 0.000000 0.010950 
#    y 0.000000 1.929220 0.000000 
#    z 0.010950 0.000000 1.983980 
# 
# From -- ./inp_files/78939.got.cif
#   From: 2010.05.17/outbox.cif.g08.bks.cpg/sg10_40_cif.got.tgz:78939.got - 2010.06.03 11:33:40.
