data_PCOD9144303
_publ_section_title
;
Structure prediction by ZEFSAII (Michael W. Deem and Ramdas Pophale) SiO2 
 PCOD9144303
Probable space group: P 2/M
;
_chemical_formula_sum "Si O2"
_cell_formula_units_Z 32
_cell_length_a 15.628317
_cell_length_b 7.399523
_cell_length_c 23.333449
_cell_angle_alpha 90.000000
_cell_angle_beta 148.225870
_cell_angle_gamma 90.000000
_cell_volume 1420.864414
_symmetry_space_group_name_H-M "P 2/M"
_symmetry_group_IT_number 10
_symmetry_cell_setting 'monoclinic'
loop_
_space_group_symop_operation_xyz
x,y,z
-x,y,-z
-x,-y,-z
x,-y,z
loop_
_atom_site_type_symbol
_atom_site_label
_atom_site_fract_x
_atom_site_fract_y
_atom_site_fract_z
Si Si1 0.596575 0.278192 0.286148
Si Si2 0.357676 0.791827 0.378980
Si Si3 0.990081 0.291117 0.190939
Si Si4 0.411031 0.282430 0.586594
Si Si5 0.529431 0.781863 0.081873
Si Si6 0.714674 0.704165 0.959794
Si Si7 0.942114 0.278407 0.646330
Si Si8 0.841250 0.704210 0.330588
O O1 0.598389 0.500000 0.282817
O O2 0.604466 0.225346 0.356456
O O3 0.751005 0.217518 0.335397
O O4 0.422890 0.217189 0.160986
O O5 0.500000 0.710661 0.500000
O O6 0.180612 0.709955 0.284966
O O7 0.430996 0.781640 0.357078
O O8 0.338249 0.000000 0.384733
O O9 0.938121 0.500000 0.164834
O O10 0.973688 0.216017 0.246555
O O11 0.883727 0.211447 0.078109
O O12 0.415640 0.500000 0.589323
O O13 0.246939 0.227196 0.460307
O O14 0.693950 0.703027 0.201151
O O15 0.535281 0.000000 0.090963
O O16 0.500000 0.735374 0.000000
O O17 0.385604 0.706170 0.038254
O O18 0.746394 0.500000 0.956512
O O19 0.951031 0.500000 0.650910
O O20 0.017224 0.215126 0.628493
O O21 0.893029 0.500000 0.375209
#
# Coordination Sequence:
#
# PCOD9144303 Si02
#       8
#     4   4   4   4   4   4   4   4
#     4   8  16  31  52  78 106 139 174 209 251 298
#     4  11  23  38  55  78 105 133 167 211 266 318
#     4  10  19  33  55  81 106 133 169 214 261 311
#     4  10  19  34  56  78 104 136 173 215 257 309
#     4  10  19  29  43  68 102 139 179 216 255 301
#     4   9  18  33  53  76 103 135 172 211 255 306
#     4   9  17  28  49  80 105 131 171 215 259 302
#     4   9  17  31  49  72 104 138 175 214 253 301
#
# _framework density 22.521501000000001
#
# number of rings (size 3 to 8) (size 9 to 14) (size 15 to 20)
#    0.000    2.500    1.250    2.250    0.000    3.500 
#    0.000    6.875    0.000    3.750    0.000    4.375 
#    0.000    0.000    0.000    0.000    0.000    0.000 
#
# Total GULP energy -178502.727349 kJ/mol
# GULP energy per Si atom -5578.210230 kJ/mol
# Density = 2.247024 g / cm^3
# Si number density = 22.521501 Si / 1000 Ang^3
#
#
#
# Elastic Constant Matrix: (Units=GPa)
#
#
# Indices 1 2 3 4 5 6 
#
# 1 106.3228 -4.8187 20.4369 0.0000 -1.9403 0.0000
# 2 -4.8187 82.4583 1.2094 0.0000 -4.4370 0.0000
# 3 20.4369 1.2094 50.2795 0.0000 25.5820 0.0000
# 4 0.0000 0.0000 0.0000 356.5230 0.0000 420.4051
# 5 -1.9403 -4.4370 25.5820 0.0000 21.9532 0.0000
# 6 0.0000 0.0000 0.0000 420.4051 0.0000 485.0391
#
#
#
# Elastic Compliance Matrix: (Units=1/GPa)
#
#
# Indices 1 2 3 4 5 6 
#
# 1 0.012645 0.001952 -0.014630 0.000000 0.018561 0.000000
# 2 0.001952 0.012868 -0.006176 0.000000 0.009970 0.000000
# 3 -0.014630 -0.006176 0.067003 0.000000 -0.080620 0.000000
# 4 0.000000 0.000000 0.000000 -0.127212 0.000000 0.110261
# 5 0.018561 0.009970 -0.080620 0.000000 0.143154 0.000000
# 6 0.000000 0.000000 0.000000 0.110261 0.000000 -0.093506
#
#
# Mechanical properties :
#
#
# Convention : Reuss Voigt Hill
#
# Bulk Modulus (GPa) = 18.24519 30.30175 24.27347
# Shear Modulus (GPa) = 70.49291 187.51858 129.00575
#
# Velocity S-wave (km/s) = 5.60073 9.13470 7.57664
# Velocity P-wave (km/s) = 7.06704 11.16874 9.34569
#
# Compressibility (1/GPa) = 0.05480898
#
# Stress axis : x y z
#
# Youngs Moduli (GPa) = 79.08475 77.70921 14.92462
#
# Poissons Ratio (x) = -0.15171 0.21835
# Poissons Ratio (y) = -0.15439 0.09217
# Poissons Ratio (z) = 1.15703 0.47992
#
# Static dielectric constant tensor:
#      x y z
#    x 1.812480 0.000000 0.002970 
#    y 0.000000 1.883030 0.000000 
#    z 0.002970 0.000000 2.013060 
# 
# From -- ./inp_files/89625.got.cif
#   From: 2010.05.17/outbox.cif.g08.bks.cpg/sg10_45_cif.got.tgz:89625.got - 2010.06.03 11:33:40.
