data_PCOD9144476
_publ_section_title
;
Structure prediction by ZEFSAII (Michael W. Deem and Ramdas Pophale) SiO2 
 PCOD9144476
Probable space group: P 2/M
;
_chemical_formula_sum "Si O2"
_cell_formula_units_Z 24
_cell_length_a 12.228437
_cell_length_b 8.645789
_cell_length_c 21.541804
_cell_angle_alpha 90.000000
_cell_angle_beta 141.201681
_cell_angle_gamma 90.000000
_cell_volume 1427.035697
_symmetry_space_group_name_H-M "P 2/M"
_symmetry_group_IT_number 10
_symmetry_cell_setting 'monoclinic'
loop_
_space_group_symop_operation_xyz
x,y,z
-x,y,-z
-x,-y,-z
x,-y,z
loop_
_atom_site_type_symbol
_atom_site_label
_atom_site_fract_x
_atom_site_fract_y
_atom_site_fract_z
Si Si1 0.597071 0.815537 0.360442
Si Si2 0.037404 0.816603 0.421981
Si Si3 0.359602 0.312042 0.888128
Si Si4 0.959954 0.314203 0.711004
Si Si5 0.598752 0.314663 0.607298
Si Si6 0.654384 0.316076 0.258732
O O1 0.796195 0.766897 0.464589
O O2 0.479974 0.757326 0.365486
O O3 0.553835 0.753275 0.272974
O O4 0.593836 0.000000 0.358011
O O5 0.081505 0.776438 0.370392
O O6 0.857529 0.730109 0.355557
O O7 0.010017 0.000000 0.418320
O O8 0.368326 0.500000 0.891414
O O9 0.394593 0.260887 0.832573
O O10 0.158930 0.273535 0.816453
O O11 0.500000 0.255126 0.000000
O O12 0.956181 0.500000 0.696332
O O13 0.804463 0.281941 0.689827
O O14 0.500000 0.263933 0.500000
O O15 0.575162 0.500000 0.600610
O O16 0.637694 0.500000 0.252687
#
# Coordination Sequence:
#
# PCOD9144476 Si02
#       6
#     4   4   4   4   4   4
#     4  11  22  32  45  67  99 135 165 195 234 282
#     4  10  19  30  45  67  98 131 161 195 235 281
#     4   8  15  30  53  77  96 115 149 202 252 288
#     4   9  17  30  49  73  97 126 162 197 237 281
#     4  10  19  31  48  69  98 132 166 200 230 275
#     4  10  20  32  49  71  95 125 161 199 243 289
#
# _framework density 16.818079999999998
#
# number of rings (size 3 to 8) (size 9 to 14) (size 15 to 20)
#    0.000    2.333    1.667    3.000    0.000    5.000 
#    0.000    0.000    0.000   13.500    0.000    7.000 
#    0.000    0.000    0.000    0.000    0.000    0.000 
#
# Total GULP energy -133786.174406 kJ/mol
# GULP energy per Si atom -5574.423934 kJ/mol
# Density = 1.677980 g / cm^3
# Si number density = 16.818080 Si / 1000 Ang^3
#
#
#
# Elastic Constant Matrix: (Units=GPa)
#
#
# Indices 1 2 3 4 5 6 
#
# 1 132.7342 26.8110 65.7293 0.0000 -26.5008 0.0000
# 2 26.8110 13.3200 20.4372 0.0000 -5.8299 0.0000
# 3 65.7293 20.4372 112.4615 0.0000 -13.8908 0.0000
# 4 0.0000 0.0000 0.0000 -5.3670 0.0000 -10.3037
# 5 -26.5008 -5.8299 -13.8908 0.0000 13.0406 0.0000
# 6 0.0000 0.0000 0.0000 -10.3037 0.0000 -12.6392
#
#
#
# Elastic Compliance Matrix: (Units=1/GPa)
#
#
# Indices 1 2 3 4 5 6 
#
# 1 0.018507 -0.020348 -0.004142 0.000000 0.024100 0.000000
# 2 -0.020348 0.138098 -0.012304 0.000000 0.007281 0.000000
# 3 -0.004142 -0.012304 0.013622 0.000000 0.000592 0.000000
# 4 0.000000 0.000000 0.000000 0.329727 0.000000 -0.268800
# 5 0.024100 0.007281 0.000592 0.000000 0.129545 0.000000
# 6 0.000000 0.000000 0.000000 -0.268800 0.000000 0.140013
#
#
# Mechanical properties :
#
#
# Convention : Reuss Voigt Hill
#
# Bulk Modulus (GPa) = 10.34787 53.83007 32.08897
# Shear Modulus (GPa) = 5.71225 8.70942 7.21084
#
# Velocity S-wave (km/s) = 1.84496 2.27812 2.07289
# Velocity P-wave (km/s) = 3.27180 6.24472 4.98504
#
# Compressibility (1/GPa) = 0.09663827
#
# Stress axis : x y z
#
# Youngs Moduli (GPa) = 54.03468 7.24126 73.41146
#
# Poissons Ratio (x) = 0.14734 0.30406
# Poissons Ratio (y) = 1.09949 0.90327
# Poissons Ratio (z) = 0.22381 0.08910
#
# Static dielectric constant tensor:
#      x y z
#    x 1.585470 0.000000 -0.004540 
#    y 0.000000 1.564620 0.000000 
#    z -0.004540 0.000000 1.567090 
# 
# From -- ./inp_files/45122.got.cif
#   From: 2010.05.17/outbox.cif.g08.bks.cpg/sg10_23_cif.got.tgz:45122.got - 2010.06.03 11:33:40.
