data_PCOD9144651
_publ_section_title
;
Structure prediction by ZEFSAII (Michael W. Deem and Ramdas Pophale) SiO2 
 PCOD9144651
Probable space group: P 2/M
;
_chemical_formula_sum "Si O2"
_cell_formula_units_Z 32
_cell_length_a 12.221147
_cell_length_b 8.332037
_cell_length_c 25.023002
_cell_angle_alpha 90.000000
_cell_angle_beta 43.398597
_cell_angle_gamma 90.000000
_cell_volume 1750.666321
_symmetry_space_group_name_H-M "P 2/M"
_symmetry_group_IT_number 10
_symmetry_cell_setting 'monoclinic'
loop_
_space_group_symop_operation_xyz
x,y,z
-x,y,-z
-x,-y,-z
x,-y,z
loop_
_atom_site_type_symbol
_atom_site_label
_atom_site_fract_x
_atom_site_fract_y
_atom_site_fract_z
Si Si1 0.159335 0.805764 0.684386
Si Si2 0.582728 0.306314 0.222081
Si Si3 0.801057 0.196242 0.833643
Si Si4 0.253555 0.807725 0.029415
Si Si5 0.471606 0.193835 0.148285
Si Si6 0.461789 0.690426 0.643904
Si Si7 0.051669 0.693539 0.921707
Si Si8 0.659535 0.815299 0.480014
O O1 0.298955 0.757651 0.675644
O O2 0.208456 0.747548 0.607369
O O3 0.983998 0.751023 0.763251
O O4 0.159803 0.000000 0.681954
O O5 0.581066 0.500000 0.221600
O O6 0.492762 0.248252 0.201377
O O7 0.517954 0.251145 0.302557
O O8 0.767739 0.254453 0.152603
O O9 0.727618 0.249242 0.916391
O O10 0.689582 0.245978 0.824199
O O11 0.802509 0.000000 0.833688
O O12 0.076584 0.765726 0.072949
O O13 0.271428 0.000000 0.024064
O O14 0.380823 0.746526 0.940909
O O15 0.475302 0.000000 0.146580
O O16 0.443094 0.500000 0.652021
O O17 0.607404 0.731329 0.552884
O O18 0.045039 0.500000 0.920032
O O19 0.000000 0.739033 0.000000
O O20 0.500000 0.814514 0.500000
O O21 0.698130 0.000000 0.478687
#
# Coordination Sequence:
#
# PCOD9144651 Si02
#       8
#     4   4   4   4   4   4   4   4
#     4   9  17  31  51  73  99 128 155 189 235 285
#     4  10  21  35  48  67  97 130 162 196 236 280
#     4   9  18  33  51  71  96 125 158 199 242 278
#     4  10  19  31  50  74  97 121 157 203 242 280
#     4  10  20  33  50  70  93 126 165 200 236 279
#     4  10  19  30  48  74 101 126 154 192 237 284
#     4  10  19  32  49  66  93 130 158 189 236 282
#     4   8  15  28  47  72  99 125 153 187 232 285
#
# _framework density 18.278752999999998
#
# number of rings (size 3 to 8) (size 9 to 14) (size 15 to 20)
#    0.000    2.500    1.250    2.250    0.000    5.500 
#    0.000    1.250    0.000    2.250    0.000    5.250 
#    0.000    0.000    0.000    0.000    0.000    0.000 
#
# Total GULP energy -178428.823106 kJ/mol
# GULP energy per Si atom -5575.900722 kJ/mol
# Density = 1.823715 g / cm^3
# Si number density = 18.278753 Si / 1000 Ang^3
#
#
#
# Elastic Constant Matrix: (Units=GPa)
#
#
# Indices 1 2 3 4 5 6 
#
# 1 93.3201 8.3904 57.1132 0.0000 25.1044 0.0000
# 2 8.3904 6.7755 18.6857 0.0000 5.3530 0.0000
# 3 57.1132 18.6857 124.3528 0.0000 37.2612 0.0000
# 4 0.0000 0.0000 0.0000 18.9413 0.0000 7.4301
# 5 25.1044 5.3530 37.2612 0.0000 24.1676 0.0000
# 6 0.0000 0.0000 0.0000 7.4301 0.0000 38.7936
#
#
#
# Elastic Compliance Matrix: (Units=1/GPa)
#
#
# Indices 1 2 3 4 5 6 
#
# 1 0.016083 0.000164 -0.004451 0.000000 -0.009881 0.000000
# 2 0.000164 0.252335 -0.039393 0.000000 0.004674 0.000000
# 3 -0.004451 -0.039393 0.022314 0.000000 -0.021055 0.000000
# 4 0.000000 0.000000 0.000000 0.057084 0.000000 -0.010933
# 5 -0.009881 0.004674 -0.021055 0.000000 0.083068 0.000000
# 6 0.000000 0.000000 0.000000 -0.010933 0.000000 0.027871
#
#
# Mechanical properties :
#
#
# Convention : Reuss Voigt Hill
#
# Bulk Modulus (GPa) = 4.91707 43.64742 24.28225
# Shear Modulus (GPa) = 8.14460 25.73112 16.93786
#
# Velocity S-wave (km/s) = 2.11316 3.75601 3.04738
# Velocity P-wave (km/s) = 2.94106 6.53764 5.06905
#
# Compressibility (1/GPa) = 0.20337328
#
# Stress axis : x y z
#
# Youngs Moduli (GPa) = 62.17768 3.96299 44.81499
#
# Poissons Ratio (x) = -0.00065 0.19945
# Poissons Ratio (y) = -0.01021 1.76538
# Poissons Ratio (z) = 0.27673 0.15611
#
# Static dielectric constant tensor:
#      x y z
#    x 1.600700 0.000000 0.007680 
#    y 0.000000 1.637150 0.000000 
#    z 0.007680 0.000000 1.663140 
# 
# From -- ./inp_files/83573.got.cif
#   From: 2010.05.17/outbox.cif.g08.bks.cpg/sg10_42_cif.got.tgz:83573.got - 2010.06.03 11:33:40.
