data_PCOD9144978
_publ_section_title
;
Structure prediction by ZEFSAII (Michael W. Deem and Ramdas Pophale) SiO2 
 PCOD9144978
Probable space group: P 2/M
;
_chemical_formula_sum "Si O2"
_cell_formula_units_Z 32
_cell_length_a 13.858234
_cell_length_b 7.527554
_cell_length_c 25.624438
_cell_angle_alpha 90.000000
_cell_angle_beta 29.603449
_cell_angle_gamma 90.000000
_cell_volume 1320.498689
_symmetry_space_group_name_H-M "P 2/M"
_symmetry_group_IT_number 10
_symmetry_cell_setting 'monoclinic'
loop_
_space_group_symop_operation_xyz
x,y,z
-x,y,-z
-x,-y,-z
x,-y,z
loop_
_atom_site_type_symbol
_atom_site_label
_atom_site_fract_x
_atom_site_fract_y
_atom_site_fract_z
Si Si1 0.370210 0.783925 0.295264
Si Si2 0.101839 0.212613 0.084756
Si Si3 0.759223 0.216658 0.534727
Si Si4 0.873631 0.290757 0.804957
Si Si5 0.151688 0.211067 0.296413
Si Si6 0.676846 0.198563 0.275197
Si Si7 0.297823 0.714254 0.621425
Si Si8 0.791159 0.216096 0.075420
O O1 0.227628 0.737869 0.410107
O O2 0.292277 0.721252 0.276187
O O3 0.595726 0.726571 0.197737
O O4 0.373403 0.000000 0.292479
O O5 0.162620 0.247761 0.116467
O O6 0.888446 0.285281 0.166350
O O7 0.082825 0.000000 0.091758
O O8 0.235566 0.266089 0.973114
O O9 0.538452 0.280675 0.627127
O O10 0.934396 0.280331 0.415295
O O11 0.753847 0.000000 0.532618
O O12 0.861640 0.500000 0.809660
O O13 0.771572 0.235334 0.798920
O O14 0.097181 0.232159 0.688558
O O15 0.139707 0.000000 0.308674
O O16 0.701217 0.184875 0.325464
O O17 0.327985 0.000000 0.746878
O O18 0.500000 0.754847 0.500000
O O19 0.288364 0.500000 0.634243
O O20 0.796426 0.000000 0.074533
O O21 0.000000 0.275483 0.000000
#
# Coordination Sequence:
#
# PCOD9144978 Si02
#       8
#     4   4   4   4   4   4   4   4
#     4   9  17  29  47  73 101 127 159 199 243 293
#     4   9  17  30  49  74 101 127 160 203 246 288
#     4   9  16  27  45  71 102 131 158 194 243 294
#     4  10  20  33  49  68  95 133 170 204 244 288
#     4  10  19  31  49  72  98 130 166 202 239 283
#     4   9  16  25  41  66  93 120 151 188 230 278
#     4   9  17  28  41  60  88 121 156 193 233 278
#     4   9  16  28  50  79 106 128 153 195 250 296
#
# _framework density 24.233270000000001
#
# number of rings (size 3 to 8) (size 9 to 14) (size 15 to 20)
#    0.000    2.750    0.000    2.250    0.000    5.250 
#    0.000    0.625    0.000    7.125    0.000    0.000 
#    0.000    0.000    0.000    0.000    0.000    0.000 
#
# Total GULP energy -178178.832099 kJ/mol
# GULP energy per Si atom -5568.088503 kJ/mol
# Density = 2.417811 g / cm^3
# Si number density = 24.233270 Si / 1000 Ang^3
#
#
#
# Elastic Constant Matrix: (Units=GPa)
#
#
# Indices 1 2 3 4 5 6 
#
# 1 123.7429 -9.8495 19.1154 0.0000 16.4207 0.0000
# 2 -9.8495 39.4148 -1.1750 0.0000 -0.3451 0.0000
# 3 19.1154 -1.1750 69.3264 0.0000 22.8267 0.0000
# 4 0.0000 0.0000 0.0000 58.4263 0.0000 128.4542
# 5 16.4207 -0.3451 22.8267 0.0000 31.6129 0.0000
# 6 0.0000 0.0000 0.0000 128.4542 0.0000 261.5088
#
#
#
# Elastic Compliance Matrix: (Units=1/GPa)
#
#
# Indices 1 2 3 4 5 6 
#
# 1 0.008936 0.002165 -0.001190 0.000000 -0.003759 0.000000
# 2 0.002165 0.025908 0.000157 0.000000 -0.000955 0.000000
# 3 -0.001190 0.000157 0.019090 0.000000 -0.013164 0.000000
# 4 0.000000 0.000000 0.000000 -0.214089 0.000000 0.105162
# 5 -0.003759 -0.000955 -0.013164 0.000000 0.043080 0.000000
# 6 0.000000 0.000000 0.000000 0.105162 0.000000 -0.047832
#
#
# Mechanical properties :
#
#
# Convention : Reuss Voigt Hill
#
# Bulk Modulus (GPa) = 17.79427 27.62954 22.71190
# Shear Modulus (GPa) = -33.68428 85.26916 25.79244
#
# Velocity S-wave (km/s) = -3.73232 5.93828 3.26596
# Velocity P-wave (km/s) = 3.34884 7.64486 4.85948
#
# Compressibility (1/GPa) = 0.05619788
#
# Stress axis : x y z
#
# Youngs Moduli (GPa) = 111.90476 38.59751 52.38418
#
# Poissons Ratio (x) = -0.08355 0.06231
# Poissons Ratio (y) = -0.24224 -0.00820
# Poissons Ratio (z) = 0.13311 -0.00604
#
# Static dielectric constant tensor:
#      x y z
#    x 2.007300 0.000000 -0.052570 
#    y 0.000000 1.934410 0.000000 
#    z -0.052570 0.000000 2.513180 
# 
# From -- ./inp_files/88920.got.cif
#   From: 2010.05.17/outbox.cif.g08.bks.cpg/sg10_45_cif.got.tgz:88920.got - 2010.06.03 11:33:40.
