data_PCOD9144176
_publ_section_title
;
Structure prediction by ZEFSAII (Michael W. Deem and Ramdas Pophale) SiO2 
 PCOD9144176
Probable space group: P 2/M
;
_chemical_formula_sum "Si O2"
_cell_formula_units_Z 32
_cell_length_a 17.684242
_cell_length_b 14.788990
_cell_length_c 12.013510
_cell_angle_alpha 90.000000
_cell_angle_beta 151.023248
_cell_angle_gamma 90.000000
_cell_volume 1522.117056
_symmetry_space_group_name_H-M "P 2/M"
_symmetry_group_IT_number 10
_symmetry_cell_setting 'monoclinic'
loop_
_space_group_symop_operation_xyz
x,y,z
-x,y,-z
-x,-y,-z
x,-y,z
loop_
_atom_site_type_symbol
_atom_site_label
_atom_site_fract_x
_atom_site_fract_y
_atom_site_fract_z
Si Si1 0.111235 0.631288 0.740538
Si Si2 0.202990 0.836743 0.804195
Si Si3 0.158737 0.226310 0.321853
Si Si4 0.353308 0.705864 0.388477
Si Si5 0.946917 0.394849 0.086894
Si Si6 0.483936 0.221852 0.857606
Si Si7 0.948427 0.897835 0.625667
Si Si8 0.532069 0.599559 0.816448
O O1 0.139782 0.737161 0.753514
O O2 0.028470 0.613333 0.749721
O O3 0.000000 0.597704 0.500000
O O4 0.284969 0.592878 0.974303
O O5 0.152427 0.860618 0.611677
O O6 0.118494 0.897867 0.786293
O O7 0.389110 0.829902 0.052886
O O8 0.243589 0.218912 0.309547
O O9 0.309098 0.220467 0.593516
O O10 0.051197 0.158988 0.257844
O O11 0.073685 0.323494 0.204060
O O12 0.500000 0.735430 0.500000
O O13 0.436328 0.646329 0.592698
O O14 0.227165 0.643101 0.162622
O O15 0.962289 0.500000 0.073621
O O16 0.527627 0.327751 0.909370
O O17 0.500000 0.183876 0.000000
O O18 0.896277 0.000000 0.582181
O O19 0.469082 0.500000 0.759394
#
# Coordination Sequence:
#
# PCOD9144176 Si02
#       8
#     4   4   4   4   4   4   4   4
#     4  11  20  35  58  90 135 173 211 265 326 387
#     4  10  18  37  63  93 131 172 215 258 309 397
#     4  11  24  42  62  96 133 165 217 283 332 393
#     4  11  24  44  67  88 120 175 235 285 333 381
#     4  12  25  41  65  94 130 179 230 282 331 384
#     4  10  21  37  58  83 134 182 210 257 330 392
#     4  11  21  39  69 101 133 171 214 269 334 400
#     4  10  22  36  56  87 123 170 227 276 318 377
#
# _framework density 21.023350000000001
#
# number of rings (size 3 to 8) (size 9 to 14) (size 15 to 20)
#    0.000    1.250    5.000    1.875    1.750    4.750 
#    0.000    1.875    0.000    1.875    0.000    0.000 
#    0.000    0.000    0.000    0.000    0.000    0.000 
#
# Total GULP energy -178190.645907 kJ/mol
# GULP energy per Si atom -5568.457685 kJ/mol
# Density = 2.097550 g / cm^3
# Si number density = 21.023350 Si / 1000 Ang^3
#
#
#
# Elastic Constant Matrix: (Units=GPa)
#
#
# Indices 1 2 3 4 5 6 
#
# 1 132.7813 28.0237 31.8150 0.0000 -0.1543 0.0000
# 2 28.0237 90.6055 3.8047 0.0000 -5.2608 0.0000
# 3 31.8150 3.8047 100.5880 0.0000 6.2238 0.0000
# 4 0.0000 0.0000 0.0000 0.9516 0.0000 8.1256
# 5 -0.1543 -5.2608 6.2238 0.0000 28.7059 0.0000
# 6 0.0000 0.0000 0.0000 8.1256 0.0000 -68.4907
#
#
#
# Elastic Compliance Matrix: (Units=1/GPa)
#
#
# Indices 1 2 3 4 5 6 
#
# 1 0.008714 -0.002574 -0.002668 0.000000 0.000154 0.000000
# 2 -0.002574 0.011947 0.000231 0.000000 0.002126 0.000000
# 3 -0.002668 0.000231 0.010922 0.000000 -0.002340 0.000000
# 4 0.000000 0.000000 0.000000 0.522023 0.000000 0.061932
# 5 0.000154 0.002126 -0.002340 0.000000 0.035734 0.000000
# 6 0.000000 0.000000 0.000000 0.061932 0.000000 -0.007253
#
#
# Mechanical properties :
#
#
# Convention : Reuss Voigt Hill
#
# Bulk Modulus (GPa) = 46.38455 50.14018 48.26236
# Shear Modulus (GPa) = 8.34313 9.58879 8.96596
#
# Velocity S-wave (km/s) = 1.99427 2.13797 2.06737
# Velocity P-wave (km/s) = 5.23584 5.47687 5.35771
#
# Compressibility (1/GPa) = 0.02155890
#
# Stress axis : x y z
#
# Youngs Moduli (GPa) = 114.75809 83.70462 91.56218
#
# Poissons Ratio (x) = 0.21547 0.24431
# Poissons Ratio (y) = 0.29541 -0.02113
# Poissons Ratio (z) = 0.30621 -0.01932
#
# Static dielectric constant tensor:
#      x y z
#    x 1.883290 0.000000 0.034900 
#    y 0.000000 1.782520 0.000000 
#    z 0.034900 0.000000 1.772790 
# 
# From -- ./inp_files/54049.got.cif
#   From: 2010.05.17/outbox.cif.g08.bks.cpg/sg10_28_cif.got.tgz:54049.got - 2010.06.03 11:33:40.
