data_PCOD9144553
_publ_section_title
;
Structure prediction by ZEFSAII (Michael W. Deem and Ramdas Pophale) SiO2 
 PCOD9144553
Probable space group: P 2/M
;
_chemical_formula_sum "Si O2"
_cell_formula_units_Z 32
_cell_length_a 25.257953
_cell_length_b 7.693208
_cell_length_c 14.992795
_cell_angle_alpha 90.000000
_cell_angle_beta 152.814062
_cell_angle_gamma 90.000000
_cell_volume 1331.036666
_symmetry_space_group_name_H-M "P 2/M"
_symmetry_group_IT_number 10
_symmetry_cell_setting 'monoclinic'
loop_
_space_group_symop_operation_xyz
x,y,z
-x,y,-z
-x,-y,-z
x,-y,z
loop_
_atom_site_type_symbol
_atom_site_label
_atom_site_fract_x
_atom_site_fract_y
_atom_site_fract_z
Si Si1 0.316454 0.209286 0.894029
Si Si2 0.820782 0.196093 0.136994
Si Si3 0.532673 0.203430 0.326387
Si Si4 0.162261 0.713108 0.368801
Si Si5 0.056535 0.707475 0.850369
Si Si6 0.598489 0.693936 0.706974
Si Si7 0.202840 0.709646 0.237640
Si Si8 0.625805 0.701784 0.208291
O O1 0.232352 0.271674 0.849674
O O2 0.300537 0.288803 0.773112
O O3 0.303282 0.000000 0.868936
O O4 0.452846 0.244004 0.121350
O O5 0.921019 0.261723 0.221014
O O6 0.850714 0.000000 0.204038
O O7 0.713238 0.207614 0.906354
O O8 0.469617 0.320647 0.303828
O O9 0.667156 0.233750 0.543743
O O10 0.508834 0.000000 0.308974
O O11 0.165232 0.500000 0.376133
O O12 0.134700 0.761051 0.225596
O O13 0.289480 0.777008 0.589531
O O14 0.065141 0.772239 0.292680
O O15 0.057515 0.500000 0.860964
O O16 0.151551 0.772235 0.066361
O O17 0.500000 0.781222 0.500000
O O18 0.627675 0.500000 0.714877
O O19 0.202692 0.500000 0.233891
O O20 0.605965 0.500000 0.202388
O O21 0.500000 0.783031 0.000000
#
# Coordination Sequence:
#
# PCOD9144553 Si02
#       8
#     4   4   4   4   4   4   4   4
#     4   9  20  37  54  76 108 145 182 220 269 326
#     4  10  21  36  53  75 107 145 183 227 276 320
#     4  10  20  32  48  74 108 142 175 216 268 320
#     4   9  19  36  56  81 112 141 177 227 277 327
#     4  10  20  35  56  80 107 145 188 224 266 324
#     4  10  19  30  46  71 102 137 179 221 261 314
#     4  10  19  33  55  80 108 145 185 224 268 323
#     4  10  20  35  59  88 112 137 172 220 277 326
#
# _framework density 24.041412999999999
#
# number of rings (size 3 to 8) (size 9 to 14) (size 15 to 20)
#    0.000    2.250    0.000    3.750    0.000   10.250 
#    0.000    2.500    0.000    5.250    0.000    0.000 
#    0.000    0.000    0.000    0.000    0.000    0.000 
#
# Total GULP energy -178317.540572 kJ/mol
# GULP energy per Si atom -5572.423143 kJ/mol
# Density = 2.398669 g / cm^3
# Si number density = 24.041413 Si / 1000 Ang^3
#
#
#
# Elastic Constant Matrix: (Units=GPa)
#
#
# Indices 1 2 3 4 5 6 
#
# 1 115.1295 2.3511 27.3951 0.0000 7.5927 0.0000
# 2 2.3511 37.5348 5.0367 0.0000 -1.3301 0.0000
# 3 27.3951 5.0367 46.6497 0.0000 1.0667 0.0000
# 4 0.0000 0.0000 0.0000 14.1282 0.0000 6.9258
# 5 7.5927 -1.3301 1.0667 0.0000 37.8692 0.0000
# 6 0.0000 0.0000 0.0000 6.9258 0.0000 -13.2252
#
#
#
# Elastic Compliance Matrix: (Units=1/GPa)
#
#
# Indices 1 2 3 4 5 6 
#
# 1 0.010230 0.000094 -0.005975 0.000000 -0.001879 0.000000
# 2 0.000094 0.027075 -0.003002 0.000000 0.001017 0.000000
# 3 -0.005975 -0.003002 0.025260 0.000000 0.000381 0.000000
# 4 0.000000 0.000000 0.000000 0.056322 0.000000 0.029495
# 5 -0.001879 0.001017 0.000381 0.000000 0.026808 0.000000
# 6 0.000000 0.000000 0.000000 0.029495 0.000000 -0.060167
#
#
# Mechanical properties :
#
#
# Convention : Reuss Voigt Hill
#
# Bulk Modulus (GPa) = 22.32115 29.87554 26.09835
# Shear Modulus (GPa) = 42.29215 18.72318 30.50766
#
# Velocity S-wave (km/s) = 4.19876 2.79371 3.56612
# Velocity P-wave (km/s) = 5.72806 4.78122 5.27592
#
# Compressibility (1/GPa) = 0.04480056
#
# Stress axis : x y z
#
# Youngs Moduli (GPa) = 97.75619 36.93463 39.58781
#
# Poissons Ratio (x) = -0.00349 0.23652
# Poissons Ratio (y) = -0.00922 0.11884
# Poissons Ratio (z) = 0.58405 0.11087
#
# Static dielectric constant tensor:
#      x y z
#    x 2.023460 0.000000 -0.037420 
#    y 0.000000 1.897660 0.000000 
#    z -0.037420 0.000000 2.011140 
# 
# From -- ./inp_files/71578.got.cif
#   From: 2010.05.17/outbox.cif.g08.bks.cpg/sg10_36_cif.got.tgz:71578.got - 2010.06.03 11:33:40.
