data_PCOD9144381
_publ_section_title
;
Structure prediction by ZEFSAII (Michael W. Deem and Ramdas Pophale) SiO2 
 PCOD9144381
Probable space group: P 2/M
;
_chemical_formula_sum "Si O2"
_cell_formula_units_Z 32
_cell_length_a 9.459108
_cell_length_b 11.339111
_cell_length_c 14.248367
_cell_angle_alpha 90.000000
_cell_angle_beta 85.514809
_cell_angle_gamma 90.000000
_cell_volume 1523.569432
_symmetry_space_group_name_H-M "P 2/M"
_symmetry_group_IT_number 10
_symmetry_cell_setting 'monoclinic'
loop_
_space_group_symop_operation_xyz
x,y,z
-x,y,-z
-x,-y,-z
x,-y,z
loop_
_atom_site_type_symbol
_atom_site_label
_atom_site_fract_x
_atom_site_fract_y
_atom_site_fract_z
Si Si1 0.806984 0.634956 0.949057
Si Si2 0.475361 0.163997 0.606973
Si Si3 0.019307 0.636181 0.667160
Si Si4 0.714751 0.631424 0.453670
Si Si5 0.908667 0.716326 0.140297
Si Si6 0.470516 0.636066 0.148820
Si Si7 0.288358 0.699997 0.335760
Si Si8 0.343743 0.869149 0.810745
O O1 0.839827 0.500000 0.917781
O O2 0.645211 0.656855 0.927857
O O3 0.924408 0.719055 0.894927
O O4 0.836224 0.648665 0.057458
O O5 0.500000 0.116063 0.500000
O O6 0.402578 0.289021 0.587649
O O7 0.628889 0.179306 0.646113
O O8 0.376659 0.121569 0.697277
O O9 0.978600 0.500000 0.652423
O O10 0.129111 0.675381 0.582308
O O11 0.099726 0.647657 0.761477
O O12 0.876029 0.709783 0.679067
O O13 0.702295 0.500000 0.417302
O O14 0.702814 0.633546 0.565630
O O15 0.819673 0.835550 0.159951
O O16 0.527870 0.500000 0.135871
O O17 0.372664 0.638321 0.247696
O O18 0.570341 0.752000 0.156919
O O19 0.379084 0.000000 0.848328
#
# Coordination Sequence:
#
# PCOD9144381 Si02
#       8
#     4   4   4   4   4   4   4   4
#     4  10  21  39  65  97 128 157 204 260 312 370
#     4   9  20  37  57  82 113 160 211 256 296 356
#     4  11  19  29  50  82 119 157 194 241 304 363
#     4  10  19  29  47  82 121 160 197 241 302 369
#     4  11  21  38  60  87 122 163 201 251 307 367
#     4  10  21  38  63  92 122 162 205 256 310 362
#     4  10  19  31  50  82 126 160 195 246 305 365
#     4  11  25  44  63  90 126 166 209 258 310 369
#
# _framework density 21.003309999999999
#
# number of rings (size 3 to 8) (size 9 to 14) (size 15 to 20)
#    0.000    1.750    2.500    3.000    0.000    8.000 
#    0.000    4.375    0.000    0.000    0.000    1.750 
#    0.000    0.000    0.000    0.000    0.000    0.000 
#
# Total GULP energy -178307.448853 kJ/mol
# GULP energy per Si atom -5572.107777 kJ/mol
# Density = 2.095551 g / cm^3
# Si number density = 21.003310 Si / 1000 Ang^3
#
#
#
# Elastic Constant Matrix: (Units=GPa)
#
#
# Indices 1 2 3 4 5 6 
#
# 1 101.9754 53.9833 31.0746 0.0000 -8.8594 0.0000
# 2 53.9833 97.3847 13.9998 0.0000 -1.6816 0.0000
# 3 31.0746 13.9998 53.9505 0.0000 9.5475 0.0000
# 4 0.0000 0.0000 0.0000 40.0592 0.0000 -44.9870
# 5 -8.8594 -1.6816 9.5475 0.0000 32.3043 0.0000
# 6 0.0000 0.0000 0.0000 -44.9870 0.0000 42.4730
#
#
#
# Elastic Compliance Matrix: (Units=1/GPa)
#
#
# Indices 1 2 3 4 5 6 
#
# 1 0.017669 -0.008337 -0.009280 0.000000 0.007154 0.000000
# 2 -0.008337 0.014665 0.001336 0.000000 -0.001918 0.000000
# 3 -0.009280 0.001336 0.025295 0.000000 -0.009951 0.000000
# 4 0.000000 0.000000 0.000000 -0.131742 0.000000 -0.139540
# 5 0.007154 -0.001918 -0.009951 0.000000 0.035759 0.000000
# 6 0.000000 0.000000 0.000000 -0.139540 0.000000 -0.124255
#
#
# Mechanical properties :
#
#
# Convention : Reuss Voigt Hill
#
# Bulk Modulus (GPa) = 39.89286 50.15845 45.02565
# Shear Modulus (GPa) = -41.08709 33.25082 -3.91813
#
# Velocity S-wave (km/s) = -4.42772 3.98316 -1.36731
# Velocity P-wave (km/s) = 2.66547 6.71470 4.35789
#
# Compressibility (1/GPa) = 0.02506714
#
# Stress axis : x y z
#
# Youngs Moduli (GPa) = 56.59642 68.19063 39.53361
#
# Poissons Ratio (x) = 0.56850 0.36686
# Poissons Ratio (y) = 0.47184 -0.05281
# Poissons Ratio (z) = 0.52520 -0.09109
#
# Static dielectric constant tensor:
#      x y z
#    x 1.823420 0.000000 -0.013640 
#    y 0.000000 1.765850 0.000000 
#    z -0.013640 0.000000 1.799390 
# 
# From -- ./inp_files/61212.got.cif
#   From: 2010.05.17/outbox.cif.g08.bks.cpg/sg10_31_cif.got.tgz:61212.got - 2010.06.03 11:33:40.
