data_PCOD9144583
_publ_section_title
;
Structure prediction by ZEFSAII (Michael W. Deem and Ramdas Pophale) SiO2 
 PCOD9144583
Probable space group: P 2/M
;
_chemical_formula_sum "Si O2"
_cell_formula_units_Z 24
_cell_length_a 8.261788
_cell_length_b 17.543134
_cell_length_c 11.792407
_cell_angle_alpha 90.000000
_cell_angle_beta 34.630912
_cell_angle_gamma 90.000000
_cell_volume 971.296867
_symmetry_space_group_name_H-M "P 2/M"
_symmetry_group_IT_number 10
_symmetry_cell_setting 'monoclinic'
loop_
_space_group_symop_operation_xyz
x,y,z
-x,y,-z
-x,-y,-z
x,-y,z
loop_
_atom_site_type_symbol
_atom_site_label
_atom_site_fract_x
_atom_site_fract_y
_atom_site_fract_z
Si Si1 0.587085 0.818750 0.274813
Si Si2 0.294115 0.640224 0.767363
Si Si3 0.016079 0.833362 0.756643
Si Si4 0.295450 0.913320 0.256688
Si Si5 0.087757 0.658467 0.206126
Si Si6 0.627608 0.586874 0.767211
O O1 0.647370 0.728667 0.234623
O O2 0.300211 0.827323 0.514494
O O3 0.848245 0.852181 0.199046
O O4 0.511494 0.857510 0.198812
O O5 0.543676 0.594695 0.684457
O O6 0.205142 0.636324 0.687172
O O7 0.000000 0.617825 0.000000
O O8 0.805078 0.888452 0.810635
O O9 0.885265 0.748497 0.831254
O O10 0.000000 0.911120 0.500000
O O11 0.399384 0.000000 0.199786
O O12 0.138110 0.640114 0.308351
O O13 0.337678 0.612899 0.998123
O O14 0.701712 0.500000 0.750066
#
# Coordination Sequence:
#
# PCOD9144583 Si02
#       6
#     4   4   4   4   4   4
#     4   9  17  30  47  68  91 118 151 186 224 263
#     4   9  18  30  47  69  88 115 152 188 222 262
#     4   9  17  29  47  68  92 119 149 186 223 264
#     4   9  17  28  44  68  95 121 148 181 223 266
#     4   9  17  29  45  67  90 116 148 183 221 263
#     4  10  19  30  47  70  92 115 148 188 226 263
#
# _framework density 24.709233000000001
#
# number of rings (size 3 to 8) (size 9 to 14) (size 15 to 20)
#    0.000    2.833    0.000    2.000    0.000    4.333 
#    0.000    3.333    0.000    3.500    0.000   47.833 
#    0.000    0.000    0.000    0.000    0.000    0.000 
#
# Total GULP energy -134164.595165 kJ/mol
# GULP energy per Si atom -5590.191465 kJ/mol
# Density = 2.465299 g / cm^3
# Si number density = 24.709233 Si / 1000 Ang^3
#
#
#
# Elastic Constant Matrix: (Units=GPa)
#
#
# Indices 1 2 3 4 5 6 
#
# 1 225.6719 74.7821 24.5389 0.0000 -1.0171 0.0000
# 2 74.7821 79.5655 3.1448 0.0000 -7.6819 0.0000
# 3 24.5389 3.1448 78.7592 0.0000 -8.4582 0.0000
# 4 0.0000 0.0000 0.0000 1.3781 0.0000 -75.2702
# 5 -1.0171 -7.6819 -8.4582 0.0000 50.6441 0.0000
# 6 0.0000 0.0000 0.0000 -75.2702 0.0000 15.5044
#
#
#
# Elastic Compliance Matrix: (Units=1/GPa)
#
#
# Indices 1 2 3 4 5 6 
#
# 1 0.006756 -0.006384 -0.001975 0.000000 -0.001163 0.000000
# 2 -0.006384 0.018795 0.001559 0.000000 0.002983 0.000000
# 3 -0.001975 0.001559 0.013514 0.000000 0.002454 0.000000
# 4 0.000000 0.000000 0.000000 -0.002747 0.000000 -0.013336
# 5 -0.001163 0.002983 0.002454 0.000000 0.020585 0.000000
# 6 0.000000 0.000000 0.000000 -0.013336 0.000000 -0.000244
#
#
# Mechanical properties :
#
#
# Convention : Reuss Voigt Hill
#
# Bulk Modulus (GPa) = 39.27041 65.43649 52.35345
# Shear Modulus (GPa) = 63.49427 32.27404 47.88416
#
# Velocity S-wave (km/s) = 5.07468 3.61799 4.40694
# Velocity P-wave (km/s) = 7.08971 6.63274 6.86503
#
# Compressibility (1/GPa) = 0.02546446
#
# Stress axis : x y z
#
# Youngs Moduli (GPa) = 148.00907 53.20514 73.99990
#
# Poissons Ratio (x) = 0.33968 0.14615
# Poissons Ratio (y) = 0.94494 -0.11537
# Poissons Ratio (z) = 0.29232 -0.08295
#
# Static dielectric constant tensor:
#      x y z
#    x 2.040760 0.000000 0.242300 
#    y 0.000000 1.843170 0.000000 
#    z 0.242300 0.000000 2.977050 
# 
# From -- ./inp_files/42405.got.cif
#   From: 2010.05.17/outbox.cif.g08.bks.cpg/sg10_22_cif.got.tgz:42405.got - 2010.06.03 11:33:40.
