data_PCOD9144550
_publ_section_title
;
Structure prediction by ZEFSAII (Michael W. Deem and Ramdas Pophale) SiO2 
 PCOD9144550
Probable space group: P 2/M
;
_chemical_formula_sum "Si O2"
_cell_formula_units_Z 28
_cell_length_a 19.920429
_cell_length_b 12.738059
_cell_length_c 9.736353
_cell_angle_alpha 90.000000
_cell_angle_beta 30.184854
_cell_angle_gamma 90.000000
_cell_volume 1242.184618
_symmetry_space_group_name_H-M "P 2/M"
_symmetry_group_IT_number 10
_symmetry_cell_setting 'monoclinic'
loop_
_space_group_symop_operation_xyz
x,y,z
-x,y,-z
-x,-y,-z
x,-y,z
loop_
_atom_site_type_symbol
_atom_site_label
_atom_site_fract_x
_atom_site_fract_y
_atom_site_fract_z
Si Si1 0.857939 0.874751 0.703539
Si Si2 0.209664 0.615215 0.675657
Si Si3 0.867095 0.843064 0.162382
Si Si4 0.619595 0.659383 0.880752
Si Si5 0.532103 0.668899 0.596987
Si Si6 0.300175 0.116716 0.280812
Si Si7 0.677118 0.120384 0.262897
O O1 0.823171 0.861745 0.605353
O O2 0.000000 0.829771 0.500000
O O3 0.862616 0.000000 0.719326
O O4 0.731558 0.840483 0.018840
O O5 0.151159 0.500000 0.797119
O O6 0.124521 0.717107 0.862851
O O7 0.254205 0.630475 0.436404
O O8 0.339504 0.624732 0.546265
O O9 0.750692 0.874244 0.474566
O O10 0.813430 0.881514 0.112298
O O11 0.000000 0.883173 0.000000
O O12 0.605766 0.785645 0.908974
O O13 0.500000 0.616254 0.000000
O O14 0.592245 0.634912 0.086679
O O15 0.500000 0.633020 0.500000
O O16 0.575714 0.793072 0.502814
O O17 0.352137 0.000000 0.160160
O O18 0.627449 0.000000 0.347933
#
# Coordination Sequence:
#
# PCOD9144550 Si02
#       7
#     4   4   4   4   4   4   4
#     4   9  17  29  45  65  92 130 169 198 229 272
#     4   9  20  38  55  72  95 123 160 204 252 308
#     4  10  20  33  51  75  99 125 161 206 251 289
#     4   9  19  33  49  70  96 129 163 195 239 289
#     4  10  20  33  51  76 102 129 164 204 244 285
#     4  10  19  30  46  70  99 131 167 199 228 277
#     4  10  20  32  47  72 106 139 168 198 234 280
#
# _framework density 22.540932999999999
#
# number of rings (size 3 to 8) (size 9 to 14) (size 15 to 20)
#    0.000    2.429    0.000    3.000    0.000    6.571 
#    0.000    0.000    0.000    0.000    0.000    0.000 
#    0.000   13.714    0.000    0.000    0.000    0.000 
#
# Total GULP energy -156083.408889 kJ/mol
# GULP energy per Si atom -5574.407460 kJ/mol
# Density = 2.248963 g / cm^3
# Si number density = 22.540933 Si / 1000 Ang^3
#
#
#
# Elastic Constant Matrix: (Units=GPa)
#
#
# Indices 1 2 3 4 5 6 
#
# 1 119.0885 8.6146 18.0738 0.0000 10.5240 0.0000
# 2 8.6146 137.4314 2.1911 0.0000 -2.0119 0.0000
# 3 18.0738 2.1911 31.8583 0.0000 12.5864 0.0000
# 4 0.0000 0.0000 0.0000 -5.6267 0.0000 5.6641
# 5 10.5240 -2.0119 12.5864 0.0000 40.2555 0.0000
# 6 0.0000 0.0000 0.0000 5.6641 0.0000 -10.4279
#
#
#
# Elastic Compliance Matrix: (Units=1/GPa)
#
#
# Indices 1 2 3 4 5 6 
#
# 1 0.009252 -0.000516 -0.004846 0.000000 -0.000929 0.000000
# 2 -0.000516 0.007326 -0.000467 0.000000 0.000647 0.000000
# 3 -0.004846 -0.000467 0.038426 0.000000 -0.010771 0.000000
# 4 0.000000 0.000000 0.000000 -0.392147 0.000000 -0.213003
# 5 -0.000929 0.000647 -0.010771 0.000000 0.028484 0.000000
# 6 0.000000 0.000000 0.000000 -0.213003 0.000000 -0.211594
#
#
# Mechanical properties :
#
#
# Convention : Reuss Voigt Hill
#
# Bulk Modulus (GPa) = 23.07058 38.45969 30.76514
# Shear Modulus (GPa) = -10.11846 22.14011 6.01083
#
# Velocity S-wave (km/s) = -2.12101 3.13744 1.63475
# Velocity P-wave (km/s) = 2.06373 5.49762 4.15228
#
# Compressibility (1/GPa) = 0.04334525
#
# Stress axis : x y z
#
# Youngs Moduli (GPa) = 108.08380 136.50709 26.02433
#
# Poissons Ratio (x) = 0.07048 0.12612
# Poissons Ratio (y) = 0.05580 0.01214
# Poissons Ratio (z) = 0.52379 0.06369
#
# Static dielectric constant tensor:
#      x y z
#    x 1.848450 0.000000 -0.029820 
#    y 0.000000 1.850030 0.000000 
#    z -0.029820 0.000000 1.874200 
# 
# From -- ./inp_files/32775.got.cif
#   From: 2010.05.17/outbox.cif.g08.bks.cpg/sg10_17_cif.got.tgz:32775.got - 2010.06.03 11:33:40.
