data_PCOD9144085
_publ_section_title
;
Structure prediction by ZEFSAII (Michael W. Deem and Ramdas Pophale) SiO2 
 PCOD9144085
Probable space group: P 2/M
;
_chemical_formula_sum "Si O2"
_cell_formula_units_Z 32
_cell_length_a 14.035322
_cell_length_b 15.597875
_cell_length_c 19.767027
_cell_angle_alpha 90.000000
_cell_angle_beta 22.416028
_cell_angle_gamma 90.000000
_cell_volume 1650.171191
_symmetry_space_group_name_H-M "P 2/M"
_symmetry_group_IT_number 10
_symmetry_cell_setting 'monoclinic'
loop_
_space_group_symop_operation_xyz
x,y,z
-x,y,-z
-x,-y,-z
x,-y,z
loop_
_atom_site_type_symbol
_atom_site_label
_atom_site_fract_x
_atom_site_fract_y
_atom_site_fract_z
Si Si1 0.199397 0.901615 0.429897
Si Si2 0.893648 0.272015 0.169189
Si Si3 0.204687 0.907110 0.706357
Si Si4 0.514741 0.266646 0.197415
Si Si5 0.049015 0.172198 0.670325
Si Si6 0.345101 0.681705 0.037594
Si Si7 0.853054 0.405314 0.312330
Si Si8 0.441574 0.679777 0.384927
O O1 0.409712 0.829287 0.278065
O O2 0.065261 0.878463 0.589206
O O3 0.000000 0.895278 0.500000
O O4 0.292189 0.000000 0.371771
O O5 0.838472 0.172231 0.216365
O O6 0.797870 0.330873 0.294382
O O7 0.731121 0.305470 0.213346
O O8 0.191056 0.275459 0.980408
O O9 0.500000 0.910218 0.500000
O O10 0.076228 0.885827 0.718821
O O11 0.120961 0.000000 0.786780
O O12 0.393770 0.324104 0.336207
O O13 0.487493 0.295279 0.137740
O O14 0.286325 0.236790 0.512089
O O15 0.808540 0.232976 0.838483
O O16 0.133160 0.614684 0.154041
O O17 0.500000 0.651452 0.000000
O O18 0.833886 0.500000 0.295048
O O19 0.671820 0.395108 0.495363
#
# Coordination Sequence:
#
# PCOD9144085 Si02
#       8
#     4   4   4   4   4   4   4   4
#     4  10  21  36  53  76 108 147 194 241 285 331
#     4  11  19  37  54  83 115 149 187 227 275 330
#     4  11  19  30  53  81 109 147 191 229 265 318
#     4  10  21  35  55  81 111 148 179 231 290 332
#     4  10  18  35  55  75 105 147 190 230 269 328
#     4  10  20  37  61  84 109 144 188 234 285 334
#     4  10  21  37  61  87 112 147 189 226 270 336
#     4  10  19  34  57  78 113 146 183 223 273 331
#
# _framework density 19.391926999999999
#
# number of rings (size 3 to 8) (size 9 to 14) (size 15 to 20)
#    0.000    1.750    5.000    1.875    0.000    1.750 
#    0.000    2.500    0.000    9.375    0.000    0.000 
#    0.000    0.000    0.000    0.000    0.000    0.000 
#
# Total GULP energy -178400.290532 kJ/mol
# GULP energy per Si atom -5575.009079 kJ/mol
# Density = 1.934779 g / cm^3
# Si number density = 19.391927 Si / 1000 Ang^3
#
#
#
# Elastic Constant Matrix: (Units=GPa)
#
#
# Indices 1 2 3 4 5 6 
#
# 1 85.0141 2.9141 6.3684 0.0000 8.2352 0.0000
# 2 2.9141 69.5487 8.0721 0.0000 6.5013 0.0000
# 3 6.3684 8.0721 37.9602 0.0000 10.7415 0.0000
# 4 0.0000 0.0000 0.0000 8.5459 0.0000 1.8185
# 5 8.2352 6.5013 10.7415 0.0000 27.4586 0.0000
# 6 0.0000 0.0000 0.0000 1.8185 0.0000 -25.2350
#
#
#
# Elastic Compliance Matrix: (Units=1/GPa)
#
#
# Indices 1 2 3 4 5 6 
#
# 1 0.012158 -0.000081 -0.001120 0.000000 -0.003189 0.000000
# 2 -0.000081 0.014903 -0.002433 0.000000 -0.002552 0.000000
# 3 -0.001120 -0.002433 0.030125 0.000000 -0.010873 0.000000
# 4 0.000000 0.000000 0.000000 0.115248 0.000000 0.008305
# 5 -0.003189 -0.002552 -0.010873 0.000000 0.042232 0.000000
# 6 0.000000 0.000000 0.000000 0.008305 0.000000 -0.039029
#
#
# Mechanical properties :
#
#
# Convention : Reuss Voigt Hill
#
# Bulk Modulus (GPa) = 20.03309 25.24802 22.64056
# Shear Modulus (GPa) = 25.05688 13.83180 19.44434
#
# Velocity S-wave (km/s) = 3.59852 2.67362 3.16998
# Velocity P-wave (km/s) = 5.25536 4.75175 5.00989
#
# Compressibility (1/GPa) = 0.04991741
#
# Stress axis : x y z
#
# Youngs Moduli (GPa) = 82.24794 67.10151 33.19465
#
# Poissons Ratio (x) = 0.00546 0.03718
# Poissons Ratio (y) = 0.00669 0.08077
# Poissons Ratio (z) = 0.09212 0.16327
#
# Static dielectric constant tensor:
#      x y z
#    x 1.700630 0.000000 0.015130 
#    y 0.000000 1.681090 0.000000 
#    z 0.015130 0.000000 1.705650 
# 
# From -- ./inp_files/85389.got.cif
#   From: 2010.05.17/outbox.cif.g08.bks.cpg/sg10_43_cif.got.tgz:85389.got - 2010.06.03 11:33:40.
