data_PCOD9144154
_publ_section_title
;
Structure prediction by ZEFSAII (Michael W. Deem and Ramdas Pophale) SiO2 
 PCOD9144154
Probable space group: P 2/M
;
_chemical_formula_sum "Si O2"
_cell_formula_units_Z 28
_cell_length_a 10.272645
_cell_length_b 7.787104
_cell_length_c 18.875842
_cell_angle_alpha 90.000000
_cell_angle_beta 48.434415
_cell_angle_gamma 90.000000
_cell_volume 1129.744937
_symmetry_space_group_name_H-M "P 2/M"
_symmetry_group_IT_number 10
_symmetry_cell_setting 'monoclinic'
loop_
_space_group_symop_operation_xyz
x,y,z
-x,y,-z
-x,-y,-z
x,-y,z
loop_
_atom_site_type_symbol
_atom_site_label
_atom_site_fract_x
_atom_site_fract_y
_atom_site_fract_z
Si Si1 0.531606 0.699999 0.909078
Si Si2 0.883315 0.198670 0.705661
Si Si3 0.518119 0.289595 0.574839
Si Si4 0.867862 0.291964 0.265206
Si Si5 0.600876 0.800976 0.186627
Si Si6 0.753510 0.698306 0.609373
Si Si7 0.033635 0.306334 0.913299
O O1 0.482679 0.500000 0.927147
O O2 0.728167 0.711403 0.806781
O O3 0.413007 0.790769 0.893310
O O4 0.500000 0.765821 0.000000
O O5 0.891400 0.239152 0.618464
O O6 0.056938 0.238344 0.686341
O O7 0.838328 0.000000 0.725978
O O8 0.500000 0.240033 0.500000
O O9 0.524673 0.500000 0.575225
O O10 0.330792 0.233658 0.672656
O O11 0.684366 0.226004 0.559716
O O12 0.870232 0.500000 0.261902
O O13 0.991273 0.230705 0.155806
O O14 0.423469 0.723277 0.281150
O O15 0.758037 0.687204 0.156820
O O16 0.617900 0.000000 0.201009
O O17 0.793032 0.500000 0.583325
O O18 0.958004 0.500000 0.942967
O O19 0.000000 0.213656 0.000000
#
# Coordination Sequence:
#
# PCOD9144154 Si02
#       7
#     4   4   4   4   4   4   4
#     4  10  21  36  55  76 104 147 198 243 284 337
#     4  11  23  37  55  82 117 155 192 236 291 342
#     4   9  18  35  64  96 117 139 185 245 294 340
#     4  10  20  38  60  85 117 152 192 241 291 342
#     4  11  21  33  52  78 111 146 186 233 285 335
#     4  10  18  36  62  85 112 149 191 231 281 340
#     4  10  21  36  55  79 109 150 197 237 281 336
#
# _framework density 24.784355999999999
#
# number of rings (size 3 to 8) (size 9 to 14) (size 15 to 20)
#    0.000    1.857    1.429    5.143    2.000    2.000 
#    0.000    0.714    0.000    8.143    0.000    0.000 
#    0.000    0.000    0.000    0.000    0.000    0.000 
#
# Total GULP energy -156262.058820 kJ/mol
# GULP energy per Si atom -5580.787815 kJ/mol
# Density = 2.472795 g / cm^3
# Si number density = 24.784356 Si / 1000 Ang^3
#
#
#
# Elastic Constant Matrix: (Units=GPa)
#
#
# Indices 1 2 3 4 5 6 
#
# 1 161.2686 5.3454 43.6701 0.0000 38.7246 0.0000
# 2 5.3454 66.7283 -1.0344 0.0000 2.1863 0.0000
# 3 43.6701 -1.0344 91.5842 0.0000 40.7182 0.0000
# 4 0.0000 0.0000 0.0000 -11.4901 0.0000 -24.2423
# 5 38.7246 2.1863 40.7182 0.0000 46.6323 0.0000
# 6 0.0000 0.0000 0.0000 -24.2423 0.0000 33.3392
#
#
#
# Elastic Compliance Matrix: (Units=1/GPa)
#
#
# Indices 1 2 3 4 5 6 
#
# 1 0.007866 -0.000479 -0.001409 0.000000 -0.005279 0.000000
# 2 -0.000479 0.015073 0.000876 0.000000 -0.001074 0.000000
# 3 -0.001409 0.000876 0.018141 0.000000 -0.014712 0.000000
# 4 0.000000 0.000000 0.000000 -0.034343 0.000000 -0.024972
# 5 -0.005279 -0.001074 -0.014712 0.000000 0.038725 0.000000
# 6 0.000000 0.000000 0.000000 -0.024972 0.000000 0.011836
#
#
# Mechanical properties :
#
#
# Convention : Reuss Voigt Hill
#
# Bulk Modulus (GPa) = 25.60353 46.17147 35.88750
# Shear Modulus (GPa) = 69.11720 31.80296 50.46008
#
# Velocity S-wave (km/s) = 5.28658 3.58605 4.51706
# Velocity P-wave (km/s) = 6.90050 5.98465 6.45883
#
# Compressibility (1/GPa) = 0.03905711
#
# Stress axis : x y z
#
# Youngs Moduli (GPa) = 127.13034 66.34253 55.12241
#
# Poissons Ratio (x) = 0.03178 0.07766
# Poissons Ratio (y) = 0.06089 -0.04829
# Poissons Ratio (z) = 0.17912 -0.05812
#
# Static dielectric constant tensor:
#      x y z
#    x 2.018460 0.000000 0.043820 
#    y 0.000000 1.892570 0.000000 
#    z 0.043820 0.000000 2.070890 
# 
# From -- ./inp_files/83321.got.cif
#   From: 2010.05.17/outbox.cif.g08.bks.cpg/sg10_42_cif.got.tgz:83321.got - 2010.06.03 11:33:40.
