data_PCOD9144569
_publ_section_title
;
Structure prediction by ZEFSAII (Michael W. Deem and Ramdas Pophale) SiO2 
 PCOD9144569
Probable space group: P 2/M
;
_chemical_formula_sum "Si O2"
_cell_formula_units_Z 28
_cell_length_a 12.232630
_cell_length_b 7.619050
_cell_length_c 14.323301
_cell_angle_alpha 90.000000
_cell_angle_beta 55.297338
_cell_angle_gamma 90.000000
_cell_volume 1097.482801
_symmetry_space_group_name_H-M "P 2/M"
_symmetry_group_IT_number 10
_symmetry_cell_setting 'monoclinic'
loop_
_space_group_symop_operation_xyz
x,y,z
-x,y,-z
-x,-y,-z
x,-y,z
loop_
_atom_site_type_symbol
_atom_site_label
_atom_site_fract_x
_atom_site_fract_y
_atom_site_fract_z
Si Si1 0.844670 0.289151 0.578348
Si Si2 0.791081 0.784929 0.896449
Si Si3 0.185985 0.196985 0.906376
Si Si4 0.455516 0.693773 0.719678
Si Si5 0.085075 0.784793 0.766187
Si Si6 0.683679 0.800013 0.475283
Si Si7 0.376504 0.801080 0.182301
O O1 0.818994 0.500000 0.591920
O O2 0.778625 0.206781 0.519593
O O3 0.771240 0.202028 0.700817
O O4 0.000000 0.260141 0.500000
O O5 0.662971 0.723649 0.899247
O O6 0.942015 0.733891 0.793097
O O7 0.782919 0.000000 0.896519
O O8 0.785874 0.723227 0.006246
O O9 0.329352 0.184148 0.787046
O O10 0.091960 0.271165 0.871218
O O11 0.139573 0.000000 0.949932
O O12 0.399980 0.500000 0.743325
O O13 0.549321 0.720348 0.584057
O O14 0.538405 0.715162 0.776063
O O15 0.217983 0.719264 0.649666
O O16 0.089823 0.000000 0.761307
O O17 0.653727 0.000000 0.463811
O O18 0.427789 0.000000 0.147628
#
# Coordination Sequence:
#
# PCOD9144569 Si02
#       7
#     4   4   4   4   4   4   4
#     4  10  19  30  46  73 109 146 180 216 267 326
#     4   9  18  33  57  88 114 138 175 225 276 323
#     4  10  20  37  60  82 109 145 184 224 267 321
#     4  11  23  39  55  77 112 148 186 226 272 325
#     4   9  18  33  57  88 114 138 175 225 276 323
#     4  10  19  33  55  81 108 139 180 226 271 321
#     4  10  19  33  55  81 108 139 180 226 271 321
#
# _framework density 25.512926
#
# number of rings (size 3 to 8) (size 9 to 14) (size 15 to 20)
#    0.000    2.143    0.000    5.571    0.000    5.143 
#    0.000    8.571    0.000    5.143    0.000    0.000 
#    0.000    0.000    0.000    0.000    0.000    0.000 
#
# Total GULP energy -156387.695945 kJ/mol
# GULP energy per Si atom -5585.274855 kJ/mol
# Density = 2.545486 g / cm^3
# Si number density = 25.512926 Si / 1000 Ang^3
#
#
#
# Elastic Constant Matrix: (Units=GPa)
#
#
# Indices 1 2 3 4 5 6 
#
# 1 107.8745 -2.1041 24.5790 0.0000 9.0971 0.0000
# 2 -2.1041 79.3479 -3.0212 0.0000 -7.8864 0.0000
# 3 24.5790 -3.0212 87.7883 0.0000 4.2105 0.0000
# 4 0.0000 0.0000 0.0000 10.4097 0.0000 52.0357
# 5 9.0971 -7.8864 4.2105 0.0000 53.0963 0.0000
# 6 0.0000 0.0000 0.0000 52.0357 0.0000 82.6024
#
#
#
# Elastic Compliance Matrix: (Units=1/GPa)
#
#
# Indices 1 2 3 4 5 6 
#
# 1 0.010019 0.000013 -0.002733 0.000000 -0.001498 0.000000
# 2 0.000013 0.012802 0.000347 0.000000 0.001872 0.000000
# 3 -0.002733 0.000347 0.012190 0.000000 -0.000447 0.000000
# 4 0.000000 0.000000 0.000000 -0.044702 0.000000 0.028160
# 5 -0.001498 0.001872 -0.000447 0.000000 0.019404 0.000000
# 6 0.000000 0.000000 0.000000 0.028160 0.000000 -0.005633
#
#
# Mechanical properties :
#
#
# Convention : Reuss Voigt Hill
#
# Bulk Modulus (GPa) = 33.04111 34.87980 33.96046
# Shear Modulus (GPa) = 264.35798 46.25884 155.30841
#
# Velocity S-wave (km/s) = 10.19030 4.26273 7.81067
# Velocity P-wave (km/s) = 12.30590 6.15865 9.73047
#
# Compressibility (1/GPa) = 0.03026533
#
# Stress axis : x y z
#
# Youngs Moduli (GPa) = 99.80741 78.11084 82.03725
#
# Poissons Ratio (x) = -0.00100 0.22420
# Poissons Ratio (y) = -0.00127 -0.02849
# Poissons Ratio (z) = 0.27277 -0.02712
#
# Static dielectric constant tensor:
#      x y z
#    x 2.005290 0.000000 0.024870 
#    y 0.000000 1.983640 0.000000 
#    z 0.024870 0.000000 2.099420 
# 
# From -- ./inp_files/63642.got.cif
#   From: 2010.05.17/outbox.cif.g08.bks.cpg/sg10_32_cif.got.tgz:63642.got - 2010.06.03 11:33:40.
