data_PCOD9144594
_publ_section_title
;
Structure prediction by ZEFSAII (Michael W. Deem and Ramdas Pophale) SiO2 
 PCOD9144594
Probable space group: P 2/M
;
_chemical_formula_sum "Si O2"
_cell_formula_units_Z 32
_cell_length_a 14.497281
_cell_length_b 14.625865
_cell_length_c 12.182456
_cell_angle_alpha 90.000000
_cell_angle_beta 140.876407
_cell_angle_gamma 90.000000
_cell_volume 1629.930553
_symmetry_space_group_name_H-M "P 2/M"
_symmetry_group_IT_number 10
_symmetry_cell_setting 'monoclinic'
loop_
_space_group_symop_operation_xyz
x,y,z
-x,y,-z
-x,-y,-z
x,-y,z
loop_
_atom_site_type_symbol
_atom_site_label
_atom_site_fract_x
_atom_site_fract_y
_atom_site_fract_z
Si Si1 0.733973 0.603975 0.718353
Si Si2 0.397859 0.892041 0.756138
Si Si3 0.480182 0.604748 0.667974
Si Si4 0.414532 0.722160 0.028257
Si Si5 0.160149 0.789663 0.114695
Si Si6 0.252276 0.894292 0.393988
Si Si7 0.916607 0.895998 0.153388
Si Si8 0.845499 0.192013 0.308043
O O1 0.790858 0.500000 0.764599
O O2 0.603728 0.603972 0.687658
O O3 0.666333 0.629177 0.536275
O O4 0.836935 0.682509 0.859792
O O5 0.533979 0.827871 0.910351
O O6 0.363042 0.879582 0.595375
O O7 0.260621 0.851848 0.698225
O O8 0.417297 0.000000 0.795925
O O9 0.463211 0.500000 0.691319
O O10 0.533053 0.668335 0.815878
O O11 0.500000 0.685804 0.000000
O O12 0.245603 0.728164 0.837475
O O13 0.271500 0.833372 0.304181
O O14 0.176151 0.825585 0.006564
O O15 0.000000 0.826520 0.000000
O O16 0.089639 0.878405 0.294314
O O17 0.258094 0.000000 0.365909
O O18 0.881962 0.881787 0.248171
O O19 0.885857 0.000000 0.090053
O O20 0.000000 0.222706 0.500000
#
# Coordination Sequence:
#
# PCOD9144594 Si02
#       8
#     4   4   4   4   4   4   4   4
#     4   9  18  33  55  79  99 127 167 208 252 309
#     4  10  20  34  51  74 106 141 176 216 258 297
#     4   9  18  36  60  79  98 128 169 212 257 313
#     4  10  22  35  52  80 107 135 168 219 262 307
#     4  10  19  30  47  74 106 136 162 208 258 306
#     4   9  17  30  48  69  99 138 175 209 249 300
#     4  10  19  30  47  71  99 137 183 216 244 294
#     4  11  21  34  52  73 102 142 182 217 254 299
#
# _framework density 19.632738
#
# number of rings (size 3 to 8) (size 9 to 14) (size 15 to 20)
#    0.000    2.250    1.250    3.000    0.000    5.250 
#    0.000    0.000    0.000    0.375    0.000    7.875 
#    0.000    0.000    0.000    0.000    0.000    0.000 
#
# Total GULP energy -178408.418665 kJ/mol
# GULP energy per Si atom -5575.263083 kJ/mol
# Density = 1.958805 g / cm^3
# Si number density = 19.632738 Si / 1000 Ang^3
#
#
#
# Elastic Constant Matrix: (Units=GPa)
#
#
# Indices 1 2 3 4 5 6 
#
# 1 27.3073 3.9605 26.0942 0.0000 -9.6627 0.0000
# 2 3.9605 61.4489 58.4666 0.0000 -13.1657 0.0000
# 3 26.0942 58.4666 112.7664 0.0000 -14.7100 0.0000
# 4 0.0000 0.0000 0.0000 27.3753 0.0000 -2.8965
# 5 -9.6627 -13.1657 -14.7100 0.0000 28.8761 0.0000
# 6 0.0000 0.0000 0.0000 -2.8965 0.0000 11.7138
#
#
#
# Elastic Compliance Matrix: (Units=1/GPa)
#
#
# Indices 1 2 3 4 5 6 
#
# 1 0.062940 0.022775 -0.023856 0.000000 0.019293 0.000000
# 2 0.022775 0.041577 -0.025023 0.000000 0.013831 0.000000
# 3 -0.023856 -0.025023 0.026600 0.000000 -0.005841 0.000000
# 4 0.000000 0.000000 0.000000 0.037511 0.000000 0.009275
# 5 0.019293 0.013831 -0.005841 0.000000 0.044417 0.000000
# 6 0.000000 0.000000 0.000000 0.009275 0.000000 0.087663
#
#
# Mechanical properties :
#
#
# Convention : Reuss Voigt Hill
#
# Bulk Modulus (GPa) = 12.67274 42.06281 27.36777
# Shear Modulus (GPa) = 13.18503 21.12647 17.15575
#
# Velocity S-wave (km/s) = 2.59430 3.28393 2.95927
# Velocity P-wave (km/s) = 3.92973 5.98751 5.06424
#
# Compressibility (1/GPa) = 0.07890956
#
# Stress axis : x y z
#
# Youngs Moduli (GPa) = 15.88823 24.05150 37.59417
#
# Poissons Ratio (x) = -0.54777 0.89684
# Poissons Ratio (y) = -0.36185 0.94071
# Poissons Ratio (z) = 0.37903 0.60184
#
# Static dielectric constant tensor:
#      x y z
#    x 1.710800 0.000000 0.002890 
#    y 0.000000 1.688130 0.000000 
#    z 0.002890 0.000000 1.736270 
# 
# From -- ./inp_files/51665.got.cif
#   From: 2010.05.17/outbox.cif.g08.bks.cpg/sg10_26_cif.got.tgz:51665.got - 2010.06.03 11:33:40.
