data_PCOD9144075
_publ_section_title
;
Structure prediction by ZEFSAII (Michael W. Deem and Ramdas Pophale) SiO2 
 PCOD9144075
Probable space group: P 2/M
;
_chemical_formula_sum "Si O2"
_cell_formula_units_Z 28
_cell_length_a 16.188598
_cell_length_b 15.354518
_cell_length_c 8.398461
_cell_angle_alpha 90.000000
_cell_angle_beta 138.803477
_cell_angle_gamma 90.000000
_cell_volume 1374.977981
_symmetry_space_group_name_H-M "P 2/M"
_symmetry_group_IT_number 10
_symmetry_cell_setting 'monoclinic'
loop_
_space_group_symop_operation_xyz
x,y,z
-x,y,-z
-x,-y,-z
x,-y,z
loop_
_atom_site_type_symbol
_atom_site_label
_atom_site_fract_x
_atom_site_fract_y
_atom_site_fract_z
Si Si1 0.653805 0.098286 0.040614
Si Si2 0.867832 0.783754 0.753587
Si Si3 0.734771 0.598586 0.047187
Si Si4 0.793410 0.594953 0.759578
Si Si5 0.138658 0.234396 0.634874
Si Si6 0.534460 0.360211 0.226038
Si Si7 0.609186 0.842578 0.339489
O O1 0.757477 0.168883 0.141735
O O2 0.634350 0.114172 0.203297
O O3 0.695498 0.000000 0.073338
O O4 0.514593 0.113401 0.767743
O O5 0.858679 0.683947 0.800048
O O6 0.863604 0.780066 0.556892
O O7 0.742198 0.835953 0.622286
O O8 0.000000 0.821777 0.000000
O O9 0.749475 0.500000 0.128783
O O10 0.814026 0.668377 0.260341
O O11 0.776866 0.600800 0.925364
O O12 0.588995 0.624973 0.848694
O O13 0.850128 0.500000 0.802984
O O14 0.656284 0.597662 0.479551
O O15 0.000000 0.220596 0.500000
O O16 0.568277 0.258142 0.257822
O O17 0.500000 0.392876 0.000000
#
# Coordination Sequence:
#
# PCOD9144075 Si02
#       7
#     4   4   4   4   4   4   4
#     4  10  18  34  62  93 120 149 193 248 300 354
#     4  10  21  37  58  83 115 159 199 240 302 356
#     4  11  22  37  55  81 120 162 205 249 297 349
#     4  10  22  35  52  81 115 158 207 253 297 346
#     4  11  23  39  61  87 123 156 200 248 298 364
#     4  11  18  32  54  83 123 156 198 242 295 351
#     4   9  16  32  56  87 119 144 192 238 285 349
#
# _framework density 20.363962999999998
#
# number of rings (size 3 to 8) (size 9 to 14) (size 15 to 20)
#    0.000    1.714    2.857    4.286    0.000    4.857 
#    0.000    0.000    0.000   10.714    0.000   28.000 
#    0.000    0.000    0.000    0.000    0.000    0.000 
#
# Total GULP energy -156300.789961 kJ/mol
# GULP energy per Si atom -5582.171070 kJ/mol
# Density = 2.031761 g / cm^3
# Si number density = 20.363963 Si / 1000 Ang^3
#
#
#
# Elastic Constant Matrix: (Units=GPa)
#
#
# Indices 1 2 3 4 5 6 
#
# 1 56.6746 12.8950 21.9868 0.0000 31.4937 0.0000
# 2 12.8950 84.6711 25.6200 0.0000 14.2188 0.0000
# 3 21.9868 25.6200 104.6398 0.0000 30.1922 0.0000
# 4 0.0000 0.0000 0.0000 -18.3568 0.0000 18.0259
# 5 31.4937 14.2188 30.1922 0.0000 40.9051 0.0000
# 6 0.0000 0.0000 0.0000 18.0259 0.0000 -10.4040
#
#
#
# Elastic Compliance Matrix: (Units=1/GPa)
#
#
# Indices 1 2 3 4 5 6 
#
# 1 0.030916 -0.000875 0.000633 0.000000 -0.023966 0.000000
# 2 -0.000875 0.013020 -0.002405 0.000000 -0.002077 0.000000
# 3 0.000633 -0.002405 0.012594 0.000000 -0.008947 0.000000
# 4 0.000000 0.000000 0.000000 0.077672 0.000000 0.134574
# 5 -0.023966 -0.002077 -0.008947 0.000000 0.050225 0.000000
# 6 0.000000 0.000000 0.000000 0.134574 0.000000 0.137045
#
#
# Mechanical properties :
#
#
# Convention : Reuss Voigt Hill
#
# Bulk Modulus (GPa) = 19.51741 40.77656 30.14698
# Shear Modulus (GPa) = 14.54150 14.79443 14.66797
#
# Velocity S-wave (km/s) = 2.67513 2.69829 2.68673
# Velocity P-wave (km/s) = 4.37571 5.45665 4.94580
#
# Compressibility (1/GPa) = 0.05123631
#
# Stress axis : x y z
#
# Youngs Moduli (GPa) = 32.34604 76.80424 79.40362
#
# Poissons Ratio (x) = 0.06723 -0.05029
# Poissons Ratio (y) = 0.02832 0.19094
# Poissons Ratio (z) = -0.02049 0.18469
#
# Static dielectric constant tensor:
#      x y z
#    x 1.739580 0.000000 0.018190 
#    y 0.000000 1.725970 0.000000 
#    z 0.018190 0.000000 1.735520 
# 
# From -- ./inp_files/32834.got.cif
#   From: 2010.05.17/outbox.cif.g08.bks.cpg/sg10_17_cif.got.tgz:32834.got - 2010.06.03 11:33:40.
