data_PCOD9144058
_publ_section_title
;
Structure prediction by ZEFSAII (Michael W. Deem and Ramdas Pophale) SiO2 
 PCOD9144058
Probable space group: P 2/M
;
_chemical_formula_sum "Si O2"
_cell_formula_units_Z 32
_cell_length_a 11.199068
_cell_length_b 7.692807
_cell_length_c 15.067225
_cell_angle_alpha 90.000000
_cell_angle_beta 102.265183
_cell_angle_gamma 90.000000
_cell_volume 1268.446842
_symmetry_space_group_name_H-M "P 2/M"
_symmetry_group_IT_number 10
_symmetry_cell_setting 'monoclinic'
loop_
_space_group_symop_operation_xyz
x,y,z
-x,y,-z
-x,-y,-z
x,-y,z
loop_
_atom_site_type_symbol
_atom_site_label
_atom_site_fract_x
_atom_site_fract_y
_atom_site_fract_z
Si Si1 0.451354 0.796102 0.397008
Si Si2 0.207271 0.712809 0.789149
Si Si3 0.808414 0.700194 0.720069
Si Si4 0.103945 0.287075 0.447550
Si Si5 0.525705 0.290791 0.104296
Si Si6 0.086775 0.697610 0.940497
Si Si7 0.733383 0.194767 0.897217
Si Si8 0.708113 0.290213 0.382025
O O1 0.500000 0.727496 0.500000
O O2 0.330215 0.708146 0.340148
O O3 0.570411 0.775248 0.353836
O O4 0.423066 0.000000 0.401697
O O5 0.200701 0.500000 0.791276
O O6 0.342554 0.767350 0.841886
O O7 0.205102 0.762969 0.686052
O O8 0.111640 0.774844 0.847873
O O9 0.842364 0.500000 0.738456
O O10 0.891773 0.773009 0.653397
O O11 0.805141 0.783043 0.816435
O O12 0.098847 0.500000 0.443127
O O13 0.229527 0.235867 0.516352
O O14 0.000000 0.231977 0.500000
O O15 0.528087 0.500000 0.105731
O O16 0.408419 0.233827 0.141789
O O17 0.500000 0.230829 0.000000
O O18 0.041592 0.500000 0.920473
O O19 0.214556 0.690188 0.014618
O O20 0.000000 0.784800 0.000000
O O21 0.745654 0.000000 0.931451
O O22 0.702977 0.500000 0.379716
#
# Coordination Sequence:
#
# PCOD9144058 Si02
#       8
#     4   4   4   4   4   4   4   4
#     4  11  22  36  57  86 122 155 189 237 294 352
#     4   9  18  33  57  88 115 143 184 242 295 339
#     4  11  22  38  62  88 117 155 199 242 291 349
#     4   9  19  35  57  86 115 145 192 249 292 333
#     4  10  18  34  60  85 116 151 193 240 288 349
#     4  10  21  40  64  88 114 153 203 247 292 346
#     4  12  25  39  58  87 124 158 195 242 299 358
#     4  10  19  34  58  85 114 150 192 236 287 347
#
# _framework density 25.227703000000002
#
# number of rings (size 3 to 8) (size 9 to 14) (size 15 to 20)
#    0.000    1.750    2.500    2.625    0.000    3.000 
#    0.000    4.375    0.000    4.875    0.000    0.000 
#    0.000    0.000    0.000    0.000    0.000    0.000 
#
# Total GULP energy -178999.453544 kJ/mol
# GULP energy per Si atom -5593.732923 kJ/mol
# Density = 2.517028 g / cm^3
# Si number density = 25.227703 Si / 1000 Ang^3
#
#
#
# Elastic Constant Matrix: (Units=GPa)
#
#
# Indices 1 2 3 4 5 6 
#
# 1 89.4965 -5.1389 26.6455 0.0000 -27.9774 0.0000
# 2 -5.1389 59.6597 7.6105 0.0000 1.9063 0.0000
# 3 26.6455 7.6105 146.0596 0.0000 -28.3461 0.0000
# 4 0.0000 0.0000 0.0000 -17.1158 0.0000 -14.1724
# 5 -27.9774 1.9063 -28.3461 0.0000 56.1422 0.0000
# 6 0.0000 0.0000 0.0000 -14.1724 0.0000 -88.7086
#
#
#
# Elastic Compliance Matrix: (Units=1/GPa)
#
#
# Indices 1 2 3 4 5 6 
#
# 1 0.013524 0.001146 -0.001360 0.000000 0.006014 0.000000
# 2 0.001146 0.017036 -0.001217 0.000000 -0.000622 0.000000
# 3 -0.001360 -0.001217 0.007799 0.000000 0.003301 0.000000
# 4 0.000000 0.000000 0.000000 -0.067333 0.000000 0.010757
# 5 0.006014 -0.000622 0.003301 0.000000 0.022497 0.000000
# 6 0.000000 0.000000 0.000000 0.010757 0.000000 -0.012991
#
#
# Mechanical properties :
#
#
# Convention : Reuss Voigt Hill
#
# Bulk Modulus (GPa) = 28.17164 39.27222 33.72193
# Shear Modulus (GPa) = -1047.17895 7.80347 -519.68774
#
# Velocity S-wave (km/s) = -20.39588 1.76066 -14.36823
# Velocity P-wave (km/s) = 23.31233 4.44231 16.18225
#
# Compressibility (1/GPa) = 0.03549669
#
# Stress axis : x y z
#
# Youngs Moduli (GPa) = 73.94074 58.70043 128.22640
#
# Poissons Ratio (x) = -0.06728 0.17436
# Poissons Ratio (y) = -0.08475 0.15611
# Poissons Ratio (z) = 0.10054 0.07147
#
# Static dielectric constant tensor:
#      x y z
#    x 2.037410 0.000000 -0.024370 
#    y 0.000000 1.937220 0.000000 
#    z -0.024370 0.000000 1.983230 
# 
# From -- ./inp_files/63786.got.cif
#   From: 2010.05.17/outbox.cif.g08.bks.cpg/sg10_32_cif.got.tgz:63786.got - 2010.06.03 11:33:40.
