data_PCOD9144306
_publ_section_title
;
Structure prediction by ZEFSAII (Michael W. Deem and Ramdas Pophale) SiO2 
 PCOD9144306
Probable space group: P 2/M
;
_chemical_formula_sum "Si O2"
_cell_formula_units_Z 32
_cell_length_a 15.419344
_cell_length_b 7.556227
_cell_length_c 14.594230
_cell_angle_alpha 90.000000
_cell_angle_beta 93.567206
_cell_angle_gamma 90.000000
_cell_volume 1697.109326
_symmetry_space_group_name_H-M "P 2/M"
_symmetry_group_IT_number 10
_symmetry_cell_setting 'monoclinic'
loop_
_space_group_symop_operation_xyz
x,y,z
-x,y,-z
-x,-y,-z
x,-y,z
loop_
_atom_site_type_symbol
_atom_site_label
_atom_site_fract_x
_atom_site_fract_y
_atom_site_fract_z
Si Si1 0.249734 0.709553 0.897821
Si Si2 0.843830 0.213394 0.279617
Si Si3 0.822197 0.215970 0.669039
Si Si4 0.411170 0.206328 0.033126
Si Si5 0.284087 0.784365 0.174247
Si Si6 0.879850 0.703317 0.966549
Si Si7 0.016384 0.790671 0.196118
Si Si8 0.898363 0.783634 0.483537
O O1 0.251934 0.500000 0.915334
O O2 0.237670 0.738798 0.789243
O O3 0.335583 0.783924 0.951451
O O4 0.164162 0.785835 0.945610
O O5 0.856219 0.273615 0.384727
O O6 0.927403 0.284162 0.229115
O O7 0.846114 0.000000 0.282283
O O8 0.737742 0.268924 0.722913
O O9 0.904826 0.274795 0.735242
O O10 0.841680 0.273890 0.567262
O O11 0.821938 0.000000 0.667683
O O12 0.429123 0.000000 0.053684
O O13 0.500000 0.286286 0.000000
O O14 0.368558 0.278733 0.124287
O O15 0.202285 0.721539 0.108289
O O16 0.282906 0.000000 0.170767
O O17 0.898332 0.500000 0.987673
O O18 0.959256 0.767552 0.908609
O O19 0.013152 0.000000 0.211307
O O20 0.000000 0.729850 0.500000
O O21 0.899963 0.000000 0.483831
#
# Coordination Sequence:
#
# PCOD9144306 Si02
#       8
#     4   4   4   4   4   4   4   4
#     4  10  21  34  45  61  90 122 148 179 219 265
#     4  10  19  29  44  64  86 116 155 193 226 260
#     4   8  12  21  39  62  88 114 143 182 222 258
#     4   9  17  31  52  75  95 113 137 174 219 269
#     4   8  14  25  43  67  91 113 138 172 217 265
#     4   9  17  28  41  57  81 116 152 182 214 254
#     4   9  16  26  41  61  83 113 151 189 225 258
#     4   9  14  23  41  65  88 112 150 196 229 255
#
# _framework density 18.855589999999999
#
# number of rings (size 3 to 8) (size 9 to 14) (size 15 to 20)
#    0.000    3.000    1.250    1.500    0.000    2.750 
#    0.000    2.500    0.000    3.375    0.000    0.875 
#    0.000    7.000    0.000    0.000    0.000    0.000 
#
# Total GULP energy -178220.543461 kJ/mol
# GULP energy per Si atom -5569.391983 kJ/mol
# Density = 1.881267 g / cm^3
# Si number density = 18.855590 Si / 1000 Ang^3
#
#
#
# Elastic Constant Matrix: (Units=GPa)
#
#
# Indices 1 2 3 4 5 6 
#
# 1 88.5211 -0.6530 60.2961 0.0000 -28.6087 0.0000
# 2 -0.6530 45.4829 -9.1580 0.0000 -3.5169 0.0000
# 3 60.2961 -9.1580 157.6252 0.0000 -24.4705 0.0000
# 4 0.0000 0.0000 0.0000 68.6168 0.0000 7.8915
# 5 -28.6087 -3.5169 -24.4705 0.0000 25.3430 0.0000
# 6 0.0000 0.0000 0.0000 7.8915 0.0000 -3.8031
#
#
#
# Elastic Compliance Matrix: (Units=1/GPa)
#
#
# Indices 1 2 3 4 5 6 
#
# 1 0.020745 0.000740 -0.004989 0.000000 0.018704 0.000000
# 2 0.000740 0.022848 0.001960 0.000000 0.005898 0.000000
# 3 -0.004989 0.001960 0.008863 0.000000 0.003198 0.000000
# 4 0.000000 0.000000 0.000000 0.011766 0.000000 0.024414
# 5 0.018704 0.005898 0.003198 0.000000 0.064479 0.000000
# 6 0.000000 0.000000 0.000000 0.024414 0.000000 -0.212281
#
#
# Mechanical properties :
#
#
# Convention : Reuss Voigt Hill
#
# Bulk Modulus (GPa) = 20.88666 43.62217 32.25442
# Shear Modulus (GPa) = -79.31103 34.10759 -22.60172
#
# Velocity S-wave (km/s) = -6.49258 4.25771 -3.46594
# Velocity P-wave (km/s) = 6.71593 6.88156 1.06119
#
# Compressibility (1/GPa) = 0.04787745
#
# Stress axis : x y z
#
# Youngs Moduli (GPa) = 48.20375 43.76810 112.82919
#
# Poissons Ratio (x) = -0.03237 0.56291
# Poissons Ratio (y) = -0.03565 -0.22117
# Poissons Ratio (z) = 0.24049 -0.08579
#
# Static dielectric constant tensor:
#      x y z
#    x 1.670040 0.000000 -0.035550 
#    y 0.000000 1.716620 0.000000 
#    z -0.035550 0.000000 1.703760 
# 
# From -- ./inp_files/66108.got.cif
#   From: 2010.05.17/outbox.cif.g08.bks.cpg/sg10_34_cif.got.tgz:66108.got - 2010.06.03 11:33:40.
