data_PCOD9144083
_publ_section_title
;
Structure prediction by ZEFSAII (Michael W. Deem and Ramdas Pophale) SiO2 
 PCOD9144083
Probable space group: P 2/M
;
_chemical_formula_sum "Si O2"
_cell_formula_units_Z 32
_cell_length_a 7.894632
_cell_length_b 15.250816
_cell_length_c 12.368053
_cell_angle_alpha 90.000000
_cell_angle_beta 82.621893
_cell_angle_gamma 90.000000
_cell_volume 1476.779021
_symmetry_space_group_name_H-M "P 2/M"
_symmetry_group_IT_number 10
_symmetry_cell_setting 'monoclinic'
loop_
_space_group_symop_operation_xyz
x,y,z
-x,y,-z
-x,-y,-z
x,-y,z
loop_
_atom_site_type_symbol
_atom_site_label
_atom_site_fract_x
_atom_site_fract_y
_atom_site_fract_z
Si Si1 0.187865 0.905688 0.225730
Si Si2 0.822362 0.691002 0.046400
Si Si3 0.313084 0.130054 0.982277
Si Si4 0.238669 0.720315 0.293708
Si Si5 0.216571 0.904382 0.743387
Si Si6 0.207249 0.399231 0.497189
Si Si7 0.174746 0.291912 0.707861
Si Si8 0.649954 0.595621 0.899556
O O1 0.274688 0.823535 0.278000
O O2 0.986097 0.906661 0.264047
O O3 0.262539 0.000000 0.250134
O O4 0.201742 0.894399 0.095283
O O5 0.686081 0.764781 0.027284
O O6 0.802599 0.671631 0.173100
O O7 0.810887 0.611255 0.964828
O O8 0.000000 0.736647 0.000000
O O9 0.251524 0.099059 0.869871
O O10 0.500000 0.098831 0.000000
O O11 0.272535 0.668844 0.401499
O O12 0.338843 0.668805 0.192152
O O13 0.032445 0.714430 0.289837
O O14 0.259039 0.805838 0.697046
O O15 0.285512 0.000000 0.699235
O O16 0.266885 0.500000 0.481144
O O17 0.242220 0.356896 0.611000
O O18 0.000000 0.401464 0.500000
O O19 0.651412 0.500000 0.847732
O O20 0.500000 0.599198 0.000000
#
# Coordination Sequence:
#
# PCOD9144083 Si02
#       8
#     4   4   4   4   4   4   4   4
#     4  10  19  31  50  75 106 146 186 224 271 326
#     4  11  19  35  54  79 112 149 182 223 277 334
#     4  11  20  30  49  78 112 146 183 225 270 327
#     4  10  18  35  54  75 110 147 180 227 281 333
#     4   9  18  32  49  72 109 150 183 220 272 328
#     4   9  18  32  53  80 107 139 182 235 283 326
#     4   9  18  32  53  80 107 138 188 232 272 326
#     4  11  23  36  53  81 113 146 181 225 285 342
#
# _framework density 21.668779000000001
#
# number of rings (size 3 to 8) (size 9 to 14) (size 15 to 20)
#    0.000    2.000    2.500    3.000    0.000    3.250 
#    0.000    0.625    0.000    4.500    0.000    2.625 
#    0.000    3.250    0.000    0.125    0.000    0.000 
#
# Total GULP energy -178404.332325 kJ/mol
# GULP energy per Si atom -5575.135385 kJ/mol
# Density = 2.161946 g / cm^3
# Si number density = 21.668779 Si / 1000 Ang^3
#
#
#
# Elastic Constant Matrix: (Units=GPa)
#
#
# Indices 1 2 3 4 5 6 
#
# 1 27.4094 7.6843 0.7870 0.0000 1.1332 0.0000
# 2 7.6843 186.5318 69.9219 0.0000 -2.9138 0.0000
# 3 0.7870 69.9219 117.9480 0.0000 -2.1269 0.0000
# 4 0.0000 0.0000 0.0000 13.3575 0.0000 2.9224
# 5 1.1332 -2.9138 -2.1269 0.0000 4.6450 0.0000
# 6 0.0000 0.0000 0.0000 2.9224 0.0000 3.1352
#
#
#
# Elastic Compliance Matrix: (Units=1/GPa)
#
#
# Indices 1 2 3 4 5 6 
#
# 1 0.037431 -0.001977 0.000741 0.000000 -0.010032 0.000000
# 2 -0.001977 0.007025 -0.004097 0.000000 0.003013 0.000000
# 3 0.000741 -0.004097 0.010943 0.000000 0.002260 0.000000
# 4 0.000000 0.000000 0.000000 0.094042 0.000000 -0.087657
# 5 -0.010032 0.003013 0.002260 0.000000 0.220657 0.000000
# 6 0.000000 0.000000 0.000000 -0.087657 0.000000 0.400661
#
#
# Mechanical properties :
#
#
# Convention : Reuss Voigt Hill
#
# Bulk Modulus (GPa) = 22.35413 54.29729 38.32571
# Shear Modulus (GPa) = 6.27875 21.12729 13.70302
#
# Velocity S-wave (km/s) = 1.70408 3.12590 2.51746
# Velocity P-wave (km/s) = 3.76969 6.17581 5.11621
#
# Compressibility (1/GPa) = 0.04473446
#
# Stress axis : x y z
#
# Youngs Moduli (GPa) = 26.71549 142.34120 91.38221
#
# Poissons Ratio (x) = 0.28134 -0.06772
# Poissons Ratio (y) = 0.05280 0.37442
# Poissons Ratio (z) = -0.01980 0.58321
#
# Static dielectric constant tensor:
#      x y z
#    x 2.039090 0.000000 -0.014940 
#    y 0.000000 1.843140 0.000000 
#    z -0.014940 0.000000 1.744660 
# 
# From -- ./inp_files/42963.got.cif
#   From: 2010.05.17/outbox.cif.g08.bks.cpg/sg10_22_cif.got.tgz:42963.got - 2010.06.03 11:33:40.
