data_PCOD9144491
_publ_section_title
;
Structure prediction by ZEFSAII (Michael W. Deem and Ramdas Pophale) SiO2 
 PCOD9144491
Probable space group: P 2/M
;
_chemical_formula_sum "Si O2"
_cell_formula_units_Z 32
_cell_length_a 8.482934
_cell_length_b 13.385232
_cell_length_c 25.824377
_cell_angle_alpha 90.000000
_cell_angle_beta 146.387540
_cell_angle_gamma 90.000000
_cell_volume 1623.216636
_symmetry_space_group_name_H-M "P 2/M"
_symmetry_group_IT_number 10
_symmetry_cell_setting 'monoclinic'
loop_
_space_group_symop_operation_xyz
x,y,z
-x,y,-z
-x,-y,-z
x,-y,z
loop_
_atom_site_type_symbol
_atom_site_label
_atom_site_fract_x
_atom_site_fract_y
_atom_site_fract_z
Si Si1 0.947155 0.889155 0.046633
Si Si2 0.167320 0.610081 0.422026
Si Si3 0.122522 0.297020 0.756067
Si Si4 0.614789 0.687396 0.973987
Si Si5 0.546812 0.811284 0.228688
Si Si6 0.866376 0.248702 0.414070
Si Si7 0.787558 0.392556 0.855272
Si Si8 0.656287 0.384321 0.699437
O O1 0.270928 0.880391 0.155478
O O2 0.832170 0.000000 0.024964
O O3 0.000000 0.874915 0.000000
O O4 0.741023 0.800862 0.008853
O O5 0.500000 0.611126 0.500000
O O6 0.089093 0.500000 0.419898
O O7 0.973374 0.635310 0.319130
O O8 0.105253 0.693008 0.447346
O O9 0.374404 0.325828 0.864772
O O10 0.228365 0.193122 0.757496
O O11 0.842553 0.310023 0.715206
O O12 0.500000 0.664068 0.000000
O O13 0.893059 0.622317 0.037690
O O14 0.703618 0.815050 0.326387
O O15 0.402551 0.701437 0.181791
O O16 0.649170 0.334135 0.374881
O O17 0.000000 0.195487 0.500000
O O18 0.670402 0.500000 0.839044
O O19 0.794608 0.389078 0.794559
O O20 0.645298 0.500000 0.676791
#
# Coordination Sequence:
#
# PCOD9144491 Si02
#       8
#     4   4   4   4   4   4   4   4
#     4  10  20  38  64  85 106 137 173 217 277 336
#     4  10  21  35  50  72 104 142 193 243 271 301
#     4  11  20  32  49  73 102 140 176 222 275 311
#     4  11  21  35  53  78 114 142 176 226 265 319
#     4   9  20  36  53  76 110 135 179 229 267 318
#     4  10  20  34  53  74 103 142 184 225 280 320
#     4   9  19  32  46  69 104 149 185 214 257 309
#     4  10  19  30  45  69 102 144 189 225 259 304
#
# _framework density 19.713943
#
# number of rings (size 3 to 8) (size 9 to 14) (size 15 to 20)
#    0.000    2.000    2.500    1.500    0.000    7.000 
#    0.000    0.625    0.000    0.375    0.000    0.000 
#    0.000    4.250    0.000    0.000    0.000    0.000 
#
# Total GULP energy -178355.143860 kJ/mol
# GULP energy per Si atom -5573.598246 kJ/mol
# Density = 1.966907 g / cm^3
# Si number density = 19.713943 Si / 1000 Ang^3
#
#
#
# Elastic Constant Matrix: (Units=GPa)
#
#
# Indices 1 2 3 4 5 6 
#
# 1 64.9077 -3.0183 19.2639 0.0000 -0.4202 0.0000
# 2 -3.0183 31.6030 -6.0820 0.0000 6.2350 0.0000
# 3 19.2639 -6.0820 114.3930 0.0000 -18.2429 0.0000
# 4 0.0000 0.0000 0.0000 5.8795 0.0000 3.2734
# 5 -0.4202 6.2350 -18.2429 0.0000 36.7826 0.0000
# 6 0.0000 0.0000 0.0000 3.2734 0.0000 3.2347
#
#
#
# Elastic Compliance Matrix: (Units=1/GPa)
#
#
# Indices 1 2 3 4 5 6 
#
# 1 0.016322 0.001289 -0.002916 0.000000 -0.001478 0.000000
# 2 0.001289 0.032930 0.000701 0.000000 -0.005219 0.000000
# 3 -0.002916 0.000701 0.010040 0.000000 0.004827 0.000000
# 4 0.000000 0.000000 0.000000 0.389549 0.000000 -0.394203
# 5 -0.001478 -0.005219 0.004827 0.000000 0.030449 0.000000
# 6 0.000000 0.000000 0.000000 -0.394203 0.000000 0.708058
#
#
# Mechanical properties :
#
#
# Convention : Reuss Voigt Hill
#
# Bulk Modulus (GPa) = 17.40876 25.69230 21.55053
# Shear Modulus (GPa) = 4.13789 22.56204 13.34997
#
# Velocity S-wave (km/s) = 1.45035 3.38667 2.60510
# Velocity P-wave (km/s) = 3.41388 5.32481 4.47259
#
# Compressibility (1/GPa) = 0.05744235
#
# Stress axis : x y z
#
# Youngs Moduli (GPa) = 61.26595 30.36702 99.60206
#
# Poissons Ratio (x) = -0.03915 0.29043
# Poissons Ratio (y) = -0.07899 -0.06985
# Poissons Ratio (z) = 0.17864 -0.02130
#
# Static dielectric constant tensor:
#      x y z
#    x 1.733360 0.000000 -0.000680 
#    y 0.000000 1.668300 0.000000 
#    z -0.000680 0.000000 1.745820 
# 
# From -- ./inp_files/92388.got.cif
#   From: 2010.05.17/outbox.cif.g08.bks.cpg/sg10_47_cif.got.tgz:92388.got - 2010.06.03 11:33:40.
