data_PCOD9144030
_publ_section_title
;
Structure prediction by ZEFSAII (Michael W. Deem and Ramdas Pophale) SiO2 
 PCOD9144030
Probable space group: P 2/M
;
_chemical_formula_sum "Si O2"
_cell_formula_units_Z 28
_cell_length_a 12.147523
_cell_length_b 8.650026
_cell_length_c 13.698729
_cell_angle_alpha 90.000000
_cell_angle_beta 103.586819
_cell_angle_gamma 90.000000
_cell_volume 1399.131116
_symmetry_space_group_name_H-M "P 2/M"
_symmetry_group_IT_number 10
_symmetry_cell_setting 'monoclinic'
loop_
_space_group_symop_operation_xyz
x,y,z
-x,y,-z
-x,-y,-z
x,-y,z
loop_
_atom_site_type_symbol
_atom_site_label
_atom_site_fract_x
_atom_site_fract_y
_atom_site_fract_z
Si Si1 0.936917 0.311730 0.767623
Si Si2 0.192995 0.684761 0.833479
Si Si3 0.116719 0.316702 0.464598
Si Si4 0.285847 0.816900 0.652154
Si Si5 0.472922 0.185864 0.383200
Si Si6 0.620119 0.184834 0.982090
Si Si7 0.297231 0.315522 0.202720
O O1 0.939633 0.500000 0.768008
O O2 0.905771 0.265287 0.650583
O O3 0.833543 0.263755 0.815022
O O4 0.063358 0.260135 0.819766
O O5 0.194999 0.500000 0.844787
O O6 0.233927 0.728127 0.733291
O O7 0.278941 0.757738 0.927996
O O8 0.144701 0.500000 0.470065
O O9 0.214093 0.225897 0.541311
O O10 0.000000 0.298509 0.500000
O O11 0.416540 0.777544 0.658826
O O12 0.278639 0.000000 0.669198
O O13 0.500000 0.231435 0.500000
O O14 0.364727 0.266544 0.313731
O O15 0.456675 0.000000 0.378358
O O16 0.641981 0.243026 0.877683
O O17 0.618048 0.000000 0.981430
O O18 0.500000 0.240745 0.000000
O O19 0.298846 0.500000 0.194073
#
# Coordination Sequence:
#
# PCOD9144030 Si02
#       7
#     4   4   4   4   4   4   4
#     4   9  20  38  59  88 123 156 193 244 299 346
#     4  11  22  40  64  88 117 154 198 244 294 353
#     4  10  18  34  58  83 118 163 202 238 289 347
#     4  11  22  35  55  87 122 156 199 249 298 348
#     4  10  22  40  59  83 122 164 198 240 298 352
#     4  11  25  45  65  87 119 154 192 244 302 355
#     4  11  23  40  64  91 119 154 199 246 294 351
#
# _framework density 20.012421
#
# number of rings (size 3 to 8) (size 9 to 14) (size 15 to 20)
#    0.000    1.571    1.429    3.429    0.000    6.857 
#    0.000    6.429    0.000    0.000    0.000    0.000 
#    0.000    0.000    0.000    0.000    0.000    0.000 
#
# Total GULP energy -156544.621336 kJ/mol
# GULP energy per Si atom -5590.879333 kJ/mol
# Density = 1.996687 g / cm^3
# Si number density = 20.012421 Si / 1000 Ang^3
#
#
#
# Elastic Constant Matrix: (Units=GPa)
#
#
# Indices 1 2 3 4 5 6 
#
# 1 135.4600 36.4453 51.3807 0.0000 4.2707 0.0000
# 2 36.4453 31.1042 18.4916 0.0000 2.3617 0.0000
# 3 51.3807 18.4916 103.6813 0.0000 8.4027 0.0000
# 4 0.0000 0.0000 0.0000 34.9989 0.0000 4.5710
# 5 4.2707 2.3617 8.4027 0.0000 34.2167 0.0000
# 6 0.0000 0.0000 0.0000 4.5710 0.0000 32.5466
#
#
#
# Elastic Compliance Matrix: (Units=1/GPa)
#
#
# Indices 1 2 3 4 5 6 
#
# 1 0.012017 -0.011799 -0.003872 0.000000 0.000265 0.000000
# 2 -0.011799 0.047576 -0.002542 0.000000 -0.001187 0.000000
# 3 -0.003872 -0.002542 0.012207 0.000000 -0.002339 0.000000
# 4 0.000000 0.000000 0.000000 0.029106 0.000000 -0.004088
# 5 0.000265 -0.001187 -0.002339 0.000000 0.029849 0.000000
# 6 0.000000 0.000000 0.000000 -0.004088 0.000000 0.031299
#
#
# Mechanical properties :
#
#
# Convention : Reuss Voigt Hill
#
# Bulk Modulus (GPa) = 28.26955 53.65342 40.96149
# Shear Modulus (GPa) = 23.77876 31.28096 27.52986
#
# Velocity S-wave (km/s) = 3.45077 3.95787 3.71298
# Velocity P-wave (km/s) = 5.48030 6.91047 6.23652
#
# Compressibility (1/GPa) = 0.03537375
#
# Stress axis : x y z
#
# Youngs Moduli (GPa) = 83.21447 21.01902 81.92064
#
# Poissons Ratio (x) = 0.24800 0.31724
# Poissons Ratio (y) = 0.98182 0.20825
# Poissons Ratio (z) = 0.32225 0.05343
#
# Static dielectric constant tensor:
#      x y z
#    x 1.713760 0.000000 -0.003100 
#    y 0.000000 1.678250 0.000000 
#    z -0.003100 0.000000 1.683900 
# 
# From -- ./inp_files/63616.got.cif
#   From: 2010.05.17/outbox.cif.g08.bks.cpg/sg10_32_cif.got.tgz:63616.got - 2010.06.03 11:33:40.
