data_PCOD9144748
_publ_section_title
;
Structure prediction by ZEFSAII (Michael W. Deem and Ramdas Pophale) SiO2 
 PCOD9144748
Probable space group: P 2/M
;
_chemical_formula_sum "Si O2"
_cell_formula_units_Z 26
_cell_length_a 9.421062
_cell_length_b 15.231445
_cell_length_c 13.328951
_cell_angle_alpha 90.000000
_cell_angle_beta 129.453457
_cell_angle_gamma 90.000000
_cell_volume 1476.840427
_symmetry_space_group_name_H-M "P 2/M"
_symmetry_group_IT_number 10
_symmetry_cell_setting 'monoclinic'
loop_
_space_group_symop_operation_xyz
x,y,z
-x,y,-z
-x,-y,-z
x,-y,z
loop_
_atom_site_type_symbol
_atom_site_label
_atom_site_fract_x
_atom_site_fract_y
_atom_site_fract_z
Si Si1 0.403335 0.900892 0.740601
Si Si2 0.000000 0.849594 0.500000
Si Si3 0.339339 0.259162 0.855924
Si Si4 0.207388 0.600259 0.634343
Si Si5 0.059565 0.232950 0.305927
Si Si6 0.300717 0.398854 0.455290
Si Si7 0.350750 0.102220 0.344266
O O1 0.191394 0.899116 0.606439
O O2 0.409904 0.826826 0.828372
O O3 0.541100 0.879288 0.710705
O O4 0.443991 0.000000 0.793557
O O5 0.041800 0.797621 0.415076
O O6 0.275958 0.331586 0.746570
O O7 0.149108 0.235999 0.826429
O O8 0.500000 0.291023 0.000000
O O9 0.216876 0.500000 0.675543
O O10 0.322237 0.610133 0.584452
O O11 0.000000 0.613946 0.500000
O O12 0.156270 0.327838 0.351100
O O13 0.185103 0.166103 0.299658
O O14 0.500000 0.382655 0.500000
O O15 0.243607 0.500000 0.409952
O O16 0.500000 0.111354 0.500000
O O17 0.291188 0.000000 0.315568
#
# Coordination Sequence:
#
# PCOD9144748 Si02
#       7
#     4   2   4   4   4   4   4
#     4  10  21  36  56  81 116 153 190 236 287 342
#     4  10  19  30  51  88 112 144 185 230 285 334
#     4  11  25  40  57  85 116 155 199 235 287 344
#     4  10  20  38  62  88 116 146 187 237 285 339
#     4  11  20  33  55  78 117 153 180 235 283 333
#     4  10  20  32  55  90 118 143 179 226 285 341
#     4  10  20  33  54  88 117 145 188 241 297 344
#
# _framework density 17.605152
#
# number of rings (size 3 to 8) (size 9 to 14) (size 15 to 20)
#    0.000    1.692    3.077    2.538    3.231    3.077 
#    0.000    0.769    0.000    1.846    0.000    3.231 
#    0.000    0.000    0.000    0.000    0.000    0.000 
#
# Total GULP energy -145034.412767 kJ/mol
# GULP energy per Si atom -5578.246645 kJ/mol
# Density = 1.756508 g / cm^3
# Si number density = 17.605152 Si / 1000 Ang^3
#
#
#
# Elastic Constant Matrix: (Units=GPa)
#
#
# Indices 1 2 3 4 5 6 
#
# 1 128.9074 64.4359 35.2226 0.0000 23.8494 0.0000
# 2 64.4359 110.3819 43.6496 0.0000 11.9718 0.0000
# 3 35.2226 43.6496 75.1729 0.0000 10.9771 0.0000
# 4 0.0000 0.0000 0.0000 4.6323 0.0000 -0.7608
# 5 23.8494 11.9718 10.9771 0.0000 15.9652 0.0000
# 6 0.0000 0.0000 0.0000 -0.7608 0.0000 15.4651
#
#
#
# Elastic Compliance Matrix: (Units=1/GPa)
#
#
# Indices 1 2 3 4 5 6 
#
# 1 0.013929 -0.006169 -0.000647 0.000000 -0.015738 0.000000
# 2 -0.006169 0.014801 -0.006035 0.000000 0.002266 0.000000
# 3 -0.000647 -0.006035 0.018128 0.000000 -0.006973 0.000000
# 4 0.000000 0.000000 0.000000 0.217634 0.000000 0.010706
# 5 -0.015738 0.002266 -0.006973 0.000000 0.089242 0.000000
# 6 0.000000 0.000000 0.000000 0.010706 0.000000 0.065189
#
#
# Mechanical properties :
#
#
# Convention : Reuss Voigt Hill
#
# Bulk Modulus (GPa) = 47.26296 66.78649 57.02472
# Shear Modulus (GPa) = 11.06989 18.62278 14.84634
#
# Velocity S-wave (km/s) = 2.51028 3.25592 2.90710
# Velocity P-wave (km/s) = 5.94192 7.22169 6.61284
#
# Compressibility (1/GPa) = 0.02115822
#
# Stress axis : x y z
#
# Youngs Moduli (GPa) = 71.79055 67.56199 55.16311
#
# Poissons Ratio (x) = 0.41677 0.03567
# Poissons Ratio (y) = 0.44286 0.33290
# Poissons Ratio (z) = 0.04642 0.40773
#
# Static dielectric constant tensor:
#      x y z
#    x 1.627110 0.000000 0.015290 
#    y 0.000000 1.638650 0.000000 
#    z 0.015290 0.000000 1.567680 
# 
# From -- ./inp_files/62091.got.cif
#   From: 2010.05.17/outbox.cif.g08.bks.cpg/sg10_32_cif.got.tgz:62091.got - 2010.06.03 11:33:40.
