data_PCOD9144789
_publ_section_title
;
Structure prediction by ZEFSAII (Michael W. Deem and Ramdas Pophale) SiO2 
 PCOD9144789
Probable space group: P 2/M
;
_chemical_formula_sum "Si O2"
_cell_formula_units_Z 20
_cell_length_a 5.324188
_cell_length_b 13.884099
_cell_length_c 17.222351
_cell_angle_alpha 90.000000
_cell_angle_beta 125.707724
_cell_angle_gamma 90.000000
_cell_volume 1033.765763
_symmetry_space_group_name_H-M "P 2/M"
_symmetry_group_IT_number 10
_symmetry_cell_setting 'monoclinic'
loop_
_space_group_symop_operation_xyz
x,y,z
-x,y,-z
-x,-y,-z
x,-y,z
loop_
_atom_site_type_symbol
_atom_site_label
_atom_site_fract_x
_atom_site_fract_y
_atom_site_fract_z
Si Si1 0.971581 0.612411 0.904911
Si Si2 0.366094 0.617457 0.391559
Si Si3 0.236593 0.111439 0.116591
Si Si4 0.680976 0.615200 0.292628
Si Si5 0.271533 0.788219 0.887298
O O1 0.056510 0.500000 0.913908
O O2 0.617436 0.624267 0.815559
O O3 0.181585 0.677565 0.887281
O O4 0.000000 0.643068 0.000000
O O5 0.500000 0.641549 0.500000
O O6 0.366530 0.500000 0.385660
O O7 0.575230 0.652617 0.357992
O O8 0.010966 0.652242 0.322843
O O9 0.535003 0.176107 0.151087
O O10 0.041757 0.152841 0.153210
O O11 0.321235 0.000000 0.141396
O O12 0.000000 0.116228 0.000000
O O13 0.729093 0.500000 0.309929
O O14 0.500000 0.813160 0.000000
#
# Coordination Sequence:
#
# PCOD9144789 Si02
#       5
#     4   4   4   4   4
#     4  10  21  35  48  64  94 136 176 207 226 252
#     4   9  16  28  46  65  83 104 140 195 248 288
#     4   9  17  30  48  67  85 106 143 201 255 292
#     4   9  18  30  44  63  85 114 154 193 232 275
#     4  10  19  31  46  65  87 117 159 199 237 278
#
# _framework density 19.346741000000002
#
# number of rings (size 3 to 8) (size 9 to 14) (size 15 to 20)
#    0.000    2.600    0.000    3.000    0.000    8.400 
#    0.000    7.000    0.000    0.600    0.000    0.000 
#    0.000    0.000    0.000    0.000    0.000   70.000 
#
# Total GULP energy -111647.194203 kJ/mol
# GULP energy per Si atom -5582.359710 kJ/mol
# Density = 1.930271 g / cm^3
# Si number density = 19.346741 Si / 1000 Ang^3
#
#
#
# Elastic Constant Matrix: (Units=GPa)
#
#
# Indices 1 2 3 4 5 6 
#
# 1 126.8959 53.6355 18.1015 0.0000 17.5936 0.0000
# 2 53.6355 96.9530 -4.9815 0.0000 7.7380 0.0000
# 3 18.1015 -4.9815 46.3756 0.0000 -4.7314 0.0000
# 4 0.0000 0.0000 0.0000 2.4490 0.0000 7.6106
# 5 17.5936 7.7380 -4.7314 0.0000 26.4907 0.0000
# 6 0.0000 0.0000 0.0000 7.6106 0.0000 18.9127
#
#
#
# Elastic Compliance Matrix: (Units=1/GPa)
#
#
# Indices 1 2 3 4 5 6 
#
# 1 0.012717 -0.006759 -0.006468 0.000000 -0.007627 0.000000
# 2 -0.006759 0.014185 0.004275 0.000000 0.001109 0.000000
# 3 -0.006468 0.004275 0.025319 0.000000 0.007569 0.000000
# 4 0.000000 0.000000 0.000000 -1.630008 0.000000 0.655924
# 5 -0.007627 0.001109 0.007569 0.000000 0.043842 0.000000
# 6 0.000000 0.000000 0.000000 0.655924 0.000000 -0.211073
#
#
# Mechanical properties :
#
#
# Convention : Reuss Voigt Hill
#
# Bulk Modulus (GPa) = 29.14012 44.85950 36.99981
# Shear Modulus (GPa) = -2.91431 23.13509 10.11039
#
# Velocity S-wave (km/s) = -1.22867 3.46180 2.28850
# Velocity P-wave (km/s) = 3.61689 6.26229 5.11362
#
# Compressibility (1/GPa) = 0.03431695
#
# Stress axis : x y z
#
# Youngs Moduli (GPa) = 78.63203 70.49913 39.49580
#
# Poissons Ratio (x) = 0.47651 0.25546
# Poissons Ratio (y) = 0.53148 -0.16885
# Poissons Ratio (z) = 0.50860 -0.30139
#
# Static dielectric constant tensor:
#      x y z
#    x 1.738490 0.000000 -0.008660 
#    y 0.000000 1.694210 0.000000 
#    z -0.008660 0.000000 1.688480 
# 
# From -- ./inp_files/81337.got.cif
#   From: 2010.05.17/outbox.cif.g08.bks.cpg/sg10_41_cif.got.tgz:81337.got - 2010.06.03 11:33:40.
