data_PCOD9144253
_publ_section_title
;
Structure prediction by ZEFSAII (Michael W. Deem and Ramdas Pophale) SiO2 
 PCOD9144253
Probable space group: P 2/M
;
_chemical_formula_sum "Si O2"
_cell_formula_units_Z 32
_cell_length_a 15.318174
_cell_length_b 7.713247
_cell_length_c 14.584762
_cell_angle_alpha 90.000000
_cell_angle_beta 89.970315
_cell_angle_gamma 90.000000
_cell_volume 1723.231106
_symmetry_space_group_name_H-M "P 2/M"
_symmetry_group_IT_number 10
_symmetry_cell_setting 'monoclinic'
loop_
_space_group_symop_operation_xyz
x,y,z
-x,y,-z
-x,-y,-z
x,-y,z
loop_
_atom_site_type_symbol
_atom_site_label
_atom_site_fract_x
_atom_site_fract_y
_atom_site_fract_z
Si Si1 0.226805 0.294523 0.168376
Si Si2 0.330436 0.196682 0.710082
Si Si3 0.745513 0.786072 0.111217
Si Si4 0.097259 0.790862 0.020579
Si Si5 0.382597 0.802261 0.037043
Si Si6 0.504968 0.298096 0.798392
Si Si7 0.331778 0.292082 0.333548
Si Si8 0.595847 0.797383 0.476166
O O1 0.246228 0.500000 0.162434
O O2 0.298732 0.201924 0.105162
O O3 0.247526 0.242236 0.272738
O O4 0.135052 0.261002 0.119946
O O5 0.263039 0.273206 0.783946
O O6 0.420933 0.193739 0.767187
O O7 0.356349 0.279686 0.612971
O O8 0.300449 0.000000 0.691457
O O9 0.831731 0.732865 0.055535
O O10 0.903733 0.000000 0.982284
O O11 0.660767 0.722397 0.053650
O O12 0.256928 0.000000 0.889688
O O13 0.000000 0.727766 0.000000
O O14 0.460003 0.724664 0.098051
O O15 0.405028 0.000000 0.017268
O O16 0.486246 0.500000 0.783372
O O17 0.584637 0.248092 0.730373
O O18 0.331481 0.500000 0.344895
O O19 0.346105 0.213894 0.433016
O O20 0.500000 0.721620 0.500000
O O21 0.580203 0.000000 0.452860
#
# Coordination Sequence:
#
# PCOD9144253 Si02
#       8
#     4   4   4   4   4   4   4   4
#     4   9  17  29  45  70  97 120 148 181 225 272
#     4  10  19  31  44  59  85 118 153 189 226 268
#     4   8  16  30  46  64  87 117 146 177 221 269
#     4   9  17  31  52  76  97 118 146 177 215 270
#     4   9  16  28  45  62  84 118 156 187 219 262
#     4  10  19  29  41  61  86 117 155 191 229 262
#     4   9  18  30  44  61  87 121 152 188 229 268
#     4  10  19  29  43  65  85 111 157 203 232 255
#
# _framework density 18.569766000000001
#
# number of rings (size 3 to 8) (size 9 to 14) (size 15 to 20)
#    0.000    2.750    1.250    2.625    0.000    4.000 
#    0.000    5.625    0.000    0.000    0.000    0.875 
#    0.000    7.000    0.000    0.000    0.000    0.000 
#
# Total GULP energy -178344.425907 kJ/mol
# GULP energy per Si atom -5573.263310 kJ/mol
# Density = 1.852750 g / cm^3
# Si number density = 18.569766 Si / 1000 Ang^3
#
#
#
# Elastic Constant Matrix: (Units=GPa)
#
#
# Indices 1 2 3 4 5 6 
#
# 1 82.0713 6.1180 46.1088 0.0000 10.6873 0.0000
# 2 6.1180 34.7109 -0.4925 0.0000 -1.8848 0.0000
# 3 46.1088 -0.4925 148.7310 0.0000 -6.1044 0.0000
# 4 0.0000 0.0000 0.0000 17.6503 0.0000 6.2827
# 5 10.6873 -1.8848 -6.1044 0.0000 23.2841 0.0000
# 6 0.0000 0.0000 0.0000 6.2827 0.0000 5.0241
#
#
#
# Elastic Compliance Matrix: (Units=1/GPa)
#
#
# Indices 1 2 3 4 5 6 
#
# 1 0.016847 -0.003565 -0.005624 0.000000 -0.009496 0.000000
# 2 -0.003565 0.029696 0.001384 0.000000 0.004403 0.000000
# 3 -0.005624 0.001384 0.008676 0.000000 0.004968 0.000000
# 4 0.000000 0.000000 0.000000 0.102105 0.000000 -0.127683
# 5 -0.009496 0.004403 0.004968 0.000000 0.048965 0.000000
# 6 0.000000 0.000000 0.000000 -0.127683 0.000000 0.358709
#
#
# Mechanical properties :
#
#
# Convention : Reuss Voigt Hill
#
# Bulk Modulus (GPa) = 25.24678 40.99799 33.12238
# Shear Modulus (GPa) = 8.42020 23.44363 15.93191
#
# Velocity S-wave (km/s) = 2.13171 3.55697 2.93225
# Velocity P-wave (km/s) = 4.43668 6.24461 5.41660
#
# Compressibility (1/GPa) = 0.03960901
#
# Stress axis : x y z
#
# Youngs Moduli (GPa) = 59.35943 33.67416 115.26557
#
# Poissons Ratio (x) = 0.12004 0.64828
# Poissons Ratio (y) = 0.21160 -0.15954
# Poissons Ratio (z) = 0.33385 -0.04661
#
# Static dielectric constant tensor:
#      x y z
#    x 1.642150 0.000000 -0.014350 
#    y 0.000000 1.697190 0.000000 
#    z -0.014350 0.000000 1.693540 
# 
# From -- ./inp_files/66094.got.cif
#   From: 2010.05.17/outbox.cif.g08.bks.cpg/sg10_34_cif.got.tgz:66094.got - 2010.06.03 11:33:40.
