data_PCOD9144010
_publ_section_title
;
Structure prediction by ZEFSAII (Michael W. Deem and Ramdas Pophale) SiO2 
 PCOD9144010
Probable space group: P 2/M
;
_chemical_formula_sum "Si O2"
_cell_formula_units_Z 32
_cell_length_a 24.790093
_cell_length_b 7.461178
_cell_length_c 20.371553
_cell_angle_alpha 90.000000
_cell_angle_beta 22.997646
_cell_angle_gamma 90.000000
_cell_volume 1472.128325
_symmetry_space_group_name_H-M "P 2/M"
_symmetry_group_IT_number 10
_symmetry_cell_setting 'monoclinic'
loop_
_space_group_symop_operation_xyz
x,y,z
-x,y,-z
-x,-y,-z
x,-y,z
loop_
_atom_site_type_symbol
_atom_site_label
_atom_site_fract_x
_atom_site_fract_y
_atom_site_fract_z
Si Si1 0.443284 0.296366 0.756266
Si Si2 0.152315 0.216745 0.138448
Si Si3 0.075893 0.219582 0.711471
Si Si4 0.631511 0.795568 0.662576
Si Si5 0.624190 0.715987 0.313773
Si Si6 0.871003 0.781443 0.687115
Si Si7 0.439921 0.780799 0.996490
Si Si8 0.942217 0.786330 0.995449
O O1 0.493534 0.500000 0.691267
O O2 0.549081 0.202349 0.686390
O O3 0.409319 0.219156 0.722494
O O4 0.299551 0.294938 0.955646
O O5 0.108945 0.269077 0.259759
O O6 0.043618 0.268785 0.205234
O O7 0.166215 0.000000 0.121667
O O8 0.220764 0.285921 0.520531
O O9 0.030282 0.281910 0.834684
O O10 0.082236 0.000000 0.706888
O O11 0.535898 0.719295 0.827959
O O12 0.659294 0.000000 0.652631
O O13 0.500000 0.777161 0.500000
O O14 0.620184 0.500000 0.315975
O O15 0.778615 0.760072 0.165380
O O16 0.000000 0.718917 0.500000
O O17 0.870240 0.000000 0.684945
O O18 0.718766 0.723051 0.834817
O O19 0.438098 0.000000 0.996352
O O20 0.500000 0.728572 0.000000
O O21 0.962764 0.000000 0.973652
O O22 0.000000 0.715513 0.000000
#
# Coordination Sequence:
#
# PCOD9144010 Si02
#       8
#     4   4   4   4   4   4   4   4
#     4  11  22  37  57  80 106 141 185 232 270 316
#     4  10  18  34  57  80 107 142 180 223 275 324
#     4   9  19  33  53  80 109 138 173 220 268 320
#     4  10  20  35  55  81 110 143 180 221 275 327
#     4  10  23  41  58  79 108 144 186 227 271 322
#     4   9  17  27  45  77 109 137 174 220 267 315
#     4   9  17  28  45  74 109 140 173 217 265 316
#     4  10  21  37  56  83 114 141 174 218 271 328
#
# _framework density 21.737237
#
# number of rings (size 3 to 8) (size 9 to 14) (size 15 to 20)
#    0.000    2.250    2.500    0.375    3.500    1.000 
#    0.000    1.250    0.000    0.750    0.000    0.000 
#    0.000    0.000    0.000    0.000    0.000    0.000 
#
# Total GULP energy -178699.396247 kJ/mol
# GULP energy per Si atom -5584.356133 kJ/mol
# Density = 2.168776 g / cm^3
# Si number density = 21.737237 Si / 1000 Ang^3
#
#
#
# Elastic Constant Matrix: (Units=GPa)
#
#
# Indices 1 2 3 4 5 6 
#
# 1 90.2258 2.7879 1.9150 0.0000 15.7141 0.0000
# 2 2.7879 62.5789 -0.3591 0.0000 2.9319 0.0000
# 3 1.9150 -0.3591 93.2442 0.0000 10.2243 0.0000
# 4 0.0000 0.0000 0.0000 27.5281 0.0000 -9.8894
# 5 15.7141 2.9319 10.2243 0.0000 39.8567 0.0000
# 6 0.0000 0.0000 0.0000 -9.8894 0.0000 -1.2303
#
#
#
# Elastic Compliance Matrix: (Units=1/GPa)
#
#
# Indices 1 2 3 4 5 6 
#
# 1 0.011913 -0.000307 0.000274 0.000000 -0.004745 0.000000
# 2 -0.000307 0.016047 0.000190 0.000000 -0.001108 0.000000
# 3 0.000274 0.000190 0.011044 0.000000 -0.002955 0.000000
# 4 0.000000 0.000000 0.000000 0.009344 0.000000 -0.075108
# 5 -0.004745 -0.001108 -0.002955 0.000000 0.027800 0.000000
# 6 0.000000 0.000000 0.000000 -0.075108 0.000000 -0.209069
#
#
# Mechanical properties :
#
#
# Convention : Reuss Voigt Hill
#
# Bulk Modulus (GPa) = 25.43376 28.30406 26.86891
# Shear Modulus (GPa) = -41.62175 29.34455 -6.13860
#
# Velocity S-wave (km/s) = -4.38055 3.67818 -1.68230
# Velocity P-wave (km/s) = 3.72286 5.57565 2.93498
#
# Compressibility (1/GPa) = 0.03931782
#
# Stress axis : x y z
#
# Youngs Moduli (GPa) = 83.93949 62.31884 90.54976
#
# Poissons Ratio (x) = 0.01912 -0.02485
# Poissons Ratio (y) = 0.02576 -0.01717
# Poissons Ratio (z) = -0.02304 -0.01182
#
# Static dielectric constant tensor:
#      x y z
#    x 1.765590 0.000000 0.014770 
#    y 0.000000 1.784320 0.000000 
#    z 0.014770 0.000000 1.755100 
# 
# From -- ./inp_files/86815.got.cif
#   From: 2010.05.17/outbox.cif.g08.bks.cpg/sg10_44_cif.got.tgz:86815.got - 2010.06.03 11:33:40.
