data_PCOD9144234
_publ_section_title
;
Structure prediction by ZEFSAII (Michael W. Deem and Ramdas Pophale) SiO2 
 PCOD9144234
Probable space group: P 2/M
;
_chemical_formula_sum "Si O2"
_cell_formula_units_Z 32
_cell_length_a 22.821944
_cell_length_b 13.011734
_cell_length_c 8.980230
_cell_angle_alpha 90.000000
_cell_angle_beta 130.763842
_cell_angle_gamma 90.000000
_cell_volume 2019.783114
_symmetry_space_group_name_H-M "P 2/M"
_symmetry_group_IT_number 10
_symmetry_cell_setting 'monoclinic'
loop_
_space_group_symop_operation_xyz
x,y,z
-x,y,-z
-x,-y,-z
x,-y,z
loop_
_atom_site_type_symbol
_atom_site_label
_atom_site_fract_x
_atom_site_fract_y
_atom_site_fract_z
Si Si1 0.954600 0.772770 0.064714
Si Si2 0.812905 0.687699 0.190697
Si Si3 0.339702 0.375711 0.566595
Si Si4 0.085810 0.117625 0.712641
Si Si5 0.341089 0.375338 0.915099
Si Si6 0.955697 0.386690 0.585206
Si Si7 0.504294 0.624875 0.335833
Si Si8 0.179991 0.379227 0.140901
O O1 0.922780 0.856435 0.126886
O O2 0.012503 0.700386 0.255260
O O3 0.885749 0.695462 0.904490
O O4 0.000000 0.815977 0.000000
O O5 0.853177 0.799645 0.248603
O O6 0.725556 0.679303 0.100507
O O7 0.866288 0.625963 0.395641
O O8 0.820123 0.638906 0.037774
O O9 0.343785 0.500000 0.572846
O O10 0.334953 0.346079 0.731513
O O11 0.418148 0.338267 0.617808
O O12 0.262872 0.349631 0.346932
O O13 0.000000 0.132641 0.500000
O O14 0.108424 0.000000 0.724142
O O15 0.331109 0.500000 0.912073
O O16 0.425951 0.349565 0.118342
O O17 0.971873 0.500000 0.673576
O O18 0.000000 0.378263 0.500000
O O19 0.500000 0.659296 0.500000
O O20 0.508065 0.500000 0.344553
O O21 0.165747 0.500000 0.147067
#
# Coordination Sequence:
#
# PCOD9144234 Si02
#       8
#     4   4   4   4   4   4   4   4
#     4  11  22  33  47  70  98 126 162 201 247 290
#     4  11  19  32  48  70  90 121 163 201 240 284
#     4   9  18  29  41  63  97 134 166 194 227 269
#     4  10  20  38  57  69  86 118 163 211 256 294
#     4  10  19  28  44  68  98 131 158 194 235 280
#     4  11  19  31  47  67  97 133 163 193 226 277
#     4   9  16  28  44  62  90 130 172 199 223 264
#     4  10  19  30  43  64  95 131 163 194 230 278
#
# _framework density 15.843286000000001
#
# number of rings (size 3 to 8) (size 9 to 14) (size 15 to 20)
#    0.000    1.875    3.750    2.625    1.750    4.750 
#    0.000    0.000    0.000    0.000    0.000    0.000 
#    0.000   14.500    0.000    0.000    0.000    1.500 
#
# Total GULP energy -178480.341196 kJ/mol
# GULP energy per Si atom -5577.510662 kJ/mol
# Density = 1.580723 g / cm^3
# Si number density = 15.843286 Si / 1000 Ang^3
#
#
#
# Elastic Constant Matrix: (Units=GPa)
#
#
# Indices 1 2 3 4 5 6 
#
# 1 80.8681 10.6925 18.8952 0.0000 11.2966 0.0000
# 2 10.6925 51.4803 11.0696 0.0000 2.6186 0.0000
# 3 18.8952 11.0696 75.1969 0.0000 18.4087 0.0000
# 4 0.0000 0.0000 0.0000 5.6806 0.0000 2.6528
# 5 11.2966 2.6186 18.4087 0.0000 23.4671 0.0000
# 6 0.0000 0.0000 0.0000 2.6528 0.0000 8.5293
#
#
#
# Elastic Compliance Matrix: (Units=1/GPa)
#
#
# Indices 1 2 3 4 5 6 
#
# 1 0.013792 -0.002198 -0.001952 0.000000 -0.004863 0.000000
# 2 -0.002198 0.020410 -0.002666 0.000000 0.000871 0.000000
# 3 -0.001952 -0.002666 0.017177 0.000000 -0.012238 0.000000
# 4 0.000000 0.000000 0.000000 0.205949 0.000000 -0.064054
# 5 -0.004863 0.000871 -0.012238 0.000000 0.054456 0.000000
# 6 0.000000 0.000000 0.000000 -0.064054 0.000000 0.137165
#
#
# Mechanical properties :
#
#
# Convention : Reuss Voigt Hill
#
# Bulk Modulus (GPa) = 26.49051 32.09555 29.29303
# Shear Modulus (GPa) = 10.52272 18.66127 14.59200
#
# Velocity S-wave (km/s) = 2.57996 3.43573 3.03813
# Velocity P-wave (km/s) = 5.06276 6.00342 5.55305
#
# Compressibility (1/GPa) = 0.03774937
#
# Stress axis : x y z
#
# Youngs Moduli (GPa) = 72.50745 48.99508 58.21713
#
# Poissons Ratio (x) = 0.10767 0.11361
# Poissons Ratio (y) = 0.15934 0.15519
# Poissons Ratio (z) = 0.14150 0.13061
#
# Static dielectric constant tensor:
#      x y z
#    x 1.546150 0.000000 -0.001160 
#    y 0.000000 1.504420 0.000000 
#    z -0.001160 0.000000 1.544380 
# 
# From -- ./inp_files/34881.got.cif
#   From: 2010.05.17/outbox.cif.g08.bks.cpg/sg10_18_cif.got.tgz:34881.got - 2010.06.03 11:33:40.
