data_PCOD9144425
_publ_section_title
;
Structure prediction by ZEFSAII (Michael W. Deem and Ramdas Pophale) SiO2 
 PCOD9144425
Probable space group: P 2/M
;
_chemical_formula_sum "Si O2"
_cell_formula_units_Z 32
_cell_length_a 17.048963
_cell_length_b 7.551042
_cell_length_c 14.898971
_cell_angle_alpha 90.000000
_cell_angle_beta 125.351061
_cell_angle_gamma 90.000000
_cell_volume 1564.408672
_symmetry_space_group_name_H-M "P 2/M"
_symmetry_group_IT_number 10
_symmetry_cell_setting 'monoclinic'
loop_
_space_group_symop_operation_xyz
x,y,z
-x,y,-z
-x,-y,-z
x,-y,z
loop_
_atom_site_type_symbol
_atom_site_label
_atom_site_fract_x
_atom_site_fract_y
_atom_site_fract_z
Si Si1 0.868833 0.786696 0.489595
Si Si2 0.554258 0.285589 0.252316
Si Si3 0.913473 0.783278 0.322668
Si Si4 0.657517 0.791397 0.841386
Si Si5 0.402394 0.204664 0.390624
Si Si6 0.390398 0.286687 0.900829
Si Si7 0.689622 0.707493 0.496120
Si Si8 0.779503 0.796618 0.080787
O O1 0.860960 0.726171 0.380460
O O2 0.786340 0.728807 0.502979
O O3 0.975038 0.733117 0.593446
O O4 0.867141 0.000000 0.486710
O O5 0.553619 0.500000 0.251903
O O6 0.444540 0.226214 0.175650
O O7 0.615702 0.230267 0.206820
O O8 0.604414 0.221454 0.375978
O O9 0.863012 0.717528 0.198616
O O10 0.909505 0.000000 0.318857
O O11 0.635976 0.715489 0.728072
O O12 0.679213 0.000000 0.845423
O O13 0.740132 0.716316 0.961529
O O14 0.500000 0.282326 0.500000
O O15 0.321108 0.209598 0.413367
O O16 0.574016 0.000000 0.614676
O O17 0.378962 0.500000 0.899765
O O18 0.312179 0.203495 0.913341
O O19 0.500000 0.246020 0.000000
O O20 0.673454 0.500000 0.498774
O O21 0.807213 0.000000 0.080144
#
# Coordination Sequence:
#
# PCOD9144425 Si02
#       8
#     4   4   4   4   4   4   4   4
#     4   9  17  33  56  77 101 133 165 198 246 302
#     4  10  20  32  45  65  98 134 163 195 237 289
#     4   8  16  32  54  79 103 130 164 202 245 296
#     4  10  20  32  48  70  95 126 164 205 243 284
#     4  10  20  35  52  70  96 131 171 209 249 298
#     4  10  19  30  43  63  97 137 167 189 226 289
#     4  11  22  33  50  76 102 128 164 211 256 291
#     4  10  19  31  49  73  99 126 163 208 246 283
#
# _framework density 20.455012
#
# number of rings (size 3 to 8) (size 9 to 14) (size 15 to 20)
#    0.000    2.250    2.500    1.875    0.000    2.000 
#    0.000    1.875    0.000    0.750    0.000    5.250 
#    0.000    0.000    0.000    0.000    0.000    0.000 
#
# Total GULP energy -178561.253387 kJ/mol
# GULP energy per Si atom -5580.039168 kJ/mol
# Density = 2.040846 g / cm^3
# Si number density = 20.455012 Si / 1000 Ang^3
#
#
#
# Elastic Constant Matrix: (Units=GPa)
#
#
# Indices 1 2 3 4 5 6 
#
# 1 64.7392 -2.8325 39.6973 0.0000 -8.2115 0.0000
# 2 -2.8325 52.2848 9.2299 0.0000 -1.9642 0.0000
# 3 39.6973 9.2299 180.8179 0.0000 -14.9829 0.0000
# 4 0.0000 0.0000 0.0000 0.7507 0.0000 2.5989
# 5 -8.2115 -1.9642 -14.9829 0.0000 30.8477 0.0000
# 6 0.0000 0.0000 0.0000 2.5989 0.0000 31.5429
#
#
#
# Elastic Compliance Matrix: (Units=1/GPa)
#
#
# Indices 1 2 3 4 5 6 
#
# 1 0.018278 0.001786 -0.003846 0.000000 0.003111 0.000000
# 2 0.001786 0.019493 -0.001297 0.000000 0.001087 0.000000
# 3 -0.003846 -0.001297 0.006616 0.000000 0.002107 0.000000
# 4 0.000000 0.000000 0.000000 1.863596 0.000000 -0.153545
# 5 0.003111 0.001087 0.002107 0.000000 0.034338 0.000000
# 6 0.000000 0.000000 0.000000 -0.153545 0.000000 0.044354
#
#
# Mechanical properties :
#
#
# Convention : Reuss Voigt Hill
#
# Bulk Modulus (GPa) = 26.54523 43.33681 34.94102
# Shear Modulus (GPa) = 2.49259 29.41141 15.95200
#
# Velocity S-wave (km/s) = 1.10509 3.79602 2.79562
# Velocity P-wave (km/s) = 3.82542 6.35967 5.24782
#
# Compressibility (1/GPa) = 0.03767155
#
# Stress axis : x y z
#
# Youngs Moduli (GPa) = 54.71133 51.30159 151.15795
#
# Poissons Ratio (x) = -0.09162 0.58137
# Poissons Ratio (y) = -0.09771 0.19606
# Poissons Ratio (z) = 0.21043 0.06654
#
# Static dielectric constant tensor:
#      x y z
#    x 1.691270 0.000000 -0.018680 
#    y 0.000000 1.750130 0.000000 
#    z -0.018680 0.000000 1.798620 
# 
# From -- ./inp_files/66027.got.cif
#   From: 2010.05.17/outbox.cif.g08.bks.cpg/sg10_34_cif.got.tgz:66027.got - 2010.06.03 11:33:40.
