data_PCOD9144249
_publ_section_title
;
Structure prediction by ZEFSAII (Michael W. Deem and Ramdas Pophale) SiO2 
 PCOD9144249
Probable space group: P 2/M
;
_chemical_formula_sum "Si O2"
_cell_formula_units_Z 32
_cell_length_a 19.850084
_cell_length_b 9.268574
_cell_length_c 29.660915
_cell_angle_alpha 90.000000
_cell_angle_beta 156.355597
_cell_angle_gamma 90.000000
_cell_volume 2188.608902
_symmetry_space_group_name_H-M "P 2/M"
_symmetry_group_IT_number 10
_symmetry_cell_setting 'monoclinic'
loop_
_space_group_symop_operation_xyz
x,y,z
-x,y,-z
-x,-y,-z
x,-y,z
loop_
_atom_site_type_symbol
_atom_site_label
_atom_site_fract_x
_atom_site_fract_y
_atom_site_fract_z
Si Si1 0.377697 0.166257 0.381093
Si Si2 0.890934 0.328308 0.728960
Si Si3 0.083057 0.671501 0.598233
Si Si4 0.275743 0.672780 0.944486
Si Si5 0.232342 0.168323 0.825770
Si Si6 0.919574 0.329326 0.592526
Si Si7 0.403550 0.168873 0.833714
Si Si8 0.650124 0.329507 0.496105
O O1 0.500000 0.173192 0.500000
O O2 0.209680 0.246996 0.293599
O O3 0.484529 0.242263 0.407473
O O4 0.345224 0.000000 0.350933
O O5 0.878526 0.500000 0.728473
O O6 0.792278 0.297875 0.621496
O O7 0.086566 0.290483 0.844452
O O8 0.121601 0.500000 0.620621
O O9 0.251929 0.758443 0.713146
O O10 0.000000 0.712735 0.500000
O O11 0.953829 0.693265 0.560684
O O12 0.293454 0.500000 0.954984
O O13 0.290851 0.735916 0.903318
O O14 0.421931 0.746334 0.063203
O O15 0.347211 0.179282 0.851766
O O16 0.053235 0.230453 0.700259
O O17 0.224110 0.000000 0.833933
O O18 0.954587 0.500000 0.623740
O O19 0.737251 0.299030 0.501602
O O20 0.420782 0.000000 0.833435
O O21 0.613818 0.500000 0.476974
#
# Coordination Sequence:
#
# PCOD9144249 Si02
#       8
#     4   4   4   4   4   4   4   4
#     4   9  17  26  37  56  80 110 146 181 215 249
#     4   9  17  28  40  56  80 114 150 179 213 252
#     4   9  18  33  52  70  88 112 144 184 225 263
#     4  11  20  30  44  62  85 116 152 185 215 253
#     4  10  19  29  41  59  87 117 147 182 218 255
#     4   9  16  28  45  65  87 114 149 182 218 261
#     4  10  21  33  44  63  87 115 147 180 221 263
#     4   9  15  26  41  57  81 113 147 181 213 251
#
# _framework density 14.62116
#
# number of rings (size 3 to 8) (size 9 to 14) (size 15 to 20)
#    0.000    2.500    1.250    1.875    0.000    6.250 
#    0.000    0.000    0.000    0.000    0.000    0.000 
#    0.000    1.000    0.000   11.500    0.000    3.250 
#
# Total GULP energy -178317.932973 kJ/mol
# GULP energy per Si atom -5572.435405 kJ/mol
# Density = 1.458788 g / cm^3
# Si number density = 14.621160 Si / 1000 Ang^3
#
#
#
# Elastic Constant Matrix: (Units=GPa)
#
#
# Indices 1 2 3 4 5 6 
#
# 1 63.7630 46.7459 52.3071 0.0000 7.8953 0.0000
# 2 46.7459 64.4902 52.6185 0.0000 11.8364 0.0000
# 3 52.3071 52.6185 80.2012 0.0000 8.0242 0.0000
# 4 0.0000 0.0000 0.0000 7.8931 0.0000 -1.6809
# 5 7.8953 11.8364 8.0242 0.0000 17.0563 0.0000
# 6 0.0000 0.0000 0.0000 -1.6809 0.0000 11.2107
#
#
#
# Elastic Compliance Matrix: (Units=1/GPa)
#
#
# Indices 1 2 3 4 5 6 
#
# 1 0.040826 -0.016970 -0.015511 0.000000 0.000175 0.000000
# 2 -0.016970 0.043669 -0.016094 0.000000 -0.014878 0.000000
# 3 -0.015511 -0.016094 0.032855 0.000000 0.002892 0.000000
# 4 0.000000 0.000000 0.000000 0.130873 0.000000 0.019623
# 5 0.000175 -0.014878 0.002892 0.000000 0.067512 0.000000
# 6 0.000000 0.000000 0.000000 0.019623 0.000000 0.092143
#
#
# Mechanical properties :
#
#
# Convention : Reuss Voigt Hill
#
# Bulk Modulus (GPa) = 49.50441 56.86637 53.18539
# Shear Modulus (GPa) = 9.77021 11.01755 10.39388
#
# Velocity S-wave (km/s) = 2.58781 2.74804 2.66912
# Velocity P-wave (km/s) = 6.54680 7.00333 6.77891
#
# Compressibility (1/GPa) = 0.02020022
#
# Stress axis : x y z
#
# Youngs Moduli (GPa) = 24.49402 22.89970 30.43717
#
# Poissons Ratio (x) = 0.38860 0.47211
# Poissons Ratio (y) = 0.41565 0.48986
# Poissons Ratio (z) = 0.37993 0.36855
#
# Static dielectric constant tensor:
#      x y z
#    x 1.488850 0.000000 0.017210 
#    y 0.000000 1.486680 0.000000 
#    z 0.017210 0.000000 1.464150 
# 
# From -- ./inp_files/52745.got.cif
#   From: 2010.05.17/outbox.cif.g08.bks.cpg/sg10_27_cif.got.tgz:52745.got - 2010.06.03 11:33:40.
