data_PCOD9144311
_publ_section_title
;
Structure prediction by ZEFSAII (Michael W. Deem and Ramdas Pophale) SiO2 
 PCOD9144311
Probable space group: P 2/M
;
_chemical_formula_sum "Si O2"
_cell_formula_units_Z 24
_cell_length_a 21.005762
_cell_length_b 7.550339
_cell_length_c 12.387330
_cell_angle_alpha 90.000000
_cell_angle_beta 40.276948
_cell_angle_gamma 90.000000
_cell_volume 1270.105006
_symmetry_space_group_name_H-M "P 2/M"
_symmetry_group_IT_number 10
_symmetry_cell_setting 'monoclinic'
loop_
_space_group_symop_operation_xyz
x,y,z
-x,y,-z
-x,-y,-z
x,-y,z
loop_
_atom_site_type_symbol
_atom_site_label
_atom_site_fract_x
_atom_site_fract_y
_atom_site_fract_z
Si Si1 0.610444 0.790589 0.881604
Si Si2 0.260560 0.795204 0.473764
Si Si3 0.363165 0.285907 0.904089
Si Si4 0.420367 0.714959 0.444418
Si Si5 0.890354 0.210626 0.156852
Si Si6 0.732277 0.286608 0.180987
O O1 0.695202 0.715486 0.693232
O O2 0.605014 0.000000 0.863296
O O3 0.500000 0.718454 0.000000
O O4 0.638812 0.771437 0.969613
O O5 0.353189 0.787166 0.435120
O O6 0.171670 0.716285 0.660505
O O7 0.233918 0.000000 0.486542
O O8 0.361970 0.500000 0.907069
O O9 0.468288 0.229427 0.718621
O O10 0.280256 0.225720 0.926066
O O11 0.418375 0.500000 0.442737
O O12 0.365126 0.767587 0.625431
O O13 0.824777 0.232248 0.133936
O O14 0.898760 0.000000 0.164181
O O15 0.000000 0.283171 0.000000
O O16 0.733366 0.500000 0.178234
#
# Coordination Sequence:
#
# PCOD9144311 Si02
#       6
#     4   4   4   4   4   4
#     4  10  19  30  44  64  94 129 159 185 217 264
#     4   9  17  30  46  66  93 121 151 188 227 266
#     4  10  19  29  44  66  95 128 157 186 219 263
#     4   9  16  27  44  65  92 124 154 184 220 266
#     4   9  18  33  53  73  90 112 148 195 239 275
#     4   9  18  31  46  68  95 121 151 187 231 276
#
# _framework density 18.896075
#
# number of rings (size 3 to 8) (size 9 to 14) (size 15 to 20)
#    0.000    2.667    1.667    0.500    0.000    4.000 
#    0.000    0.000    0.000    6.000    0.000    7.000 
#    0.000    0.000    0.000    0.000    0.000    0.000 
#
# Total GULP energy -133735.146779 kJ/mol
# GULP energy per Si atom -5572.297782 kJ/mol
# Density = 1.885307 g / cm^3
# Si number density = 18.896075 Si / 1000 Ang^3
#
#
#
# Elastic Constant Matrix: (Units=GPa)
#
#
# Indices 1 2 3 4 5 6 
#
# 1 98.8683 -4.6933 98.4958 0.0000 16.5280 0.0000
# 2 -4.6933 43.0080 8.3110 0.0000 -1.8072 0.0000
# 3 98.4958 8.3110 144.8910 0.0000 1.6718 0.0000
# 4 0.0000 0.0000 0.0000 5.2894 0.0000 3.2471
# 5 16.5280 -1.8072 1.6718 0.0000 29.7929 0.0000
# 6 0.0000 0.0000 0.0000 3.2471 0.0000 18.8390
#
#
#
# Elastic Compliance Matrix: (Units=1/GPa)
#
#
# Indices 1 2 3 4 5 6 
#
# 1 0.045684 0.010082 -0.031369 0.000000 -0.022972 0.000000
# 2 0.010082 0.025804 -0.008293 0.000000 -0.003562 0.000000
# 3 -0.031369 -0.008293 0.028525 0.000000 0.015299 0.000000
# 4 0.000000 0.000000 0.000000 0.211427 0.000000 -0.036442
# 5 -0.022972 -0.003562 0.015299 0.000000 0.045235 0.000000
# 6 0.000000 0.000000 0.000000 -0.036442 0.000000 0.059362
#
#
# Mechanical properties :
#
#
# Convention : Reuss Voigt Hill
#
# Bulk Modulus (GPa) = 24.47717 54.55493 39.51605
# Shear Modulus (GPa) = 10.22881 23.09452 16.66167
#
# Velocity S-wave (km/s) = 2.32915 3.49977 2.97265
# Velocity P-wave (km/s) = 4.49610 6.72792 5.72188
#
# Compressibility (1/GPa) = 0.04085440
#
# Stress axis : x y z
#
# Youngs Moduli (GPa) = 21.88949 38.75297 35.05670
#
# Poissons Ratio (x) = -0.39070 1.09969
# Poissons Ratio (y) = -0.22069 0.29071
# Poissons Ratio (z) = 0.68665 0.32136
#
# Static dielectric constant tensor:
#      x y z
#    x 1.640010 0.000000 0.017120 
#    y 0.000000 1.720620 0.000000 
#    z 0.017120 0.000000 1.694300 
# 
# From -- ./inp_files/27781.got.cif
#   From: 2010.05.17/outbox.cif.g08.bks.cpg/sg10_14_cif.got.tgz:27781.got - 2010.06.03 11:33:40.
