data_PCOD9144672
_publ_section_title
;
Structure prediction by ZEFSAII (Michael W. Deem and Ramdas Pophale) SiO2 
 PCOD9144672
Probable space group: P 2/M
;
_chemical_formula_sum "Si O2"
_cell_formula_units_Z 28
_cell_length_a 15.261479
_cell_length_b 22.805788
_cell_length_c 5.207531
_cell_angle_alpha 90.000000
_cell_angle_beta 61.834894
_cell_angle_gamma 90.000000
_cell_volume 1597.867477
_symmetry_space_group_name_H-M "P 2/M"
_symmetry_group_IT_number 10
_symmetry_cell_setting 'monoclinic'
loop_
_space_group_symop_operation_xyz
x,y,z
-x,y,-z
-x,-y,-z
x,-y,z
loop_
_atom_site_type_symbol
_atom_site_label
_atom_site_fract_x
_atom_site_fract_y
_atom_site_fract_z
Si Si1 0.392054 0.931426 0.087343
Si Si2 0.736921 0.931803 0.216904
Si Si3 0.879630 0.238887 0.662828
Si Si4 0.881751 0.373903 0.615506
Si Si5 0.560478 0.571320 0.667102
Si Si6 0.788053 0.570501 0.251867
Si Si7 0.119710 0.169680 0.839437
O O1 0.329981 0.929919 0.434863
O O2 0.410097 0.000000 0.991220
O O3 0.500000 0.904776 0.000000
O O4 0.327361 0.909008 0.937014
O O5 0.830539 0.891025 0.147032
O O6 0.764516 0.000000 0.130165
O O7 0.850771 0.305629 0.647185
O O8 0.847821 0.194534 0.481923
O O9 0.000000 0.238283 0.500000
O O10 0.849980 0.216433 0.984030
O O11 0.856906 0.405399 0.383610
O O12 0.000000 0.376674 0.500000
O O13 0.823935 0.404330 0.930266
O O14 0.500000 0.589319 0.500000
O O15 0.560850 0.500000 0.675418
O O16 0.675263 0.588618 0.480134
O O17 0.500000 0.591742 0.000000
O O18 0.791837 0.500000 0.236433
O O19 0.000000 0.164458 0.000000
#
# Coordination Sequence:
#
# PCOD9144672 Si02
#       7
#     4   4   4   4   4   4   4
#     4   9  17  30  47  69 100 134 168 205 242 290
#     4  10  19  30  48  77 106 131 161 199 256 315
#     4   9  19  35  53  71  93 131 182 219 238 272
#     4  11  22  36  53  75 106 140 174 211 248 298
#     4   9  17  31  50  72 100 131 165 206 245 288
#     4  11  22  34  52  81 110 136 167 203 259 322
#     4  10  19  33  52  74 101 131 167 210 249 292
#
# _framework density 17.523356
#
# number of rings (size 3 to 8) (size 9 to 14) (size 15 to 20)
#    0.000    2.143    0.000    3.857    0.000    8.286 
#    0.000    0.000    0.000    5.143    0.000   35.000 
#    0.000    0.000    0.000    0.000    0.000    0.000 
#
# Total GULP energy -156133.214711 kJ/mol
# GULP energy per Si atom -5576.186240 kJ/mol
# Density = 1.748347 g / cm^3
# Si number density = 17.523356 Si / 1000 Ang^3
#
#
#
# Elastic Constant Matrix: (Units=GPa)
#
#
# Indices 1 2 3 4 5 6 
#
# 1 81.8539 26.8452 16.4595 0.0000 15.2401 0.0000
# 2 26.8452 60.4359 12.4766 0.0000 1.7560 0.0000
# 3 16.4595 12.4766 50.2019 0.0000 18.5933 0.0000
# 4 0.0000 0.0000 0.0000 15.4375 0.0000 9.5554
# 5 15.2401 1.7560 18.5933 0.0000 33.1297 0.0000
# 6 0.0000 0.0000 0.0000 9.5554 0.0000 3.5449
#
#
#
# Elastic Compliance Matrix: (Units=1/GPa)
#
#
# Indices 1 2 3 4 5 6 
#
# 1 0.015779 -0.006573 -0.001238 0.000000 -0.006215 0.000000
# 2 -0.006573 0.020275 -0.004552 0.000000 0.004503 0.000000
# 3 -0.001238 -0.004552 0.026708 0.000000 -0.014179 0.000000
# 4 0.000000 0.000000 0.000000 -0.096903 0.000000 0.261208
# 5 -0.006215 0.004503 -0.014179 0.000000 0.040762 0.000000
# 6 0.000000 0.000000 0.000000 0.261208 0.000000 -0.422002
#
#
# Mechanical properties :
#
#
# Convention : Reuss Voigt Hill
#
# Bulk Modulus (GPa) = 26.29034 33.78380 30.03707
# Shear Modulus (GPa) = -13.22830 19.53645 3.15407
#
# Velocity S-wave (km/s) = -2.75052 3.34260 1.34307
# Velocity P-wave (km/s) = 2.22452 5.84966 4.42532
#
# Compressibility (1/GPa) = 0.03803679
#
# Stress axis : x y z
#
# Youngs Moduli (GPa) = 63.37714 49.32235 37.44198
#
# Poissons Ratio (x) = 0.32417 0.04635
# Poissons Ratio (y) = 0.41655 0.17043
# Poissons Ratio (z) = 0.07845 0.22451
#
# Static dielectric constant tensor:
#      x y z
#    x 1.602830 0.000000 -0.000650 
#    y 0.000000 1.585270 0.000000 
#    z -0.000650 0.000000 1.568020 
# 
# From -- ./inp_files/9761.got.cif
#   From: 2010.05.17/outbox.cif.g08.bks.cpg/sg10_5_cif.got.tgz:9761.got - 2010.06.03 11:33:40.
