data_PCOD9144292
_publ_section_title
;
Structure prediction by ZEFSAII (Michael W. Deem and Ramdas Pophale) SiO2 
 PCOD9144292
Probable space group: P 2/M
;
_chemical_formula_sum "Si O2"
_cell_formula_units_Z 32
_cell_length_a 16.137929
_cell_length_b 9.142466
_cell_length_c 14.127786
_cell_angle_alpha 90.000000
_cell_angle_beta 68.180080
_cell_angle_gamma 90.000000
_cell_volume 1935.085320
_symmetry_space_group_name_H-M "P 2/M"
_symmetry_group_IT_number 10
_symmetry_cell_setting 'monoclinic'
loop_
_space_group_symop_operation_xyz
x,y,z
-x,y,-z
-x,-y,-z
x,-y,z
loop_
_atom_site_type_symbol
_atom_site_label
_atom_site_fract_x
_atom_site_fract_y
_atom_site_fract_z
Si Si1 0.948380 0.665126 0.122549
Si Si2 0.714814 0.677054 0.420450
Si Si3 0.372048 0.826507 0.725339
Si Si4 0.792298 0.825820 0.088828
Si Si5 0.461280 0.331627 0.408761
Si Si6 0.095128 0.676421 0.341423
Si Si7 0.110526 0.825443 0.146513
Si Si8 0.111511 0.677022 0.546933
O O1 0.936444 0.500000 0.164918
O O2 0.855558 0.740872 0.135829
O O3 0.013902 0.758629 0.160044
O O4 0.000000 0.656626 0.000000
O O5 0.712952 0.500000 0.408076
O O6 0.680134 0.753502 0.340621
O O7 0.641761 0.710695 0.533485
O O8 0.812491 0.725168 0.412735
O O9 0.310275 0.795348 0.842511
O O10 0.471831 0.763379 0.681972
O O11 0.375583 0.000000 0.709708
O O12 0.807837 0.000000 0.094314
O O13 0.824535 0.788291 0.969320
O O14 0.500000 0.324882 0.500000
O O15 0.466224 0.500000 0.376052
O O16 0.100202 0.500000 0.329929
O O17 0.138662 0.753602 0.233205
O O18 0.131384 0.718503 0.429604
O O19 0.989925 0.719103 0.387235
O O20 0.105014 0.000000 0.156145
O O21 0.112489 0.500000 0.547898
#
# Coordination Sequence:
#
# PCOD9144292 Si02
#       8
#     4   4   4   4   4   4   4   4
#     4   9  17  28  42  60  81 109 149 188 213 246
#     4   9  17  30  47  66  89 120 149 174 219 273
#     4  10  19  29  43  65  92 119 149 182 216 256
#     4   9  19  32  42  59  89 122 150 177 218 268
#     4   8  15  28  44  63  88 116 146 177 216 268
#     4   9  17  31  49  68  88 113 150 188 221 258
#     4  10  19  31  45  60  87 122 148 179 224 263
#     4   8  16  31  49  67  89 115 144 184 227 264
#
# _framework density 16.536738
#
# number of rings (size 3 to 8) (size 9 to 14) (size 15 to 20)
#    0.000    3.000    0.000    2.625    1.750    5.250 
#    0.000    1.875    0.000    0.000    0.000    0.875 
#    0.000    7.000    0.000    0.000    0.000    0.000 
#
# Total GULP energy -178245.848836 kJ/mol
# GULP energy per Si atom -5570.182776 kJ/mol
# Density = 1.649910 g / cm^3
# Si number density = 16.536738 Si / 1000 Ang^3
#
#
#
# Elastic Constant Matrix: (Units=GPa)
#
#
# Indices 1 2 3 4 5 6 
#
# 1 24.0123 4.4407 4.3742 0.0000 -7.2479 0.0000
# 2 4.4407 34.1426 30.2625 0.0000 -6.8041 0.0000
# 3 4.3742 30.2625 77.6288 0.0000 -6.5465 0.0000
# 4 0.0000 0.0000 0.0000 21.9917 0.0000 -2.0728
# 5 -7.2479 -6.8041 -6.5465 0.0000 23.6918 0.0000
# 6 0.0000 0.0000 0.0000 -2.0728 0.0000 11.2777
#
#
#
# Elastic Compliance Matrix: (Units=1/GPa)
#
#
# Indices 1 2 3 4 5 6 
#
# 1 0.046253 -0.003156 -0.000265 0.000000 0.013170 0.000000
# 2 -0.003156 0.046589 -0.017342 0.000000 0.007623 0.000000
# 3 -0.000265 -0.017342 0.019689 0.000000 0.000379 0.000000
# 4 0.000000 0.000000 0.000000 0.046273 0.000000 0.008505
# 5 0.013170 0.007623 0.000379 0.000000 0.048532 0.000000
# 6 0.000000 0.000000 0.000000 0.008505 0.000000 0.090234
#
#
# Mechanical properties :
#
#
# Convention : Reuss Voigt Hill
#
# Bulk Modulus (GPa) = 14.08345 23.77094 18.92719
# Shear Modulus (GPa) = 13.78306 17.83931 15.81119
#
# Velocity S-wave (km/s) = 2.89014 3.28802 3.09548
# Velocity P-wave (km/s) = 4.43533 5.36849 4.92406
#
# Compressibility (1/GPa) = 0.07100534
#
# Stress axis : x y z
#
# Youngs Moduli (GPa) = 21.62042 21.46414 50.78960
#
# Poissons Ratio (x) = 0.06774 0.01347
# Poissons Ratio (y) = 0.06824 0.88077
# Poissons Ratio (z) = 0.00573 0.37222
#
# Static dielectric constant tensor:
#      x y z
#    x 1.556640 0.000000 -0.024410 
#    y 0.000000 1.554930 0.000000 
#    z -0.024410 0.000000 1.589570 
# 
# From -- ./inp_files/68212.got.cif
#   From: 2010.05.17/outbox.cif.g08.bks.cpg/sg10_35_cif.got.tgz:68212.got - 2010.06.03 11:33:40.
