data_PCOD9144663
_publ_section_title
;
Structure prediction by ZEFSAII (Michael W. Deem and Ramdas Pophale) SiO2 
 PCOD9144663
Probable space group: P 2/M
;
_chemical_formula_sum "Si O2"
_cell_formula_units_Z 26
_cell_length_a 24.108622
_cell_length_b 13.218813
_cell_length_c 5.253879
_cell_angle_alpha 90.000000
_cell_angle_beta 115.777757
_cell_angle_gamma 90.000000
_cell_volume 1507.726895
_symmetry_space_group_name_H-M "P 2/M"
_symmetry_group_IT_number 10
_symmetry_cell_setting 'monoclinic'
loop_
_space_group_symop_operation_xyz
x,y,z
-x,y,-z
-x,-y,-z
x,-y,z
loop_
_atom_site_type_symbol
_atom_site_label
_atom_site_fract_x
_atom_site_fract_y
_atom_site_fract_z
Si Si1 0.826822 0.813048 0.903221
Si Si2 0.677391 0.687700 0.105788
Si Si3 0.758804 0.114397 0.267660
Si Si4 0.745364 0.614184 0.741246
Si Si5 0.540364 0.379605 0.830472
Si Si6 0.957231 0.725494 0.164656
Si Si7 0.957979 0.500000 0.166157
O O1 0.800552 0.866382 0.599518
O O2 0.797091 0.700551 0.843508
O O3 0.800263 0.866327 0.101074
O O4 0.900196 0.801776 0.050544
O O5 0.705241 0.801055 0.161442
O O6 0.703915 0.633109 0.409376
O O7 0.704448 0.632968 0.910273
O O8 0.604088 0.680619 0.958060
O O9 0.735237 0.000000 0.220815
O O10 0.769719 0.500000 0.789172
O O11 0.500000 0.358727 0.500000
O O12 0.555472 0.500000 0.860188
O O13 0.500000 0.359009 0.000000
O O14 0.928450 0.611088 0.107328
O O15 0.000000 0.735693 0.500000
O O16 0.000000 0.735604 0.000000
O O17 0.000000 0.500000 0.500000
O O18 0.000000 0.500000 0.000000
#
# Coordination Sequence:
#
# PCOD9144663 Si02
#       7
#     4   4   4   4   4   4   2
#     4  10  21  34  55  81 100 133 173 213 266 317
#     4  10  20  34  52  77 104 139 180 209 257 306
#     4  10  21  39  59  77  98 130 176 229 273 305
#     4  10  19  31  50  76 108 137 166 214 258 305
#     4  10  19  30  48  75 109 146 173 199 239 297
#     4  10  19  33  51  73 106 139 169 204 250 312
#     4   8  16  28  44  68  96 138 170 186 224 292
#
# _framework density 17.244503000000002
#
# number of rings (size 3 to 8) (size 9 to 14) (size 15 to 20)
#    0.000    2.154    0.000    3.692    1.077    1.231 
#    0.000    0.000    0.000   10.154    0.000    0.000 
#    0.000    0.000    0.000    0.000    0.000    0.000 
#
# Total GULP energy -145042.491063 kJ/mol
# GULP energy per Si atom -5578.557349 kJ/mol
# Density = 1.720525 g / cm^3
# Si number density = 17.244503 Si / 1000 Ang^3
#
#
#
# Elastic Constant Matrix: (Units=GPa)
#
#
# Indices 1 2 3 4 5 6 
#
# 1 81.1181 23.5527 78.7510 0.0000 4.0979 0.0000
# 2 23.5527 86.5525 26.1552 0.0000 -2.3988 0.0000
# 3 78.7510 26.1552 111.6208 0.0000 -28.8786 0.0000
# 4 0.0000 0.0000 0.0000 -4.4431 0.0000 10.9794
# 5 4.0979 -2.3988 -28.8786 0.0000 33.5124 0.0000
# 6 0.0000 0.0000 0.0000 10.9794 0.0000 6.6089
#
#
#
# Elastic Compliance Matrix: (Units=1/GPa)
#
#
# Indices 1 2 3 4 5 6 
#
# 1 0.392671 -0.004901 -0.371150 0.000000 -0.368197 0.000000
# 2 -0.004901 0.012610 0.001147 0.000000 0.002490 0.000000
# 3 -0.371150 0.001147 0.363306 0.000000 0.358538 0.000000
# 4 0.000000 0.000000 0.000000 -0.044085 0.000000 0.073239
# 5 -0.368197 0.002490 0.358538 0.000000 0.384003 0.000000
# 6 0.000000 0.000000 0.000000 0.073239 0.000000 0.029638
#
#
# Mechanical properties :
#
#
# Convention : Reuss Voigt Hill
#
# Bulk Modulus (GPa) = 53.25053 59.57882 56.41467
# Shear Modulus (GPa) = 2.63962 17.19114 9.91538
#
# Velocity S-wave (km/s) = 1.23856 3.16081 2.40049
# Velocity P-wave (km/s) = 5.74388 6.92426 6.36151
#
# Compressibility (1/GPa) = 0.01877916
#
# Stress axis : x y z
#
# Youngs Moduli (GPa) = 2.54666 79.30452 2.75250
#
# Poissons Ratio (x) = 0.38865 1.02159
# Poissons Ratio (y) = 0.01248 -0.00316
# Poissons Ratio (z) = 0.94519 -0.09098
#
# Static dielectric constant tensor:
#      x y z
#    x 1.554720 0.000000 -0.010310 
#    y 0.000000 1.592160 0.000000 
#    z -0.010310 0.000000 1.565210 
# 
# From -- ./inp_files/12297.got.cif
#   From: 2010.05.17/outbox.cif.g08.bks.cpg/sg10_7_cif.got.tgz:12297.got - 2010.06.03 11:33:40.
