data_PCOD9144605
_publ_section_title
;
Structure prediction by ZEFSAII (Michael W. Deem and Ramdas Pophale) SiO2 
 PCOD9144605
Probable space group: P 2/M
;
_chemical_formula_sum "Si O2"
_cell_formula_units_Z 24
_cell_length_a 8.696720
_cell_length_b 7.494750
_cell_length_c 21.575931
_cell_angle_alpha 90.000000
_cell_angle_beta 129.222502
_cell_angle_gamma 90.000000
_cell_volume 1089.465831
_symmetry_space_group_name_H-M "P 2/M"
_symmetry_group_IT_number 10
_symmetry_cell_setting 'monoclinic'
loop_
_space_group_symop_operation_xyz
x,y,z
-x,y,-z
-x,-y,-z
x,-y,z
loop_
_atom_site_type_symbol
_atom_site_label
_atom_site_fract_x
_atom_site_fract_y
_atom_site_fract_z
Si Si1 0.688089 0.285486 0.407445
Si Si2 0.959594 0.783436 0.919016
Si Si3 0.690270 0.294277 0.083309
Si Si4 0.071466 0.282261 0.421101
Si Si5 0.841645 0.296516 0.250363
Si Si6 0.531468 0.792005 0.763840
O O1 0.680061 0.500000 0.406890
O O2 0.880981 0.234877 0.415219
O O3 0.504348 0.224510 0.319059
O O4 0.737733 0.224960 0.490052
O O5 0.743860 0.725401 0.840337
O O6 0.130086 0.710400 0.918653
O O7 0.966552 0.000000 0.917344
O O8 0.000000 0.731706 0.000000
O O9 0.633684 0.500000 0.084185
O O10 0.769319 0.212241 0.167718
O O11 0.500000 0.213089 0.000000
O O12 0.076103 0.500000 0.419463
O O13 0.016575 0.218063 0.338236
O O14 0.903271 0.500000 0.251461
O O15 0.648365 0.300193 0.245507
O O16 0.516990 0.000000 0.776636
#
# Coordination Sequence:
#
# PCOD9144605 Si02
#       6
#     4   4   4   4   4   4
#     4   8  13  24  43  66  93 126 161 196 237 278
#     4  10  22  38  53  70  96 131 165 194 231 287
#     4  10  21  35  53  78 101 121 154 202 248 286
#     4   7  11  22  42  66  92 125 161 193 228 279
#     4   9  17  31  50  72 100 130 159 195 241 288
#     4  10  19  30  47  73 100 126 162 202 237 278
#
# _framework density 22.029145
#
# number of rings (size 3 to 8) (size 9 to 14) (size 15 to 20)
#    0.000    3.000    0.000    3.500    0.000    2.667 
#    0.000    6.667    0.000    1.000    0.000    7.000 
#    0.000    0.000    0.000    0.000    0.000    0.000 
#
# Total GULP energy -133751.368726 kJ/mol
# GULP energy per Si atom -5572.973697 kJ/mol
# Density = 2.197901 g / cm^3
# Si number density = 22.029145 Si / 1000 Ang^3
#
#
#
# Elastic Constant Matrix: (Units=GPa)
#
#
# Indices 1 2 3 4 5 6 
#
# 1 35.0910 -8.6617 49.3340 0.0000 -7.3261 0.0000
# 2 -8.6617 61.2816 3.1834 0.0000 -2.7116 0.0000
# 3 49.3340 3.1834 274.1145 0.0000 -20.4637 0.0000
# 4 0.0000 0.0000 0.0000 11.2527 0.0000 0.6459
# 5 -7.3261 -2.7116 -20.4637 0.0000 28.4910 0.0000
# 6 0.0000 0.0000 0.0000 0.6459 0.0000 21.2982
#
#
#
# Elastic Compliance Matrix: (Units=1/GPa)
#
#
# Indices 1 2 3 4 5 6 
#
# 1 0.041290 0.006475 -0.007045 0.000000 0.006173 0.000000
# 2 0.006475 0.017404 -0.001183 0.000000 0.002472 0.000000
# 3 -0.007045 -0.001183 0.005057 0.000000 0.001708 0.000000
# 4 0.000000 0.000000 0.000000 0.089023 0.000000 -0.002700
# 5 0.006173 0.002472 0.001708 0.000000 0.038148 0.000000
# 6 0.000000 0.000000 0.000000 -0.002700 0.000000 0.047034
#
#
# Mechanical properties :
#
#
# Convention : Reuss Voigt Hill
#
# Bulk Modulus (GPa) = 16.59908 50.91097 33.75502
# Shear Modulus (GPa) = 19.11723 33.98380 26.55052
#
# Velocity S-wave (km/s) = 2.94907 3.93195 3.47543
# Velocity P-wave (km/s) = 4.37577 6.61623 5.60901
#
# Compressibility (1/GPa) = 0.06024432
#
# Stress axis : x y z
#
# Youngs Moduli (GPa) = 24.21923 57.45761 197.73036
#
# Poissons Ratio (x) = -0.37204 1.39311
# Poissons Ratio (y) = -0.15682 0.23391
# Poissons Ratio (z) = 0.17064 0.06797
#
# Static dielectric constant tensor:
#      x y z
#    x 1.742750 0.000000 -0.005260 
#    y 0.000000 1.841420 0.000000 
#    z -0.005260 0.000000 1.901210 
# 
# From -- ./inp_files/33964.got.cif
#   From: 2010.05.17/outbox.cif.g08.bks.cpg/sg10_17_cif.got.tgz:33964.got - 2010.06.03 11:33:40.
