data_PCOD9144863
_publ_section_title
;
Structure prediction by ZEFSAII (Michael W. Deem and Ramdas Pophale) SiO2 
 PCOD9144863
Probable space group: P 2/M
;
_chemical_formula_sum "Si O2"
_cell_formula_units_Z 28
_cell_length_a 18.738060
_cell_length_b 7.422967
_cell_length_c 16.925115
_cell_angle_alpha 90.000000
_cell_angle_beta 154.752249
_cell_angle_gamma 90.000000
_cell_volume 1004.122416
_symmetry_space_group_name_H-M "P 2/M"
_symmetry_group_IT_number 10
_symmetry_cell_setting 'monoclinic'
loop_
_space_group_symop_operation_xyz
x,y,z
-x,y,-z
-x,-y,-z
x,-y,z
loop_
_atom_site_type_symbol
_atom_site_label
_atom_site_fract_x
_atom_site_fract_y
_atom_site_fract_z
Si Si1 0.313995 0.797933 0.013144
Si Si2 0.855197 0.214723 0.588642
Si Si3 0.835705 0.287430 0.295769
Si Si4 0.626794 0.294346 0.223923
Si Si5 0.477504 0.782337 0.638232
Si Si6 0.058677 0.781370 0.935455
Si Si7 0.270621 0.219117 0.288904
O O1 0.485747 0.802539 0.133400
O O2 0.376608 0.711651 0.157852
O O3 0.263068 0.000000 0.981419
O O4 0.184385 0.732564 0.817641
O O5 0.796394 0.295434 0.446907
O O6 0.692942 0.245314 0.482219
O O7 0.011186 0.278634 0.798970
O O8 0.870060 0.000000 0.592050
O O9 0.834988 0.500000 0.311074
O O10 0.680607 0.219574 0.193094
O O11 0.000000 0.207827 0.500000
O O12 0.564557 0.500000 0.154993
O O13 0.425252 0.719064 0.498479
O O14 0.502446 0.000000 0.657626
O O15 0.895042 0.739290 0.824754
O O16 0.065830 0.000000 0.940033
O O17 0.216999 0.722295 0.147009
O O18 0.284991 0.000000 0.300015
#
# Coordination Sequence:
#
# PCOD9144863 Si02
#       7
#     4   4   4   4   4   4   4
#     4  10  19  31  49  72  94 115 143 180 221 262
#     4   8  13  22  36  57  84 110 140 179 216 248
#     4  10  22  38  51  64  86 115 147 183 221 264
#     4  10  19  31  48  67  87 116 151 181 216 263
#     4   7  11  19  32  54  83 110 136 169 206 247
#     4   7   9  13  25  47  75 107 139 169 202 242
#     4   7   8  12  24  45  75 108 138 165 197 241
#
# _framework density 27.885045999999999
#
# number of rings (size 3 to 8) (size 9 to 14) (size 15 to 20)
#    0.000    3.571    0.000    4.714    0.000    3.143 
#    0.000    0.000    0.000    0.000    0.000   19.000 
#    0.000    1.143    0.000   14.286    0.000   11.714 
#
# Total GULP energy -156494.571523 kJ/mol
# GULP energy per Si atom -5589.091840 kJ/mol
# Density = 2.782158 g / cm^3
# Si number density = 27.885046 Si / 1000 Ang^3
#
#
#
# Elastic Constant Matrix: (Units=GPa)
#
#
# Indices 1 2 3 4 5 6 
#
# 1 154.4035 1.6084 61.2294 0.0000 -42.2180 0.0000
# 2 1.6084 77.3726 1.7822 0.0000 -1.9720 0.0000
# 3 61.2294 1.7822 274.3661 0.0000 -35.5710 0.0000
# 4 0.0000 0.0000 0.0000 31.5693 0.0000 -20.1467
# 5 -42.2180 -1.9720 -35.5710 0.0000 67.9094 0.0000
# 6 0.0000 0.0000 0.0000 -20.1467 0.0000 4.2545
#
#
#
# Elastic Compliance Matrix: (Units=1/GPa)
#
#
# Indices 1 2 3 4 5 6 
#
# 1 0.008185 -0.000028 -0.001252 0.000000 0.004432 0.000000
# 2 -0.000028 0.012935 -0.000034 0.000000 0.000340 0.000000
# 3 -0.001252 -0.000034 0.004102 0.000000 0.001369 0.000000
# 4 0.000000 0.000000 0.000000 -0.015666 0.000000 -0.074183
# 5 0.004432 0.000340 0.001369 0.000000 0.018208 0.000000
# 6 0.000000 0.000000 0.000000 -0.074183 0.000000 -0.116243
#
#
# Mechanical properties :
#
#
# Convention : Reuss Voigt Hill
#
# Bulk Modulus (GPa) = 44.25967 70.59803 57.42885
# Shear Modulus (GPa) = -63.84045 50.18143 -6.82951
#
# Velocity S-wave (km/s) = -4.78997 4.24675 -1.56668
# Velocity P-wave (km/s) = 3.83212 7.02987 4.16736
#
# Compressibility (1/GPa) = 0.02259393
#
# Stress axis : x y z
#
# Youngs Moduli (GPa) = 122.17346 77.31258 243.79010
#
# Poissons Ratio (x) = 0.00219 0.30519
# Poissons Ratio (y) = 0.00346 0.00818
# Poissons Ratio (z) = 0.15294 0.00259
#
# Static dielectric constant tensor:
#      x y z
#    x 2.211880 0.000000 0.046120 
#    y 0.000000 2.022060 0.000000 
#    z 0.046120 0.000000 2.239740 
# 
# From -- ./inp_files/86696.got.cif
#   From: 2010.05.17/outbox.cif.g08.bks.cpg/sg10_44_cif.got.tgz:86696.got - 2010.06.03 11:33:40.
