data_PCOD9144973
_publ_section_title
;
Structure prediction by ZEFSAII (Michael W. Deem and Ramdas Pophale) SiO2 
 PCOD9144973
Probable space group: P 2/M
;
_chemical_formula_sum "Si O2"
_cell_formula_units_Z 28
_cell_length_a 10.149292
_cell_length_b 8.115361
_cell_length_c 24.759824
_cell_angle_alpha 90.000000
_cell_angle_beta 144.797958
_cell_angle_gamma 90.000000
_cell_volume 1175.604949
_symmetry_space_group_name_H-M "P 2/M"
_symmetry_group_IT_number 10
_symmetry_cell_setting 'monoclinic'
loop_
_space_group_symop_operation_xyz
x,y,z
-x,y,-z
-x,-y,-z
x,-y,z
loop_
_atom_site_type_symbol
_atom_site_label
_atom_site_fract_x
_atom_site_fract_y
_atom_site_fract_z
Si Si1 0.219642 0.693144 0.454939
Si Si2 0.176587 0.196215 0.609670
Si Si3 0.286064 0.316686 0.967926
Si Si4 0.942630 0.000000 0.071622
Si Si5 0.403095 0.687699 0.824120
Si Si6 0.916116 0.696215 0.704404
Si Si7 0.373248 0.000000 0.142936
Si Si8 0.552456 0.192116 0.659654
O O1 0.282065 0.500000 0.477225
O O2 0.222664 0.757271 0.394829
O O3 0.379708 0.783102 0.551171
O O4 0.957680 0.714694 0.387325
O O5 0.416021 0.261906 0.665721
O O6 0.000000 0.213509 0.500000
O O7 0.191639 0.000000 0.625515
O O8 0.193694 0.500000 0.923028
O O9 0.116445 0.163401 0.914518
O O10 0.500000 0.284932 0.000000
O O11 0.396613 0.325750 0.064444
O O12 0.195973 0.000000 0.132462
O O13 0.776277 0.000000 0.962808
O O14 0.371383 0.500000 0.792617
O O15 0.177928 0.744246 0.782034
O O16 0.478008 0.833136 0.809136
O O17 0.914133 0.500000 0.699611
O O18 0.789336 0.740274 0.716621
O O19 0.579484 0.000000 0.678383
#
# Coordination Sequence:
#
# PCOD9144973 Si02
#       8
#     4   4   4   2   4   4   2   4
#     4  10  19  31  49  72  96 126 168 212 257 305
#     4   8  16  31  47  66  93 120 153 201 253 302
#     4   9  17  31  55  82 107 138 173 208 254 302
#     4   9  17  30  52  82 109 129 165 216 247 290
#     4   9  19  35  52  73 105 139 169 210 256 303
#     4  10  21  34  49  70  99 133 169 210 254 303
#     4   9  18  32  52  78 103 134 173 201 248 313
#     4  10  20  32  49  73  97 125 167 215 257 302
#
# _framework density 23.817525
#
# number of rings (size 3 to 8) (size 9 to 14) (size 15 to 20)
#    0.000    2.714    0.000    2.357    1.000    6.571 
#    0.000    2.857    3.143    0.000    0.000    0.000 
#    0.000    0.000    0.000    0.000    0.000    0.000 
#
# Total GULP energy -156473.096019 kJ/mol
# GULP energy per Si atom -5588.324858 kJ/mol
# Density = 2.376332 g / cm^3
# Si number density = 23.817525 Si / 1000 Ang^3
#
#
#
# Elastic Constant Matrix: (Units=GPa)
#
#
# Indices 1 2 3 4 5 6 
#
# 1 160.1655 72.3840 26.5238 0.0000 38.3088 0.0000
# 2 72.3840 103.8123 21.6251 0.0000 30.7589 0.0000
# 3 26.5238 21.6251 72.4525 0.0000 2.2847 0.0000
# 4 0.0000 0.0000 0.0000 -122.2395 0.0000 -194.6228
# 5 38.3088 30.7589 2.2847 0.0000 46.9169 0.0000
# 6 0.0000 0.0000 0.0000 -194.6228 0.0000 -229.4485
#
#
#
# Elastic Compliance Matrix: (Units=1/GPa)
#
#
# Indices 1 2 3 4 5 6 
#
# 1 0.010044 -0.005200 -0.001977 0.000000 -0.004696 0.000000
# 2 -0.005200 0.015505 -0.002541 0.000000 -0.005795 0.000000
# 3 -0.001977 -0.002541 0.015204 0.000000 0.002540 0.000000
# 4 0.000000 0.000000 0.000000 0.023341 0.000000 -0.019798
# 5 -0.004696 -0.005795 0.002540 0.000000 0.028824 0.000000
# 6 0.000000 0.000000 0.000000 -0.019798 0.000000 0.012435
#
#
# Mechanical properties :
#
#
# Convention : Reuss Voigt Hill
#
# Bulk Modulus (GPa) = 46.91149 64.16623 55.53886
# Shear Modulus (GPa) = 37.90855 -46.56106 -4.32626
#
# Velocity S-wave (km/s) = 3.99384 -4.42623 -1.34921
# Velocity P-wave (km/s) = 6.40365 0.93660 4.57624
#
# Compressibility (1/GPa) = 0.02131674
#
# Stress axis : x y z
#
# Youngs Moduli (GPa) = 99.55952 64.49419 65.77095
#
# Poissons Ratio (x) = 0.33539 0.13002
# Poissons Ratio (y) = 0.51774 0.16715
# Poissons Ratio (z) = 0.19681 0.16390
#
# Static dielectric constant tensor:
#      x y z
#    x 1.921110 0.000000 -0.008940 
#    y 0.000000 1.841210 0.000000 
#    z -0.008940 0.000000 1.993600 
# 
# From -- ./inp_files/92124.got.cif
#   From: 2010.05.17/outbox.cif.g08.bks.cpg/sg10_47_cif.got.tgz:92124.got - 2010.06.03 11:33:40.
