data_PCOD9144361
_publ_section_title
;
Structure prediction by ZEFSAII (Michael W. Deem and Ramdas Pophale) SiO2 
 PCOD9144361
Probable space group: P 2/M
;
_chemical_formula_sum "Si O2"
_cell_formula_units_Z 24
_cell_length_a 10.504204
_cell_length_b 9.241145
_cell_length_c 18.723994
_cell_angle_alpha 90.000000
_cell_angle_beta 35.321393
_cell_angle_gamma 90.000000
_cell_volume 1050.841472
_symmetry_space_group_name_H-M "P 2/M"
_symmetry_group_IT_number 10
_symmetry_cell_setting 'monoclinic'
loop_
_space_group_symop_operation_xyz
x,y,z
-x,y,-z
-x,-y,-z
x,-y,z
loop_
_atom_site_type_symbol
_atom_site_label
_atom_site_fract_x
_atom_site_fract_y
_atom_site_fract_z
Si Si1 0.680101 0.162611 0.987052
Si Si2 0.738021 0.830495 0.612458
Si Si3 0.948087 0.835147 0.307490
Si Si4 0.007044 0.340829 0.913879
Si Si5 0.380923 0.826681 0.663442
Si Si6 0.700964 0.671187 0.772310
O O1 0.473364 0.268465 0.089821
O O2 0.593523 0.000000 0.032369
O O3 0.863399 0.164329 0.840807
O O4 0.829505 0.216693 0.982586
O O5 0.623409 0.803530 0.587350
O O6 0.642440 0.736231 0.721443
O O7 0.000000 0.807392 0.500000
O O8 0.697277 0.000000 0.646781
O O9 0.058738 0.728993 0.313621
O O10 0.721100 0.798617 0.369606
O O11 0.930609 0.000000 0.343688
O O12 0.957601 0.500000 0.902414
O O13 0.231534 0.277055 0.780447
O O14 0.000000 0.361513 0.000000
O O15 0.337054 0.000000 0.692274
O O16 0.695282 0.500000 0.773039
#
# Coordination Sequence:
#
# PCOD9144361 Si02
#       6
#     4   4   4   4   4   4
#     4  10  20  34  54  80 113 153 193 232 273 324
#     4  10  22  42  66  87 108 142 191 243 291 338
#     4   9  19  36  57  83 116 152 189 229 275 332
#     4  10  19  29  45  75 113 150 186 224 273 334
#     4   9  19  36  58  82 108 142 185 233 284 334
#     4  12  24  36  55  85 119 154 190 231 283 340
#
# _framework density 22.838839
#
# number of rings (size 3 to 8) (size 9 to 14) (size 15 to 20)
#    0.000    2.000    0.000    5.000    0.000   10.333 
#    0.000    0.833    0.000    5.000    0.000    0.000 
#    0.000    0.000    0.000    0.000    0.000    0.000 
#
# Total GULP energy -133767.327170 kJ/mol
# GULP energy per Si atom -5573.638632 kJ/mol
# Density = 2.278686 g / cm^3
# Si number density = 22.838839 Si / 1000 Ang^3
#
#
#
# Elastic Constant Matrix: (Units=GPa)
#
#
# Indices 1 2 3 4 5 6 
#
# 1 118.4410 29.2573 16.7106 0.0000 -33.3334 0.0000
# 2 29.2573 69.4823 36.7032 0.0000 -7.5110 0.0000
# 3 16.7106 36.7032 80.0538 0.0000 -25.7429 0.0000
# 4 0.0000 0.0000 0.0000 -19.8389 0.0000 34.8638
# 5 -33.3334 -7.5110 -25.7429 0.0000 32.2522 0.0000
# 6 0.0000 0.0000 0.0000 34.8638 0.0000 -1.8843
#
#
#
# Elastic Compliance Matrix: (Units=1/GPa)
#
#
# Indices 1 2 3 4 5 6 
#
# 1 0.014555 -0.007462 0.006271 0.000000 0.018310 0.000000
# 2 -0.007462 0.023098 -0.013161 0.000000 -0.012837 0.000000
# 3 0.006271 -0.013161 0.024639 0.000000 0.023083 0.000000
# 4 0.000000 0.000000 0.000000 0.001599 0.000000 0.029593
# 5 0.018310 -0.012837 0.023083 0.000000 0.065364 0.000000
# 6 0.000000 0.000000 0.000000 0.029593 0.000000 0.016840
#
#
# Mechanical properties :
#
#
# Convention : Reuss Voigt Hill
#
# Bulk Modulus (GPa) = 29.77162 48.14661 38.95911
# Shear Modulus (GPa) = 26.88245 14.45953 20.67099
#
# Velocity S-wave (km/s) = 3.43454 2.51890 3.01172
# Velocity P-wave (km/s) = 5.36581 5.43936 5.40271
#
# Compressibility (1/GPa) = 0.03358904
#
# Stress axis : x y z
#
# Youngs Moduli (GPa) = 68.70695 43.29294 40.58560
#
# Poissons Ratio (x) = 0.32304 -0.25451
# Poissons Ratio (y) = 0.51268 0.53414
# Poissons Ratio (z) = -0.43086 0.56977
#
# Static dielectric constant tensor:
#      x y z
#    x 1.965220 0.000000 -0.022210 
#    y 0.000000 1.815450 0.000000 
#    z -0.022210 0.000000 1.912520 
# 
# From -- ./inp_files/88612.got.cif
#   From: 2010.05.17/outbox.cif.g08.bks.cpg/sg10_45_cif.got.tgz:88612.got - 2010.06.03 11:33:40.
