data_PCOD9144521
_publ_section_title
;
Structure prediction by ZEFSAII (Michael W. Deem and Ramdas Pophale) SiO2 
 PCOD9144521
Probable space group: P 2/M
;
_chemical_formula_sum "Si O2"
_cell_formula_units_Z 26
_cell_length_a 14.024726
_cell_length_b 26.359394
_cell_length_c 5.283838
_cell_angle_alpha 90.000000
_cell_angle_beta 127.654241
_cell_angle_gamma 90.000000
_cell_volume 1546.487270
_symmetry_space_group_name_H-M "P 2/M"
_symmetry_group_IT_number 10
_symmetry_cell_setting 'monoclinic'
loop_
_space_group_symop_operation_xyz
x,y,z
-x,y,-z
-x,-y,-z
x,-y,z
loop_
_atom_site_type_symbol
_atom_site_label
_atom_site_fract_x
_atom_site_fract_y
_atom_site_fract_z
Si Si1 0.146743 0.058499 0.736271
Si Si2 0.147142 0.880882 0.236604
Si Si3 0.144787 0.235001 0.242277
Si Si4 0.765080 0.592789 0.221170
Si Si5 0.865388 0.443390 0.884459
Si Si6 0.852968 0.701274 0.254091
Si Si7 0.419802 0.500000 0.120055
O O1 0.184348 0.089671 0.549855
O O2 0.000000 0.057829 0.500000
O O3 0.186118 0.000000 0.794777
O O4 0.184430 0.087826 0.050062
O O5 0.189988 0.822705 0.299047
O O6 0.000000 0.879946 0.000000
O O7 0.172926 0.261930 0.552171
O O8 0.175399 0.270006 0.052532
O O9 0.000000 0.231231 0.000000
O O10 0.796324 0.590959 0.569538
O O11 0.770676 0.651504 0.152296
O O12 0.860264 0.570799 0.169231
O O13 0.657819 0.552315 0.008335
O O14 0.814281 0.500000 0.772857
O O15 0.000000 0.443371 0.000000
O O16 0.000000 0.689249 0.500000
O O17 0.500000 0.500000 0.500000
O O18 0.500000 0.500000 0.000000
#
# Coordination Sequence:
#
# PCOD9144521 Si02
#       7
#     4   4   4   4   4   4   2
#     4   9  15  21  30  46  66  93 137 189 229 252
#     4   9  15  23  34  46  68 103 137 172 218 263
#     4   9  17  28  40  58  84 114 142 168 211 273
#     4  12  22  38  54  74  96 123 150 183 229 272
#     4  11  20  32  51  77 103 122 140 167 213 282
#     4  10  19  30  46  68  92 112 136 173 219 277
#     4  12  26  44  59  72  91 120 158 194 228 272
#
# _framework density 16.812294000000001
#
# number of rings (size 3 to 8) (size 9 to 14) (size 15 to 20)
#    0.000    1.846    1.538    4.615    0.000    8.000 
#    0.000    0.000    0.000    0.000    0.000    0.000 
#    0.000    0.000    0.000    0.000    0.000    0.000 
#
# Total GULP energy -144805.048896 kJ/mol
# GULP energy per Si atom -5569.424958 kJ/mol
# Density = 1.677403 g / cm^3
# Si number density = 16.812294 Si / 1000 Ang^3
#
#
#
# Elastic Constant Matrix: (Units=GPa)
#
#
# Indices 1 2 3 4 5 6 
#
# 1 56.3084 39.6990 30.8009 0.0000 -23.9318 0.0000
# 2 39.6990 155.8577 35.8012 0.0000 -17.9185 0.0000
# 3 30.8009 35.8012 57.7198 0.0000 -23.6539 0.0000
# 4 0.0000 0.0000 0.0000 10.2832 0.0000 -8.7354
# 5 -23.9318 -17.9185 -23.6539 0.0000 28.0266 0.0000
# 6 0.0000 0.0000 0.0000 -8.7354 0.0000 14.7339
#
#
#
# Elastic Compliance Matrix: (Units=1/GPa)
#
#
# Indices 1 2 3 4 5 6 
#
# 1 0.033005 -0.004611 -0.006743 0.000000 0.019544 0.000000
# 2 -0.004611 0.008159 -0.003173 0.000000 -0.001399 0.000000
# 3 -0.006743 -0.003173 0.030117 0.000000 0.017632 0.000000
# 4 0.000000 0.000000 0.000000 0.195920 0.000000 0.116157
# 5 0.019544 -0.001399 0.017632 0.000000 0.066355 0.000000
# 6 0.000000 0.000000 0.000000 0.116157 0.000000 0.136738
#
#
# Mechanical properties :
#
#
# Convention : Reuss Voigt Hill
#
# Bulk Modulus (GPa) = 23.68225 53.60978 38.64601
# Shear Modulus (GPa) = 9.73853 21.51439 15.62646
#
# Velocity S-wave (km/s) = 2.40937 3.58114 3.05202
# Velocity P-wave (km/s) = 4.67514 7.00399 5.95453
#
# Compressibility (1/GPa) = 0.04222572
#
# Stress axis : x y z
#
# Youngs Moduli (GPa) = 30.29827 122.56943 33.20349
#
# Poissons Ratio (x) = 0.56517 0.22390
# Poissons Ratio (y) = 0.13970 0.10537
# Poissons Ratio (z) = 0.20431 0.38896
#
# Static dielectric constant tensor:
#      x y z
#    x 1.566510 0.000000 -0.016810 
#    y 0.000000 1.595570 0.000000 
#    z -0.016810 0.000000 1.572960 
# 
# From -- ./inp_files/10101.got.cif
#   From: 2010.05.17/outbox.cif.g08.bks.cpg/sg10_6_cif.got.tgz:10101.got - 2010.06.03 11:33:40.
