data_PCOD9144680
_publ_section_title
;
Structure prediction by ZEFSAII (Michael W. Deem and Ramdas Pophale) SiO2 
 PCOD9144680
Probable space group: P 2/M
;
_chemical_formula_sum "Si O2"
_cell_formula_units_Z 32
_cell_length_a 17.580858
_cell_length_b 18.488417
_cell_length_c 13.676835
_cell_angle_alpha 90.000000
_cell_angle_beta 25.201157
_cell_angle_gamma 90.000000
_cell_volume 1892.903931
_symmetry_space_group_name_H-M "P 2/M"
_symmetry_group_IT_number 10
_symmetry_cell_setting 'monoclinic'
loop_
_space_group_symop_operation_xyz
x,y,z
-x,y,-z
-x,-y,-z
x,-y,z
loop_
_atom_site_type_symbol
_atom_site_label
_atom_site_fract_x
_atom_site_fract_y
_atom_site_fract_z
Si Si1 0.560476 0.227877 0.318562
Si Si2 0.896037 0.582464 0.721749
Si Si3 0.513827 0.417535 0.868387
Si Si4 0.679297 0.280209 0.577305
Si Si5 0.935891 0.280208 0.807504
Si Si6 0.007899 0.135094 0.374071
Si Si7 0.620779 0.080311 0.137654
Si Si8 0.610134 0.135096 0.771835
O O1 0.500000 0.232772 0.500000
O O2 0.420216 0.265151 0.408089
O O3 0.579733 0.144672 0.260787
O O4 0.751466 0.265152 0.076833
O O5 0.941693 0.500000 0.697651
O O6 0.938756 0.642439 0.751896
O O7 0.000000 0.597924 0.500000
O O8 0.685835 0.585746 0.942492
O O9 0.581040 0.500000 0.779624
O O10 0.629416 0.357561 0.679927
O O11 0.500000 0.402070 0.000000
O O12 0.612829 0.218035 0.730073
O O13 0.891923 0.272541 0.324244
O O14 0.955729 0.218034 0.701366
O O15 0.815636 0.113631 0.553093
O O16 0.000000 0.129476 0.500000
O O17 0.176550 0.091411 0.136421
O O18 0.489518 0.091411 0.197510
O O19 0.598792 0.000000 0.203614
O O20 0.500000 0.129479 0.000000
#
# Coordination Sequence:
#
# PCOD9144680 Si02
#       8
#     4   4   4   4   4   4   4   4
#     4  10  22  41  61  80 102 131 181 237 278 320
#     4  10  19  30  48  80 119 154 183 213 257 314
#     4  10  19  30  48  80 119 154 183 213 257 314
#     4  10  20  34  56  79 106 142 181 228 271 315
#     4  10  20  34  56  79 106 142 181 228 271 315
#     4  10  19  32  50  77 109 145 181 211 252 313
#     4  10  22  37  54  79 109 140 173 213 268 326
#     4  10  19  32  50  77 109 145 181 211 252 313
#
# _framework density 16.905242999999999
#
# number of rings (size 3 to 8) (size 9 to 14) (size 15 to 20)
#    0.000    2.000    2.500    1.500    0.000    5.250 
#    0.000    0.000    0.000    1.500    0.000    8.750 
#    0.000    0.000    0.000    0.000    0.000    0.000 
#
# Total GULP energy -178605.884326 kJ/mol
# GULP energy per Si atom -5581.433885 kJ/mol
# Density = 1.686677 g / cm^3
# Si number density = 16.905243 Si / 1000 Ang^3
#
#
#
# Elastic Constant Matrix: (Units=GPa)
#
#
# Indices 1 2 3 4 5 6 
#
# 1 76.9580 42.2615 54.6844 0.0000 -6.4278 0.0000
# 2 42.2615 99.4609 41.9540 0.0000 1.8504 0.0000
# 3 54.6844 41.9540 79.5339 0.0000 -9.4685 0.0000
# 4 0.0000 0.0000 0.0000 3.1131 0.0000 1.9149
# 5 -6.4278 1.8504 -9.4685 0.0000 30.2202 0.0000
# 6 0.0000 0.0000 0.0000 1.9149 0.0000 3.4279
#
#
#
# Elastic Compliance Matrix: (Units=1/GPa)
#
#
# Indices 1 2 3 4 5 6 
#
# 1 0.027035 -0.004783 -0.015940 0.000000 0.001049 0.000000
# 2 -0.004783 0.014053 -0.004516 0.000000 -0.003293 0.000000
# 3 -0.015940 -0.004516 0.026535 0.000000 0.005200 0.000000
# 4 0.000000 0.000000 0.000000 0.489384 0.000000 -0.273380
# 5 0.001049 -0.003293 0.005200 0.000000 0.035144 0.000000
# 6 0.000000 0.000000 0.000000 -0.273380 0.000000 0.444440
#
#
# Mechanical properties :
#
#
# Convention : Reuss Voigt Hill
#
# Bulk Modulus (GPa) = 58.33206 59.30584 58.81895
# Shear Modulus (GPa) = 4.57547 15.15577 9.86562
#
# Velocity S-wave (km/s) = 1.64694 2.99743 2.41837
# Velocity P-wave (km/s) = 6.18035 6.86564 6.53199
#
# Compressibility (1/GPa) = 0.01714323
#
# Stress axis : x y z
#
# Youngs Moduli (GPa) = 36.98887 71.16028 37.68663
#
# Poissons Ratio (x) = 0.34036 0.60074
# Poissons Ratio (y) = 0.17692 0.17020
# Poissons Ratio (z) = 0.58962 0.32138
#
# Static dielectric constant tensor:
#      x y z
#    x 1.547960 0.000000 -0.040800 
#    y 0.000000 1.579290 0.000000 
#    z -0.040800 0.000000 1.554630 
# 
# From -- ./inp_files/51936.got.cif
#   From: 2010.05.17/outbox.cif.g08.bks.cpg/sg10_26_cif.got.tgz:51936.got - 2010.06.03 11:33:40.
