data_PCOD9144570
_publ_section_title
;
Structure prediction by ZEFSAII (Michael W. Deem and Ramdas Pophale) SiO2 
 PCOD9144570
Probable space group: P 2/M
;
_chemical_formula_sum "Si O2"
_cell_formula_units_Z 24
_cell_length_a 24.726591
_cell_length_b 10.962284
_cell_length_c 9.309431
_cell_angle_alpha 90.000000
_cell_angle_beta 150.232266
_cell_angle_gamma 90.000000
_cell_volume 1252.837489
_symmetry_space_group_name_H-M "P 2/M"
_symmetry_group_IT_number 10
_symmetry_cell_setting 'monoclinic'
loop_
_space_group_symop_operation_xyz
x,y,z
-x,y,-z
-x,-y,-z
x,-y,z
loop_
_atom_site_type_symbol
_atom_site_label
_atom_site_fract_x
_atom_site_fract_y
_atom_site_fract_z
Si Si1 0.627938 0.869218 0.827890
Si Si2 0.689766 0.356511 0.412523
Si Si3 0.097992 0.358436 0.629945
Si Si4 0.316034 0.286952 0.283053
Si Si5 0.437720 0.637214 0.154666
Si Si6 0.888198 0.648050 0.663543
O O1 0.500000 0.879992 0.500000
O O2 0.683064 0.839021 0.803062
O O3 0.629544 0.745931 0.925974
O O4 0.664823 0.000000 0.973817
O O5 0.704028 0.500000 0.485757
O O6 0.687701 0.282274 0.554304
O O7 0.788529 0.317127 0.536703
O O8 0.585056 0.350537 0.067524
O O9 0.068066 0.500000 0.537329
O O10 0.112790 0.306103 0.503270
O O11 0.000000 0.303872 0.500000
O O12 0.210278 0.353712 0.977045
O O13 0.433663 0.348382 0.518925
O O14 0.401423 0.500000 0.112624
O O15 0.881568 0.500000 0.642627
O O16 0.000000 0.681168 0.000000
#
# Coordination Sequence:
#
# PCOD9144570 Si02
#       6
#     4   4   4   4   4   4
#     4   9  20  37  54  74 104 141 180 221 265 314
#     4  10  19  30  46  75 111 141 172 215 265 315
#     4  10  19  30  47  74 105 137 176 219 263 311
#     4  11  20  31  51  74 105 141 178 217 264 315
#     4  10  20  33  52  79 109 141 178 219 265 316
#     4   9  17  29  43  62  97 141 176 211 260 314
#
# _framework density 19.156516
#
# number of rings (size 3 to 8) (size 9 to 14) (size 15 to 20)
#    0.000    2.167    0.000    4.000    0.000    9.667 
#    0.000    0.833    0.000    4.500    0.000    0.000 
#    0.000    6.000    0.000    0.000    0.000    0.000 
#
# Total GULP energy -133707.103700 kJ/mol
# GULP energy per Si atom -5571.129321 kJ/mol
# Density = 1.911291 g / cm^3
# Si number density = 19.156516 Si / 1000 Ang^3
#
#
#
# Elastic Constant Matrix: (Units=GPa)
#
#
# Indices 1 2 3 4 5 6 
#
# 1 128.2799 49.3733 41.5689 0.0000 -16.0133 0.0000
# 2 49.3733 84.4848 12.3320 0.0000 -8.7351 0.0000
# 3 41.5689 12.3320 86.2284 0.0000 -7.5583 0.0000
# 4 0.0000 0.0000 0.0000 9.1500 0.0000 13.0247
# 5 -16.0133 -8.7351 -7.5583 0.0000 33.4396 0.0000
# 6 0.0000 0.0000 0.0000 13.0247 0.0000 34.1514
#
#
#
# Elastic Compliance Matrix: (Units=1/GPa)
#
#
# Indices 1 2 3 4 5 6 
#
# 1 0.012010 -0.006016 -0.004655 0.000000 0.003128 0.000000
# 2 -0.006016 0.015369 0.000818 0.000000 0.001319 0.000000
# 3 -0.004655 0.000818 0.013821 0.000000 0.001108 0.000000
# 4 0.000000 0.000000 0.000000 0.239081 0.000000 -0.091181
# 5 0.003128 0.001319 0.001108 0.000000 0.031997 0.000000
# 6 0.000000 0.000000 0.000000 -0.091181 0.000000 0.064056
#
#
# Mechanical properties :
#
#
# Convention : Reuss Voigt Hill
#
# Bulk Modulus (GPa) = 46.52503 56.17129 51.34816
# Shear Modulus (GPa) = 12.40061 28.39612 20.39837
#
# Velocity S-wave (km/s) = 2.54703 3.85427 3.26671
# Velocity P-wave (km/s) = 5.74363 7.01378 6.41025
#
# Compressibility (1/GPa) = 0.02149381
#
# Stress axis : x y z
#
# Youngs Moduli (GPa) = 83.26581 65.06587 72.35106
#
# Poissons Ratio (x) = 0.39142 0.33681
# Poissons Ratio (y) = 0.50090 -0.05916
# Poissons Ratio (z) = 0.38762 -0.05320
#
# Static dielectric constant tensor:
#      x y z
#    x 1.725000 0.000000 0.005070 
#    y 0.000000 1.682660 0.000000 
#    z 0.005070 0.000000 1.687920 
# 
# From -- ./inp_files/36193.got.cif
#   From: 2010.05.17/outbox.cif.g08.bks.cpg/sg10_19_cif.got.tgz:36193.got - 2010.06.03 11:33:40.
