data_PCOD9144561
_publ_section_title
;
Structure prediction by ZEFSAII (Michael W. Deem and Ramdas Pophale) SiO2 
 PCOD9144561
Probable space group: P 2/M
;
_chemical_formula_sum "Si O2"
_cell_formula_units_Z 28
_cell_length_a 19.250522
_cell_length_b 7.537124
_cell_length_c 17.183104
_cell_angle_alpha 90.000000
_cell_angle_beta 30.893598
_cell_angle_gamma 90.000000
_cell_volume 1280.100399
_symmetry_space_group_name_H-M "P 2/M"
_symmetry_group_IT_number 10
_symmetry_cell_setting 'monoclinic'
loop_
_space_group_symop_operation_xyz
x,y,z
-x,y,-z
-x,-y,-z
x,-y,z
loop_
_atom_site_type_symbol
_atom_site_label
_atom_site_fract_x
_atom_site_fract_y
_atom_site_fract_z
Si Si1 0.127380 0.792247 0.551956
Si Si2 0.842755 0.285405 0.645890
Si Si3 0.696207 0.794905 0.474055
Si Si4 0.056822 0.285846 0.862099
Si Si5 0.437151 0.298152 0.638293
Si Si6 0.813590 0.704702 0.840407
Si Si7 0.207759 0.282072 0.970800
O O1 0.201001 0.772364 0.397694
O O2 0.219846 0.722159 0.533075
O O3 0.978323 0.706725 0.689229
O O4 0.103295 0.000000 0.589803
O O5 0.839252 0.500000 0.650479
O O6 0.778889 0.219917 0.788484
O O7 0.000000 0.229090 0.500000
O O8 0.798744 0.784347 0.302664
O O9 0.558934 0.699417 0.583050
O O10 0.663097 0.000000 0.521641
O O11 0.066621 0.500000 0.854185
O O12 0.000000 0.228625 0.000000
O O13 0.944338 0.234112 0.906851
O O14 0.500000 0.213932 0.500000
O O15 0.396888 0.500000 0.654845
O O16 0.309306 0.219639 0.806070
O O17 0.769807 0.500000 0.881043
O O18 0.761009 0.782125 0.972120
O O19 0.213852 0.500000 0.965657
#
# Coordination Sequence:
#
# PCOD9144561 Si02
#       7
#     4   4   4   4   4   4   4
#     4  10  19  30  46  72 105 137 172 208 247 303
#     4   8  15  26  44  71 101 132 166 207 257 309
#     4  11  23  36  51  76 109 142 174 210 256 312
#     4  10  19  33  56  81 102 130 170 217 266 310
#     4  10  21  38  58  78 101 134 179 222 260 309
#     4   9  16  29  49  74 103 133 167 210 263 312
#     4   9  17  31  53  78 103 131 168 218 266 307
#
# _framework density 21.873284999999999
#
# number of rings (size 3 to 8) (size 9 to 14) (size 15 to 20)
#    0.000    2.429    1.429    2.571    0.000    7.143 
#    0.000    1.429    0.000    0.857    0.000    6.000 
#    0.000    0.000    0.000    0.000    0.000    0.000 
#
# Total GULP energy -156213.580942 kJ/mol
# GULP energy per Si atom -5579.056462 kJ/mol
# Density = 2.182350 g / cm^3
# Si number density = 21.873285 Si / 1000 Ang^3
#
#
#
# Elastic Constant Matrix: (Units=GPa)
#
#
# Indices 1 2 3 4 5 6 
#
# 1 65.4175 -7.1929 7.6248 0.0000 22.9231 0.0000
# 2 -7.1929 58.0889 -3.5557 0.0000 2.2703 0.0000
# 3 7.6248 -3.5557 65.1212 0.0000 14.9386 0.0000
# 4 0.0000 0.0000 0.0000 22.6565 0.0000 -26.3686
# 5 22.9231 2.2703 14.9386 0.0000 43.4084 0.0000
# 6 0.0000 0.0000 0.0000 -26.3686 0.0000 120.9226
#
#
#
# Elastic Compliance Matrix: (Units=1/GPa)
#
#
# Indices 1 2 3 4 5 6 
#
# 1 0.019200 0.002801 0.000287 0.000000 -0.010384 0.000000
# 2 0.002801 0.017753 0.001296 0.000000 -0.002854 0.000000
# 3 0.000287 0.001296 0.016767 0.000000 -0.005990 0.000000
# 4 0.000000 0.000000 0.000000 0.059149 0.000000 0.012898
# 5 -0.010384 -0.002854 -0.005990 0.000000 0.030731 0.000000
# 6 0.000000 0.000000 0.000000 0.012898 0.000000 0.011082
#
#
# Mechanical properties :
#
#
# Convention : Reuss Voigt Hill
#
# Bulk Modulus (GPa) = 16.00330 20.26445 18.13387
# Shear Modulus (GPa) = 29.98624 50.18094 40.08359
#
# Velocity S-wave (km/s) = 3.70659 4.79494 4.28546
# Velocity P-wave (km/s) = 5.06465 6.31980 5.72672
#
# Compressibility (1/GPa) = 0.06248713
#
# Stress axis : x y z
#
# Youngs Moduli (GPa) = 52.08416 56.32961 59.64046
#
# Poissons Ratio (x) = -0.15777 -0.01712
# Poissons Ratio (y) = -0.14588 -0.07729
# Poissons Ratio (z) = -0.01495 -0.07300
#
# Static dielectric constant tensor:
#      x y z
#    x 1.835670 0.000000 0.062860 
#    y 0.000000 1.837140 0.000000 
#    z 0.062860 0.000000 1.785910 
# 
# From -- ./inp_files/79218.got.cif
#   From: 2010.05.17/outbox.cif.g08.bks.cpg/sg10_40_cif.got.tgz:79218.got - 2010.06.03 11:33:40.
