data_PCOD9144816
_publ_section_title
;
Structure prediction by ZEFSAII (Michael W. Deem and Ramdas Pophale) SiO2 
 PCOD9144816
Probable space group: P 2/M
;
_chemical_formula_sum "Si O2"
_cell_formula_units_Z 28
_cell_length_a 14.216116
_cell_length_b 13.829648
_cell_length_c 15.425770
_cell_angle_alpha 90.000000
_cell_angle_beta 27.865978
_cell_angle_gamma 90.000000
_cell_volume 1417.529968
_symmetry_space_group_name_H-M "P 2/M"
_symmetry_group_IT_number 10
_symmetry_cell_setting 'monoclinic'
loop_
_space_group_symop_operation_xyz
x,y,z
-x,y,-z
-x,-y,-z
x,-y,z
loop_
_atom_site_type_symbol
_atom_site_label
_atom_site_fract_x
_atom_site_fract_y
_atom_site_fract_z
Si Si1 0.223214 0.389935 0.276292
Si Si2 0.405540 0.613254 0.448668
Si Si3 0.891266 0.886085 0.495278
Si Si4 0.534196 0.888672 0.072672
Si Si5 0.863022 0.257344 0.815086
Si Si6 0.168469 0.386452 0.798250
Si Si7 0.429269 0.615549 0.864980
O O1 0.253436 0.500000 0.218860
O O2 0.210116 0.313960 0.210909
O O3 0.407545 0.368581 0.190924
O O4 0.000000 0.388565 0.500000
O O5 0.350519 0.500000 0.481440
O O6 0.619305 0.614849 0.323638
O O7 0.232426 0.656230 0.652062
O O8 0.453857 0.653617 0.315162
O O9 0.660617 0.878246 0.710073
O O10 0.000000 0.867652 0.500000
O O11 0.952300 0.806945 0.373171
O O12 0.935309 0.000000 0.436777
O O13 0.592100 0.000000 0.022060
O O14 0.500000 0.860343 0.000000
O O15 0.710161 0.825780 0.966506
O O16 0.793553 0.339139 0.941471
O O17 0.114257 0.500000 0.828790
O O18 0.000000 0.344342 0.000000
O O19 0.404672 0.500000 0.876108
#
# Coordination Sequence:
#
# PCOD9144816 Si02
#       7
#     4   4   4   4   4   4   4
#     4  10  22  36  46  59  84 125 175 215 239 260
#     4   8  15  29  45  65  92 115 144 192 236 275
#     4  10  20  32  47  69  89 106 146 202 250 297
#     4  10  19  31  47  67  86 106 141 194 250 297
#     4  12  21  31  51  65  86 124 164 200 239 278
#     4   8  13  25  48  70  87 111 142 178 233 294
#     4  10  21  35  47  64  94 128 166 209 239 266
#
# _framework density 19.752669999999998
#
# number of rings (size 3 to 8) (size 9 to 14) (size 15 to 20)
#    0.000    2.286    1.429    3.429    2.000    1.143 
#    2.571    0.000    0.000    0.000    0.000    0.000 
#    0.000    0.000    0.000   10.286    0.000   29.714 
#
# Total GULP energy -155907.342933 kJ/mol
# GULP energy per Si atom -5568.119390 kJ/mol
# Density = 1.970771 g / cm^3
# Si number density = 19.752670 Si / 1000 Ang^3
#
#
#
# Elastic Constant Matrix: (Units=GPa)
#
#
# Indices 1 2 3 4 5 6 
#
# 1 6.9572 1.1213 19.2768 0.0000 7.5892 0.0000
# 2 1.1213 46.8761 36.8450 0.0000 7.0164 0.0000
# 3 19.2768 36.8450 159.7593 0.0000 14.3273 0.0000
# 4 0.0000 0.0000 0.0000 32.8315 0.0000 5.6645
# 5 7.5892 7.0164 14.3273 0.0000 30.2895 0.0000
# 6 0.0000 0.0000 0.0000 5.6645 0.0000 -3.2293
#
#
#
# Elastic Compliance Matrix: (Units=1/GPa)
#
#
# Indices 1 2 3 4 5 6 
#
# 1 0.332324 0.035724 -0.041906 0.000000 -0.071719 0.000000
# 2 0.035724 0.030223 -0.010287 0.000000 -0.011086 0.000000
# 3 -0.041906 -0.010287 0.013088 0.000000 0.006692 0.000000
# 4 0.000000 0.000000 0.000000 0.023382 0.000000 0.041014
# 5 -0.071719 -0.011086 0.006692 0.000000 0.050387 0.000000
# 6 0.000000 0.000000 0.000000 0.041014 0.000000 -0.237719
#
#
# Mechanical properties :
#
#
# Convention : Reuss Voigt Hill
#
# Bulk Modulus (GPa) = 2.91803 36.45321 19.68562
# Shear Modulus (GPa) = 13.93318 22.40163 18.16741
#
# Velocity S-wave (km/s) = 2.65878 3.37130 3.03602
# Velocity P-wave (km/s) = 3.30242 5.80079 4.71991
#
# Compressibility (1/GPa) = 0.34269746
#
# Stress axis : x y z
#
# Youngs Moduli (GPa) = 3.00911 33.08744 76.40544
#
# Poissons Ratio (x) = -1.18200 3.20183
# Poissons Ratio (y) = -0.10750 0.78595
# Poissons Ratio (z) = 0.12610 0.34035
#
# Static dielectric constant tensor:
#      x y z
#    x 1.770860 0.000000 0.039460 
#    y 0.000000 1.733140 0.000000 
#    z 0.039460 0.000000 1.844720 
# 
# From -- ./inp_files/67560.got.cif
#   From: 2010.05.17/outbox.cif.g08.bks.cpg/sg10_34_cif.got.tgz:67560.got - 2010.06.03 11:33:40.
