data_PCOD9144159
_publ_section_title
;
Structure prediction by ZEFSAII (Michael W. Deem and Ramdas Pophale) SiO2 
 PCOD9144159
Probable space group: P 2/M
;
_chemical_formula_sum "Si O2"
_cell_formula_units_Z 28
_cell_length_a 9.303258
_cell_length_b 13.513310
_cell_length_c 20.010692
_cell_angle_alpha 90.000000
_cell_angle_beta 36.197341
_cell_angle_gamma 90.000000
_cell_volume 1485.692678
_symmetry_space_group_name_H-M "P 2/M"
_symmetry_group_IT_number 10
_symmetry_cell_setting 'monoclinic'
loop_
_space_group_symop_operation_xyz
x,y,z
-x,y,-z
-x,-y,-z
x,-y,z
loop_
_atom_site_type_symbol
_atom_site_label
_atom_site_fract_x
_atom_site_fract_y
_atom_site_fract_z
Si Si1 0.406122 0.384883 0.841807
Si Si2 0.090798 0.703166 0.395331
Si Si3 0.626797 0.614175 0.524043
Si Si4 0.737319 0.716697 0.237518
Si Si5 0.290235 0.287987 0.025065
Si Si6 0.581793 0.886226 0.695951
Si Si7 0.762216 0.110811 0.048762
O O1 0.372269 0.500000 0.843221
O O2 0.685086 0.353159 0.722854
O O3 0.265214 0.325153 0.837183
O O4 0.327307 0.357155 0.946144
O O5 0.191833 0.812254 0.376226
O O6 0.000000 0.658044 0.500000
O O7 0.853890 0.689265 0.439430
O O8 0.500000 0.617310 0.500000
O O9 0.703659 0.500000 0.507658
O O10 0.437943 0.649762 0.651428
O O11 0.607443 0.824790 0.280278
O O12 0.015571 0.709295 0.156455
O O13 0.500000 0.306950 0.000000
O O14 0.308839 0.179399 0.985412
O O15 0.449797 0.891460 0.817231
O O16 0.631468 0.000000 0.656149
O O17 0.820314 0.000000 0.004188
O O18 0.000000 0.146848 0.000000
#
# Coordination Sequence:
#
# PCOD9144159 Si02
#       7
#     4   4   4   4   4   4   4
#     4  11  23  40  63  87 120 161 209 259 303 362
#     4  11  21  39  64  95 117 155 205 258 296 356
#     4  11  25  42  63  90 125 167 205 250 304 361
#     4  11  22  41  64  90 118 163 211 254 300 366
#     4  12  25  39  58  90 130 161 195 253 318 368
#     4  10  20  36  65  94 118 153 204 258 305 356
#     4  10  18  36  63  86 115 158 207 248 292 356
#
# _framework density 18.846428
#
# number of rings (size 3 to 8) (size 9 to 14) (size 15 to 20)
#    0.000    1.143    7.143    1.286    2.000    3.143 
#    0.000    0.000    0.000    1.714    0.000    0.000 
#    0.000    0.000    0.000    0.000    0.000    0.000 
#
# Total GULP energy -156172.107031 kJ/mol
# GULP energy per Si atom -5577.575251 kJ/mol
# Density = 1.880353 g / cm^3
# Si number density = 18.846428 Si / 1000 Ang^3
#
#
#
# Elastic Constant Matrix: (Units=GPa)
#
#
# Indices 1 2 3 4 5 6 
#
# 1 88.7071 22.9723 17.6408 0.0000 -23.4257 0.0000
# 2 22.9723 106.0286 17.3129 0.0000 -10.9238 0.0000
# 3 17.6408 17.3129 65.6916 0.0000 -22.1641 0.0000
# 4 0.0000 0.0000 0.0000 13.8111 0.0000 5.5549
# 5 -23.4257 -10.9238 -22.1641 0.0000 32.6477 0.0000
# 6 0.0000 0.0000 0.0000 5.5549 0.0000 12.3064
#
#
#
# Elastic Compliance Matrix: (Units=1/GPa)
#
#
# Indices 1 2 3 4 5 6 
#
# 1 0.014356 -0.002115 -0.000079 0.000000 0.009539 0.000000
# 2 -0.002115 0.010268 -0.001934 0.000000 0.000605 0.000000
# 3 -0.000079 -0.001934 0.020126 0.000000 0.012959 0.000000
# 4 0.000000 0.000000 0.000000 0.088467 0.000000 -0.039932
# 5 0.009539 0.000605 0.012959 0.000000 0.046475 0.000000
# 6 0.000000 0.000000 0.000000 -0.039932 0.000000 0.099283
#
#
# Mechanical properties :
#
#
# Convention : Reuss Voigt Hill
#
# Bulk Modulus (GPa) = 27.40192 41.80881 34.60536
# Shear Modulus (GPa) = 16.70037 25.25314 20.97675
#
# Velocity S-wave (km/s) = 2.98002 3.66449 3.33984
# Velocity P-wave (km/s) = 5.13925 6.33536 5.76839
#
# Compressibility (1/GPa) = 0.03649380
#
# Stress axis : x y z
#
# Youngs Moduli (GPa) = 69.65967 97.39268 49.68681
#
# Poissons Ratio (x) = 0.20594 0.00394
# Poissons Ratio (y) = 0.14730 0.09609
# Poissons Ratio (z) = 0.00552 0.18835
#
# Static dielectric constant tensor:
#      x y z
#    x 1.665850 0.000000 -0.033410 
#    y 0.000000 1.685610 0.000000 
#    z -0.033410 0.000000 1.687450 
# 
# From -- ./inp_files/75277.got.cif
#   From: 2010.05.17/outbox.cif.g08.bks.cpg/sg10_38_cif.got.tgz:75277.got - 2010.06.03 11:33:40.
