data_PCOD9144619
_publ_section_title
;
Structure prediction by ZEFSAII (Michael W. Deem and Ramdas Pophale) SiO2 
 PCOD9144619
Probable space group: P 2/M
;
_chemical_formula_sum "Si O2"
_cell_formula_units_Z 32
_cell_length_a 22.348771
_cell_length_b 7.452361
_cell_length_c 11.432369
_cell_angle_alpha 90.000000
_cell_angle_beta 49.733596
_cell_angle_gamma 90.000000
_cell_volume 1452.898613
_symmetry_space_group_name_H-M "P 2/M"
_symmetry_group_IT_number 10
_symmetry_cell_setting 'monoclinic'
loop_
_space_group_symop_operation_xyz
x,y,z
-x,y,-z
-x,-y,-z
x,-y,z
loop_
_atom_site_type_symbol
_atom_site_label
_atom_site_fract_x
_atom_site_fract_y
_atom_site_fract_z
Si Si1 0.196873 0.215459 0.020072
Si Si2 0.912527 0.206455 0.317408
Si Si3 0.760900 0.283251 0.647506
Si Si4 0.040690 0.779962 0.328545
Si Si5 0.496895 0.792014 0.135941
Si Si6 0.192856 0.220711 0.761420
Si Si7 0.668570 0.290270 0.989086
Si Si8 0.655210 0.793080 0.558571
O O1 0.129837 0.278527 0.194669
O O2 0.283339 0.266590 0.953078
O O3 0.194002 0.000000 0.022775
O O4 0.177752 0.274971 0.912922
O O5 0.845460 0.212294 0.502418
O O6 0.870797 0.282849 0.254342
O O7 0.989325 0.281936 0.282128
O O8 0.931094 0.000000 0.265286
O O9 0.764754 0.500000 0.640212
O O10 0.726104 0.220447 0.814288
O O11 0.700693 0.217933 0.624647
O O12 0.000000 0.720699 0.500000
O O13 0.039057 0.000000 0.331826
O O14 0.429791 0.712699 0.304945
O O15 0.472888 0.000000 0.150090
O O16 0.500000 0.714035 0.000000
O O17 0.582386 0.788690 0.085021
O O18 0.279695 0.282627 0.612041
O O19 0.192918 0.000000 0.755037
O O20 0.657596 0.500000 0.980490
O O21 0.644089 0.000000 0.535713
#
# Coordination Sequence:
#
# PCOD9144619 Si02
#       8
#     4   4   4   4   4   4   4   4
#     4  10  20  35  54  73  99 137 179 215 253 306
#     4   9  17  31  52  76 104 135 170 214 259 302
#     4  10  19  30  47  74 105 135 168 205 252 308
#     4   9  17  29  49  79 107 132 168 214 260 303
#     4  10  19  32  54  82 105 131 168 207 256 313
#     4   8  16  31  52  77 101 132 173 215 255 295
#     4  11  23  35  49  73 107 140 171 210 260 308
#     4   9  17  32  53  77 105 130 162 209 256 304
#
# _framework density 22.024937000000001
#
# number of rings (size 3 to 8) (size 9 to 14) (size 15 to 20)
#    0.000    2.500    1.250    2.250    0.000    3.750 
#    0.000    6.250    0.000    6.000    0.000    4.375 
#    0.000    0.000    0.000    0.000    0.000    0.000 
#
# Total GULP energy -178561.071139 kJ/mol
# GULP energy per Si atom -5580.033473 kJ/mol
# Density = 2.197481 g / cm^3
# Si number density = 22.024937 Si / 1000 Ang^3
#
#
#
# Elastic Constant Matrix: (Units=GPa)
#
#
# Indices 1 2 3 4 5 6 
#
# 1 102.9128 -10.2777 47.3836 0.0000 -22.6578 0.0000
# 2 -10.2777 69.3281 -2.5258 0.0000 3.3033 0.0000
# 3 47.3836 -2.5258 77.5431 0.0000 -0.5248 0.0000
# 4 0.0000 0.0000 0.0000 -7.3170 0.0000 -2.6038
# 5 -22.6578 3.3033 -0.5248 0.0000 31.7105 0.0000
# 6 0.0000 0.0000 0.0000 -2.6038 0.0000 47.9088
#
#
#
# Elastic Compliance Matrix: (Units=1/GPa)
#
#
# Indices 1 2 3 4 5 6 
#
# 1 0.017354 0.001617 -0.010470 0.000000 0.012058 0.000000
# 2 0.001617 0.014663 -0.000513 0.000000 -0.000381 0.000000
# 3 -0.010470 -0.000513 0.019229 0.000000 -0.007109 0.000000
# 4 0.000000 0.000000 0.000000 -0.134076 0.000000 -0.007287
# 5 0.012058 -0.000381 -0.007109 0.000000 0.040073 0.000000
# 6 0.000000 0.000000 0.000000 -0.007287 0.000000 0.020477
#
#
# Mechanical properties :
#
#
# Convention : Reuss Voigt Hill
#
# Bulk Modulus (GPa) = 30.75614 35.43826 33.09720
# Shear Modulus (GPa) = 685.80472 28.80739 357.30605
#
# Velocity S-wave (km/s) = 17.66501 3.62047 12.75069
# Velocity P-wave (km/s) = 20.73800 5.79673 15.22607
#
# Compressibility (1/GPa) = 0.03251384
#
# Stress axis : x y z
#
# Youngs Moduli (GPa) = 57.62422 68.19749 52.00470
#
# Poissons Ratio (x) = -0.11025 0.54449
# Poissons Ratio (y) = -0.09316 0.02667
# Poissons Ratio (z) = 0.60332 0.03498
#
# Static dielectric constant tensor:
#      x y z
#    x 1.775830 0.000000 -0.008820 
#    y 0.000000 1.866910 0.000000 
#    z -0.008820 0.000000 1.822600 
# 
# From -- ./inp_files/55217.got.cif
#   From: 2010.05.17/outbox.cif.g08.bks.cpg/sg10_28_cif.got.tgz:55217.got - 2010.06.03 11:33:40.
