data_PCOD9144279
_publ_section_title
;
Structure prediction by ZEFSAII (Michael W. Deem and Ramdas Pophale) SiO2 
 PCOD9144279
Probable space group: P 2/M
;
_chemical_formula_sum "Si O2"
_cell_formula_units_Z 32
_cell_length_a 12.915934
_cell_length_b 7.163121
_cell_length_c 17.856489
_cell_angle_alpha 90.000000
_cell_angle_beta 135.937847
_cell_angle_gamma 90.000000
_cell_volume 1148.901429
_symmetry_space_group_name_H-M "P 2/M"
_symmetry_group_IT_number 10
_symmetry_cell_setting 'monoclinic'
loop_
_space_group_symop_operation_xyz
x,y,z
-x,y,-z
-x,-y,-z
x,-y,z
loop_
_atom_site_type_symbol
_atom_site_label
_atom_site_fract_x
_atom_site_fract_y
_atom_site_fract_z
Si Si1 0.521307 0.272432 0.609760
Si Si2 0.151626 0.775375 0.540497
Si Si3 0.410632 0.272418 0.879305
Si Si4 0.793294 0.712288 0.604281
Si Si5 0.534019 0.289546 0.249055
Si Si6 0.122173 0.727252 0.808136
Si Si7 0.152137 0.274060 0.988147
Si Si8 0.190723 0.274176 0.171623
O O1 0.514544 0.500000 0.602021
O O2 0.378623 0.211936 0.486168
O O3 0.488029 0.213660 0.678726
O O4 0.696303 0.217407 0.703503
O O5 0.171835 0.705976 0.466649
O O6 0.287000 0.703011 0.659641
O O7 0.000000 0.718255 0.500000
O O8 0.157725 0.000000 0.540941
O O9 0.413577 0.500000 0.876599
O O10 0.492666 0.206612 0.846432
O O11 0.238697 0.215295 0.804715
O O12 0.500000 0.220761 0.000000
O O13 0.782700 0.500000 0.628001
O O14 0.950324 0.792085 0.715193
O O15 0.472589 0.500000 0.219293
O O16 0.114694 0.500000 0.801553
O O17 0.191227 0.780034 0.924454
O O18 0.155072 0.500000 0.990645
O O19 0.978832 0.217439 0.905765
O O20 0.231681 0.215626 0.107092
O O21 0.190471 0.500000 0.172343
#
# Coordination Sequence:
#
# PCOD9144279 Si02
#       8
#     4   4   4   4   4   4   4   4
#     4   8  14  23  38  56  78 109 143 175 207 251
#     4  10  19  29  43  62  83 111 149 186 215 249
#     4   9  17  25  36  58  84 111 147 183 214 252
#     4   9  17  29  43  62  87 115 143 175 220 262
#     4   9  17  28  42  62  86 114 144 178 220 255
#     4   9  16  25  37  54  83 115 143 177 214 257
#     4   8  14  22  34  53  79 115 144 170 215 261
#     4   8  13  22  35  53  80 111 145 175 208 259
#
# _framework density 27.852694
#
# number of rings (size 3 to 8) (size 9 to 14) (size 15 to 20)
#    0.000    3.250    0.000    2.625    1.750    2.000 
#    0.000    0.625    0.000    4.125    0.000    0.000 
#    0.000    8.000    0.000   23.375    0.000   21.750 
#
# Total GULP energy -178772.781390 kJ/mol
# GULP energy per Si atom -5586.649418 kJ/mol
# Density = 2.778930 g / cm^3
# Si number density = 27.852694 Si / 1000 Ang^3
#
#
#
# Elastic Constant Matrix: (Units=GPa)
#
#
# Indices 1 2 3 4 5 6 
#
# 1 83.1635 -2.0467 21.5061 0.0000 4.3811 0.0000
# 2 -2.0467 153.2488 -1.7017 0.0000 1.2417 0.0000
# 3 21.5061 -1.7017 219.5713 0.0000 0.7102 0.0000
# 4 0.0000 0.0000 0.0000 70.7504 0.0000 4.2978
# 5 4.3811 1.2417 0.7102 0.0000 66.6122 0.0000
# 6 0.0000 0.0000 0.0000 4.2978 0.0000 -6.5397
#
#
#
# Elastic Compliance Matrix: (Units=1/GPa)
#
#
# Indices 1 2 3 4 5 6 
#
# 1 0.012383 0.000158 -0.001209 0.000000 -0.000805 0.000000
# 2 0.000158 0.006529 0.000036 0.000000 -0.000133 0.000000
# 3 -0.001209 0.000036 0.004673 0.000000 0.000029 0.000000
# 4 0.000000 0.000000 0.000000 0.013592 0.000000 0.008932
# 5 -0.000805 -0.000133 0.000029 0.000000 0.015067 0.000000
# 6 0.000000 0.000000 0.000000 0.008932 0.000000 -0.147043
#
#
# Mechanical properties :
#
#
# Convention : Reuss Voigt Hill
#
# Bulk Modulus (GPa) = 46.39270 54.61102 50.50186
# Shear Modulus (GPa) = -58.42248 55.37964 -1.52142
#
# Velocity S-wave (km/s) = -4.58487 4.46388 -0.73988
# Velocity P-wave (km/s) = 3.36682 6.79838 4.17627
#
# Compressibility (1/GPa) = 0.02155512
#
# Stress axis : x y z
#
# Youngs Moduli (GPa) = 80.75293 153.16469 213.99825
#
# Poissons Ratio (x) = -0.02427 0.25874
# Poissons Ratio (y) = -0.01280 -0.00760
# Poissons Ratio (z) = 0.09764 -0.00544
#
# Static dielectric constant tensor:
#      x y z
#    x 2.243950 0.000000 0.011880 
#    y 0.000000 2.322080 0.000000 
#    z 0.011880 0.000000 2.152200 
# 
# From -- ./inp_files/84765.got.cif
#   From: 2010.05.17/outbox.cif.g08.bks.cpg/sg10_43_cif.got.tgz:84765.got - 2010.06.03 11:33:40.
