data_PCOD9144907
_publ_section_title
;
Structure prediction by ZEFSAII (Michael W. Deem and Ramdas Pophale) SiO2 
 PCOD9144907
Probable space group: P 2/M
;
_chemical_formula_sum "Si O2"
_cell_formula_units_Z 20
_cell_length_a 12.325485
_cell_length_b 15.703130
_cell_length_c 7.927166
_cell_angle_alpha 90.000000
_cell_angle_beta 145.617956
_cell_angle_gamma 90.000000
_cell_volume 866.427919
_symmetry_space_group_name_H-M "P 2/M"
_symmetry_group_IT_number 10
_symmetry_cell_setting 'monoclinic'
loop_
_space_group_symop_operation_xyz
x,y,z
-x,y,-z
-x,-y,-z
x,-y,z
loop_
_atom_site_type_symbol
_atom_site_label
_atom_site_fract_x
_atom_site_fract_y
_atom_site_fract_z
Si Si1 0.058183 0.092088 0.376346
Si Si2 0.939241 0.268688 0.730549
Si Si3 0.370259 0.908548 0.170851
Si Si4 0.624745 0.278176 0.834892
Si Si5 0.779845 0.597508 0.292810
O O1 0.153398 0.177422 0.433125
O O2 0.000000 0.098460 0.500000
O O3 0.148579 0.000000 0.459154
O O4 0.844487 0.092429 0.026583
O O5 0.806880 0.343498 0.491492
O O6 0.146883 0.272352 0.908620
O O7 0.000000 0.276303 0.000000
O O8 0.500000 0.910515 0.500000
O O9 0.413406 0.817316 0.141922
O O10 0.388330 0.000000 0.101172
O O11 0.500000 0.289466 0.500000
O O12 0.630570 0.355795 0.974530
O O13 0.727292 0.500000 0.257618
O O14 0.000000 0.595382 0.500000
#
# Coordination Sequence:
#
# PCOD9144907 Si02
#       5
#     4   4   4   4   4
#     4   9  16  27  45  68  93 123 159 193 224 269
#     4  10  19  31  48  71  99 127 155 192 240 286
#     4   8  13  22  39  64  90 114 143 180 219 262
#     4   9  17  31  51  72  93 122 162 198 231 278
#     4   9  18  33  51  69  92 124 161 198 237 286
#
# _framework density 23.083283999999999
#
# number of rings (size 3 to 8) (size 9 to 14) (size 15 to 20)
#    0.000    3.000    0.000    3.000    0.000    1.200 
#    0.000    1.000    0.000    1.200    0.000    0.000 
#    0.000   46.400    0.000    0.000    0.000    0.000 
#
# Total GULP energy -111396.744107 kJ/mol
# GULP energy per Si atom -5569.837205 kJ/mol
# Density = 2.303075 g / cm^3
# Si number density = 23.083284 Si / 1000 Ang^3
#
#
#
# Elastic Constant Matrix: (Units=GPa)
#
#
# Indices 1 2 3 4 5 6 
#
# 1 37.0174 23.5948 11.9668 0.0000 13.9398 0.0000
# 2 23.5948 302.4016 99.1144 0.0000 -35.8189 0.0000
# 3 11.9668 99.1144 117.3130 0.0000 -9.8478 0.0000
# 4 0.0000 0.0000 0.0000 39.7469 0.0000 -1.0559
# 5 13.9398 -35.8189 -9.8478 0.0000 36.8455 0.0000
# 6 0.0000 0.0000 0.0000 -1.0559 0.0000 -17.1116
#
#
#
# Elastic Compliance Matrix: (Units=1/GPa)
#
#
# Indices 1 2 3 4 5 6 
#
# 1 0.037791 -0.004759 -0.001455 0.000000 -0.019313 0.000000
# 2 -0.004759 0.005658 -0.003767 0.000000 0.006295 0.000000
# 3 -0.001455 -0.003767 0.011860 0.000000 0.000059 0.000000
# 4 0.000000 0.000000 0.000000 0.025118 0.000000 -0.001550
# 5 -0.019313 0.006295 0.000059 0.000000 0.040582 0.000000
# 6 0.000000 0.000000 0.000000 -0.001550 0.000000 -0.058344
#
#
# Mechanical properties :
#
#
# Convention : Reuss Voigt Hill
#
# Bulk Modulus (GPa) = 28.29093 80.67600 54.48347
# Shear Modulus (GPa) = 52.96046 33.36655 43.16351
#
# Velocity S-wave (km/s) = 4.79510 3.80608 4.32893
# Velocity P-wave (km/s) = 6.55286 7.37162 6.97427
#
# Compressibility (1/GPa) = 0.03534701
#
# Stress axis : x y z
#
# Youngs Moduli (GPa) = 26.46122 176.73015 84.31742
#
# Poissons Ratio (x) = 0.84111 0.12270
# Poissons Ratio (y) = 0.12594 0.31760
# Poissons Ratio (z) = 0.03851 0.66569
#
# Static dielectric constant tensor:
#      x y z
#    x 2.000180 0.000000 -0.054990 
#    y 0.000000 1.951910 0.000000 
#    z -0.054990 0.000000 1.987600 
# 
# From -- ./inp_files/18377.got.cif
#   From: 2010.05.17/outbox.cif.g08.bks.cpg/sg10_10_cif.got.tgz:18377.got - 2010.06.03 11:33:40.
