data_PCOD9144493
_publ_section_title
;
Structure prediction by ZEFSAII (Michael W. Deem and Ramdas Pophale) SiO2 
 PCOD9144493
Probable space group: P 2/M
;
_chemical_formula_sum "Si O2"
_cell_formula_units_Z 28
_cell_length_a 9.741195
_cell_length_b 13.391110
_cell_length_c 17.391417
_cell_angle_alpha 90.000000
_cell_angle_beta 45.233205
_cell_angle_gamma 90.000000
_cell_volume 1610.680027
_symmetry_space_group_name_H-M "P 2/M"
_symmetry_group_IT_number 10
_symmetry_cell_setting 'monoclinic'
loop_
_space_group_symop_operation_xyz
x,y,z
-x,y,-z
-x,-y,-z
x,-y,z
loop_
_atom_site_type_symbol
_atom_site_label
_atom_site_fract_x
_atom_site_fract_y
_atom_site_fract_z
Si Si1 0.449429 0.384945 0.842236
Si Si2 0.112933 0.385457 0.275405
Si Si3 0.143082 0.744862 0.515058
Si Si4 0.477021 0.387051 0.424257
Si Si5 0.514887 0.884755 0.586821
Si Si6 0.891444 0.614144 0.906420
Si Si7 0.263748 0.720351 0.775611
O O1 0.425965 0.500000 0.822250
O O2 0.673160 0.372029 0.774495
O O3 0.373240 0.304921 0.811051
O O4 0.314479 0.375881 0.970480
O O5 0.048757 0.500000 0.319454
O O6 0.973682 0.302294 0.367200
O O7 0.125220 0.378207 0.178789
O O8 0.315165 0.664634 0.436577
O O9 0.269846 0.843634 0.479051
O O10 0.000000 0.752443 0.500000
O O11 0.500000 0.341413 0.500000
O O12 0.422707 0.500000 0.455257
O O13 0.679438 0.370890 0.303756
O O14 0.500000 0.878460 0.500000
O O15 0.356721 0.815468 0.694381
O O16 0.491268 0.000000 0.618496
O O17 0.957619 0.500000 0.900067
O O18 0.037216 0.701271 0.876423
#
# Coordination Sequence:
#
# PCOD9144493 Si02
#       7
#     4   4   4   4   4   4   4
#     4  10  20  32  47  72 106 140 171 203 239 281
#     4  10  19  31  47  70 105 145 175 198 231 282
#     4  11  21  32  50  77 105 131 166 209 256 307
#     4  10  19  30  45  69 103 139 170 200 239 294
#     4  10  22  40  58  75  97 126 163 209 262 320
#     4  10  19  31  49  73 102 138 176 206 234 279
#     4  11  19  31  51  73  96 124 164 208 252 295
#
# _framework density 17.383960999999999
#
# number of rings (size 3 to 8) (size 9 to 14) (size 15 to 20)
#    0.000    1.714    0.000    7.714    0.000    7.714 
#    0.000    0.000    0.000    1.714    0.000    0.000 
#    0.000    6.857    0.000    0.000    0.000    0.000 
#
# Total GULP energy -156042.815914 kJ/mol
# GULP energy per Si atom -5572.957711 kJ/mol
# Density = 1.734439 g / cm^3
# Si number density = 17.383961 Si / 1000 Ang^3
#
#
#
# Elastic Constant Matrix: (Units=GPa)
#
#
# Indices 1 2 3 4 5 6 
#
# 1 62.7382 26.4917 -6.7242 0.0000 4.2472 0.0000
# 2 26.4917 92.6658 19.5707 0.0000 -2.4671 0.0000
# 3 -6.7242 19.5707 64.7228 0.0000 -3.9041 0.0000
# 4 0.0000 0.0000 0.0000 22.1095 0.0000 3.7484
# 5 4.2472 -2.4671 -3.9041 0.0000 26.7368 0.0000
# 6 0.0000 0.0000 0.0000 3.7484 0.0000 9.8990
#
#
#
# Elastic Compliance Matrix: (Units=1/GPa)
#
#
# Indices 1 2 3 4 5 6 
#
# 1 0.019241 -0.006373 0.003739 0.000000 -0.003099 0.000000
# 2 -0.006373 0.013647 -0.004693 0.000000 0.001586 0.000000
# 3 0.003739 -0.004693 0.017349 0.000000 0.001506 0.000000
# 4 0.000000 0.000000 0.000000 0.048332 0.000000 -0.018302
# 5 -0.003099 0.001586 0.001506 0.000000 0.038260 0.000000
# 6 0.000000 0.000000 0.000000 -0.018302 0.000000 0.107950
#
#
# Mechanical properties :
#
#
# Convention : Reuss Voigt Hill
#
# Bulk Modulus (GPa) = 28.10325 33.20036 30.65181
# Shear Modulus (GPa) = 18.43025 23.80163 21.11594
#
# Velocity S-wave (km/s) = 3.25958 3.70425 3.48901
# Velocity P-wave (km/s) = 5.51070 6.11841 5.82249
#
# Compressibility (1/GPa) = 0.03558307
#
# Stress axis : x y z
#
# Youngs Moduli (GPa) = 51.97308 73.27779 57.64074
#
# Poissons Ratio (x) = 0.46698 -0.21552
# Poissons Ratio (y) = 0.33121 0.27050
# Poissons Ratio (z) = -0.19433 0.34388
#
# Static dielectric constant tensor:
#      x y z
#    x 1.619200 0.000000 0.001550 
#    y 0.000000 1.593690 0.000000 
#    z 0.001550 0.000000 1.620890 
# 
# From -- ./inp_files/51418.got.cif
#   From: 2010.05.17/outbox.cif.g08.bks.cpg/sg10_26_cif.got.tgz:51418.got - 2010.06.03 11:33:40.
