data_PCOD9144318
_publ_section_title
;
Structure prediction by ZEFSAII (Michael W. Deem and Ramdas Pophale) SiO2 
 PCOD9144318
Probable space group: P 2/M
;
_chemical_formula_sum "Si O2"
_cell_formula_units_Z 24
_cell_length_a 20.673120
_cell_length_b 7.546315
_cell_length_c 11.597145
_cell_angle_alpha 90.000000
_cell_angle_beta 44.249850
_cell_angle_gamma 90.000000
_cell_volume 1262.454989
_symmetry_space_group_name_H-M "P 2/M"
_symmetry_group_IT_number 10
_symmetry_cell_setting 'monoclinic'
loop_
_space_group_symop_operation_xyz
x,y,z
-x,y,-z
-x,-y,-z
x,-y,z
loop_
_atom_site_type_symbol
_atom_site_label
_atom_site_fract_x
_atom_site_fract_y
_atom_site_fract_z
Si Si1 0.282264 0.217989 0.684673
Si Si2 0.045723 0.714595 0.619539
Si Si3 0.481788 0.205449 0.384741
Si Si4 0.908920 0.207936 0.177890
Si Si5 0.139284 0.287776 0.265846
Si Si6 0.680440 0.211631 0.102574
O O1 0.378514 0.280221 0.503281
O O2 0.188838 0.280058 0.742652
O O3 0.285111 0.273528 0.815336
O O4 0.284770 0.000000 0.679621
O O5 0.046020 0.500000 0.621920
O O6 0.078497 0.776890 0.701646
O O7 0.110625 0.773520 0.430197
O O8 0.941362 0.773890 0.719268
O O9 0.500000 0.206861 0.500000
O O10 0.576638 0.283093 0.211779
O O11 0.476103 0.000000 0.354831
O O12 0.906505 0.000000 0.149865
O O13 0.000000 0.285687 0.000000
O O14 0.132030 0.500000 0.277689
O O15 0.240864 0.243963 0.091538
O O16 0.669752 0.000000 0.127083
#
# Coordination Sequence:
#
# PCOD9144318 Si02
#       6
#     4   4   4   4   4   4
#     4   8  14  25  41  64  95 121 137 166 215 260
#     4   9  19  34  47  60  83 117 150 174 207 260
#     4   7  11  21  39  63  88 114 142 170 205 252
#     4  10  19  29  44  68  94 115 138 174 216 252
#     4   9  18  32  47  62  84 113 143 180 221 253
#     4   9  15  25  46  71  88 108 144 181 211 250
#
# _framework density 19.010580000000001
#
# number of rings (size 3 to 8) (size 9 to 14) (size 15 to 20)
#    0.000    3.333    0.000    4.000    0.000    3.000 
#    0.000    2.500    0.000    6.500    0.000    7.000 
#    0.000    0.000    0.000    0.000    0.000    0.000 
#
# Total GULP energy -133681.722223 kJ/mol
# GULP energy per Si atom -5570.071759 kJ/mol
# Density = 1.896731 g / cm^3
# Si number density = 19.010580 Si / 1000 Ang^3
#
#
#
# Elastic Constant Matrix: (Units=GPa)
#
#
# Indices 1 2 3 4 5 6 
#
# 1 118.7697 2.4416 79.9676 0.0000 -29.6144 0.0000
# 2 2.4416 41.5163 0.2230 0.0000 -6.4986 0.0000
# 3 79.9676 0.2230 165.4897 0.0000 -42.4830 0.0000
# 4 0.0000 0.0000 0.0000 13.3645 0.0000 22.9242
# 5 -29.6144 -6.4986 -42.4830 0.0000 30.9088 0.0000
# 6 0.0000 0.0000 0.0000 22.9242 0.0000 -30.4803
#
#
#
# Elastic Compliance Matrix: (Units=1/GPa)
#
#
# Indices 1 2 3 4 5 6 
#
# 1 0.013159 0.000198 -0.004808 0.000000 0.006041 0.000000
# 2 0.000198 0.025357 0.001990 0.000000 0.008255 0.000000
# 3 -0.004808 0.001990 0.011262 0.000000 0.011290 0.000000
# 4 0.000000 0.000000 0.000000 0.032674 0.000000 0.024574
# 5 0.006041 0.008255 0.011290 0.000000 0.055395 0.000000
# 6 0.000000 0.000000 0.000000 0.024574 0.000000 -0.014326
#
#
# Mechanical properties :
#
#
# Convention : Reuss Voigt Hill
#
# Bulk Modulus (GPa) = 22.45408 54.56002 38.50705
# Shear Modulus (GPa) = 34.81708 18.96818 26.89263
#
# Velocity S-wave (km/s) = 4.28420 3.16218 3.76522
# Velocity P-wave (km/s) = 6.02573 6.48804 6.26115
#
# Compressibility (1/GPa) = 0.04453533
#
# Stress axis : x y z
#
# Youngs Moduli (GPa) = 75.99207 39.43722 88.79581
#
# Poissons Ratio (x) = -0.00779 0.42696
# Poissons Ratio (y) = -0.01501 -0.17666
# Poissons Ratio (z) = 0.36539 -0.07846
#
# Static dielectric constant tensor:
#      x y z
#    x 1.639420 0.000000 -0.047140 
#    y 0.000000 1.722770 0.000000 
#    z -0.047140 0.000000 1.692250 
# 
# From -- ./inp_files/32081.got.cif
#   From: 2010.05.17/outbox.cif.g08.bks.cpg/sg10_17_cif.got.tgz:32081.got - 2010.06.03 11:33:40.
