data_PCOD9144088
_publ_section_title
;
Structure prediction by ZEFSAII (Michael W. Deem and Ramdas Pophale) SiO2 
 PCOD9144088
Probable space group: P 2/M
;
_chemical_formula_sum "Si O2"
_cell_formula_units_Z 24
_cell_length_a 10.859672
_cell_length_b 13.652704
_cell_length_c 19.105036
_cell_angle_alpha 90.000000
_cell_angle_beta 23.735823
_cell_angle_gamma 90.000000
_cell_volume 1140.173440
_symmetry_space_group_name_H-M "P 2/M"
_symmetry_group_IT_number 10
_symmetry_cell_setting 'monoclinic'
loop_
_space_group_symop_operation_xyz
x,y,z
-x,y,-z
-x,-y,-z
x,-y,z
loop_
_atom_site_type_symbol
_atom_site_label
_atom_site_fract_x
_atom_site_fract_y
_atom_site_fract_z
Si Si1 0.825022 0.189255 0.944324
Si Si2 0.825022 0.689255 0.444324
Si Si3 0.830570 0.106799 0.364721
Si Si4 0.830570 0.606799 0.864721
Si Si5 0.257652 0.713222 0.819306
Si Si6 0.257652 0.786778 0.319306
O O1 0.823502 0.303335 0.921476
O O2 0.933179 0.129463 0.820843
O O3 0.081654 0.196852 0.871708
O O4 0.485128 0.161231 0.146129
O O5 0.823503 0.803335 0.421476
O O6 0.485128 0.661230 0.646128
O O7 0.933178 0.629462 0.320843
O O8 0.081654 0.696852 0.371707
O O9 0.500000 0.106665 0.500000
O O10 0.886582 0.000000 0.366918
O O11 0.886581 0.500000 0.866919
O O12 0.500000 0.606665 0.000000
O O13 0.500000 0.750000 0.750000
O O14 0.000000 0.659639 0.000000
O O15 0.000000 0.840360 0.500000
#
# Coordination Sequence:
#
# PCOD9144088 Si02
#       6
#     4   4   4   4   4   4
#     4  10  18  35  56  81 107 140 175 221 266 317
#     4  10  18  35  56  81 107 140 175 221 266 317
#     4  10  20  33  56  83 109 141 173 218 272 320
#     4  10  20  33  56  83 109 141 173 218 272 320
#     4   9  18  32  56  78 103 144 183 212 263 315
#     4   9  18  32  56  78 103 144 183 212 263 315
#
# _framework density 21.049429
#
# number of rings (size 3 to 8) (size 9 to 14) (size 15 to 20)
#    0.000    2.333    3.333    0.000    0.000    0.000 
#    0.000    3.333    0.000   40.000    0.000    0.000 
#    0.000    0.000    0.000    0.000    0.000    0.000 
#
# Total GULP energy -133652.243154 kJ/mol
# GULP energy per Si atom -5568.843465 kJ/mol
# Density = 2.100152 g / cm^3
# Si number density = 21.049429 Si / 1000 Ang^3
#
#
#
# Elastic Constant Matrix: (Units=GPa)
#
#
# Indices 1 2 3 4 5 6 
#
# 1 56.0373 7.6838 7.6982 0.0000 -5.5423 0.0000
# 2 7.6838 73.9769 2.7125 0.0000 0.8351 0.0000
# 3 7.6982 2.7125 203.5089 0.0000 23.3184 0.0000
# 4 0.0000 0.0000 0.0000 0.2337 0.0000 -2.3272
# 5 -5.5423 0.8351 23.3184 0.0000 38.9649 0.0000
# 6 0.0000 0.0000 0.0000 -2.3272 0.0000 2.0198
#
#
#
# Elastic Compliance Matrix: (Units=1/GPa)
#
#
# Indices 1 2 3 4 5 6 
#
# 1 0.018583 -0.001929 -0.001057 0.000000 0.003317 0.000000
# 2 -0.001929 0.013726 -0.000048 0.000000 -0.000540 0.000000
# 3 -0.001057 -0.000048 0.005338 0.000000 -0.003344 0.000000
# 4 0.000000 0.000000 0.000000 -0.408540 0.000000 -0.470721
# 5 0.003317 -0.000540 -0.003344 0.000000 0.028148 0.000000
# 6 0.000000 0.000000 0.000000 -0.470721 0.000000 -0.047274
#
#
# Mechanical properties :
#
#
# Convention : Reuss Voigt Hill
#
# Bulk Modulus (GPa) = 31.66777 41.07915 36.37346
# Shear Modulus (GPa) = -13.38958 29.27226 7.94134
#
# Velocity S-wave (km/s) = -2.52484 3.73318 1.94445
# Velocity P-wave (km/s) = 2.56464 6.17577 4.72850
#
# Compressibility (1/GPa) = 0.03157785
#
# Stress axis : x y z
#
# Youngs Moduli (GPa) = 53.81239 72.85477 187.35208
#
# Poissons Ratio (x) = 0.14053 0.19810
# Poissons Ratio (y) = 0.10380 0.00902
# Poissons Ratio (z) = 0.05690 0.00351
#
# Static dielectric constant tensor:
#      x y z
#    x 1.856540 0.000000 0.034220 
#    y 0.000000 1.705630 0.000000 
#    z 0.034220 0.000000 1.843150 
# 
# From -- ./inp_files/56013.got.cif
#   From: 2010.05.17/outbox.cif.g08.bks.cpg/sg10_29_cif.got.tgz:56013.got - 2010.06.03 11:33:40.
