data_PCOD9144855
_publ_section_title
;
Structure prediction by ZEFSAII (Michael W. Deem and Ramdas Pophale) SiO2 
 PCOD9144855
Probable space group: P 2/M
;
_chemical_formula_sum "Si O2"
_cell_formula_units_Z 32
_cell_length_a 23.682250
_cell_length_b 7.542770
_cell_length_c 15.008450
_cell_angle_alpha 90.000000
_cell_angle_beta 151.963809
_cell_angle_gamma 90.000000
_cell_volume 1260.127513
_symmetry_space_group_name_H-M "P 2/M"
_symmetry_group_IT_number 10
_symmetry_cell_setting 'monoclinic'
loop_
_space_group_symop_operation_xyz
x,y,z
-x,y,-z
-x,-y,-z
x,-y,z
loop_
_atom_site_type_symbol
_atom_site_label
_atom_site_fract_x
_atom_site_fract_y
_atom_site_fract_z
Si Si1 0.326634 0.201098 0.820717
Si Si2 0.064293 0.295738 0.495017
Si Si3 0.214881 0.783474 0.486377
Si Si4 0.406158 0.203863 0.119295
Si Si5 0.062359 0.214259 0.916469
Si Si6 0.569303 0.297384 0.509025
Si Si7 0.799771 0.799533 0.730547
Si Si8 0.175910 0.292054 0.906630
O O1 0.188888 0.197771 0.663632
O O2 0.303961 0.279510 0.689929
O O3 0.371581 0.000000 0.872837
O O4 0.396582 0.277564 0.004642
O O5 0.088685 0.500000 0.502138
O O6 0.000000 0.302905 0.500000
O O7 0.955855 0.210376 0.290402
O O8 0.241539 0.724857 0.422475
O O9 0.073866 0.730616 0.299511
O O10 0.220823 0.000000 0.501863
O O11 0.483338 0.297858 0.302518
O O12 0.448091 0.000000 0.170718
O O13 0.275083 0.205424 0.983700
O O14 0.173155 0.279034 0.008732
O O15 0.064858 0.000000 0.920863
O O16 0.095834 0.278849 0.062432
O O17 0.500000 0.225930 0.500000
O O18 0.602331 0.500000 0.576388
O O19 0.684865 0.196767 0.634604
O O20 0.838972 0.000000 0.763047
O O21 0.174856 0.500000 0.879947
#
# Coordination Sequence:
#
# PCOD9144855 Si02
#       8
#     4   4   4   4   4   4   4   4
#     4  10  20  34  55  83 116 152 191 234 279 330
#     4  10  19  31  47  72 112 158 195 228 274 332
#     4   9  18  35  58  86 120 154 189 231 280 334
#     4  11  23  37  58  87 115 149 194 241 288 338
#     4  10  19  33  57  87 118 154 194 235 281 335
#     4  11  25  45  66  86 111 146 186 235 292 344
#     4  10  21  38  62  88 114 148 192 240 286 335
#     4  11  21  32  50  80 119 158 192 230 282 338
#
# _framework density 25.394255000000001
#
# number of rings (size 3 to 8) (size 9 to 14) (size 15 to 20)
#    0.000    1.750    2.500    2.250    0.000    6.250 
#    0.000    1.875    0.000    5.250    0.000    0.000 
#    0.000    0.000    0.000    0.000    0.000    0.000 
#
# Total GULP energy -178489.161917 kJ/mol
# GULP energy per Si atom -5577.786310 kJ/mol
# Density = 2.533646 g / cm^3
# Si number density = 25.394255 Si / 1000 Ang^3
#
#
#
# Elastic Constant Matrix: (Units=GPa)
#
#
# Indices 1 2 3 4 5 6 
#
# 1 111.1881 2.2709 31.7114 0.0000 -37.3497 0.0000
# 2 2.2709 82.1439 -0.6496 0.0000 -2.2188 0.0000
# 3 31.7114 -0.6496 94.0929 0.0000 -45.2186 0.0000
# 4 0.0000 0.0000 0.0000 12.9183 0.0000 12.4638
# 5 -37.3497 -2.2188 -45.2186 0.0000 56.6107 0.0000
# 6 0.0000 0.0000 0.0000 12.4638 0.0000 -0.0434
#
#
#
# Elastic Compliance Matrix: (Units=1/GPa)
#
#
# Indices 1 2 3 4 5 6 
#
# 1 0.011564 -0.000125 -0.000380 0.000000 0.007321 0.000000
# 2 -0.000125 0.012203 0.000514 0.000000 0.000806 0.000000
# 3 -0.000380 0.000514 0.017283 0.000000 0.013575 0.000000
# 4 0.000000 0.000000 0.000000 0.000278 0.000000 0.079944
# 5 0.007321 0.000806 0.013575 0.000000 0.033369 0.000000
# 6 0.000000 0.000000 0.000000 0.079944 0.000000 -0.082859
#
#
# Mechanical properties :
#
#
# Convention : Reuss Voigt Hill
#
# Bulk Modulus (GPa) = 24.34977 39.34334 31.84655
# Shear Modulus (GPa) = 907.49492 30.83660 469.16576
#
# Velocity S-wave (km/s) = 18.92454 3.48848 13.60712
# Velocity P-wave (km/s) = 22.07095 5.63495 16.10714
#
# Compressibility (1/GPa) = 0.04106815
#
# Stress axis : x y z
#
# Youngs Moduli (GPa) = 86.47570 81.94670 57.86065
#
# Poissons Ratio (x) = 0.01024 0.02197
# Poissons Ratio (y) = 0.01080 -0.02973
# Poissons Ratio (z) = 0.03284 -0.04211
#
# Static dielectric constant tensor:
#      x y z
#    x 2.183530 0.000000 -0.195220 
#    y 0.000000 1.934470 0.000000 
#    z -0.195220 0.000000 2.180340 
# 
# From -- ./inp_files/71664.got.cif
#   From: 2010.05.17/outbox.cif.g08.bks.cpg/sg10_36_cif.got.tgz:71664.got - 2010.06.03 11:33:40.
