data_PCOD9144788
_publ_section_title
;
Structure prediction by ZEFSAII (Michael W. Deem and Ramdas Pophale) SiO2 
 PCOD9144788
Probable space group: P 2/M
;
_chemical_formula_sum "Si O2"
_cell_formula_units_Z 26
_cell_length_a 5.402749
_cell_length_b 19.609183
_cell_length_c 17.653728
_cell_angle_alpha 90.000000
_cell_angle_beta 73.917217
_cell_angle_gamma 90.000000
_cell_volume 1797.098742
_symmetry_space_group_name_H-M "P 2/M"
_symmetry_group_IT_number 10
_symmetry_cell_setting 'monoclinic'
loop_
_space_group_symop_operation_xyz
x,y,z
-x,y,-z
-x,-y,-z
x,-y,z
loop_
_atom_site_type_symbol
_atom_site_label
_atom_site_fract_x
_atom_site_fract_y
_atom_site_fract_z
Si Si1 0.595503 0.582262 0.910309
Si Si2 0.230225 0.364881 0.645356
Si Si3 0.172063 0.212448 0.591867
Si Si4 0.183081 0.417071 0.815552
Si Si5 0.804068 0.419770 0.580410
Si Si6 0.329583 0.154657 0.409396
Si Si7 0.294407 0.000000 0.449210
O O1 0.583958 0.500000 0.914661
O O2 0.397670 0.600778 0.860126
O O3 0.893766 0.598083 0.868629
O O4 0.500000 0.608429 0.000000
O O5 0.191140 0.291858 0.608859
O O6 0.231107 0.374150 0.735559
O O7 0.520115 0.388466 0.598878
O O8 0.978775 0.407860 0.639852
O O9 0.251345 0.185713 0.500014
O O10 0.381339 0.177937 0.627871
O O11 0.882986 0.186757 0.626593
O O12 0.201481 0.500000 0.798775
O O13 0.767356 0.500000 0.572132
O O14 0.000000 0.392814 0.500000
O O15 0.323974 0.073178 0.407740
O O16 0.500000 0.000000 0.500000
O O17 0.000000 0.000000 0.500000
#
# Coordination Sequence:
#
# PCOD9144788 Si02
#       7
#     4   4   4   4   4   4   2
#     4   9  17  30  49  70  88 104 128 171 225 275
#     4  12  23  34  50  62  86 117 147 189 234 278
#     4  10  20  30  43  63  84 109 141 176 224 266
#     4  10  19  31  47  66  87 111 141 178 223 273
#     4  11  24  37  47  59  75 107 158 206 240 266
#     4  10  19  31  46  65  84 108 142 189 222 262
#     4  12  16  30  48  68  84 104 134 186 238 258
#
# _framework density 14.467765
#
# number of rings (size 3 to 8) (size 9 to 14) (size 15 to 20)
#    0.000    1.538    3.077    4.154    6.462    4.308 
#    0.000    0.000    0.000    0.000    0.000    0.000 
#    0.000    0.000    0.000    0.000    0.000    0.000 
#
# Total GULP energy -144751.498952 kJ/mol
# GULP energy per Si atom -5567.365344 kJ/mol
# Density = 1.443484 g / cm^3
# Si number density = 14.467765 Si / 1000 Ang^3
#
#
#
# Elastic Constant Matrix: (Units=GPa)
#
#
# Indices 1 2 3 4 5 6 
#
# 1 141.4426 41.1075 10.7918 0.0000 8.3114 0.0000
# 2 41.1075 79.0458 23.6644 0.0000 -1.3441 0.0000
# 3 10.7918 23.6644 41.7315 0.0000 4.7372 0.0000
# 4 0.0000 0.0000 0.0000 3.8652 0.0000 10.0215
# 5 8.3114 -1.3441 4.7372 0.0000 17.5140 0.0000
# 6 0.0000 0.0000 0.0000 10.0215 0.0000 23.6782
#
#
#
# Elastic Compliance Matrix: (Units=1/GPa)
#
#
# Indices 1 2 3 4 5 6 
#
# 1 0.008703 -0.004935 0.001093 0.000000 -0.004805 0.000000
# 2 -0.004935 0.018262 -0.009805 0.000000 0.006396 0.000000
# 3 0.001093 -0.009805 0.030315 0.000000 -0.009471 0.000000
# 4 0.000000 0.000000 0.000000 -2.658145 0.000000 1.125022
# 5 -0.004805 0.006396 -0.009471 0.000000 0.062430 0.000000
# 6 0.000000 0.000000 0.000000 1.125022 0.000000 -0.433917
#
#
# Mechanical properties :
#
#
# Convention : Reuss Voigt Hill
#
# Bulk Modulus (GPa) = 33.34899 45.92748 39.63823
# Shear Modulus (GPa) = -1.70354 21.45522 9.87584
#
# Velocity S-wave (km/s) = -1.08629 3.85511 2.61551
# Velocity P-wave (km/s) = 4.63974 7.18536 6.04800
#
# Compressibility (1/GPa) = 0.02998592
#
# Stress axis : x y z
#
# Youngs Moduli (GPa) = 114.90026 54.75981 32.98666
#
# Poissons Ratio (x) = 0.27024 -0.03606
# Poissons Ratio (y) = 0.56704 0.32344
# Poissons Ratio (z) = -0.12561 0.53693
#
# Static dielectric constant tensor:
#      x y z
#    x 1.527810 0.000000 0.007160 
#    y 0.000000 1.618070 0.000000 
#    z 0.007160 0.000000 1.477050 
# 
# From -- ./inp_files/11514.got.cif
#   From: 2010.05.17/outbox.cif.g08.bks.cpg/sg10_6_cif.got.tgz:11514.got - 2010.06.03 11:33:40.
