data_PCOD9144151
_publ_section_title
;
Structure prediction by ZEFSAII (Michael W. Deem and Ramdas Pophale) SiO2 
 PCOD9144151
Probable space group: P 2/M
;
_chemical_formula_sum "Si O2"
_cell_formula_units_Z 26
_cell_length_a 12.600384
_cell_length_b 12.715526
_cell_length_c 9.035742
_cell_angle_alpha 90.000000
_cell_angle_beta 112.691631
_cell_angle_gamma 90.000000
_cell_volume 1335.650310
_symmetry_space_group_name_H-M "P 2/M"
_symmetry_group_IT_number 10
_symmetry_cell_setting 'monoclinic'
loop_
_space_group_symop_operation_xyz
x,y,z
-x,y,-z
-x,-y,-z
x,-y,z
loop_
_atom_site_type_symbol
_atom_site_label
_atom_site_fract_x
_atom_site_fract_y
_atom_site_fract_z
Si Si1 0.940722 0.881175 0.116364
Si Si2 0.764734 0.878473 0.515243
Si Si3 0.500000 0.291120 0.000000
Si Si4 0.262009 0.378994 0.976616
Si Si5 0.739232 0.180715 0.830409
Si Si6 0.104560 0.269081 0.647811
Si Si7 0.478613 0.879952 0.747131
O O1 0.952633 0.813342 0.268368
O O2 0.980764 0.000000 0.159147
O O3 0.806693 0.880890 0.995967
O O4 0.000000 0.836362 0.000000
O O5 0.789855 0.846179 0.697491
O O6 0.819382 0.799228 0.425776
O O7 0.626063 0.874808 0.423636
O O8 0.799150 0.000000 0.505060
O O9 0.394319 0.359416 0.001098
O O10 0.452889 0.210032 0.852520
O O11 0.240626 0.500000 0.999934
O O12 0.182056 0.341981 0.795856
O O13 0.245168 0.300875 0.107105
O O14 0.606118 0.147298 0.759581
O O15 0.000000 0.321003 0.500000
O O16 0.479315 0.000000 0.805469
#
# Coordination Sequence:
#
# PCOD9144151 Si02
#       7
#     4   4   2   4   4   4   4
#     4  10  20  35  55  82 116 158 196 230 282 350
#     4  11  21  35  56  88 126 158 186 228 287 352
#     4  10  18  36  60  86 116 148 188 246 286 348
#     4  10  22  41  62  82 108 151 202 249 296 333
#     4  10  21  35  56  81 116 156 198 239 284 341
#     4  11  23  38  58  86 119 151 193 243 289 346
#     4  10  19  31  54  87 124 158 186 224 285 353
#
# _framework density 19.466173999999999
#
# number of rings (size 3 to 8) (size 9 to 14) (size 15 to 20)
#    0.000    1.692    1.538    3.692    0.000    4.000 
#    0.000    0.769    0.000   17.538    0.000    0.000 
#    0.000    0.000    0.000    0.000    0.000    0.000 
#
# Total GULP energy -145096.307933 kJ/mol
# GULP energy per Si atom -5580.627228 kJ/mol
# Density = 1.942187 g / cm^3
# Si number density = 19.466174 Si / 1000 Ang^3
#
#
#
# Elastic Constant Matrix: (Units=GPa)
#
#
# Indices 1 2 3 4 5 6 
#
# 1 47.7115 8.8878 6.4675 0.0000 13.8027 0.0000
# 2 8.8878 100.4243 16.5625 0.0000 6.6495 0.0000
# 3 6.4675 16.5625 85.2980 0.0000 20.2498 0.0000
# 4 0.0000 0.0000 0.0000 -63.4420 0.0000 -14.1819
# 5 13.8027 6.6495 20.2498 0.0000 33.3005 0.0000
# 6 0.0000 0.0000 0.0000 -14.1819 0.0000 10.5415
#
#
#
# Elastic Compliance Matrix: (Units=1/GPa)
#
#
# Indices 1 2 3 4 5 6 
#
# 1 0.024091 -0.001606 0.000911 0.000000 -0.010219 0.000000
# 2 -0.001606 0.010422 -0.001830 0.000000 -0.000303 0.000000
# 3 0.000911 -0.001830 0.014040 0.000000 -0.008550 0.000000
# 4 0.000000 0.000000 0.000000 -0.012118 0.000000 -0.016303
# 5 -0.010219 -0.000303 -0.008550 0.000000 0.039525 0.000000
# 6 0.000000 0.000000 0.000000 -0.016303 0.000000 0.072930
#
#
# Mechanical properties :
#
#
# Convention : Reuss Voigt Hill
#
# Bulk Modulus (GPa) = 22.98685 33.02993 28.00839
# Shear Modulus (GPa) = 29.68425 9.51441 19.59933
#
# Velocity S-wave (km/s) = 3.90925 2.21320 3.17652
# Velocity P-wave (km/s) = 5.67544 4.85136 5.27950
#
# Compressibility (1/GPa) = 0.04350314
#
# Stress axis : x y z
#
# Youngs Moduli (GPa) = 41.50898 95.95346 71.22745
#
# Poissons Ratio (x) = 0.15408 -0.06490
# Poissons Ratio (y) = 0.06665 0.13035
# Poissons Ratio (z) = -0.03782 0.17560
#
# Static dielectric constant tensor:
#      x y z
#    x 1.732730 0.000000 0.035380 
#    y 0.000000 1.644920 0.000000 
#    z 0.035380 0.000000 1.690580 
# 
# From -- ./inp_files/28406.got.cif
#   From: 2010.05.17/outbox.cif.g08.bks.cpg/sg10_15_cif.got.tgz:28406.got - 2010.06.03 11:33:40.
