data_PCOD9144439
_publ_section_title
;
Structure prediction by ZEFSAII (Michael W. Deem and Ramdas Pophale) SiO2 
 PCOD9144439
Probable space group: P 2/M
;
_chemical_formula_sum "Si O2"
_cell_formula_units_Z 28
_cell_length_a 17.320377
_cell_length_b 7.555154
_cell_length_c 17.648306
_cell_angle_alpha 90.000000
_cell_angle_beta 26.411839
_cell_angle_gamma 90.000000
_cell_volume 1027.278591
_symmetry_space_group_name_H-M "P 2/M"
_symmetry_group_IT_number 10
_symmetry_cell_setting 'monoclinic'
loop_
_space_group_symop_operation_xyz
x,y,z
-x,y,-z
-x,-y,-z
x,-y,z
loop_
_atom_site_type_symbol
_atom_site_label
_atom_site_fract_x
_atom_site_fract_y
_atom_site_fract_z
Si Si1 0.832282 0.207041 0.581209
Si Si2 0.713110 0.716659 0.264877
Si Si3 0.986801 0.291353 0.897373
Si Si4 0.443444 0.710559 0.871074
Si Si5 0.309451 0.212040 0.142960
Si Si6 0.055884 0.203407 0.674552
Si Si7 0.558648 0.715259 0.609682
O O1 0.627534 0.212356 0.738298
O O2 0.824459 0.276569 0.674732
O O3 0.929362 0.286719 0.422435
O O4 0.882193 0.000000 0.539392
O O5 0.699698 0.500000 0.281422
O O6 0.825474 0.776015 0.238424
O O7 0.527505 0.772535 0.393839
O O8 0.841345 0.771336 0.083067
O O9 0.991270 0.500000 0.906899
O O10 0.954941 0.271884 0.836504
O O11 0.459894 0.500000 0.857405
O O12 0.435555 0.762153 0.789903
O O13 0.301164 0.754302 0.060414
O O14 0.311091 0.000000 0.149882
O O15 0.500000 0.281862 0.000000
O O16 0.254630 0.214643 0.530537
O O17 0.007781 0.000000 0.707567
O O18 0.574520 0.500000 0.592797
#
# Coordination Sequence:
#
# PCOD9144439 Si02
#       7
#     4   4   4   4   4   4   4
#     4   8  15  26  37  51  78 116 147 168 201 253
#     4   8  16  32  52  68  84 112 150 185 215 258
#     4   9  17  32  52  69  84 110 150 187 218 257
#     4   9  15  21  34  58  84 107 135 175 216 249
#     4   8  13  22  35  50  74 111 146 170 201 249
#     4  10  19  30  44  66  95 120 143 178 222 262
#     4   9  17  30  46  65  90 119 148 178 216 262
#
# _framework density 27.256481000000001
#
# number of rings (size 3 to 8) (size 9 to 14) (size 15 to 20)
#    0.000    3.286    0.000    2.571    0.000    4.286 
#    0.000    5.714    0.000    0.000    0.000    1.000 
#    0.000    8.000    0.000    0.000    0.000    0.000 
#
# Total GULP energy -156376.685916 kJ/mol
# GULP energy per Si atom -5584.881640 kJ/mol
# Density = 2.719444 g / cm^3
# Si number density = 27.256481 Si / 1000 Ang^3
#
#
#
# Elastic Constant Matrix: (Units=GPa)
#
#
# Indices 1 2 3 4 5 6 
#
# 1 176.6694 -1.3133 17.4530 0.0000 35.2007 0.0000
# 2 -1.3133 60.6067 -10.9769 0.0000 2.5955 0.0000
# 3 17.4530 -10.9769 128.8091 0.0000 24.2140 0.0000
# 4 0.0000 0.0000 0.0000 24.8684 0.0000 12.1832
# 5 35.2007 2.5955 24.2140 0.0000 59.5917 0.0000
# 6 0.0000 0.0000 0.0000 12.1832 0.0000 15.3183
#
#
#
# Elastic Compliance Matrix: (Units=1/GPa)
#
#
# Indices 1 2 3 4 5 6 
#
# 1 0.006423 0.000274 -0.000142 0.000000 -0.003748 0.000000
# 2 0.000274 0.016882 0.001700 0.000000 -0.001588 0.000000
# 3 -0.000142 0.001700 0.008581 0.000000 -0.003477 0.000000
# 4 0.000000 0.000000 0.000000 0.065882 0.000000 -0.052399
# 5 -0.003748 -0.001588 -0.003477 0.000000 0.020477 0.000000
# 6 0.000000 0.000000 0.000000 -0.052399 0.000000 0.106956
#
#
# Mechanical properties :
#
#
# Convention : Reuss Voigt Hill
#
# Bulk Modulus (GPa) = 28.13004 41.82342 34.97673
# Shear Modulus (GPa) = 21.42355 44.01718 32.72036
#
# Velocity S-wave (km/s) = 2.80661 4.02297 3.46853
# Velocity P-wave (km/s) = 4.56570 6.07921 5.37598
#
# Compressibility (1/GPa) = 0.03554919
#
# Stress axis : x y z
#
# Youngs Moduli (GPa) = 155.68518 59.23588 116.53433
#
# Poissons Ratio (x) = -0.01623 0.01659
# Poissons Ratio (y) = -0.04265 -0.19811
# Poissons Ratio (z) = 0.02216 -0.10070
#
# Static dielectric constant tensor:
#      x y z
#    x 2.166250 0.000000 -0.018650 
#    y 0.000000 2.020990 0.000000 
#    z -0.018650 0.000000 2.236440 
# 
# From -- ./inp_files/79221.got.cif
#   From: 2010.05.17/outbox.cif.g08.bks.cpg/sg10_40_cif.got.tgz:79221.got - 2010.06.03 11:33:40.
