data_PCOD9144093
_publ_section_title
;
Structure prediction by ZEFSAII (Michael W. Deem and Ramdas Pophale) SiO2 
 PCOD9144093
Probable space group: P 2/M
;
_chemical_formula_sum "Si O2"
_cell_formula_units_Z 30
_cell_length_a 9.349899
_cell_length_b 22.731505
_cell_length_c 7.354829
_cell_angle_alpha 90.000000
_cell_angle_beta 90.836351
_cell_angle_gamma 90.000000
_cell_volume 1563.008787
_symmetry_space_group_name_H-M "P 2/M"
_symmetry_group_IT_number 10
_symmetry_cell_setting 'monoclinic'
loop_
_space_group_symop_operation_xyz
x,y,z
-x,y,-z
-x,-y,-z
x,-y,z
loop_
_atom_site_type_symbol
_atom_site_label
_atom_site_fract_x
_atom_site_fract_y
_atom_site_fract_z
Si Si1 0.100929 0.068564 0.228560
Si Si2 0.585921 0.845467 0.185339
Si Si3 0.977514 0.428747 0.796145
Si Si4 0.500000 0.646565 0.500000
Si Si5 0.586570 0.262741 0.808406
Si Si6 0.783047 0.066334 0.360137
Si Si7 0.163125 0.192989 0.044427
Si Si8 0.229026 0.429354 0.518523
O O1 0.170580 0.070072 0.429546
O O2 0.160151 0.126373 0.128104
O O3 0.930141 0.078907 0.251457
O O4 0.120772 0.000000 0.161658
O O5 0.484788 0.797025 0.269584
O O6 0.645195 0.895947 0.311609
O O7 0.500000 0.864907 0.000000
O O8 0.732569 0.813484 0.125848
O O9 0.970437 0.500000 0.806889
O O10 0.837678 0.411387 0.678533
O O11 0.111635 0.415346 0.669647
O O12 0.000000 0.405699 0.000000
O O13 0.442800 0.686165 0.333385
O O14 0.627997 0.605021 0.438587
O O15 0.751203 0.243049 0.841554
O O16 0.500000 0.272693 0.000000
O O17 0.746414 0.000000 0.314315
O O18 0.000000 0.208877 0.000000
O O19 0.249452 0.500000 0.517846
#
# Coordination Sequence:
#
# PCOD9144093 Si02
#       8
#     4   4   4   2   4   4   4   4
#     4   9  18  29  49  82 108 129 170 228 289 347
#     4   9  19  36  52  71 104 140 174 222 282 337
#     4   8  15  33  60  90 127 162 187 226 279 329
#     4  12  23  40  62  82 117 168 192 236 308 328
#     4   9  24  42  54  77 112 149 195 243 285 339
#     4   9  17  30  48  77 111 134 164 223 285 344
#     4  10  18  35  58  76  95 135 187 233 282 331
#     4   9  19  35  60  96 126 153 199 237 278 354
#
# _framework density 19.193750999999999
#
# number of rings (size 3 to 8) (size 9 to 14) (size 15 to 20)
#    0.000    3.067    1.333    1.800    1.867    2.133 
#    0.000    8.000    0.000   10.800    0.000    0.000 
#    0.000    0.000    0.000    0.000    0.000    0.000 
#
# Total GULP energy -167051.126166 kJ/mol
# GULP energy per Si atom -5568.370872 kJ/mol
# Density = 1.915006 g / cm^3
# Si number density = 19.193751 Si / 1000 Ang^3
#
#
#
# Elastic Constant Matrix: (Units=GPa)
#
#
# Indices 1 2 3 4 5 6 
#
# 1 126.5898 49.2198 26.1603 0.0000 24.5139 0.0000
# 2 49.2198 61.9167 30.9388 0.0000 14.8609 0.0000
# 3 26.1603 30.9388 70.7461 0.0000 14.8425 0.0000
# 4 0.0000 0.0000 0.0000 32.7488 0.0000 3.0349
# 5 24.5139 14.8609 14.8425 0.0000 17.3404 0.0000
# 6 0.0000 0.0000 0.0000 3.0349 0.0000 -16.2533
#
#
#
# Elastic Compliance Matrix: (Units=1/GPa)
#
#
# Indices 1 2 3 4 5 6 
#
# 1 0.013296 -0.008133 0.001367 0.000000 -0.012996 0.000000
# 2 -0.008133 0.027984 -0.008058 0.000000 -0.005587 0.000000
# 3 0.001367 -0.008058 0.019636 0.000000 -0.011834 0.000000
# 4 0.000000 0.000000 0.000000 0.030016 0.000000 0.005605
# 5 -0.012996 -0.005587 -0.011834 0.000000 0.090959 0.000000
# 6 0.000000 0.000000 0.000000 0.005605 0.000000 -0.060480
#
#
# Mechanical properties :
#
#
# Convention : Reuss Voigt Hill
#
# Bulk Modulus (GPa) = 31.98264 52.43227 42.20746
# Shear Modulus (GPa) = 30.96290 16.96275 23.96283
#
# Velocity S-wave (km/s) = 4.02079 2.97604 3.53720
# Velocity P-wave (km/s) = 6.18506 6.25985 6.22257
#
# Compressibility (1/GPa) = 0.03126696
#
# Stress axis : x y z
#
# Youngs Moduli (GPa) = 75.21017 35.73507 50.92562
#
# Poissons Ratio (x) = 0.29064 -0.06961
# Poissons Ratio (y) = 0.61170 0.41037
# Poissons Ratio (z) = -0.10280 0.28796
#
# Static dielectric constant tensor:
#      x y z
#    x 1.680980 0.000000 0.000260 
#    y 0.000000 1.672960 0.000000 
#    z 0.000260 0.000000 1.719230 
# 
# From -- ./inp_files/20234.got.cif
#   From: 2010.05.17/outbox.cif.g08.bks.cpg/sg10_11_cif.got.tgz:20234.got - 2010.06.03 11:33:40.
