data_PCOD9144515
_publ_section_title
;
Structure prediction by ZEFSAII (Michael W. Deem and Ramdas Pophale) SiO2 
 PCOD9144515
Probable space group: P 2/M
;
_chemical_formula_sum "Si O2"
_cell_formula_units_Z 32
_cell_length_a 14.491375
_cell_length_b 7.446320
_cell_length_c 23.113240
_cell_angle_alpha 90.000000
_cell_angle_beta 142.343024
_cell_angle_gamma 90.000000
_cell_volume 1523.721207
_symmetry_space_group_name_H-M "P 2/M"
_symmetry_group_IT_number 10
_symmetry_cell_setting 'monoclinic'
loop_
_space_group_symop_operation_xyz
x,y,z
-x,y,-z
-x,-y,-z
x,-y,z
loop_
_atom_site_type_symbol
_atom_site_label
_atom_site_fract_x
_atom_site_fract_y
_atom_site_fract_z
Si Si1 0.660196 0.295072 0.779067
Si Si2 0.031487 0.281182 0.120918
Si Si3 0.944591 0.279352 0.613977
Si Si4 0.371354 0.783658 0.979791
Si Si5 0.025498 0.287382 0.779827
Si Si6 0.312260 0.792789 0.077942
Si Si7 0.664660 0.721050 0.396007
Si Si8 0.852059 0.293910 0.384794
O O1 0.665390 0.500000 0.760353
O O2 0.644648 0.296732 0.840598
O O3 0.505119 0.216220 0.677566
O O4 0.821995 0.217785 0.841311
O O5 0.022445 0.500000 0.113676
O O6 0.041959 0.221798 0.193011
O O7 0.869816 0.216947 0.017856
O O8 0.948732 0.500000 0.614886
O O9 0.789283 0.227216 0.505254
O O10 0.961654 0.216431 0.687915
O O11 0.085067 0.216630 0.643721
O O12 0.205367 0.740673 0.873277
O O13 0.382886 0.000000 0.988580
O O14 0.500000 0.717856 0.000000
O O15 0.376550 0.718500 0.049078
O O16 0.997427 0.500000 0.765219
O O17 0.357862 0.000000 0.105151
O O18 0.665039 0.500000 0.394452
O O19 0.723559 0.784232 0.362169
O O20 0.808265 0.500000 0.350984
O O21 0.000000 0.297514 0.500000
#
# Coordination Sequence:
#
# PCOD9144515 Si02
#       8
#     4   4   4   4   4   4   4   4
#     4  10  19  30  46  67  92 121 149 184 231 271
#     4   9  18  32  46  64  92 120 147 185 232 272
#     4   8  13  23  40  62  88 117 148 182 218 258
#     4   9  19  35  50  66  93 123 146 176 224 276
#     4   9  17  29  47  69  91 118 154 191 221 256
#     4  10  20  33  50  69  87 114 152 186 219 268
#     4   8  14  24  38  60  90 119 146 177 219 270
#     4   7  10  18  33  54  82 112 139 172 213 253
#
# _framework density 21.001217
#
# number of rings (size 3 to 8) (size 9 to 14) (size 15 to 20)
#    0.000    3.250    0.000    2.250    0.000    3.750 
#    0.000    1.875    0.000    4.500    0.000    0.000 
#    0.000   11.000    0.000    0.000    0.000    0.000 
#
# Total GULP energy -178382.987633 kJ/mol
# GULP energy per Si atom -5574.468364 kJ/mol
# Density = 2.095342 g / cm^3
# Si number density = 21.001217 Si / 1000 Ang^3
#
#
#
# Elastic Constant Matrix: (Units=GPa)
#
#
# Indices 1 2 3 4 5 6 
#
# 1 83.8485 -9.1830 37.5981 0.0000 -2.3625 0.0000
# 2 -9.1830 62.8572 -8.2853 0.0000 -2.9286 0.0000
# 3 37.5981 -8.2853 64.2048 0.0000 -20.3753 0.0000
# 4 0.0000 0.0000 0.0000 15.2370 0.0000 5.7384
# 5 -2.3625 -2.9286 -20.3753 0.0000 24.4265 0.0000
# 6 0.0000 0.0000 0.0000 5.7384 0.0000 4.6012
#
#
#
# Elastic Compliance Matrix: (Units=1/GPa)
#
#
# Indices 1 2 3 4 5 6 
#
# 1 0.017636 0.000402 -0.013218 0.000000 -0.009272 0.000000
# 2 0.000402 0.016657 0.003482 0.000000 0.004940 0.000000
# 3 -0.013218 0.003482 0.031949 0.000000 0.025789 0.000000
# 4 0.000000 0.000000 0.000000 0.123755 0.000000 -0.154339
# 5 -0.009272 0.004940 0.025789 0.000000 0.062147 0.000000
# 6 0.000000 0.000000 0.000000 -0.154339 0.000000 0.409815
#
#
# Mechanical properties :
#
#
# Convention : Reuss Voigt Hill
#
# Bulk Modulus (GPa) = 21.02000 27.90778 24.46389
# Shear Modulus (GPa) = 7.17891 21.57168 14.37529
#
# Velocity S-wave (km/s) = 1.85088 3.20842 2.61913
# Velocity P-wave (km/s) = 3.82078 5.20026 4.56295
#
# Compressibility (1/GPa) = 0.04757373
#
# Stress axis : x y z
#
# Youngs Moduli (GPa) = 56.70155 60.03504 31.29975
#
# Poissons Ratio (x) = -0.02415 0.41373
# Poissons Ratio (y) = -0.02281 -0.10898
# Poissons Ratio (z) = 0.74949 -0.20903
#
# Static dielectric constant tensor:
#      x y z
#    x 1.776640 0.000000 -0.006130 
#    y 0.000000 1.862890 0.000000 
#    z -0.006130 0.000000 1.724290 
# 
# From -- ./inp_files/84773.got.cif
#   From: 2010.05.17/outbox.cif.g08.bks.cpg/sg10_43_cif.got.tgz:84773.got - 2010.06.03 11:33:40.
