data_PCOD9144340
_publ_section_title
;
Structure prediction by ZEFSAII (Michael W. Deem and Ramdas Pophale) SiO2 
 PCOD9144340
Probable space group: P 2/M
;
_chemical_formula_sum "Si O2"
_cell_formula_units_Z 32
_cell_length_a 28.852683
_cell_length_b 7.706410
_cell_length_c 14.845515
_cell_angle_alpha 90.000000
_cell_angle_beta 29.597455
_cell_angle_gamma 90.000000
_cell_volume 1630.329782
_symmetry_space_group_name_H-M "P 2/M"
_symmetry_group_IT_number 10
_symmetry_cell_setting 'monoclinic'
loop_
_space_group_symop_operation_xyz
x,y,z
-x,y,-z
-x,-y,-z
x,-y,z
loop_
_atom_site_type_symbol
_atom_site_label
_atom_site_fract_x
_atom_site_fract_y
_atom_site_fract_z
Si Si1 0.621421 0.708205 0.878161
Si Si2 0.584055 0.712699 0.736191
Si Si3 0.695438 0.697987 0.379024
Si Si4 0.801363 0.294538 0.034977
Si Si5 0.486832 0.207628 0.415776
Si Si6 0.996876 0.209697 0.610350
Si Si7 0.310765 0.206428 0.950735
Si Si8 0.800809 0.207915 0.692328
O O1 0.616508 0.500000 0.886521
O O2 0.614539 0.763193 0.785431
O O3 0.719219 0.756434 0.758740
O O4 0.525028 0.769681 0.089701
O O5 0.584044 0.500000 0.731475
O O6 0.655900 0.777089 0.538629
O O7 0.723967 0.500000 0.352133
O O8 0.602510 0.699592 0.473825
O O9 0.774380 0.777482 0.179571
O O10 0.789322 0.500000 0.061802
O O11 0.903978 0.259760 0.821628
O O12 0.727920 0.231637 0.083854
O O13 0.500000 0.230882 0.500000
O O14 0.584893 0.274465 0.209920
O O15 0.475537 0.000000 0.419094
O O16 0.092501 0.270389 0.497692
O O17 0.000000 0.268125 0.500000
O O18 0.995248 0.000000 0.609554
O O19 0.317572 0.000000 0.952344
O O20 0.238216 0.276196 0.146238
O O21 0.808250 0.000000 0.686022
#
# Coordination Sequence:
#
# PCOD9144340 Si02
#       8
#     4   4   4   4   4   4   4   4
#     4   9  17  32  56  80 101 130 168 208 249 295
#     4   8  16  33  54  76 104 137 168 198 245 309
#     4  10  20  33  49  70 102 138 168 204 252 301
#     4  11  22  32  47  73 100 129 168 213 248 284
#     4  10  19  29  45  68  97 134 171 204 235 286
#     4  10  20  37  56  70  94 137 174 203 255 311
#     4  10  19  33  48  66  99 138 169 198 243 304
#     4  10  20  33  52  75  99 128 164 207 257 306
#
# _framework density 19.627931
#
# number of rings (size 3 to 8) (size 9 to 14) (size 15 to 20)
#    0.000    2.250    2.500    1.875    0.000    2.500 
#    0.000    1.875    0.000    0.750    0.000    5.250 
#    0.000    0.000    0.000    0.000    0.000    0.000 
#
# Total GULP energy -178446.366453 kJ/mol
# GULP energy per Si atom -5576.448952 kJ/mol
# Density = 1.958326 g / cm^3
# Si number density = 19.627931 Si / 1000 Ang^3
#
#
#
# Elastic Constant Matrix: (Units=GPa)
#
#
# Indices 1 2 3 4 5 6 
#
# 1 70.9279 -9.7027 49.0757 0.0000 6.9389 0.0000
# 2 -9.7027 23.9516 -2.7427 0.0000 1.6119 0.0000
# 3 49.0757 -2.7427 161.2766 0.0000 10.9321 0.0000
# 4 0.0000 0.0000 0.0000 11.0697 0.0000 -8.7692
# 5 6.9389 1.6119 10.9321 0.0000 32.5437 0.0000
# 6 0.0000 0.0000 0.0000 -8.7692 0.0000 15.1955
#
#
#
# Elastic Compliance Matrix: (Units=1/GPa)
#
#
# Indices 1 2 3 4 5 6 
#
# 1 0.019184 0.007312 -0.005538 0.000000 -0.002592 0.000000
# 2 0.007312 0.044798 -0.001235 0.000000 -0.003363 0.000000
# 3 -0.005538 -0.001235 0.007962 0.000000 -0.001433 0.000000
# 4 0.000000 0.000000 0.000000 0.166414 0.000000 0.096036
# 5 -0.002592 -0.003363 -0.001433 0.000000 0.031928 0.000000
# 6 0.000000 0.000000 0.000000 0.096036 0.000000 0.121231
#
#
# Mechanical properties :
#
#
# Convention : Reuss Voigt Hill
#
# Bulk Modulus (GPa) = 13.69455 36.60186 25.14820
# Shear Modulus (GPa) = 12.05458 26.39682 19.22570
#
# Velocity S-wave (km/s) = 2.48090 3.67121 3.13310
# Velocity P-wave (km/s) = 3.89855 6.05464 5.09203
#
# Compressibility (1/GPa) = 0.07302174
#
# Stress axis : x y z
#
# Youngs Moduli (GPa) = 52.12630 22.32254 125.60144
#
# Poissons Ratio (x) = -0.16322 0.69553
# Poissons Ratio (y) = -0.38114 0.15514
# Poissons Ratio (z) = 0.28865 0.02757
#
# Static dielectric constant tensor:
#      x y z
#    x 1.676070 0.000000 0.030830 
#    y 0.000000 1.729760 0.000000 
#    z 0.030830 0.000000 1.747890 
# 
# From -- ./inp_files/65980.got.cif
#   From: 2010.05.17/outbox.cif.g08.bks.cpg/sg10_33_cif.got.tgz:65980.got - 2010.06.03 11:33:40.
