data_PCOD9144769
_publ_section_title
;
Structure prediction by ZEFSAII (Michael W. Deem and Ramdas Pophale) SiO2 
 PCOD9144769
Probable space group: P 2/M
;
_chemical_formula_sum "Si O2"
_cell_formula_units_Z 32
_cell_length_a 15.325244
_cell_length_b 7.606123
_cell_length_c 14.578610
_cell_angle_alpha 90.000000
_cell_angle_beta 92.309680
_cell_angle_gamma 90.000000
_cell_volume 1697.985183
_symmetry_space_group_name_H-M "P 2/M"
_symmetry_group_IT_number 10
_symmetry_cell_setting 'monoclinic'
loop_
_space_group_symop_operation_xyz
x,y,z
-x,y,-z
-x,-y,-z
x,-y,z
loop_
_atom_site_type_symbol
_atom_site_label
_atom_site_fract_x
_atom_site_fract_y
_atom_site_fract_z
Si Si1 0.588850 0.205259 0.463394
Si Si2 0.166285 0.295755 0.218877
Si Si3 0.014218 0.786076 0.696370
Si Si4 0.826649 0.787190 0.163658
Si Si5 0.097414 0.707700 0.025776
Si Si6 0.741822 0.703826 0.605305
Si Si7 0.872446 0.204570 0.459395
Si Si8 0.707749 0.793401 0.312269
O O1 0.500000 0.283653 0.500000
O O2 0.664779 0.210817 0.543289
O O3 0.630504 0.283388 0.371712
O O4 0.571091 0.000000 0.442486
O O5 0.191084 0.500000 0.206518
O O6 0.075472 0.286835 0.270163
O O7 0.236386 0.219373 0.293669
O O8 0.143752 0.217069 0.118572
O O9 0.088593 0.735151 0.772991
O O10 0.045663 0.728611 0.596419
O O11 0.010059 0.000000 0.694345
O O12 0.843089 0.728252 0.061238
O O13 0.741908 0.722075 0.216540
O O14 0.824131 0.000000 0.164175
O O15 0.084740 0.500000 0.043932
O O16 0.000000 0.780490 0.000000
O O17 0.718249 0.500000 0.613871
O O18 0.829816 0.712644 0.547092
O O19 0.793274 0.212058 0.381560
O O20 0.888336 0.000000 0.482533
O O21 0.688120 0.000000 0.297230
#
# Coordination Sequence:
#
# PCOD9144769 Si02
#       8
#     4   4   4   4   4   4   4   4
#     4   9  17  32  55  77  96 119 144 173 217 277
#     4  10  21  33  42  58  88 123 157 192 234 272
#     4   9  17  28  44  64  85 116 156 196 232 263
#     4   9  16  27  44  65  89 115 148 193 233 263
#     4  10  19  31  45  60  83 120 162 202 235 264
#     4  10  20  32  45  64  92 122 149 184 225 268
#     4   8  15  29  45  61  86 119 154 187 221 266
#     4   7  12  25  44  67  93 115 138 174 221 267
#
# _framework density 18.845866000000001
#
# number of rings (size 3 to 8) (size 9 to 14) (size 15 to 20)
#    0.000    3.000    1.250    2.625    0.000    3.000 
#    0.000    7.500    0.000    0.000    0.000    0.875 
#    0.000    7.000    0.000    0.000    0.000    0.000 
#
# Total GULP energy -178254.129361 kJ/mol
# GULP energy per Si atom -5570.441543 kJ/mol
# Density = 1.880297 g / cm^3
# Si number density = 18.845866 Si / 1000 Ang^3
#
#
#
# Elastic Constant Matrix: (Units=GPa)
#
#
# Indices 1 2 3 4 5 6 
#
# 1 62.1847 -10.2483 48.2207 0.0000 -23.2266 0.0000
# 2 -10.2483 34.8931 -4.8034 0.0000 -0.5198 0.0000
# 3 48.2207 -4.8034 139.4930 0.0000 -12.4939 0.0000
# 4 0.0000 0.0000 0.0000 15.8918 0.0000 -8.1144
# 5 -23.2266 -0.5198 -12.4939 0.0000 21.5606 0.0000
# 6 0.0000 0.0000 0.0000 -8.1144 0.0000 16.1368
#
#
#
# Elastic Compliance Matrix: (Units=1/GPa)
#
#
# Indices 1 2 3 4 5 6 
#
# 1 0.039304 0.010728 -0.009916 0.000000 0.036853 0.000000
# 2 0.010728 0.031760 -0.001594 0.000000 0.011399 0.000000
# 3 -0.009916 -0.001594 0.010106 0.000000 -0.004865 0.000000
# 4 0.000000 0.000000 0.000000 0.084664 0.000000 0.042573
# 5 0.036853 0.011399 -0.004865 0.000000 0.083537 0.000000
# 6 0.000000 0.000000 0.000000 0.042573 0.000000 0.083378
#
#
# Mechanical properties :
#
#
# Convention : Reuss Voigt Hill
#
# Bulk Modulus (GPa) = 12.56212 33.65655 23.10933
# Shear Modulus (GPa) = 13.85621 24.27796 19.06709
#
# Velocity S-wave (km/s) = 2.71447 3.59310 3.18423
# Velocity P-wave (km/s) = 4.06259 5.92549 5.08016
#
# Compressibility (1/GPa) = 0.07960441
#
# Stress axis : x y z
#
# Youngs Moduli (GPa) = 25.44298 31.48605 98.94922
#
# Poissons Ratio (x) = -0.33777 0.98123
# Poissons Ratio (y) = -0.27294 0.15770
# Poissons Ratio (z) = 0.25231 0.05018
#
# Static dielectric constant tensor:
#      x y z
#    x 1.662780 0.000000 -0.007600 
#    y 0.000000 1.710600 0.000000 
#    z -0.007600 0.000000 1.700270 
# 
# From -- ./inp_files/66144.got.cif
#   From: 2010.05.17/outbox.cif.g08.bks.cpg/sg10_34_cif.got.tgz:66144.got - 2010.06.03 11:33:40.
