data_PCOD9144659
_publ_section_title
;
Structure prediction by ZEFSAII (Michael W. Deem and Ramdas Pophale) SiO2 
 PCOD9144659
Probable space group: P 2/M
;
_chemical_formula_sum "Si O2"
_cell_formula_units_Z 20
_cell_length_a 5.055998
_cell_length_b 17.744393
_cell_length_c 14.422533
_cell_angle_alpha 90.000000
_cell_angle_beta 63.303582
_cell_angle_gamma 90.000000
_cell_volume 1155.993192
_symmetry_space_group_name_H-M "P 2/M"
_symmetry_group_IT_number 10
_symmetry_cell_setting 'monoclinic'
loop_
_space_group_symop_operation_xyz
x,y,z
-x,y,-z
-x,-y,-z
x,-y,z
loop_
_atom_site_type_symbol
_atom_site_label
_atom_site_fract_x
_atom_site_fract_y
_atom_site_fract_z
Si Si1 0.964573 0.821141 0.112709
Si Si2 0.064581 0.821200 0.385079
Si Si3 0.363551 0.269873 0.186551
Si Si4 0.331429 0.911184 0.686735
Si Si5 0.338325 0.415074 0.927167
O O1 0.221691 0.769111 0.117045
O O2 0.894261 0.889406 0.193949
O O3 0.329985 0.771279 0.839933
O O4 0.000000 0.843871 0.000000
O O5 0.142816 0.752024 0.304519
O O6 0.347488 0.877117 0.340923
O O7 0.000000 0.798091 0.500000
O O8 0.797259 0.867522 0.381681
O O9 0.460694 0.356054 0.160021
O O10 0.344947 0.000000 0.670659
O O11 0.319162 0.500000 0.890261
O O12 0.500000 0.419873 0.000000
O O13 0.000000 0.388516 0.000000
#
# Coordination Sequence:
#
# PCOD9144659 Si02
#       5
#     4   4   4   4   4
#     4  10  19  31  49  70  95 129 160 190 233 285
#     4  10  21  35  51  70  92 124 163 203 244 280
#     4  10  19  32  49  70  97 126 161 196 229 280
#     4  10  21  34  49  72  96 121 159 202 245 290
#     4  10  19  30  48  75 103 128 153 186 231 279
#
# _framework density 17.301138999999999
#
# number of rings (size 3 to 8) (size 9 to 14) (size 15 to 20)
#    0.000    2.000    0.000    4.800    0.000    2.800 
#    0.000    0.000    0.000    7.800    0.000    0.000 
#    0.000   14.400    0.000    0.000    0.000    4.000 
#
# Total GULP energy -111510.994333 kJ/mol
# GULP energy per Si atom -5575.549717 kJ/mol
# Density = 1.726176 g / cm^3
# Si number density = 17.301139 Si / 1000 Ang^3
#
#
#
# Elastic Constant Matrix: (Units=GPa)
#
#
# Indices 1 2 3 4 5 6 
#
# 1 76.4976 27.1087 0.2275 0.0000 3.0190 0.0000
# 2 27.1087 77.0155 37.6503 0.0000 -5.1612 0.0000
# 3 0.2275 37.6503 97.3530 0.0000 17.9112 0.0000
# 4 0.0000 0.0000 0.0000 1.1210 0.0000 -5.8985
# 5 3.0190 -5.1612 17.9112 0.0000 27.1202 0.0000
# 6 0.0000 0.0000 0.0000 -5.8985 0.0000 19.5340
#
#
#
# Elastic Compliance Matrix: (Units=1/GPa)
#
#
# Indices 1 2 3 4 5 6 
#
# 1 0.016215 -0.008214 0.004278 0.000000 -0.006194 0.000000
# 2 -0.008214 0.021916 -0.010691 0.000000 0.012146 0.000000
# 3 0.004278 -0.010691 0.016914 0.000000 -0.013681 0.000000
# 4 0.000000 0.000000 0.000000 -1.514985 0.000000 -0.457462
# 5 -0.006194 0.012146 -0.013681 0.000000 0.048910 0.000000
# 6 0.000000 0.000000 0.000000 -0.457462 0.000000 -0.086942
#
#
# Mechanical properties :
#
#
# Convention : Reuss Voigt Hill
#
# Bulk Modulus (GPa) = 38.77357 42.31546 40.54451
# Shear Modulus (GPa) = -3.42437 21.94702 9.26132
#
# Velocity S-wave (km/s) = -1.40839 3.56551 2.31617
# Velocity P-wave (km/s) = 4.45139 6.43908 5.53519
#
# Compressibility (1/GPa) = 0.02579077
#
# Stress axis : x y z
#
# Youngs Moduli (GPa) = 61.67174 45.62807 59.12317
#
# Poissons Ratio (x) = 0.37479 -0.25295
# Poissons Ratio (y) = 0.50658 0.63211
# Poissons Ratio (z) = -0.26386 0.48783
#
# Static dielectric constant tensor:
#      x y z
#    x 1.593660 0.000000 -0.001420 
#    y 0.000000 1.594070 0.000000 
#    z -0.001420 0.000000 1.622730 
# 
# From -- ./inp_files/59196.got.cif
#   From: 2010.05.17/outbox.cif.g08.bks.cpg/sg10_30_cif.got.tgz:59196.got - 2010.06.03 11:33:40.
