data_PCOD9144346
_publ_section_title
;
Structure prediction by ZEFSAII (Michael W. Deem and Ramdas Pophale) SiO2 
 PCOD9144346
Probable space group: P 2/M
;
_chemical_formula_sum "Si O2"
_cell_formula_units_Z 32
_cell_length_a 17.162683
_cell_length_b 12.958585
_cell_length_c 23.577437
_cell_angle_alpha 90.000000
_cell_angle_beta 158.866827
_cell_angle_gamma 90.000000
_cell_volume 1890.553993
_symmetry_space_group_name_H-M "P 2/M"
_symmetry_group_IT_number 10
_symmetry_cell_setting 'monoclinic'
loop_
_space_group_symop_operation_xyz
x,y,z
-x,y,-z
-x,-y,-z
x,-y,z
loop_
_atom_site_type_symbol
_atom_site_label
_atom_site_fract_x
_atom_site_fract_y
_atom_site_fract_z
Si Si1 0.876447 0.692200 0.161810
Si Si2 0.461597 0.380786 0.160765
Si Si3 0.963559 0.379232 0.342427
Si Si4 0.245500 0.623816 0.338556
Si Si5 0.453412 0.622810 0.656638
Si Si6 0.171538 0.625712 0.163412
Si Si7 0.579082 0.119982 0.989280
Si Si8 0.789678 0.233888 0.324012
O O1 0.856942 0.632509 0.208145
O O2 0.775747 0.804681 0.105689
O O3 0.120055 0.682196 0.303409
O O4 0.729695 0.641598 0.013006
O O5 0.526699 0.500000 0.199882
O O6 0.414323 0.363237 0.195040
O O7 0.657400 0.307563 0.276428
O O8 0.961882 0.500000 0.358531
O O9 0.855004 0.306925 0.315455
O O10 0.210319 0.341069 0.501083
O O11 0.500000 0.641594 0.500000
O O12 0.221162 0.500000 0.332448
O O13 0.135069 0.653331 0.203647
O O14 0.430292 0.500000 0.631642
O O15 0.594685 0.662039 0.700452
O O16 0.172010 0.500000 0.163150
O O17 0.000000 0.659611 0.000000
O O18 0.636194 0.000000 0.023440
O O19 0.500000 0.140586 0.000000
O O20 0.375877 0.148839 0.811483
O O21 0.000000 0.194942 0.500000
#
# Coordination Sequence:
#
# PCOD9144346 Si02
#       8
#     4   4   4   4   4   4   4   4
#     4  11  21  34  53  77 102 139 184 219 258 315
#     4  10  19  29  45  70 107 145 175 211 247 296
#     4  11  20  30  46  72 109 146 173 203 245 304
#     4  10  19  31  48  74 110 146 176 210 247 296
#     4   9  17  28  42  64  98 144 181 206 240 284
#     4   9  16  26  41  61  91 133 179 211 237 278
#     4  10  22  42  61  77  99 129 172 230 287 324
#     4  11  21  34  51  77 104 134 174 212 259 321
#
# _framework density 16.926255999999999
#
# number of rings (size 3 to 8) (size 9 to 14) (size 15 to 20)
#    0.000    1.875    2.500    3.000    0.000    4.750 
#    0.000    1.875    0.000    0.375    0.000    0.000 
#    0.000   12.500    0.000    0.000    0.000    0.000 
#
# Total GULP energy -178424.233775 kJ/mol
# GULP energy per Si atom -5575.757305 kJ/mol
# Density = 1.688773 g / cm^3
# Si number density = 16.926256 Si / 1000 Ang^3
#
#
#
# Elastic Constant Matrix: (Units=GPa)
#
#
# Indices 1 2 3 4 5 6 
#
# 1 63.1288 16.2645 4.4942 0.0000 6.8530 0.0000
# 2 16.2645 48.2536 13.7221 0.0000 6.0831 0.0000
# 3 4.4942 13.7221 60.0224 0.0000 0.3971 0.0000
# 4 0.0000 0.0000 0.0000 10.2227 0.0000 -0.9859
# 5 6.8530 6.0831 0.3971 0.0000 30.1279 0.0000
# 6 0.0000 0.0000 0.0000 -0.9859 0.0000 11.4295
#
#
#
# Elastic Compliance Matrix: (Units=1/GPa)
#
#
# Indices 1 2 3 4 5 6 
#
# 1 0.017587 -0.005557 -0.000027 0.000000 -0.002878 0.000000
# 2 -0.005557 0.024522 -0.005166 0.000000 -0.003619 0.000000
# 3 -0.000027 -0.005166 0.017838 0.000000 0.000814 0.000000
# 4 0.000000 0.000000 0.000000 0.098643 0.000000 0.008509
# 5 -0.002878 -0.003619 0.000814 0.000000 0.034566 0.000000
# 6 0.000000 0.000000 0.000000 0.008509 0.000000 0.088227
#
#
# Mechanical properties :
#
#
# Convention : Reuss Voigt Hill
#
# Bulk Modulus (GPa) = 26.01064 26.70739 26.35901
# Shear Modulus (GPa) = 15.83781 19.48427 17.66104
#
# Velocity S-wave (km/s) = 3.06223 3.39651 3.23369
# Velocity P-wave (km/s) = 5.28237 5.58521 5.43590
#
# Compressibility (1/GPa) = 0.03844581
#
# Stress axis : x y z
#
# Youngs Moduli (GPa) = 56.86086 40.77903 56.05950
#
# Poissons Ratio (x) = 0.22662 0.00153
# Poissons Ratio (y) = 0.31599 0.28961
# Poissons Ratio (z) = 0.00155 0.21067
#
# Static dielectric constant tensor:
#      x y z
#    x 1.598190 0.000000 -0.010790 
#    y 0.000000 1.517110 0.000000 
#    z -0.010790 0.000000 1.658920 
# 
# From -- ./inp_files/61562.got.cif
#   From: 2010.05.17/outbox.cif.g08.bks.cpg/sg10_31_cif.got.tgz:61562.got - 2010.06.03 11:33:40.
