data_PCOD9144841
_publ_section_title
;
Structure prediction by ZEFSAII (Michael W. Deem and Ramdas Pophale) SiO2 
 PCOD9144841
Probable space group: P 2/M
;
_chemical_formula_sum "Si O2"
_cell_formula_units_Z 28
_cell_length_a 9.328959
_cell_length_b 12.223180
_cell_length_c 15.224784
_cell_angle_alpha 90.000000
_cell_angle_beta 72.817987
_cell_angle_gamma 90.000000
_cell_volume 1658.596149
_symmetry_space_group_name_H-M "P 2/M"
_symmetry_group_IT_number 10
_symmetry_cell_setting 'monoclinic'
loop_
_space_group_symop_operation_xyz
x,y,z
-x,y,-z
-x,-y,-z
x,-y,z
loop_
_atom_site_type_symbol
_atom_site_label
_atom_site_fract_x
_atom_site_fract_y
_atom_site_fract_z
Si Si1 0.232205 0.869392 0.234458
Si Si2 0.382605 0.370277 0.941814
Si Si3 0.854386 0.779805 0.932559
Si Si4 0.040564 0.867738 0.590482
Si Si5 0.148102 0.117490 0.887914
Si Si6 0.447067 0.211645 0.767843
Si Si7 0.374520 0.869377 0.598053
O O1 0.226154 0.811232 0.141738
O O2 0.388027 0.837239 0.250881
O O3 0.088906 0.833891 0.318102
O O4 0.225598 0.000000 0.224500
O O5 0.377824 0.500000 0.930710
O O6 0.427109 0.311072 0.841836
O O7 0.500000 0.345282 0.000000
O O8 0.224199 0.322992 0.006883
O O9 0.033019 0.786144 0.882188
O O10 0.838528 0.873287 0.009655
O O11 0.208635 0.842051 0.591650
O O12 0.000000 0.827662 0.500000
O O13 0.034311 0.000000 0.588510
O O14 0.313250 0.132386 0.822482
O O15 0.088792 0.000000 0.868539
O O16 0.415834 0.213354 0.669404
O O17 0.500000 0.861221 0.500000
O O18 0.373484 0.000000 0.625403
#
# Coordination Sequence:
#
# PCOD9144841 Si02
#       7
#     4   4   4   4   4   4   4
#     4  11  19  28  46  72 105 135 175 216 251 314
#     4  10  21  40  58  74 101 135 180 239 286 319
#     4  10  19  32  48  73  95 134 174 212 262 320
#     4   9  18  31  47  70 103 146 183 210 244 294
#     4  10  19  31  47  69 110 144 167 206 259 318
#     4  11  21  33  51  79 103 142 186 216 267 323
#     4  10  19  32  51  77 115 150 176 212 259 316
#
# _framework density 16.881747000000001
#
# number of rings (size 3 to 8) (size 9 to 14) (size 15 to 20)
#    0.000    1.857    1.429    4.714    0.000    3.429 
#    0.000    7.857    0.000    0.429    0.000    0.000 
#    0.000    4.000    0.000    0.000    0.000    0.000 
#
# Total GULP energy -155887.835361 kJ/mol
# GULP energy per Si atom -5567.422691 kJ/mol
# Density = 1.684332 g / cm^3
# Si number density = 16.881747 Si / 1000 Ang^3
#
#
#
# Elastic Constant Matrix: (Units=GPa)
#
#
# Indices 1 2 3 4 5 6 
#
# 1 122.5882 22.5730 52.8833 0.0000 -6.4593 0.0000
# 2 22.5730 60.3898 34.9161 0.0000 1.3505 0.0000
# 3 52.8833 34.9161 104.1723 0.0000 4.4413 0.0000
# 4 0.0000 0.0000 0.0000 12.3052 0.0000 1.9430
# 5 -6.4593 1.3505 4.4413 0.0000 37.7325 0.0000
# 6 0.0000 0.0000 0.0000 1.9430 0.0000 15.9411
#
#
#
# Elastic Compliance Matrix: (Units=1/GPa)
#
#
# Indices 1 2 3 4 5 6 
#
# 1 0.010725 -0.001061 -0.005195 0.000000 0.002485 0.000000
# 2 -0.001061 0.020645 -0.006374 0.000000 -0.000170 0.000000
# 3 -0.005195 -0.006374 0.014474 0.000000 -0.002365 0.000000
# 4 0.000000 0.000000 0.000000 0.082861 0.000000 -0.010100
# 5 0.002485 -0.000170 -0.002365 0.000000 0.027212 0.000000
# 6 0.000000 0.000000 0.000000 -0.010100 0.000000 0.063962
#
#
# Mechanical properties :
#
#
# Convention : Reuss Voigt Hill
#
# Bulk Modulus (GPa) = 48.58084 56.43279 52.50681
# Shear Modulus (GPa) = 19.84138 24.98095 22.41117
#
# Velocity S-wave (km/s) = 3.43201 3.85094 3.64749
# Velocity P-wave (km/s) = 6.67417 7.29889 6.99351
#
# Compressibility (1/GPa) = 0.02058425
#
# Stress axis : x y z
#
# Youngs Moduli (GPa) = 93.24294 48.43878 69.09030
#
# Poissons Ratio (x) = 0.05138 0.35891
# Poissons Ratio (y) = 0.09891 0.44037
# Poissons Ratio (z) = 0.48438 0.30874
#
# Static dielectric constant tensor:
#      x y z
#    x 1.623310 0.000000 -0.006820 
#    y 0.000000 1.542070 0.000000 
#    z -0.006820 0.000000 1.624900 
# 
# From -- ./inp_files/60941.got.cif
#   From: 2010.05.17/outbox.cif.g08.bks.cpg/sg10_31_cif.got.tgz:60941.got - 2010.06.03 11:33:40.
