data_PCOD9144333
_publ_section_title
;
Structure prediction by ZEFSAII (Michael W. Deem and Ramdas Pophale) SiO2 
 PCOD9144333
Probable space group: P 2/M
;
_chemical_formula_sum "Si O2"
_cell_formula_units_Z 24
_cell_length_a 19.222267
_cell_length_b 8.163545
_cell_length_c 11.403116
_cell_angle_alpha 90.000000
_cell_angle_beta 146.735318
_cell_angle_gamma 90.000000
_cell_volume 981.498220
_symmetry_space_group_name_H-M "P 2/M"
_symmetry_group_IT_number 10
_symmetry_cell_setting 'monoclinic'
loop_
_space_group_symop_operation_xyz
x,y,z
-x,y,-z
-x,-y,-z
x,-y,z
loop_
_atom_site_type_symbol
_atom_site_label
_atom_site_fract_x
_atom_site_fract_y
_atom_site_fract_z
Si Si1 0.356262 0.321541 0.339119
Si Si2 0.749376 0.804599 0.052420
Si Si3 0.651614 0.184852 0.410162
Si Si4 0.022289 0.804203 0.383689
Si Si5 0.320500 0.199743 0.804535
Si Si6 0.923398 0.687782 0.773525
O O1 0.500000 0.334692 0.500000
O O2 0.293252 0.500000 0.257523
O O3 0.367133 0.257833 0.487382
O O4 0.293202 0.230613 0.139731
O O5 0.654172 0.747784 0.023741
O O6 0.896767 0.746362 0.277135
O O7 0.754153 0.000000 0.072097
O O8 0.617386 0.256824 0.231741
O O9 0.804182 0.192872 0.615928
O O10 0.601761 0.000000 0.342880
O O11 0.170345 0.752322 0.590878
O O12 0.987176 0.752768 0.202422
O O13 0.026902 0.000000 0.404919
O O14 0.330825 0.000000 0.812528
O O15 0.880988 0.500000 0.690818
O O16 0.000000 0.688076 0.000000
#
# Coordination Sequence:
#
# PCOD9144333 Si02
#       6
#     4   4   4   4   4   4
#     4  11  25  43  59  77 106 143 183 231 284 333
#     4  10  19  34  59  86 112 145 185 229 272 318
#     4  10  20  36  59  82 106 139 180 227 275 325
#     4   9  17  29  49  79 114 149 182 216 259 316
#     4   8  16  32  55  86 119 146 175 216 269 325
#     4  10  19  29  44  71 110 151 185 219 262 315
#
# _framework density 24.452413
#
# number of rings (size 3 to 8) (size 9 to 14) (size 15 to 20)
#    0.000    2.333    0.000    4.000    0.000    8.000 
#    0.000    5.000    0.000   10.000    0.000    0.000 
#    0.000    0.000    0.000    0.000    0.000    0.000 
#
# Total GULP energy -133620.526104 kJ/mol
# GULP energy per Si atom -5567.521921 kJ/mol
# Density = 2.439676 g / cm^3
# Si number density = 24.452413 Si / 1000 Ang^3
#
#
#
# Elastic Constant Matrix: (Units=GPa)
#
#
# Indices 1 2 3 4 5 6 
#
# 1 204.4259 22.1211 24.1416 0.0000 -60.7803 0.0000
# 2 22.1211 26.6551 14.9786 0.0000 -16.0873 0.0000
# 3 24.1416 14.9786 86.5814 0.0000 -25.3690 0.0000
# 4 0.0000 0.0000 0.0000 -23.8930 0.0000 33.6838
# 5 -60.7803 -16.0873 -25.3690 0.0000 49.6472 0.0000
# 6 0.0000 0.0000 0.0000 33.6838 0.0000 -23.7967
#
#
#
# Elastic Compliance Matrix: (Units=1/GPa)
#
#
# Indices 1 2 3 4 5 6 
#
# 1 0.007757 -0.001140 0.000833 0.000000 0.009553 0.000000
# 2 -0.001140 0.048194 -0.004531 0.000000 0.011905 0.000000
# 3 0.000833 -0.004531 0.014078 0.000000 0.006746 0.000000
# 4 0.000000 0.000000 0.000000 0.042042 0.000000 0.059510
# 5 0.009553 0.011905 0.006746 0.000000 0.039141 0.000000
# 6 0.000000 0.000000 0.000000 0.059510 0.000000 0.042212
#
#
# Mechanical properties :
#
#
# Convention : Reuss Voigt Hill
#
# Bulk Modulus (GPa) = 16.56940 48.90497 32.73719
# Shear Modulus (GPa) = 22.39958 17.48626 19.94292
#
# Velocity S-wave (km/s) = 3.02991 2.67706 2.85894
# Velocity P-wave (km/s) = 4.36250 5.44050 4.93105
#
# Compressibility (1/GPa) = 0.06035220
#
# Stress axis : x y z
#
# Youngs Moduli (GPa) = 128.91623 20.74943 71.03343
#
# Poissons Ratio (x) = 0.02366 -0.05920
# Poissons Ratio (y) = 0.14702 0.32188
# Poissons Ratio (z) = -0.10744 0.09402
#
# Static dielectric constant tensor:
#      x y z
#    x 2.065520 0.000000 -0.191490 
#    y 0.000000 1.938000 0.000000 
#    z -0.191490 0.000000 2.417400 
# 
# From -- ./inp_files/55050.got.cif
#   From: 2010.05.17/outbox.cif.g08.bks.cpg/sg10_28_cif.got.tgz:55050.got - 2010.06.03 11:33:40.
