data_PCOD9144615
_publ_section_title
;
Structure prediction by ZEFSAII (Michael W. Deem and Ramdas Pophale) SiO2 
 PCOD9144615
Probable space group: P 2/M
;
_chemical_formula_sum "Si O2"
_cell_formula_units_Z 24
_cell_length_a 19.230470
_cell_length_b 10.732836
_cell_length_c 12.702716
_cell_angle_alpha 90.000000
_cell_angle_beta 29.405098
_cell_angle_gamma 90.000000
_cell_volume 1287.258905
_symmetry_space_group_name_H-M "P 2/M"
_symmetry_group_IT_number 10
_symmetry_cell_setting 'monoclinic'
loop_
_space_group_symop_operation_xyz
x,y,z
-x,y,-z
-x,-y,-z
x,-y,z
loop_
_atom_site_type_symbol
_atom_site_label
_atom_site_fract_x
_atom_site_fract_y
_atom_site_fract_z
Si Si1 0.450948 0.855489 0.734302
Si Si2 0.338496 0.633694 0.752214
Si Si3 0.958716 0.857269 0.212586
Si Si4 0.603183 0.150714 0.953127
Si Si5 0.225114 0.213940 0.731114
Si Si6 0.075118 0.151581 0.507215
O O1 0.348925 0.757926 0.809465
O O2 0.442822 0.821198 0.867856
O O3 0.616270 0.842691 0.482512
O O4 0.407309 0.000000 0.776561
O O5 0.500000 0.624156 0.500000
O O6 0.300243 0.500000 0.852074
O O7 0.245451 0.660413 0.771485
O O8 0.845340 0.782002 0.291338
O O9 0.977307 0.810861 0.307504
O O10 0.903835 0.000000 0.289212
O O11 0.107420 0.858151 0.954896
O O12 0.601445 0.000000 0.949499
O O13 0.500000 0.200585 0.000000
O O14 0.762086 0.188750 0.718626
O O15 0.000000 0.196704 0.500000
O O16 0.064126 0.000000 0.520122
#
# Coordination Sequence:
#
# PCOD9144615 Si02
#       6
#     4   4   4   4   4   4
#     4  10  19  30  52  81 107 133 171 220 264 307
#     4   9  20  36  51  71 104 141 172 208 261 318
#     4  10  19  30  47  73 111 142 167 209 262 314
#     4   9  17  29  46  72 105 138 173 215 260 306
#     4  10  19  31  49  75 103 135 173 208 265 311
#     4   9  18  30  44  65 101 147 178 201 249 316
#
# _framework density 18.644266999999999
#
# number of rings (size 3 to 8) (size 9 to 14) (size 15 to 20)
#    0.000    2.500    0.000    3.000    2.333    7.000 
#    0.000    1.667    0.000    0.500    0.000    3.500 
#    0.000    0.000    0.000    0.000    0.000    0.000 
#
# Total GULP energy -133604.873095 kJ/mol
# GULP energy per Si atom -5566.869712 kJ/mol
# Density = 1.860183 g / cm^3
# Si number density = 18.644267 Si / 1000 Ang^3
#
#
#
# Elastic Constant Matrix: (Units=GPa)
#
#
# Indices 1 2 3 4 5 6 
#
# 1 157.7076 38.0318 45.0019 0.0000 12.6531 0.0000
# 2 38.0318 67.1016 1.8549 0.0000 5.9906 0.0000
# 3 45.0019 1.8549 62.6008 0.0000 15.2131 0.0000
# 4 0.0000 0.0000 0.0000 -6.8414 0.0000 -3.7134
# 5 12.6531 5.9906 15.2131 0.0000 27.2188 0.0000
# 6 0.0000 0.0000 0.0000 -3.7134 0.0000 -44.2512
#
#
#
# Elastic Compliance Matrix: (Units=1/GPa)
#
#
# Indices 1 2 3 4 5 6 
#
# 1 0.009506 -0.005248 -0.006810 0.000000 0.000542 0.000000
# 2 -0.005248 0.018108 0.004179 0.000000 -0.003882 0.000000
# 3 -0.006810 0.004179 0.023375 0.000000 -0.010819 0.000000
# 4 0.000000 0.000000 0.000000 -0.153144 0.000000 0.012851
# 5 0.000542 -0.003882 -0.010819 0.000000 0.043389 0.000000
# 6 0.000000 0.000000 0.000000 0.012851 0.000000 -0.023677
#
#
# Mechanical properties :
#
#
# Convention : Reuss Voigt Hill
#
# Bulk Modulus (GPa) = 28.38297 50.79858 39.59077
# Shear Modulus (GPa) = -91.00650 8.72666 -41.13992
#
# Velocity S-wave (km/s) = -6.99414 2.16582 -4.70251
# Velocity P-wave (km/s) = 7.06877 5.79308 2.86425
#
# Compressibility (1/GPa) = 0.03523240
#
# Stress axis : x y z
#
# Youngs Moduli (GPa) = 105.19486 55.22331 42.78068
#
# Poissons Ratio (x) = 0.28982 0.29133
# Poissons Ratio (y) = 0.55207 -0.17880
# Poissons Ratio (z) = 0.71637 -0.23080
#
# Static dielectric constant tensor:
#      x y z
#    x 1.686480 0.000000 0.007180 
#    y 0.000000 1.657020 0.000000 
#    z 0.007180 0.000000 1.654480 
# 
# From -- ./inp_files/53588.got.cif
#   From: 2010.05.17/outbox.cif.g08.bks.cpg/sg10_27_cif.got.tgz:53588.got - 2010.06.03 11:33:40.
