data_PCOD9144275
_publ_section_title
;
Structure prediction by ZEFSAII (Michael W. Deem and Ramdas Pophale) SiO2 
 PCOD9144275
Probable space group: P 2/M
;
_chemical_formula_sum "Si O2"
_cell_formula_units_Z 32
_cell_length_a 14.572006
_cell_length_b 9.443320
_cell_length_c 14.699149
_cell_angle_alpha 90.000000
_cell_angle_beta 107.100231
_cell_angle_gamma 90.000000
_cell_volume 1933.301348
_symmetry_space_group_name_H-M "P 2/M"
_symmetry_group_IT_number 10
_symmetry_cell_setting 'monoclinic'
loop_
_space_group_symop_operation_xyz
x,y,z
-x,y,-z
-x,-y,-z
x,-y,z
loop_
_atom_site_type_symbol
_atom_site_label
_atom_site_fract_x
_atom_site_fract_y
_atom_site_fract_z
Si Si1 0.055361 0.337564 0.815809
Si Si2 0.890233 0.838336 0.001938
Si Si3 0.263929 0.829199 0.196764
Si Si4 0.214146 0.335303 0.712785
Si Si5 0.365836 0.170958 0.879604
Si Si6 0.891736 0.327625 0.494450
Si Si7 0.413590 0.828843 0.094268
Si Si8 0.152999 0.328580 0.311282
O O1 0.048546 0.500000 0.844059
O O2 0.112041 0.252506 0.908232
O O3 0.114524 0.333333 0.739958
O O4 0.947667 0.286080 0.766050
O O5 0.865252 0.000000 0.017518
O O6 0.819792 0.794825 0.900829
O O7 0.000000 0.832641 0.000000
O O8 0.359993 0.784911 0.170633
O O9 0.237597 0.748041 0.281160
O O10 0.264129 0.000000 0.211010
O O11 0.245474 0.500000 0.717449
O O12 0.290186 0.245289 0.791861
O O13 0.185192 0.282869 0.604189
O O14 0.474515 0.208181 0.880407
O O15 0.355402 0.000000 0.872668
O O16 0.361090 0.215550 0.984899
O O17 0.894539 0.500000 0.492128
O O18 0.859529 0.288721 0.586638
O O19 0.000000 0.279873 0.500000
O O20 0.409416 0.000000 0.091593
O O21 0.161500 0.500000 0.308424
#
# Coordination Sequence:
#
# PCOD9144275 Si02
#       8
#     4   4   4   4   4   4   4   4
#     4  10  19  29  44  67  95 125 159 194 229 278
#     4  10  19  29  42  64  94 127 158 188 229 279
#     4  10  19  32  48  67  96 131 161 192 235 287
#     4  10  19  31  50  75  98 123 158 202 250 290
#     4   9  17  33  55  76  96 123 163 204 239 285
#     4   9  16  31  52  69  92 130 169 199 235 290
#     4   8  16  32  54  74  95 130 167 192 231 297
#     4  10  19  31  48  69  92 125 166 199 229 275
#
# _framework density 16.551998000000001
#
# number of rings (size 3 to 8) (size 9 to 14) (size 15 to 20)
#    0.000    2.500    2.500    1.500    0.000    2.250 
#    0.000    3.125    0.000    1.500    0.000    5.250 
#    0.000    0.000    0.000    0.000    0.000    0.000 
#
# Total GULP energy -178293.320411 kJ/mol
# GULP energy per Si atom -5571.666263 kJ/mol
# Density = 1.651432 g / cm^3
# Si number density = 16.551998 Si / 1000 Ang^3
#
#
#
# Elastic Constant Matrix: (Units=GPa)
#
#
# Indices 1 2 3 4 5 6 
#
# 1 78.1059 18.6235 41.7045 0.0000 -13.4170 0.0000
# 2 18.6235 15.3368 32.0149 0.0000 -4.4605 0.0000
# 3 41.7045 32.0149 106.7435 0.0000 -16.4337 0.0000
# 4 0.0000 0.0000 0.0000 26.7739 0.0000 -6.8941
# 5 -13.4170 -4.4605 -16.4337 0.0000 28.4673 0.0000
# 6 0.0000 0.0000 0.0000 -6.8941 0.0000 22.8511
#
#
#
# Elastic Compliance Matrix: (Units=1/GPa)
#
#
# Indices 1 2 3 4 5 6 
#
# 1 0.018825 -0.020519 -0.000362 0.000000 0.005448 0.000000
# 2 -0.020519 0.196998 -0.052467 0.000000 -0.009092 0.000000
# 3 -0.000362 -0.052467 0.026291 0.000000 0.006785 0.000000
# 4 0.000000 0.000000 0.000000 0.040496 0.000000 0.012217
# 5 0.005448 -0.009092 0.006785 0.000000 0.040188 0.000000
# 6 0.000000 0.000000 0.000000 0.012217 0.000000 0.047447
#
#
# Mechanical properties :
#
#
# Convention : Reuss Voigt Hill
#
# Bulk Modulus (GPa) = 10.48033 42.76355 26.62194
# Shear Modulus (GPa) = 9.11168 22.80802 15.95985
#
# Velocity S-wave (km/s) = 2.34879 3.71612 3.10857
# Velocity P-wave (km/s) = 3.70152 6.65618 5.38544
#
# Compressibility (1/GPa) = 0.09541686
#
# Stress axis : x y z
#
# Youngs Moduli (GPa) = 53.12149 5.07620 38.03655
#
# Poissons Ratio (x) = 0.10416 0.01377
# Poissons Ratio (y) = 1.08999 1.99568
# Poissons Ratio (z) = 0.01923 0.26633
#
# Static dielectric constant tensor:
#      x y z
#    x 1.580760 0.000000 -0.017010 
#    y 0.000000 1.557060 0.000000 
#    z -0.017010 0.000000 1.563320 
# 
# From -- ./inp_files/66195.got.cif
#   From: 2010.05.17/outbox.cif.g08.bks.cpg/sg10_34_cif.got.tgz:66195.got - 2010.06.03 11:33:40.
