data_PCOD9144830
_publ_section_title
;
Structure prediction by ZEFSAII (Michael W. Deem and Ramdas Pophale) SiO2 
 PCOD9144830
Probable space group: P 2/M
;
_chemical_formula_sum "Si O2"
_cell_formula_units_Z 28
_cell_length_a 15.340116
_cell_length_b 9.025708
_cell_length_c 19.654567
_cell_angle_alpha 90.000000
_cell_angle_beta 37.388871
_cell_angle_gamma 90.000000
_cell_volume 1652.420446
_symmetry_space_group_name_H-M "P 2/M"
_symmetry_group_IT_number 10
_symmetry_cell_setting 'monoclinic'
loop_
_space_group_symop_operation_xyz
x,y,z
-x,y,-z
-x,-y,-z
x,-y,z
loop_
_atom_site_type_symbol
_atom_site_label
_atom_site_fract_x
_atom_site_fract_y
_atom_site_fract_z
Si Si1 0.472667 0.669963 0.231331
Si Si2 0.570247 0.320774 0.028369
Si Si3 0.730954 0.178078 0.244678
Si Si4 0.178758 0.819964 0.660077
Si Si5 0.812481 0.329301 0.059831
Si Si6 0.132756 0.822560 0.112609
Si Si7 0.401703 0.177175 0.409192
O O1 0.424566 0.500000 0.262594
O O2 0.641882 0.672631 0.146766
O O3 0.391411 0.759390 0.339729
O O4 0.472860 0.725325 0.153553
O O5 0.585179 0.500000 0.023332
O O6 0.725681 0.248781 0.942848
O O7 0.500000 0.282862 0.000000
O O8 0.770724 0.226190 0.295991
O O9 0.819883 0.257198 0.129695
O O10 0.562106 0.210136 0.337149
O O11 0.750925 0.000000 0.226535
O O12 0.282908 0.766065 0.535840
O O13 0.011663 0.781322 0.757588
O O14 0.188035 0.000000 0.654158
O O15 0.859678 0.500000 0.030185
O O16 0.882311 0.236827 0.955419
O O17 0.146477 0.000000 0.102030
O O18 0.390518 0.000000 0.412665
#
# Coordination Sequence:
#
# PCOD9144830 Si02
#       7
#     4   4   4   4   4   4   4
#     4   8  15  28  46  68  91 114 143 183 229 271
#     4   9  18  34  55  75  95 117 142 181 232 280
#     4   9  16  28  47  67  87 119 165 205 232 263
#     4   9  18  30  44  65  94 126 157 194 235 268
#     4   9  17  30  45  63  92 124 155 194 236 275
#     4  10  19  31  47  68  95 123 152 186 228 280
#     4   9  16  28  47  67  89 122 162 195 224 263
#
# _framework density 16.944839999999999
#
# number of rings (size 3 to 8) (size 9 to 14) (size 15 to 20)
#    0.000    3.000    0.000    2.143    0.000    6.000 
#    0.000    6.429    0.000    4.286    0.000    6.000 
#    0.000    0.000    0.000    0.000    0.000    0.000 
#
# Total GULP energy -156035.672674 kJ/mol
# GULP energy per Si atom -5572.702595 kJ/mol
# Density = 1.690627 g / cm^3
# Si number density = 16.944840 Si / 1000 Ang^3
#
#
#
# Elastic Constant Matrix: (Units=GPa)
#
#
# Indices 1 2 3 4 5 6 
#
# 1 97.2301 27.5180 65.3726 0.0000 24.5523 0.0000
# 2 27.5180 24.5283 35.4522 0.0000 0.8134 0.0000
# 3 65.3726 35.4522 118.7446 0.0000 15.5026 0.0000
# 4 0.0000 0.0000 0.0000 6.9747 0.0000 9.5115
# 5 24.5523 0.8134 15.5026 0.0000 20.5942 0.0000
# 6 0.0000 0.0000 0.0000 9.5115 0.0000 17.2447
#
#
#
# Elastic Compliance Matrix: (Units=1/GPa)
#
#
# Indices 1 2 3 4 5 6 
#
# 1 0.026499 -0.022736 -0.004207 0.000000 -0.027528 0.000000
# 2 -0.022736 0.095495 -0.021115 0.000000 0.039229 0.000000
# 3 -0.004207 -0.021115 0.018052 0.000000 -0.007740 0.000000
# 4 0.000000 0.000000 0.000000 0.578519 0.000000 -0.319087
# 5 -0.027528 0.039229 -0.007740 0.000000 0.085652 0.000000
# 6 0.000000 0.000000 0.000000 -0.319087 0.000000 0.233984
#
#
# Mechanical properties :
#
#
# Convention : Reuss Voigt Hill
#
# Bulk Modulus (GPa) = 22.76358 55.24316 39.00337
# Shear Modulus (GPa) = 4.35176 16.44008 10.39592
#
# Velocity S-wave (km/s) = 1.60430 3.11820 2.47961
# Velocity P-wave (km/s) = 4.11033 6.75550 5.59158
#
# Compressibility (1/GPa) = 0.04392982
#
# Stress axis : x y z
#
# Youngs Moduli (GPa) = 37.73693 10.47175 55.39536
#
# Poissons Ratio (x) = 0.23809 0.23304
# Poissons Ratio (y) = 0.85798 1.16970
# Poissons Ratio (z) = 0.15875 0.22112
#
# Static dielectric constant tensor:
#      x y z
#    x 1.571560 0.000000 0.001520 
#    y 0.000000 1.572240 0.000000 
#    z 0.001520 0.000000 1.584810 
# 
# From -- ./inp_files/54666.got.cif
#   From: 2010.05.17/outbox.cif.g08.bks.cpg/sg10_28_cif.got.tgz:54666.got - 2010.06.03 11:33:40.
