data_PCOD9144317
_publ_section_title
;
Structure prediction by ZEFSAII (Michael W. Deem and Ramdas Pophale) SiO2 
 PCOD9144317
Probable space group: P 2/M
;
_chemical_formula_sum "Si O2"
_cell_formula_units_Z 28
_cell_length_a 16.483612
_cell_length_b 8.828801
_cell_length_c 16.349566
_cell_angle_alpha 90.000000
_cell_angle_beta 49.922217
_cell_angle_gamma 90.000000
_cell_volume 1820.618300
_symmetry_space_group_name_H-M "P 2/M"
_symmetry_group_IT_number 10
_symmetry_cell_setting 'monoclinic'
loop_
_space_group_symop_operation_xyz
x,y,z
-x,y,-z
-x,-y,-z
x,-y,z
loop_
_atom_site_type_symbol
_atom_site_label
_atom_site_fract_x
_atom_site_fract_y
_atom_site_fract_z
Si Si1 0.838937 0.319056 0.619999
Si Si2 0.791937 0.319794 0.024905
Si Si3 0.631897 0.817986 0.826147
Si Si4 0.022856 0.181157 0.609768
Si Si5 0.386789 0.181604 0.971300
Si Si6 0.885275 0.825672 0.119431
Si Si7 0.984469 0.319715 0.207841
O O1 0.849076 0.500000 0.611114
O O2 0.720463 0.267777 0.717515
O O3 0.883259 0.247228 0.507548
O O4 0.915977 0.252019 0.640338
O O5 0.789430 0.500000 0.036301
O O6 0.690647 0.261851 0.041446
O O7 0.805870 0.243856 0.104516
O O8 0.897848 0.282848 0.903369
O O9 0.511051 0.781525 0.879896
O O10 0.645774 0.000000 0.809474
O O11 0.642515 0.780094 0.915722
O O12 0.033140 0.233456 0.696202
O O13 0.018915 0.000000 0.605532
O O14 0.375879 0.000000 0.970345
O O15 0.902374 0.732192 0.191146
O O16 0.859745 0.000000 0.153979
O O17 0.000000 0.821780 0.000000
O O18 0.978680 0.500000 0.224079
#
# Coordination Sequence:
#
# PCOD9144317 Si02
#       7
#     4   4   4   4   4   4   4
#     4  11  21  33  48  68  94 122 153 193 235 271
#     4  10  19  29  44  67  96 126 154 189 232 274
#     4   9  18  33  49  67  92 123 157 192 230 271
#     4  11  21  33  49  68  91 123 159 190 225 274
#     4   9  18  31  48  68  92 123 158 192 226 271
#     4   9  17  29  45  65  90 122 157 189 225 273
#     4  10  19  31  46  68  97 124 152 190 233 274
#
# _framework density 15.379391
#
# number of rings (size 3 to 8) (size 9 to 14) (size 15 to 20)
#    0.000    2.143    0.000    6.429    0.000    6.857 
#    0.000    1.429    0.000    0.000    0.000    1.000 
#    0.000    8.000    0.000    0.000    0.000    0.000 
#
# Total GULP energy -156239.253149 kJ/mol
# GULP energy per Si atom -5579.973327 kJ/mol
# Density = 1.534439 g / cm^3
# Si number density = 15.379391 Si / 1000 Ang^3
#
#
#
# Elastic Constant Matrix: (Units=GPa)
#
#
# Indices 1 2 3 4 5 6 
#
# 1 104.8199 48.6579 44.6659 0.0000 10.8343 0.0000
# 2 48.6579 91.6243 48.6757 0.0000 5.3030 0.0000
# 3 44.6659 48.6757 73.1176 0.0000 4.3920 0.0000
# 4 0.0000 0.0000 0.0000 18.5798 0.0000 39.5531
# 5 10.8343 5.3030 4.3920 0.0000 21.4637 0.0000
# 6 0.0000 0.0000 0.0000 39.5531 0.0000 -318.4762
#
#
#
# Elastic Compliance Matrix: (Units=1/GPa)
#
#
# Indices 1 2 3 4 5 6 
#
# 1 0.014514 -0.004434 -0.005609 0.000000 -0.005083 0.000000
# 2 -0.004434 0.018317 -0.009464 0.000000 -0.000351 0.000000
# 3 -0.005609 -0.009464 0.023381 0.000000 0.000386 0.000000
# 4 0.000000 0.000000 0.000000 0.042568 0.000000 0.005287
# 5 -0.005083 -0.000351 0.000386 0.000000 0.049164 0.000000
# 6 0.000000 0.000000 0.000000 0.005287 0.000000 -0.002483
#
#
# Mechanical properties :
#
#
# Convention : Reuss Voigt Hill
#
# Bulk Modulus (GPa) = 58.15046 61.50674 59.82860
# Shear Modulus (GPa) = 26.28718 -47.18238 -10.44760
#
# Velocity S-wave (km/s) = 4.13879 -5.54487 -2.60921
# Velocity P-wave (km/s) = 7.79308 0.95619 5.46891
#
# Compressibility (1/GPa) = 0.01719677
#
# Stress axis : x y z
#
# Youngs Moduli (GPa) = 68.89946 54.59428 42.77020
#
# Poissons Ratio (x) = 0.24204 0.23992
# Poissons Ratio (y) = 0.30547 0.40480
# Poissons Ratio (z) = 0.38649 0.51671
#
# Static dielectric constant tensor:
#      x y z
#    x 1.497060 0.000000 0.000060 
#    y 0.000000 1.512250 0.000000 
#    z 0.000060 0.000000 1.495860 
# 
# From -- ./inp_files/49619.got.cif
#   From: 2010.05.17/outbox.cif.g08.bks.cpg/sg10_25_cif.got.tgz:49619.got - 2010.06.03 11:33:40.
