data_PCOD9144433
_publ_section_title
;
Structure prediction by ZEFSAII (Michael W. Deem and Ramdas Pophale) SiO2 
 PCOD9144433
Probable space group: P 2/M
;
_chemical_formula_sum "Si O2"
_cell_formula_units_Z 24
_cell_length_a 24.481462
_cell_length_b 14.087970
_cell_length_c 12.811106
_cell_angle_alpha 90.000000
_cell_angle_beta 160.107540
_cell_angle_gamma 90.000000
_cell_volume 1503.411745
_symmetry_space_group_name_H-M "P 2/M"
_symmetry_group_IT_number 10
_symmetry_cell_setting 'monoclinic'
loop_
_space_group_symop_operation_xyz
x,y,z
-x,y,-z
-x,-y,-z
x,-y,z
loop_
_atom_site_type_symbol
_atom_site_label
_atom_site_fract_x
_atom_site_fract_y
_atom_site_fract_z
Si Si1 0.831441 0.756946 0.647412
Si Si2 0.972064 0.385023 0.332096
Si Si3 0.472922 0.729455 0.753708
Si Si4 0.239468 0.612593 0.644335
Si Si5 0.618345 0.612353 0.613548
Si Si6 0.636594 0.891551 0.154525
O O1 0.694574 0.747218 0.488911
O O2 0.834613 0.657030 0.592727
O O3 0.779125 0.834099 0.466686
O O4 0.000000 0.780964 0.000000
O O5 0.971329 0.500000 0.335323
O O6 0.000000 0.349828 0.500000
O O7 0.120464 0.358674 0.524858
O O8 0.798614 0.359957 0.972875
O O9 0.442726 0.680025 0.588728
O O10 0.586433 0.658167 0.023556
O O11 0.568397 0.829170 0.936149
O O12 0.249888 0.500000 0.659201
O O13 0.500000 0.618933 0.500000
O O14 0.619157 0.500000 0.582600
O O15 0.674056 0.000000 0.195361
O O16 0.500000 0.892021 0.000000
#
# Coordination Sequence:
#
# PCOD9144433 Si02
#       6
#     4   4   4   4   4   4
#     4  10  20  31  45  69  96 121 154 191 231 279
#     4   9  17  29  44  63  89 123 161 195 224 258
#     4  10  19  31  48  68  92 121 155 193 231 275
#     4  10  19  30  44  63  92 128 159 189 227 271
#     4  10  19  30  46  69  96 126 160 194 226 265
#     4   8  16  32  51  69  90 117 149 188 234 281
#
# _framework density 15.963691000000001
#
# number of rings (size 3 to 8) (size 9 to 14) (size 15 to 20)
#    0.000    2.500    0.000    4.000    0.000    5.333 
#    0.000    0.000    0.000    0.500    0.000    0.000 
#    0.000   18.000    0.000    0.000    0.000    0.000 
#
# Total GULP energy -133716.373045 kJ/mol
# GULP energy per Si atom -5571.515544 kJ/mol
# Density = 1.592736 g / cm^3
# Si number density = 15.963691 Si / 1000 Ang^3
#
#
#
# Elastic Constant Matrix: (Units=GPa)
#
#
# Indices 1 2 3 4 5 6 
#
# 1 51.7083 33.7281 35.9611 0.0000 -9.4546 0.0000
# 2 33.7281 96.1198 43.2625 0.0000 -8.1116 0.0000
# 3 35.9611 43.2625 118.6292 0.0000 -4.0416 0.0000
# 4 0.0000 0.0000 0.0000 12.1580 0.0000 -6.2745
# 5 -9.4546 -8.1116 -4.0416 0.0000 27.7338 0.0000
# 6 0.0000 0.0000 0.0000 -6.2745 0.0000 12.9998
#
#
#
# Elastic Compliance Matrix: (Units=1/GPa)
#
#
# Indices 1 2 3 4 5 6 
#
# 1 0.029461 -0.006971 -0.006146 0.000000 0.007109 0.000000
# 2 -0.006971 0.014349 -0.003073 0.000000 0.001372 0.000000
# 3 -0.006146 -0.003073 0.011368 0.000000 -0.001337 0.000000
# 4 0.000000 0.000000 0.000000 0.109535 0.000000 0.052868
# 5 0.007109 0.001372 -0.001337 0.000000 0.038687 0.000000
# 6 0.000000 0.000000 0.000000 0.052868 0.000000 0.102441
#
#
# Mechanical properties :
#
#
# Convention : Reuss Voigt Hill
#
# Bulk Modulus (GPa) = 43.86608 54.70675 49.28642
# Shear Modulus (GPa) = 14.45841 20.81202 17.63521
#
# Velocity S-wave (km/s) = 3.01276 3.61461 3.32732
# Velocity P-wave (km/s) = 6.29608 7.19475 6.76036
#
# Compressibility (1/GPa) = 0.02279666
#
# Stress axis : x y z
#
# Youngs Moduli (GPa) = 33.94350 69.69237 87.96797
#
# Poissons Ratio (x) = 0.48586 0.54066
# Poissons Ratio (y) = 0.23664 0.27030
# Poissons Ratio (z) = 0.20862 0.21415
#
# Static dielectric constant tensor:
#      x y z
#    x 1.532470 0.000000 0.006500 
#    y 0.000000 1.529040 0.000000 
#    z 0.006500 0.000000 1.542180 
# 
# From -- ./inp_files/24558.got.cif
#   From: 2010.05.17/outbox.cif.g08.bks.cpg/sg10_13_cif.got.tgz:24558.got - 2010.06.03 11:33:40.
