data_PCOD9144158
_publ_section_title
;
Structure prediction by ZEFSAII (Michael W. Deem and Ramdas Pophale) SiO2 
 PCOD9144158
Probable space group: P 2/M
;
_chemical_formula_sum "Si O2"
_cell_formula_units_Z 32
_cell_length_a 9.403166
_cell_length_b 23.293482
_cell_length_c 16.458920
_cell_angle_alpha 90.000000
_cell_angle_beta 27.477069
_cell_angle_gamma 90.000000
_cell_volume 1663.341387
_symmetry_space_group_name_H-M "P 2/M"
_symmetry_group_IT_number 10
_symmetry_cell_setting 'monoclinic'
loop_
_space_group_symop_operation_xyz
x,y,z
-x,y,-z
-x,-y,-z
x,-y,z
loop_
_atom_site_type_symbol
_atom_site_label
_atom_site_fract_x
_atom_site_fract_y
_atom_site_fract_z
Si Si1 0.683172 0.245044 0.325927
Si Si2 0.190450 0.431337 0.485587
Si Si3 0.848488 0.836377 0.816520
Si Si4 0.789710 0.167518 0.534947
Si Si5 0.832342 0.364560 0.170990
Si Si6 0.807254 0.937137 0.311877
Si Si7 0.875965 0.433612 0.304088
Si Si8 0.339099 0.064988 0.800821
O O1 0.500000 0.265476 0.500000
O O2 0.469810 0.208126 0.373240
O O3 0.801366 0.299355 0.216453
O O4 0.943625 0.204447 0.232601
O O5 0.263813 0.500000 0.453323
O O6 0.498926 0.393982 0.327575
O O7 0.020220 0.416889 0.657352
O O8 0.000000 0.421971 0.500000
O O9 0.983775 0.842125 0.656929
O O10 0.891992 0.900199 0.829537
O O11 0.500000 0.817213 0.000000
O O12 0.615567 0.111477 0.661941
O O13 0.000000 0.193107 0.500000
O O14 0.979971 0.397558 0.173673
O O15 0.000000 0.369199 0.000000
O O16 0.500000 0.905307 0.500000
O O17 0.723470 0.943212 0.261925
O O18 0.830954 0.000000 0.339166
O O19 0.500000 0.429272 0.500000
O O20 0.954105 0.500000 0.250762
O O21 0.398683 0.000000 0.805541
O O22 0.000000 0.086515 0.000000
#
# Coordination Sequence:
#
# PCOD9144158 Si02
#       8
#     4   4   4   4   4   4   4   4
#     4  10  22  44  61  78 114 155 200 248 297 352
#     4   9  18  35  60  89 121 158 198 239 288 349
#     4  11  23  40  62  88 113 151 196 242 303 361
#     4  11  24  39  61  87 113 150 194 243 297 356
#     4  11  22  35  58  87 115 153 197 244 296 347
#     4  10  18  36  63  86 115 153 191 234 288 356
#     4   8  15  31  55  83 115 154 192 226 276 341
#     4  10  21  37  59  86 119 155 187 233 295 352
#
# _framework density 19.238384
#
# number of rings (size 3 to 8) (size 9 to 14) (size 15 to 20)
#    0.000    2.000    2.500    2.625    1.750    3.500 
#    0.000    3.125    0.000    2.250    0.000    0.000 
#    0.000    0.000    0.000    0.000    0.000    0.000 
#
# Total GULP energy -178208.838814 kJ/mol
# GULP energy per Si atom -5569.026213 kJ/mol
# Density = 1.919460 g / cm^3
# Si number density = 19.238384 Si / 1000 Ang^3
#
#
#
# Elastic Constant Matrix: (Units=GPa)
#
#
# Indices 1 2 3 4 5 6 
#
# 1 121.9619 38.4613 36.7096 0.0000 10.6931 0.0000
# 2 38.4613 73.5191 40.5340 0.0000 11.8113 0.0000
# 3 36.7096 40.5340 94.2524 0.0000 11.6994 0.0000
# 4 0.0000 0.0000 0.0000 5.8123 0.0000 6.4786
# 5 10.6931 11.8113 11.6994 0.0000 22.9930 0.0000
# 6 0.0000 0.0000 0.0000 6.4786 0.0000 13.6803
#
#
#
# Elastic Compliance Matrix: (Units=1/GPa)
#
#
# Indices 1 2 3 4 5 6 
#
# 1 0.010210 -0.003925 -0.002081 0.000000 -0.001673 0.000000
# 2 -0.003925 0.020044 -0.006447 0.000000 -0.005190 0.000000
# 3 -0.002081 -0.006447 0.014583 0.000000 -0.003141 0.000000
# 4 0.000000 0.000000 0.000000 0.364403 0.000000 -0.172570
# 5 -0.001673 -0.005190 -0.003141 0.000000 0.048534 0.000000
# 6 0.000000 0.000000 0.000000 -0.172570 0.000000 0.154821
#
#
# Mechanical properties :
#
#
# Convention : Reuss Voigt Hill
#
# Bulk Modulus (GPa) = 50.17460 57.90479 54.03970
# Shear Modulus (GPa) = 7.76223 20.09903 13.93063
#
# Velocity S-wave (km/s) = 2.01085 3.23574 2.69384
# Velocity P-wave (km/s) = 5.61502 6.64259 6.15030
#
# Compressibility (1/GPa) = 0.01993040
#
# Stress axis : x y z
#
# Youngs Moduli (GPa) = 97.94146 49.89102 68.57485
#
# Poissons Ratio (x) = 0.19584 0.14269
# Poissons Ratio (y) = 0.38446 0.44209
# Poissons Ratio (z) = 0.20380 0.32164
#
# Static dielectric constant tensor:
#      x y z
#    x 1.669250 0.000000 -0.046840 
#    y 0.000000 1.705320 0.000000 
#    z -0.046840 0.000000 1.524060 
# 
# From -- ./inp_files/62679.got.cif
#   From: 2010.05.17/outbox.cif.g08.bks.cpg/sg10_32_cif.got.tgz:62679.got - 2010.06.03 11:33:40.
