data_PCOD9144103
_publ_section_title
;
Structure prediction by ZEFSAII (Michael W. Deem and Ramdas Pophale) SiO2 
 PCOD9144103
Probable space group: P 2/M
;
_chemical_formula_sum "Si O2"
_cell_formula_units_Z 28
_cell_length_a 8.942455
_cell_length_b 16.316428
_cell_length_c 21.639187
_cell_angle_alpha 90.000000
_cell_angle_beta 27.326707
_cell_angle_gamma 90.000000
_cell_volume 1449.425026
_symmetry_space_group_name_H-M "P 2/M"
_symmetry_group_IT_number 10
_symmetry_cell_setting 'monoclinic'
loop_
_space_group_symop_operation_xyz
x,y,z
-x,y,-z
-x,-y,-z
x,-y,z
loop_
_atom_site_type_symbol
_atom_site_label
_atom_site_fract_x
_atom_site_fract_y
_atom_site_fract_z
Si Si1 0.220204 0.798776 0.250166
Si Si2 0.253875 0.253362 0.033275
Si Si3 0.906320 0.407168 0.106628
Si Si4 0.724071 0.766968 0.318458
Si Si5 0.180908 0.338374 0.370144
Si Si6 0.724569 0.089730 0.478889
Si Si7 0.547546 0.589696 0.556106
O O1 0.222595 0.733933 0.305022
O O2 0.947891 0.774979 0.298045
O O3 0.086837 0.884231 0.325485
O O4 0.561349 0.794451 0.088932
O O5 0.144071 0.342256 0.050969
O O6 0.936497 0.213028 0.180228
O O7 0.500000 0.261706 0.000000
O O8 0.949395 0.500000 0.112664
O O9 0.532093 0.378719 0.252149
O O10 0.000000 0.405082 0.000000
O O11 0.431952 0.831991 0.429395
O O12 0.614930 0.672220 0.357790
O O13 0.000000 0.312091 0.500000
O O14 0.927438 0.402130 0.433118
O O15 0.500000 0.084136 0.500000
O O16 0.713699 0.000000 0.513070
O O17 0.500000 0.593916 0.500000
O O18 0.427086 0.500000 0.621133
#
# Coordination Sequence:
#
# PCOD9144103 Si02
#       7
#     4   4   4   4   4   4   4
#     4  10  19  37  55  84 118 147 191 236 286 346
#     4  10  22  38  60  81 110 157 194 237 293 343
#     4  11  24  40  55  79 117 156 200 248 289 340
#     4  10  18  35  59  86 116 146 193 243 283 337
#     4  12  23  37  57  82 113 154 194 240 291 338
#     4   9  17  32  60  90 118 148 184 238 297 344
#     4  11  21  35  58  85 116 155 196 244 292 336
#
# _framework density 19.318006
#
# number of rings (size 3 to 8) (size 9 to 14) (size 15 to 20)
#    0.000    1.571    4.286    1.714    0.000    3.143 
#    0.000    2.857    0.000    4.714    0.000    1.000 
#    0.000    0.000    0.000    0.000    0.000    0.000 
#
# Total GULP energy -156183.278085 kJ/mol
# GULP energy per Si atom -5577.974217 kJ/mol
# Density = 1.927404 g / cm^3
# Si number density = 19.318006 Si / 1000 Ang^3
#
#
#
# Elastic Constant Matrix: (Units=GPa)
#
#
# Indices 1 2 3 4 5 6 
#
# 1 31.7866 9.4215 21.5902 0.0000 17.6017 0.0000
# 2 9.4215 114.2221 56.1800 0.0000 3.8064 0.0000
# 3 21.5902 56.1800 144.7472 0.0000 16.4536 0.0000
# 4 0.0000 0.0000 0.0000 8.1852 0.0000 -5.7588
# 5 17.6017 3.8064 16.4536 0.0000 27.5247 0.0000
# 6 0.0000 0.0000 0.0000 -5.7588 0.0000 4.8556
#
#
#
# Elastic Compliance Matrix: (Units=1/GPa)
#
#
# Indices 1 2 3 4 5 6 
#
# 1 0.051148 -0.001424 -0.003627 0.000000 -0.030343 0.000000
# 2 -0.001424 0.010891 -0.004235 0.000000 0.001936 0.000000
# 3 -0.003627 -0.004235 0.009402 0.000000 -0.002715 0.000000
# 4 0.000000 0.000000 0.000000 0.737934 0.000000 0.875201
# 5 -0.030343 0.001936 -0.002715 0.000000 0.057090 0.000000
# 6 0.000000 0.000000 0.000000 0.875201 0.000000 1.243947
#
#
# Mechanical properties :
#
#
# Convention : Reuss Voigt Hill
#
# Bulk Modulus (GPa) = 18.91461 51.68213 35.29837
# Shear Modulus (GPa) = 2.32926 21.68406 12.00666
#
# Velocity S-wave (km/s) = 1.09926 3.35398 2.49575
# Velocity P-wave (km/s) = 3.37988 6.46609 5.15916
#
# Compressibility (1/GPa) = 0.05286919
#
# Stress axis : x y z
#
# Youngs Moduli (GPa) = 19.55110 91.82263 106.36244
#
# Poissons Ratio (x) = 0.13071 0.38583
# Poissons Ratio (y) = 0.02783 0.45040
# Poissons Ratio (z) = 0.07092 0.38883
#
# Static dielectric constant tensor:
#      x y z
#    x 1.684560 0.000000 0.011510 
#    y 0.000000 1.665000 0.000000 
#    z 0.011510 0.000000 1.715170 
# 
# From -- ./inp_files/82881.got.cif
#   From: 2010.05.17/outbox.cif.g08.bks.cpg/sg10_42_cif.got.tgz:82881.got - 2010.06.03 11:33:40.
