data_PCOD9144768
_publ_section_title
;
Structure prediction by ZEFSAII (Michael W. Deem and Ramdas Pophale) SiO2 
 PCOD9144768
Probable space group: P 2/M
;
_chemical_formula_sum "Si O2"
_cell_formula_units_Z 32
_cell_length_a 12.263378
_cell_length_b 9.139160
_cell_length_c 24.687649
_cell_angle_alpha 90.000000
_cell_angle_beta 49.626832
_cell_angle_gamma 90.000000
_cell_volume 2107.952860
_symmetry_space_group_name_H-M "P 2/M"
_symmetry_group_IT_number 10
_symmetry_cell_setting 'monoclinic'
loop_
_space_group_symop_operation_xyz
x,y,z
-x,y,-z
-x,-y,-z
x,-y,z
loop_
_atom_site_type_symbol
_atom_site_label
_atom_site_fract_x
_atom_site_fract_y
_atom_site_fract_z
Si Si1 0.829116 0.327003 0.993070
Si Si2 0.397087 0.676107 0.193230
Si Si3 0.335658 0.331450 0.381126
Si Si4 0.451932 0.172585 0.953816
Si Si5 0.104140 0.832136 0.519507
Si Si6 0.842282 0.327106 0.118620
Si Si7 0.435814 0.174598 0.760618
Si Si8 0.125144 0.667540 0.343744
O O1 0.802496 0.500000 0.992284
O O2 0.991613 0.294336 0.923012
O O3 0.708449 0.231088 0.003946
O O4 0.822448 0.304708 0.060255
O O5 0.415552 0.500000 0.191001
O O6 0.448896 0.737341 0.119511
O O7 0.492803 0.752780 0.208786
O O8 0.231583 0.709680 0.260914
O O9 0.373964 0.500000 0.378862
O O10 0.242097 0.262751 0.459305
O O11 0.471645 0.236906 0.319128
O O12 0.229728 0.329910 0.362780
O O13 0.459914 0.000000 0.938437
O O14 0.500000 0.194357 0.000000
O O15 0.000000 0.827939 0.500000
O O16 0.008901 0.767670 0.598637
O O17 0.143210 0.000000 0.516211
O O18 0.817301 0.500000 0.136835
O O19 0.726870 0.230586 0.186846
O O20 0.445446 0.000000 0.760337
O O21 0.077903 0.500000 0.351811
#
# Coordination Sequence:
#
# PCOD9144768 Si02
#       8
#     4   4   4   4   4   4   4   4
#     4   9  18  32  50  67  85 111 145 181 218 265
#     4  10  19  31  45  60  80 109 147 183 215 259
#     4   9  16  25  36  50  75 110 143 174 206 247
#     4  11  23  35  47  66  91 115 143 184 228 267
#     4   9  15  22  33  51  74 101 135 173 210 250
#     4   9  17  30  47  67  88 111 142 182 221 259
#     4  11  19  26  40  63  87 112 141 178 220 260
#     4   8  15  25  37  52  71 100 137 175 211 248
#
# _framework density 15.180605
#
# number of rings (size 3 to 8) (size 9 to 14) (size 15 to 20)
#    0.000    2.500    1.250    4.125    0.000    6.500 
#    0.000    1.250    0.000    0.000    0.000    0.000 
#    0.000    0.000    0.000    1.125    0.000   21.125 
#
# Total GULP energy -178312.121892 kJ/mol
# GULP energy per Si atom -5572.253809 kJ/mol
# Density = 1.514605 g / cm^3
# Si number density = 15.180605 Si / 1000 Ang^3
#
#
#
# Elastic Constant Matrix: (Units=GPa)
#
#
# Indices 1 2 3 4 5 6 
#
# 1 35.9013 35.9107 33.6465 0.0000 -6.8072 0.0000
# 2 35.9107 108.1821 77.2424 0.0000 -18.8324 0.0000
# 3 33.6465 77.2424 117.3908 0.0000 -28.6580 0.0000
# 4 0.0000 0.0000 0.0000 14.1307 0.0000 -0.3258
# 5 -6.8072 -18.8324 -28.6580 0.0000 14.4388 0.0000
# 6 0.0000 0.0000 0.0000 -0.3258 0.0000 12.6443
#
#
#
# Elastic Compliance Matrix: (Units=1/GPa)
#
#
# Indices 1 2 3 4 5 6 
#
# 1 0.044077 -0.010580 -0.007698 0.000000 -0.008296 0.000000
# 2 -0.010580 0.019974 -0.009638 0.000000 0.001934 0.000000
# 3 -0.007698 -0.009638 0.025437 0.000000 0.034287 0.000000
# 4 0.000000 0.000000 0.000000 0.070810 0.000000 0.001825
# 5 -0.008296 0.001934 0.034287 0.000000 0.135921 0.000000
# 6 0.000000 0.000000 0.000000 0.001825 0.000000 0.079134
#
#
# Mechanical properties :
#
#
# Convention : Reuss Voigt Hill
#
# Bulk Modulus (GPa) = 29.71080 61.67485 45.69283
# Shear Modulus (GPa) = 11.30188 15.88773 13.59480
#
# Velocity S-wave (km/s) = 2.73150 3.23860 2.99580
# Velocity P-wave (km/s) = 5.43711 7.39596 6.49086
#
# Compressibility (1/GPa) = 0.03365779
#
# Stress axis : x y z
#
# Youngs Moduli (GPa) = 22.68733 50.06507 39.31268
#
# Poissons Ratio (x) = 0.52967 0.30261
# Poissons Ratio (y) = 0.24002 0.37891
# Poissons Ratio (z) = 0.17464 0.48254
#
# Static dielectric constant tensor:
#      x y z
#    x 1.471300 0.000000 -0.020540 
#    y 0.000000 1.505430 0.000000 
#    z -0.020540 0.000000 1.522580 
# 
# From -- ./inp_files/88529.got.cif
#   From: 2010.05.17/outbox.cif.g08.bks.cpg/sg10_45_cif.got.tgz:88529.got - 2010.06.03 11:33:40.
