data_PCOD9144305
_publ_section_title
;
Structure prediction by ZEFSAII (Michael W. Deem and Ramdas Pophale) SiO2 
 PCOD9144305
Probable space group: P 2/M
;
_chemical_formula_sum "Si O2"
_cell_formula_units_Z 32
_cell_length_a 19.202926
_cell_length_b 7.490868
_cell_length_c 12.962804
_cell_angle_alpha 90.000000
_cell_angle_beta 61.853233
_cell_angle_gamma 90.000000
_cell_volume 1644.144907
_symmetry_space_group_name_H-M "P 2/M"
_symmetry_group_IT_number 10
_symmetry_cell_setting 'monoclinic'
loop_
_space_group_symop_operation_xyz
x,y,z
-x,y,-z
-x,-y,-z
x,-y,z
loop_
_atom_site_type_symbol
_atom_site_label
_atom_site_fract_x
_atom_site_fract_y
_atom_site_fract_z
Si Si1 0.482557 0.204710 0.889207
Si Si2 0.312670 0.780988 0.055951
Si Si3 0.840856 0.784379 0.221850
Si Si4 0.812300 0.205576 0.020393
Si Si5 0.953724 0.284010 0.431904
Si Si6 0.218544 0.790496 0.516821
Si Si7 0.014781 0.711369 0.168377
Si Si8 0.653885 0.780273 0.733589
O O1 0.394544 0.280590 0.945064
O O2 0.562983 0.281293 0.786051
O O3 0.477176 0.000000 0.856162
O O4 0.500000 0.200392 0.000000
O O5 0.239077 0.720256 0.038272
O O6 0.314329 0.000000 0.058148
O O7 0.314272 0.726326 0.175103
O O8 0.804655 0.715241 0.140361
O O9 0.800776 0.716432 0.355611
O O10 0.934325 0.743254 0.161714
O O11 0.835230 0.000000 0.226311
O O12 0.786456 0.000000 0.047068
O O13 0.905036 0.208010 0.929931
O O14 0.954397 0.500000 0.430684
O O15 0.862951 0.226980 0.489501
O O16 0.000000 0.221897 0.500000
O O17 0.995423 0.222967 0.297429
O O18 0.289380 0.718327 0.397707
O O19 0.235008 0.000000 0.519721
O O20 0.028015 0.500000 0.162706
O O21 0.652784 0.000000 0.734776
#
# Coordination Sequence:
#
# PCOD9144305 Si02
#       8
#     4   4   4   4   4   4   4   4
#     4   7  10  19  35  56  85 112 131 161 207 250
#     4   8  14  23  37  61  87 110 136 167 209 254
#     4   9  18  32  44  58  84 116 143 172 215 252
#     4  10  19  29  44  63  86 112 140 177 214 251
#     4   9  19  33  44  57  85 117 137 163 211 261
#     4   9  17  28  44  64  83 107 143 178 205 240
#     4  10  20  32  46  63  81 108 147 181 208 245
#     4   8  13  22  39  63  86 107 136 174 207 242
#
# _framework density 19.463004999999999
#
# number of rings (size 3 to 8) (size 9 to 14) (size 15 to 20)
#    0.000    3.250    0.000    2.250    1.750    2.750 
#    0.000    0.000    0.000    0.750    0.000    6.125 
#    0.000    3.000    0.000    7.375    0.000    7.750 
#
# Total GULP energy -178294.206115 kJ/mol
# GULP energy per Si atom -5571.693941 kJ/mol
# Density = 1.941871 g / cm^3
# Si number density = 19.463005 Si / 1000 Ang^3
#
#
#
# Elastic Constant Matrix: (Units=GPa)
#
#
# Indices 1 2 3 4 5 6 
#
# 1 73.3633 0.1513 60.0123 0.0000 -6.2865 0.0000
# 2 0.1513 52.8129 -0.1112 0.0000 2.9650 0.0000
# 3 60.0123 -0.1112 100.0049 0.0000 -24.9250 0.0000
# 4 0.0000 0.0000 0.0000 -19.2700 0.0000 40.7310
# 5 -6.2865 2.9650 -24.9250 0.0000 27.2624 0.0000
# 6 0.0000 0.0000 0.0000 40.7310 0.0000 -80.5573
#
#
#
# Elastic Compliance Matrix: (Units=1/GPa)
#
#
# Indices 1 2 3 4 5 6 
#
# 1 0.029621 0.000561 -0.020835 0.000000 -0.012279 0.000000
# 2 0.000561 0.019094 -0.001037 0.000000 -0.002895 0.000000
# 3 -0.020835 -0.001037 0.027628 0.000000 0.020567 0.000000
# 4 0.000000 0.000000 0.000000 0.755172 0.000000 0.381826
# 5 -0.012279 -0.002895 0.020567 0.000000 0.052968 0.000000
# 6 0.000000 0.000000 0.000000 0.381826 0.000000 0.180643
#
#
# Mechanical properties :
#
#
# Convention : Reuss Voigt Hill
#
# Bulk Modulus (GPa) = 29.65664 38.47620 34.06642
# Shear Modulus (GPa) = 4.46833 -3.43772 0.51530
#
# Velocity S-wave (km/s) = 1.51684 -1.33046 0.51511
# Velocity P-wave (km/s) = 4.28232 4.17752 4.23024
#
# Compressibility (1/GPa) = 0.03371926
#
# Stress axis : x y z
#
# Youngs Moduli (GPa) = 33.75990 52.37382 36.19576
#
# Poissons Ratio (x) = -0.02936 0.75415
# Poissons Ratio (y) = -0.01893 0.03753
# Poissons Ratio (z) = 0.70339 0.05430
#
# Static dielectric constant tensor:
#      x y z
#    x 1.670160 0.000000 -0.001580 
#    y 0.000000 1.729640 0.000000 
#    z -0.001580 0.000000 1.696600 
# 
# From -- ./inp_files/54819.got.cif
#   From: 2010.05.17/outbox.cif.g08.bks.cpg/sg10_28_cif.got.tgz:54819.got - 2010.06.03 11:33:40.
