data_PCOD9144168
_publ_section_title
;
Structure prediction by ZEFSAII (Michael W. Deem and Ramdas Pophale) SiO2 
 PCOD9144168
Probable space group: P 2/M
;
_chemical_formula_sum "Si O2"
_cell_formula_units_Z 29
_cell_length_a 8.024832
_cell_length_b 21.168091
_cell_length_c 13.429280
_cell_angle_alpha 90.000000
_cell_angle_beta 35.680100
_cell_angle_gamma 90.000000
_cell_volume 1330.552185
_symmetry_space_group_name_H-M "P 2/M"
_symmetry_group_IT_number 10
_symmetry_cell_setting 'monoclinic'
loop_
_space_group_symop_operation_xyz
x,y,z
-x,y,-z
-x,-y,-z
x,-y,z
loop_
_atom_site_type_symbol
_atom_site_label
_atom_site_fract_x
_atom_site_fract_y
_atom_site_fract_z
Si Si1 0.956976 0.726032 0.734227
Si Si2 0.327319 0.163895 0.831274
Si Si3 0.868456 0.404973 0.410885
Si Si4 0.640513 0.069611 0.824000
Si Si5 0.466995 0.429630 0.222450
Si Si6 0.855101 0.149806 0.460939
Si Si7 0.500000 0.500000 0.500000
Si Si8 0.350375 0.705570 0.917255
O O1 0.654829 0.716595 0.824009
O O2 0.148896 0.668984 0.600868
O O3 0.079008 0.793069 0.644712
O O4 0.888768 0.718514 0.883485
O O5 0.483103 0.126272 0.844173
O O6 0.518304 0.144711 0.644062
O O7 0.341732 0.239516 0.839559
O O8 0.000000 0.145261 0.000000
O O9 0.675951 0.425722 0.598537
O O10 0.748425 0.445130 0.379282
O O11 0.194556 0.422344 0.280392
O O12 0.973481 0.088873 0.660077
O O13 0.603976 0.000000 0.795255
O O14 0.500000 0.067803 0.000000
O O15 0.592661 0.500000 0.149481
O O16 0.654694 0.367013 0.115514
O O17 0.000000 0.165275 0.500000
#
# Coordination Sequence:
#
# PCOD9144168 Si02
#       8
#     4   4   4   4   4   4   1   4
#     4  10  19  36  59  88 106 156 208 260 298 358
#     4  11  23  39  60  93 133 165 200 257 317 369
#     4  10  20  33  57  78 112 146 201 249 312 375
#     4  10  21  40  68  97 126 166 214 255 293 356
#     4  10  18  37  59  82 100 155 211 256 300 373
#     4  10  19  35  65  92 123 163 209 253 300 366
#     4  12  20  38  48  84 124 148 188 264 328 380
#     4  10  20  36  60  83 119 150 206 262 306 363
#
# _framework density 21.795461
#
# number of rings (size 3 to 8) (size 9 to 14) (size 15 to 20)
#    0.000    1.793    4.138    2.069    1.931    2.759 
#    6.207    3.448    0.000    2.897    0.000    0.000 
#    0.000    0.000    0.000    0.000    0.000    0.000 
#
# Total GULP energy -161648.242223 kJ/mol
# GULP energy per Si atom -5574.077318 kJ/mol
# Density = 2.174585 g / cm^3
# Si number density = 21.795461 Si / 1000 Ang^3
#
#
#
# Elastic Constant Matrix: (Units=GPa)
#
#
# Indices 1 2 3 4 5 6 
#
# 1 20.7762 16.2215 15.7630 0.0000 -12.6721 0.0000
# 2 16.2215 119.4595 38.5316 0.0000 1.0271 0.0000
# 3 15.7630 38.5316 119.4921 0.0000 -3.6393 0.0000
# 4 0.0000 0.0000 0.0000 21.2744 0.0000 6.4186
# 5 -12.6721 1.0271 -3.6393 0.0000 18.2481 0.0000
# 6 0.0000 0.0000 0.0000 6.4186 0.0000 -20.8038
#
#
#
# Elastic Compliance Matrix: (Units=1/GPa)
#
#
# Indices 1 2 3 4 5 6 
#
# 1 0.110988 -0.013117 -0.008091 0.000000 0.076198 0.000000
# 2 -0.013117 0.010916 -0.002099 0.000000 -0.010142 0.000000
# 3 -0.008091 -0.002099 0.010006 0.000000 -0.003505 0.000000
# 4 0.000000 0.000000 0.000000 0.043002 0.000000 0.013267
# 5 0.076198 -0.010142 -0.003505 0.000000 0.107587 0.000000
# 6 0.000000 0.000000 0.000000 0.013267 0.000000 -0.043975
#
#
# Mechanical properties :
#
#
# Convention : Reuss Voigt Hill
#
# Bulk Modulus (GPa) = 11.72362 44.52888 28.12625
# Shear Modulus (GPa) = 15.94544 16.35782 16.15163
#
# Velocity S-wave (km/s) = 2.70773 2.74253 2.72519
# Velocity P-wave (km/s) = 3.89440 5.52298 4.77858
#
# Compressibility (1/GPa) = 0.08529791
#
# Stress axis : x y z
#
# Youngs Moduli (GPa) = 9.01001 91.60650 99.93936
#
# Poissons Ratio (x) = 1.20156 0.80859
# Poissons Ratio (y) = 0.11818 0.20974
# Poissons Ratio (z) = 0.07290 0.19225
#
# Static dielectric constant tensor:
#      x y z
#    x 1.885200 0.000000 -0.006150 
#    y 0.000000 1.767680 0.000000 
#    z -0.006150 0.000000 1.818470 
# 
# From -- ./inp_files/62577.got.cif
#   From: 2010.05.17/outbox.cif.g08.bks.cpg/sg10_32_cif.got.tgz:62577.got - 2010.06.03 11:33:40.
