data_PCOD9144105
_publ_section_title
;
Structure prediction by ZEFSAII (Michael W. Deem and Ramdas Pophale) SiO2 
 PCOD9144105
Probable space group: P 2/M
;
_chemical_formula_sum "Si O2"
_cell_formula_units_Z 32
_cell_length_a 20.786677
_cell_length_b 8.983914
_cell_length_c 25.919965
_cell_angle_alpha 90.000000
_cell_angle_beta 22.589630
_cell_angle_gamma 90.000000
_cell_volume 1859.350576
_symmetry_space_group_name_H-M "P 2/M"
_symmetry_group_IT_number 10
_symmetry_cell_setting 'monoclinic'
loop_
_space_group_symop_operation_xyz
x,y,z
-x,y,-z
-x,-y,-z
x,-y,z
loop_
_atom_site_type_symbol
_atom_site_label
_atom_site_fract_x
_atom_site_fract_y
_atom_site_fract_z
Si Si1 0.638548 0.819653 0.633094
Si Si2 0.179974 0.819582 0.114270
Si Si3 0.830245 0.177537 0.658698
Si Si4 0.526139 0.322367 0.822617
Si Si5 0.971266 0.180580 0.663683
Si Si6 0.464051 0.178516 0.404887
Si Si7 0.333405 0.327418 0.659316
Si Si8 0.142302 0.821539 0.712629
O O1 0.557549 0.743182 0.742332
O O2 0.834308 0.775071 0.484246
O O3 0.550469 0.780774 0.644238
O O4 0.632886 0.000000 0.643282
O O5 0.112584 0.773899 0.220625
O O6 0.035758 0.780570 0.179697
O O7 0.198254 0.000000 0.100499
O O8 0.353678 0.743474 0.972091
O O9 0.679153 0.264462 0.744491
O O10 0.000000 0.197375 0.500000
O O11 0.870655 0.226015 0.687162
O O12 0.792385 0.000000 0.686286
O O13 0.522436 0.500000 0.824245
O O14 0.973153 0.000000 0.662282
O O15 0.613556 0.250721 0.326669
O O16 0.288935 0.219150 0.563073
O O17 0.478216 0.000000 0.397706
O O18 0.500000 0.315039 0.500000
O O19 0.296692 0.500000 0.694359
O O20 0.189471 0.250511 0.732201
O O21 0.147854 0.000000 0.713769
#
# Coordination Sequence:
#
# PCOD9144105 Si02
#       8
#     4   4   4   4   4   4   4   4
#     4  10  18  35  60  84 107 137 183 233 277 320
#     4  10  20  37  59  82 109 142 184 230 274 321
#     4  10  19  36  63  85 106 138 180 230 276 321
#     4  12  26  39  52  78 116 151 182 217 268 334
#     4   9  17  33  61  89 105 130 181 234 276 318
#     4   9  16  28  52  82 108 133 174 232 276 312
#     4   9  17  27  42  71 113 151 179 209 257 324
#     4   9  16  29  52  79 106 137 177 226 273 314
#
# _framework density 17.21031
#
# number of rings (size 3 to 8) (size 9 to 14) (size 15 to 20)
#    0.000    2.250    2.500    1.500    0.000    3.250 
#    0.000    3.750    0.000    0.750    0.000    5.250 
#    0.000    0.000    0.000    0.000    0.000    0.000 
#
# Total GULP energy -178513.489825 kJ/mol
# GULP energy per Si atom -5578.546557 kJ/mol
# Density = 1.717114 g / cm^3
# Si number density = 17.210310 Si / 1000 Ang^3
#
#
#
# Elastic Constant Matrix: (Units=GPa)
#
#
# Indices 1 2 3 4 5 6 
#
# 1 164.9483 53.8064 58.7458 0.0000 -11.4878 0.0000
# 2 53.8064 41.4346 38.2737 0.0000 -6.0702 0.0000
# 3 58.7458 38.2737 85.2380 0.0000 1.7410 0.0000
# 4 0.0000 0.0000 0.0000 7.1673 0.0000 3.6722
# 5 -11.4878 -6.0702 1.7410 0.0000 21.9834 0.0000
# 6 0.0000 0.0000 0.0000 3.6722 0.0000 1.8357
#
#
#
# Elastic Compliance Matrix: (Units=1/GPa)
#
#
# Indices 1 2 3 4 5 6 
#
# 1 0.010844 -0.011510 -0.002360 0.000000 0.002675 0.000000
# 2 -0.011510 0.057445 -0.018092 0.000000 0.011280 0.000000
# 3 -0.002360 -0.018092 0.021644 0.000000 -0.007943 0.000000
# 4 0.000000 0.000000 0.000000 -5.589522 0.000000 11.181702
# 5 0.002675 0.011280 -0.007943 0.000000 0.050631 0.000000
# 6 0.000000 0.000000 0.000000 11.181702 0.000000-21.823963
#
#
# Mechanical properties :
#
#
# Convention : Reuss Voigt Hill
#
# Bulk Modulus (GPa) = 38.44711 65.91917 52.18314
# Shear Modulus (GPa) = -0.18382 15.58360 7.69989
#
# Velocity S-wave (km/s) = -0.32717 3.01239 2.11748
# Velocity P-wave (km/s) = 4.71650 7.10525 6.03034
#
# Compressibility (1/GPa) = 0.02600976
#
# Stress axis : x y z
#
# Youngs Moduli (GPa) = 92.21815 17.40788 46.20128
#
# Poissons Ratio (x) = 0.20036 0.10904
# Poissons Ratio (y) = 1.06140 0.83588
# Poissons Ratio (z) = 0.21765 0.31495
#
# Static dielectric constant tensor:
#      x y z
#    x 1.586370 0.000000 -0.000860 
#    y 0.000000 1.569140 0.000000 
#    z -0.000860 0.000000 1.557540 
# 
# From -- ./inp_files/93566.got.cif
#   From: 2010.05.17/outbox.cif.g08.bks.cpg/sg10_47_cif.got.tgz:93566.got - 2010.06.03 11:33:40.
