data_PCOD9144560
_publ_section_title
;
Structure prediction by ZEFSAII (Michael W. Deem and Ramdas Pophale) SiO2 
 PCOD9144560
Probable space group: P 2/M
;
_chemical_formula_sum "Si O2"
_cell_formula_units_Z 26
_cell_length_a 13.573204
_cell_length_b 21.102618
_cell_length_c 5.224008
_cell_angle_alpha 90.000000
_cell_angle_beta 75.381277
_cell_angle_gamma 90.000000
_cell_volume 1447.872809
_symmetry_space_group_name_H-M "P 2/M"
_symmetry_group_IT_number 10
_symmetry_cell_setting 'monoclinic'
loop_
_space_group_symop_operation_xyz
x,y,z
-x,y,-z
-x,-y,-z
x,-y,z
loop_
_atom_site_type_symbol
_atom_site_label
_atom_site_fract_x
_atom_site_fract_y
_atom_site_fract_z
Si Si1 0.254420 0.905016 0.132492
Si Si2 0.616382 0.093811 0.448546
Si Si3 0.929086 0.000000 0.793494
Si Si4 0.877784 0.646182 0.595060
Si Si5 0.385611 0.752843 0.535727
Si Si6 0.262021 0.752839 0.120169
Si Si7 0.123813 0.572138 0.906213
O O1 0.319074 0.923598 0.342201
O O2 0.146953 0.939967 0.176470
O O3 0.242254 0.828493 0.139703
O O4 0.321105 0.923538 0.843542
O O5 0.500000 0.071419 0.500000
O O6 0.610693 0.170476 0.456189
O O7 0.000000 0.000000 0.500000
O O8 0.000000 0.000000 0.000000
O O9 0.834205 0.712721 0.722337
O O10 0.844178 0.619653 0.341232
O O11 0.000000 0.649482 0.500000
O O12 0.844683 0.596595 0.835986
O O13 0.500000 0.728869 0.500000
O O14 0.345793 0.737250 0.280929
O O15 0.307589 0.735049 0.813528
O O16 0.155816 0.500000 0.833593
O O17 0.000000 0.572168 0.000000
#
# Coordination Sequence:
#
# PCOD9144560 Si02
#       7
#     4   4   2   4   4   4   4
#     4  10  21  37  55  77 103 135 175 216 258 307
#     4   9  17  33  57  82 106 129 155 202 272 332
#     4  12  26  44  59  72  97 142 194 228 246 286
#     4  10  19  30  46  72 104 134 165 203 245 294
#     4   9  17  30  50  74 102 134 163 199 252 309
#     4  10  19  32  51  76 105 131 163 211 258 298
#     4   9  17  30  47  67  97 136 169 199 242 296
#
# _framework density 17.957379
#
# number of rings (size 3 to 8) (size 9 to 14) (size 15 to 20)
#    0.000    2.308    0.000    3.231    0.000    6.154 
#    0.000    4.615    0.000    0.000    0.000    0.000 
#    0.000   43.077    0.000    0.000    0.000    0.000 
#
# Total GULP energy -144970.096499 kJ/mol
# GULP energy per Si atom -5575.772942 kJ/mol
# Density = 1.791651 g / cm^3
# Si number density = 17.957379 Si / 1000 Ang^3
#
#
#
# Elastic Constant Matrix: (Units=GPa)
#
#
# Indices 1 2 3 4 5 6 
#
# 1 98.8487 22.0414 55.3783 0.0000 7.3002 0.0000
# 2 22.0414 71.5810 33.6371 0.0000 -5.0436 0.0000
# 3 55.3783 33.6371 132.5499 0.0000 9.1933 0.0000
# 4 0.0000 0.0000 0.0000 2.5464 0.0000 48.7047
# 5 7.3002 -5.0436 9.1933 0.0000 30.9056 0.0000
# 6 0.0000 0.0000 0.0000 48.7047 0.0000 21.9080
#
#
#
# Elastic Compliance Matrix: (Units=1/GPa)
#
#
# Indices 1 2 3 4 5 6 
#
# 1 0.013506 -0.001947 -0.005008 0.000000 -0.002018 0.000000
# 2 -0.001947 0.016608 -0.003697 0.000000 0.004270 0.000000
# 3 -0.005008 -0.003697 0.010757 0.000000 -0.002620 0.000000
# 4 0.000000 0.000000 0.000000 -0.009458 0.000000 0.021026
# 5 -0.002018 0.004270 -0.002620 0.000000 0.034309 0.000000
# 6 0.000000 0.000000 0.000000 0.021026 0.000000 -0.001099
#
#
# Mechanical properties :
#
#
# Convention : Reuss Voigt Hill
#
# Bulk Modulus (GPa) = 51.11283 58.34369 54.72826
# Shear Modulus (GPa) = 54.08325 23.86686 38.97505
#
# Velocity S-wave (km/s) = 5.49390 3.64961 4.66383
# Velocity P-wave (km/s) = 8.29272 7.09367 7.71652
#
# Compressibility (1/GPa) = 0.01956456
#
# Stress axis : x y z
#
# Youngs Moduli (GPa) = 74.04335 60.21164 92.96484
#
# Poissons Ratio (x) = 0.11725 0.46560
# Poissons Ratio (y) = 0.14419 0.34371
# Poissons Ratio (z) = 0.37084 0.22261
#
# Static dielectric constant tensor:
#      x y z
#    x 1.624890 0.000000 0.011610 
#    y 0.000000 1.620500 0.000000 
#    z 0.011610 0.000000 1.600980 
# 
# From -- ./inp_files/7671.got.cif
#   From: 2010.05.17/outbox.cif.g08.bks.cpg/sg10_4_cif.got.tgz:7671.got - 2010.06.03 11:33:40.
