data_PCOD9144771
_publ_section_title
;
Structure prediction by ZEFSAII (Michael W. Deem and Ramdas Pophale) SiO2 
 PCOD9144771
Probable space group: P 2/M
;
_chemical_formula_sum "Si O2"
_cell_formula_units_Z 28
_cell_length_a 14.614458
_cell_length_b 8.935097
_cell_length_c 14.659733
_cell_angle_alpha 90.000000
_cell_angle_beta 103.542387
_cell_angle_gamma 90.000000
_cell_volume 1861.068255
_symmetry_space_group_name_H-M "P 2/M"
_symmetry_group_IT_number 10
_symmetry_cell_setting 'monoclinic'
loop_
_space_group_symop_operation_xyz
x,y,z
-x,y,-z
-x,-y,-z
x,-y,z
loop_
_atom_site_type_symbol
_atom_site_label
_atom_site_fract_x
_atom_site_fract_y
_atom_site_fract_z
Si Si1 0.221759 0.679826 0.034956
Si Si2 0.469564 0.820201 0.275398
Si Si3 0.300118 0.677730 0.353504
Si Si4 0.963411 0.672667 0.096603
Si Si5 0.855668 0.177547 0.796866
Si Si6 0.402537 0.827905 0.535256
Si Si7 0.440255 0.679410 0.074781
O O1 0.211794 0.500000 0.048218
O O2 0.193519 0.762599 0.121563
O O3 0.329314 0.711166 0.035757
O O4 0.145198 0.719813 0.939592
O O5 0.379834 0.745477 0.304371
O O6 0.562284 0.781041 0.356498
O O7 0.473143 0.762869 0.173508
O O8 0.458598 0.000000 0.277374
O O9 0.299411 0.500000 0.344101
O O10 0.201629 0.746579 0.298291
O O11 0.330810 0.727134 0.462049
O O12 0.968957 0.500000 0.128209
O O13 0.035858 0.771316 0.170443
O O14 0.000000 0.676820 0.000000
O O15 0.847831 0.000000 0.790525
O O16 0.500000 0.826481 0.500000
O O17 0.369359 0.000000 0.529114
O O18 0.449601 0.500000 0.090770
O O19 0.500000 0.721218 0.000000
#
# Coordination Sequence:
#
# PCOD9144771 Si02
#       7
#     4   4   4   4   4   4   4
#     4   9  17  30  44  58  82 115 146 181 221 256
#     4  10  19  31  45  61  84 115 146 182 223 257
#     4  11  19  27  42  63  87 115 146 176 212 260
#     4   8  15  27  41  57  80 111 144 175 213 259
#     4  11  19  26  40  62  87 114 144 177 214 257
#     4   8  16  29  42  59  84 111 142 176 214 259
#     4  10  20  32  47  66  87 116 154 189 218 253
#
# _framework density 15.045121999999999
#
# number of rings (size 3 to 8) (size 9 to 14) (size 15 to 20)
#    0.000    2.429    1.429    4.714    0.000    6.000 
#    0.000    0.000    0.000    0.000    0.000    0.000 
#    0.000    1.143    0.000   13.143    0.000    3.286 
#
# Total GULP energy -156015.606906 kJ/mol
# GULP energy per Si atom -5571.985961 kJ/mol
# Density = 1.501088 g / cm^3
# Si number density = 15.045122 Si / 1000 Ang^3
#
#
#
# Elastic Constant Matrix: (Units=GPa)
#
#
# Indices 1 2 3 4 5 6 
#
# 1 68.2425 40.9338 59.5026 0.0000 22.3700 0.0000
# 2 40.9338 76.1841 53.3991 0.0000 23.1913 0.0000
# 3 59.5026 53.3991 102.2342 0.0000 29.2514 0.0000
# 4 0.0000 0.0000 0.0000 43.6494 0.0000 -34.4207
# 5 22.3700 23.1913 29.2514 0.0000 26.9822 0.0000
# 6 0.0000 0.0000 0.0000 -34.4207 0.0000 106.2622
#
#
#
# Elastic Compliance Matrix: (Units=1/GPa)
#
#
# Indices 1 2 3 4 5 6 
#
# 1 0.032472 -0.005480 -0.014035 0.000000 -0.006995 0.000000
# 2 -0.005480 0.023182 -0.006550 0.000000 -0.008282 0.000000
# 3 -0.014035 -0.006550 0.023820 0.000000 -0.008557 0.000000
# 4 0.000000 0.000000 0.000000 0.030769 0.000000 0.009967
# 5 -0.006995 -0.008282 -0.008557 0.000000 0.059256 0.000000
# 6 0.000000 0.000000 0.000000 0.009967 0.000000 0.012639
#
#
# Mechanical properties :
#
#
# Convention : Reuss Voigt Hill
#
# Bulk Modulus (GPa) = 36.57135 61.59242 49.08188
# Shear Modulus (GPa) = 20.54376 41.56711 31.05544
#
# Velocity S-wave (km/s) = 3.69924 5.26196 4.54822
# Velocity P-wave (km/s) = 6.52736 8.82865 7.76374
#
# Compressibility (1/GPa) = 0.02734381
#
# Stress axis : x y z
#
# Youngs Moduli (GPa) = 30.79619 43.13649 41.98169
#
# Poissons Ratio (x) = 0.23638 0.58923
# Poissons Ratio (y) = 0.16876 0.27497
# Poissons Ratio (z) = 0.43224 0.28253
#
# Static dielectric constant tensor:
#      x y z
#    x 1.501700 0.000000 0.039100 
#    y 0.000000 1.502400 0.000000 
#    z 0.039100 0.000000 1.505060 
# 
# From -- ./inp_files/65786.got.cif
#   From: 2010.05.17/outbox.cif.g08.bks.cpg/sg10_33_cif.got.tgz:65786.got - 2010.06.03 11:33:40.
