data_PCOD9144633
_publ_section_title
;
Structure prediction by ZEFSAII (Michael W. Deem and Ramdas Pophale) SiO2 
 PCOD9144633
Probable space group: P 2/M
;
_chemical_formula_sum "Si O2"
_cell_formula_units_Z 32
_cell_length_a 12.947282
_cell_length_b 7.374750
_cell_length_c 34.225436
_cell_angle_alpha 90.000000
_cell_angle_beta 156.306087
_cell_angle_gamma 90.000000
_cell_volume 1313.225805
_symmetry_space_group_name_H-M "P 2/M"
_symmetry_group_IT_number 10
_symmetry_cell_setting 'monoclinic'
loop_
_space_group_symop_operation_xyz
x,y,z
-x,y,-z
-x,-y,-z
x,-y,z
loop_
_atom_site_type_symbol
_atom_site_label
_atom_site_fract_x
_atom_site_fract_y
_atom_site_fract_z
Si Si1 0.797558 0.778528 0.808589
Si Si2 0.051878 0.220925 0.973954
Si Si3 0.229852 0.221959 0.607475
Si Si4 0.380316 0.292989 0.368780
Si Si5 0.124788 0.793924 0.853480
Si Si6 0.088435 0.219217 0.342787
Si Si7 0.583803 0.220721 0.118780
Si Si8 0.059438 0.208922 0.419941
O O1 0.517615 0.721125 0.696927
O O2 0.029045 0.712873 0.861094
O O3 0.804600 0.000000 0.809104
O O4 0.840797 0.728510 0.868513
O O5 0.321509 0.279286 0.048144
O O6 0.058202 0.000000 0.977712
O O7 0.000000 0.283673 0.000000
O O8 0.000000 0.281887 0.500000
O O9 0.151216 0.283861 0.623623
O O10 0.228565 0.000000 0.606602
O O11 0.385075 0.500000 0.357773
O O12 0.142467 0.201550 0.264109
O O13 0.663594 0.213076 0.462857
O O14 0.308641 0.284180 0.389848
O O15 0.335436 0.714720 0.896740
O O16 0.204768 0.000000 0.889507
O O17 0.820386 0.266797 0.229105
O O18 0.088971 0.288401 0.387113
O O19 0.113802 0.000000 0.351998
O O20 0.575425 0.000000 0.113253
O O21 0.986366 0.000000 0.388269
#
# Coordination Sequence:
#
# PCOD9144633 Si02
#       8
#     4   4   4   4   4   4   4   4
#     4   9  17  28  46  73 101 136 174 210 255 300
#     4   9  17  26  41  70 111 141 159 202 264 311
#     4   9  17  28  44  68  96 129 173 215 248 288
#     4  11  21  32  48  72 101 130 165 212 263 304
#     4   9  17  32  52  71  99 134 172 208 244 302
#     4   9  18  31  48  70  98 134 172 205 245 303
#     4   8  15  27  43  66  98 136 166 197 248 303
#     4  10  19  30  48  69  96 134 172 209 248 302
#
# _framework density 24.367477000000001
#
# number of rings (size 3 to 8) (size 9 to 14) (size 15 to 20)
#    0.000    2.750    0.000    3.000    1.750    4.500 
#    0.000    2.500    0.000    3.375    0.000    7.000 
#    0.000    8.500    0.000    0.000    0.000    0.000 
#
# Total GULP energy -178816.612150 kJ/mol
# GULP energy per Si atom -5588.019130 kJ/mol
# Density = 2.431202 g / cm^3
# Si number density = 24.367477 Si / 1000 Ang^3
#
#
#
# Elastic Constant Matrix: (Units=GPa)
#
#
# Indices 1 2 3 4 5 6 
#
# 1 190.5140 3.9929 68.1120 0.0000 -0.6239 0.0000
# 2 3.9929 91.5505 -3.0064 0.0000 -3.1127 0.0000
# 3 68.1120 -3.0064 94.9787 0.0000 6.6393 0.0001
# 4 0.0000 0.0000 0.0000 -43.5350 0.0000 -38.0726
# 5 -0.6239 -3.1127 6.6393 0.0000 41.8978 0.0000
# 6 0.0000 0.0000 0.0001 -38.0726 0.0000 -119.0495
#
#
#
# Elastic Compliance Matrix: (Units=1/GPa)
#
#
# Indices 1 2 3 4 5 6 
#
# 1 0.007112 -0.000450 -0.005177 0.000000 0.000893 0.000000
# 2 -0.000450 0.010987 0.000621 0.000000 0.000711 0.000000
# 3 -0.005177 0.000621 0.014423 0.000000 -0.002316 0.000000
# 4 0.000000 0.000000 0.000000 -0.031889 0.000000 0.010198
# 5 0.000893 0.000711 -0.002316 0.000000 0.024301 0.000000
# 6 0.000000 0.000000 0.000000 0.010198 0.000000 -0.011661
#
#
# Mechanical properties :
#
#
# Convention : Reuss Voigt Hill
#
# Bulk Modulus (GPa) = 44.42516 57.24889 50.83703
# Shear Modulus (GPa) = 162.39685 -3.60771 79.39457
#
# Velocity S-wave (km/s) = 8.17249 -1.21810 5.71427
# Velocity P-wave (km/s) = 10.35972 4.64399 8.02778
#
# Compressibility (1/GPa) = 0.02250977
#
# Stress axis : x y z
#
# Youngs Moduli (GPa) = 140.60400 91.01565 69.33457
#
# Poissons Ratio (x) = 0.04094 0.35894
# Poissons Ratio (y) = 0.06325 -0.04303
# Poissons Ratio (z) = 0.72791 -0.05649
#
# Static dielectric constant tensor:
#      x y z
#    x 1.931890 0.000000 -0.026630 
#    y 0.000000 1.928020 0.000000 
#    z -0.026630 0.000000 1.916360 
# 
# From -- ./inp_files/95073.got.cif
#   From: 2010.05.17/outbox.cif.g08.bks.cpg/sg10_48_cif.got.tgz:95073.got - 2010.06.03 11:33:40.
