data_PCOD9144290
_publ_section_title
;
Structure prediction by ZEFSAII (Michael W. Deem and Ramdas Pophale) SiO2 
 PCOD9144290
Probable space group: P 2/M
;
_chemical_formula_sum "Si O2"
_cell_formula_units_Z 28
_cell_length_a 17.394920
_cell_length_b 7.620076
_cell_length_c 12.278180
_cell_angle_alpha 90.000000
_cell_angle_beta 127.811558
_cell_angle_gamma 90.000000
_cell_volume 1285.760454
_symmetry_space_group_name_H-M "P 2/M"
_symmetry_group_IT_number 10
_symmetry_cell_setting 'monoclinic'
loop_
_space_group_symop_operation_xyz
x,y,z
-x,y,-z
-x,-y,-z
x,-y,z
loop_
_atom_site_type_symbol
_atom_site_label
_atom_site_fract_x
_atom_site_fract_y
_atom_site_fract_z
Si Si1 0.809954 0.208974 0.559803
Si Si2 0.394734 0.700712 0.512858
Si Si3 0.454588 0.285326 0.794044
Si Si4 0.298386 0.283972 0.220096
Si Si5 0.906221 0.711384 0.853651
Si Si6 0.247368 0.199812 0.715336
Si Si7 0.333965 0.706901 0.007802
O O1 0.715509 0.296147 0.533837
O O2 0.897794 0.239249 0.719270
O O3 0.815473 0.274937 0.440018
O O4 0.790606 0.000000 0.538663
O O5 0.427142 0.500000 0.529720
O O6 0.454901 0.772125 0.667099
O O7 0.379994 0.775221 0.378963
O O8 0.445240 0.500000 0.791632
O O9 0.357712 0.212616 0.764589
O O10 0.558131 0.230205 0.932249
O O11 0.301129 0.500000 0.224967
O O12 0.193238 0.228866 0.174561
O O13 0.309111 0.223073 0.105701
O O14 0.906951 0.500000 0.859013
O O15 0.000000 0.776446 0.000000
O O16 0.256258 0.272386 0.844497
O O17 0.217138 0.000000 0.702300
O O18 0.346382 0.500000 0.034109
#
# Coordination Sequence:
#
# PCOD9144290 Si02
#       7
#     4   4   4   4   4   4   4
#     4   9  17  29  46  68  91 115 147 185 222 260
#     4   8  14  27  45  63  88 119 149 184 226 268
#     4   9  17  28  44  66  88 116 157 197 228 259
#     4   8  15  28  45  67  93 118 144 178 224 273
#     4   9  17  31  53  77  96 113 137 174 222 276
#     4  10  20  32  45  62  88 123 160 193 222 255
#     4  10  19  29  43  64  91 122 155 190 224 262
#
# _framework density 21.776996
#
# number of rings (size 3 to 8) (size 9 to 14) (size 15 to 20)
#    0.000    3.000    0.000    2.143    0.000    4.857 
#    0.000    5.714    0.000    0.857    0.000   20.000 
#    0.000    0.000    0.000    0.000    0.000    0.000 
#
# Total GULP energy -156033.023188 kJ/mol
# GULP energy per Si atom -5572.607971 kJ/mol
# Density = 2.172743 g / cm^3
# Si number density = 21.776996 Si / 1000 Ang^3
#
#
#
# Elastic Constant Matrix: (Units=GPa)
#
#
# Indices 1 2 3 4 5 6 
#
# 1 16.8986 -2.0100 24.5670 0.0000 -11.2448 0.0000
# 2 -2.0100 42.6981 -6.5179 0.0000 2.0883 0.0000
# 3 24.5670 -6.5179 188.3224 0.0000 -15.9221 0.0000
# 4 0.0000 0.0000 0.0000 3.2091 0.0000 -3.1658
# 5 -11.2448 2.0883 -15.9221 0.0000 34.9477 0.0000
# 6 0.0000 0.0000 0.0000 -3.1658 0.0000 21.9258
#
#
#
# Elastic Compliance Matrix: (Units=1/GPa)
#
#
# Indices 1 2 3 4 5 6 
#
# 1 0.089449 0.001562 -0.009557 0.000000 0.024333 0.000000
# 2 0.001562 0.023611 0.000558 0.000000 -0.000654 0.000000
# 3 -0.009557 0.000558 0.006566 0.000000 -0.000117 0.000000
# 4 0.000000 0.000000 0.000000 0.363373 0.000000 0.052466
# 5 0.024333 -0.000654 -0.000117 0.000000 0.036430 0.000000
# 6 0.000000 0.000000 0.000000 0.052466 0.000000 0.053184
#
#
# Mechanical properties :
#
#
# Convention : Reuss Voigt Hill
#
# Bulk Modulus (GPa) = 9.54646 31.11080 20.32863
# Shear Modulus (GPa) = 8.03336 27.47518 17.75427
#
# Velocity S-wave (km/s) = 1.92274 3.55584 2.85840
# Velocity P-wave (km/s) = 3.05327 5.58353 4.49990
#
# Compressibility (1/GPa) = 0.10475092
#
# Stress axis : x y z
#
# Youngs Moduli (GPa) = 11.17957 42.35323 152.29402
#
# Poissons Ratio (x) = -0.06614 1.45553
# Poissons Ratio (y) = -0.01746 -0.08501
# Poissons Ratio (z) = 0.10685 -0.02364
#
# Static dielectric constant tensor:
#      x y z
#    x 1.784960 0.000000 -0.033950 
#    y 0.000000 1.837170 0.000000 
#    z -0.033950 0.000000 1.874090 
# 
# From -- ./inp_files/54652.got.cif
#   From: 2010.05.17/outbox.cif.g08.bks.cpg/sg10_28_cif.got.tgz:54652.got - 2010.06.03 11:33:40.
