data_PCOD9144981
_publ_section_title
;
Structure prediction by ZEFSAII (Michael W. Deem and Ramdas Pophale) SiO2 
 PCOD9144981
Probable space group: P 2/M
;
_chemical_formula_sum "Si O2"
_cell_formula_units_Z 28
_cell_length_a 25.606741
_cell_length_b 8.009565
_cell_length_c 9.552177
_cell_angle_alpha 90.000000
_cell_angle_beta 138.708122
_cell_angle_gamma 90.000000
_cell_volume 1292.827397
_symmetry_space_group_name_H-M "P 2/M"
_symmetry_group_IT_number 10
_symmetry_cell_setting 'monoclinic'
loop_
_space_group_symop_operation_xyz
x,y,z
-x,y,-z
-x,-y,-z
x,-y,z
loop_
_atom_site_type_symbol
_atom_site_label
_atom_site_fract_x
_atom_site_fract_y
_atom_site_fract_z
Si Si1 0.420798 0.696843 0.411966
Si Si2 0.760962 0.805399 0.634399
Si Si3 0.166946 0.803296 0.648264
Si Si4 0.246647 0.304479 0.066673
Si Si5 0.914430 0.303670 0.777600
Si Si6 0.675677 0.796417 0.191796
Si Si7 0.501879 0.201415 0.840013
O O1 0.500000 0.771069 0.500000
O O2 0.418424 0.500000 0.373559
O O3 0.333996 0.768972 0.205581
O O4 0.437054 0.718646 0.609970
O O5 0.764299 0.718042 0.790005
O O6 0.843504 0.786393 0.717084
O O7 0.695463 0.744059 0.390832
O O8 0.744967 0.000000 0.629037
O O9 0.100259 0.720929 0.417810
O O10 0.250816 0.740384 0.753383
O O11 0.161276 0.000000 0.611438
O O12 0.177062 0.772476 0.832823
O O13 0.247562 0.500000 0.036989
O O14 0.908086 0.500000 0.797287
O O15 0.000000 0.243746 0.000000
O O16 0.675128 0.000000 0.191039
O O17 0.589651 0.743037 0.968263
O O18 0.494531 0.000000 0.813653
O O19 0.500000 0.242229 0.000000
#
# Coordination Sequence:
#
# PCOD9144981 Si02
#       7
#     4   4   4   4   4   4   4
#     4  10  22  37  51  73 107 147 189 232 280 331
#     4  10  20  36  59  84 112 146 186 231 275 326
#     4  10  20  35  57  82 109 144 186 227 267 320
#     4  11  22  36  54  78 112 150 189 234 284 335
#     4  10  21  39  63  90 119 147 175 212 264 328
#     4   8  16  31  50  74 102 135 179 228 276 325
#     4  10  19  31  49  73 101 135 179 230 279 325
#
# _framework density 21.657955999999999
#
# number of rings (size 3 to 8) (size 9 to 14) (size 15 to 20)
#    0.000    2.143    0.000    4.286    0.000    4.000 
#    0.000    4.286    0.000    4.286    0.000    0.000 
#    0.000    0.000    0.000    0.000    0.000    0.000 
#
# Total GULP energy -156366.895128 kJ/mol
# GULP energy per Si atom -5584.531969 kJ/mol
# Density = 2.160866 g / cm^3
# Si number density = 21.657956 Si / 1000 Ang^3
#
#
#
# Elastic Constant Matrix: (Units=GPa)
#
#
# Indices 1 2 3 4 5 6 
#
# 1 26.1192 -4.6908 16.8824 0.0000 -9.1343 0.0000
# 2 -4.6908 27.0577 -3.2049 0.0000 1.2407 0.0000
# 3 16.8824 -3.2049 148.8491 0.0000 -0.0219 0.0000
# 4 0.0000 0.0000 0.0000 25.3260 0.0000 -7.1377
# 5 -9.1343 1.2407 -0.0219 0.0000 32.3816 0.0000
# 6 0.0000 0.0000 0.0000 -7.1377 0.0000 19.7803
#
#
#
# Elastic Compliance Matrix: (Units=1/GPa)
#
#
# Indices 1 2 3 4 5 6 
#
# 1 0.047524 0.007016 -0.005237 0.000000 0.013133 0.000000
# 2 0.007016 0.038154 0.000026 0.000000 0.000517 0.000000
# 3 -0.005237 0.000026 0.007313 0.000000 -0.001473 0.000000
# 4 0.000000 0.000000 0.000000 0.043955 0.000000 0.015861
# 5 0.013133 0.000517 -0.001473 0.000000 0.034566 0.000000
# 6 0.000000 0.000000 0.000000 0.015861 0.000000 0.056279
#
#
# Mechanical properties :
#
#
# Convention : Reuss Voigt Hill
#
# Bulk Modulus (GPa) = 10.35192 24.44438 17.39815
# Shear Modulus (GPa) = 19.50228 28.36686 23.93457
#
# Velocity S-wave (km/s) = 3.00403 3.62300 3.32794
# Velocity P-wave (km/s) = 4.10151 5.36773 4.77676
#
# Compressibility (1/GPa) = 0.09660045
#
# Stress axis : x y z
#
# Youngs Moduli (GPa) = 21.04198 26.20968 136.75130
#
# Poissons Ratio (x) = -0.18390 0.71619
# Poissons Ratio (y) = -0.14764 -0.00353
# Poissons Ratio (z) = 0.11020 -0.00068
#
# Static dielectric constant tensor:
#      x y z
#    x 1.831360 0.000000 -0.015870 
#    y 0.000000 1.751700 0.000000 
#    z -0.015870 0.000000 1.803710 
# 
# From -- ./inp_files/37226.got.cif
#   From: 2010.05.17/outbox.cif.g08.bks.cpg/sg10_19_cif.got.tgz:37226.got - 2010.06.03 11:33:40.
