data_PCOD9144739
_publ_section_title
;
Structure prediction by ZEFSAII (Michael W. Deem and Ramdas Pophale) SiO2 
 PCOD9144739
Probable space group: P 2/M
;
_chemical_formula_sum "Si O2"
_cell_formula_units_Z 20
_cell_length_a 9.318600
_cell_length_b 13.081212
_cell_length_c 10.671403
_cell_angle_alpha 90.000000
_cell_angle_beta 121.158063
_cell_angle_gamma 90.000000
_cell_volume 1113.175475
_symmetry_space_group_name_H-M "P 2/M"
_symmetry_group_IT_number 10
_symmetry_cell_setting 'monoclinic'
loop_
_space_group_symop_operation_xyz
x,y,z
-x,y,-z
-x,-y,-z
x,-y,z
loop_
_atom_site_type_symbol
_atom_site_label
_atom_site_fract_x
_atom_site_fract_y
_atom_site_fract_z
Si Si1 0.619674 0.884783 0.672902
Si Si2 0.223085 0.296034 0.836357
Si Si3 0.285414 0.500000 0.185177
Si Si4 0.052857 0.500000 0.827410
Si Si5 0.005843 0.118967 0.853873
Si Si6 0.464330 0.698909 0.187479
O O1 0.500000 0.873237 0.500000
O O2 0.813891 0.874717 0.722965
O O3 0.577896 0.800152 0.755542
O O4 0.599040 0.000000 0.714828
O O5 0.105430 0.395720 0.782928
O O6 0.343276 0.297565 0.770105
O O7 0.117934 0.194617 0.822011
O O8 0.349620 0.304993 0.011440
O O9 0.403459 0.599405 0.236030
O O10 0.143062 0.500000 0.226927
O O11 0.168705 0.500000 0.006341
O O12 0.061321 0.000000 0.873757
O O13 0.000000 0.148813 0.000000
#
# Coordination Sequence:
#
# PCOD9144739 Si02
#       6
#     4   4   2   2   4   4
#     4  10  21  37  55  75 104 142 179 213 256 314
#     4  10  19  30  51  80 110 134 170 219 267 306
#     4   9  17  29  50  74 106 140 174 211 255 311
#     4   9  17  27  47  78 107 139 170 211 260 312
#     4  10  19  33  53  77 103 133 176 220 257 304
#     4  10  19  32  50  78 109 138 171 217 264 308
#
# _framework density 17.966618
#
# number of rings (size 3 to 8) (size 9 to 14) (size 15 to 20)
#    0.000    2.200    2.000    1.800    2.800    3.200 
#    0.000    3.500    0.000    3.600    0.000    4.200 
#    0.000    0.000    0.000    0.000    0.000    0.000 
#
# Total GULP energy -111490.547142 kJ/mol
# GULP energy per Si atom -5574.527357 kJ/mol
# Density = 1.792573 g / cm^3
# Si number density = 17.966618 Si / 1000 Ang^3
#
#
#
# Elastic Constant Matrix: (Units=GPa)
#
#
# Indices 1 2 3 4 5 6 
#
# 1 164.8004 108.6424 12.7951 0.0000 7.3599 0.0000
# 2 108.6424 150.4241 10.1233 0.0000 -2.2437 0.0000
# 3 12.7951 10.1233 22.8426 0.0000 16.5129 0.0000
# 4 0.0000 0.0000 0.0000 10.9987 0.0000 20.1124
# 5 7.3599 -2.2437 16.5129 0.0000 14.2940 0.0000
# 6 0.0000 0.0000 0.0000 20.1124 0.0000 29.2970
#
#
#
# Elastic Compliance Matrix: (Units=1/GPa)
#
#
# Indices 1 2 3 4 5 6 
#
# 1 0.014017 -0.012468 0.026115 0.000000 -0.039343 0.000000
# 2 -0.012468 0.020423 -0.054737 0.000000 0.072860 0.000000
# 3 0.026115 -0.054737 0.420530 0.000000 -0.507847 0.000000
# 4 0.000000 0.000000 0.000000 -0.356074 0.000000 0.244444
# 5 -0.039343 0.072860 -0.507847 0.000000 0.688334 0.000000
# 6 0.000000 0.000000 0.000000 0.244444 0.000000 -0.133677
#
#
# Mechanical properties :
#
#
# Convention : Reuss Voigt Hill
#
# Bulk Modulus (GPa) = 2.68248 66.79874 34.74061
# Shear Modulus (GPa) = 5.81399 24.68504 15.24951
#
# Velocity S-wave (km/s) = 1.80084 3.71069 2.91653
# Velocity P-wave (km/s) = 2.41253 7.45782 5.54253
#
# Compressibility (1/GPa) = 0.37278993
#
# Stress axis : x y z
#
# Youngs Moduli (GPa) = 71.34408 48.96426 2.37795
#
# Poissons Ratio (x) = 0.61047 -0.06210
# Poissons Ratio (y) = 0.88950 0.13016
# Poissons Ratio (z) = -1.86318 2.68018
#
# Static dielectric constant tensor:
#      x y z
#    x 1.608820 0.000000 0.011230 
#    y 0.000000 1.618360 0.000000 
#    z 0.011230 0.000000 1.602810 
# 
# From -- ./inp_files/23422.got.cif
#   From: 2010.05.17/outbox.cif.g08.bks.cpg/sg10_12_cif.got.tgz:23422.got - 2010.06.03 11:33:40.
