data_PCOD9144148
_publ_section_title
;
Structure prediction by ZEFSAII (Michael W. Deem and Ramdas Pophale) SiO2 
 PCOD9144148
Probable space group: P 2/M
;
_chemical_formula_sum "Si O2"
_cell_formula_units_Z 25
_cell_length_a 11.427476
_cell_length_b 15.422772
_cell_length_c 18.721696
_cell_angle_alpha 90.000000
_cell_angle_beta 24.358967
_cell_angle_gamma 90.000000
_cell_volume 1360.916544
_symmetry_space_group_name_H-M "P 2/M"
_symmetry_group_IT_number 10
_symmetry_cell_setting 'monoclinic'
loop_
_space_group_symop_operation_xyz
x,y,z
-x,y,-z
-x,-y,-z
x,-y,z
loop_
_atom_site_type_symbol
_atom_site_label
_atom_site_fract_x
_atom_site_fract_y
_atom_site_fract_z
Si Si1 0.075349 0.688160 0.069040
Si Si2 0.338720 0.899108 0.301350
Si Si3 0.510329 0.220375 0.915414
Si Si4 0.559938 0.252624 0.266647
Si Si5 0.891618 0.500000 0.141873
Si Si6 0.000000 0.500000 0.500000
Si Si7 0.311802 0.500000 0.532857
Si Si8 0.989621 0.642041 0.379849
O O1 0.794562 0.736722 0.197371
O O2 0.001584 0.587338 0.117353
O O3 0.214986 0.734297 0.058237
O O4 0.303793 0.697593 0.877378
O O5 0.418075 0.850999 0.183795
O O6 0.494545 0.843952 0.276354
O O7 0.000000 0.891571 0.500000
O O8 0.415581 0.000000 0.258715
O O9 0.744794 0.296518 0.782487
O O10 0.500000 0.182757 0.000000
O O11 0.272077 0.297999 0.450238
O O12 0.549753 0.500000 0.336785
O O13 0.000000 0.500000 0.000000
O O14 0.050280 0.575524 0.410386
O O15 0.500000 0.500000 0.500000
O O16 0.120457 0.584370 0.625734
#
# Coordination Sequence:
#
# PCOD9144148 Si02
#       8
#     4   4   4   4   2   1   2   4
#     4  10  21  34  57  87 121 150 197 247 296 341
#     4  10  20  38  68  95 115 146 194 249 299 364
#     4  11  25  40  57  87 124 161 196 241 305 360
#     4  10  18  36  59  89 113 145 193 245 295 347
#     4  12  19  35  56  83 111 154 198 247 294 334
#     4  10  20  32  54  84 102 146 198 254 276 318
#     4  11  25  36  55  84 117 161 210 243 284 335
#     4  11  21  37  59  78 117 157 203 240 289 346
#
# _framework density 18.369973000000002
#
# number of rings (size 3 to 8) (size 9 to 14) (size 15 to 20)
#    0.000    1.440    4.800    1.920    2.240    4.800 
#    0.000    8.400    0.000    0.000    0.000    2.240 
#    0.000    0.000    0.000    0.000    0.000    0.000 
#
# Total GULP energy -139374.594001 kJ/mol
# GULP energy per Si atom -5574.983760 kJ/mol
# Density = 1.832816 g / cm^3
# Si number density = 18.369973 Si / 1000 Ang^3
#
#
#
# Elastic Constant Matrix: (Units=GPa)
#
#
# Indices 1 2 3 4 5 6 
#
# 1 85.1356 54.5651 14.7554 0.0000 -8.2839 0.0000
# 2 54.5651 162.0952 36.3624 0.0000 -13.9455 0.0000
# 3 14.7554 36.3624 49.7225 0.0000 -9.9412 0.0000
# 4 0.0000 0.0000 0.0000 22.0082 0.0000 -6.7112
# 5 -8.2839 -13.9455 -9.9412 0.0000 20.6469 0.0000
# 6 0.0000 0.0000 0.0000 -6.7112 0.0000 6.8989
#
#
#
# Elastic Compliance Matrix: (Units=1/GPa)
#
#
# Indices 1 2 3 4 5 6 
#
# 1 0.015137 -0.004761 -0.000486 0.000000 0.002624 0.000000
# 2 -0.004761 0.009010 -0.004804 0.000000 0.001862 0.000000
# 3 -0.000486 -0.004804 0.025540 0.000000 0.008857 0.000000
# 4 0.000000 0.000000 0.000000 0.064602 0.000000 0.062844
# 5 0.002624 0.001862 0.008857 0.000000 0.055009 0.000000
# 6 0.000000 0.000000 0.000000 0.062844 0.000000 0.206086
#
#
# Mechanical properties :
#
#
# Convention : Reuss Voigt Hill
#
# Bulk Modulus (GPa) = 33.80024 56.47990 45.14007
# Shear Modulus (GPa) = 12.33521 22.66215 17.49868
#
# Velocity S-wave (km/s) = 2.59412 3.51615 3.08972
# Velocity P-wave (km/s) = 5.23567 6.87728 6.11184
#
# Compressibility (1/GPa) = 0.02958559
#
# Stress axis : x y z
#
# Youngs Moduli (GPa) = 66.06476 110.99299 39.15481
#
# Poissons Ratio (x) = 0.52840 0.01902
# Poissons Ratio (y) = 0.31451 0.18809
# Poissons Ratio (z) = 0.03210 0.53317
#
# Static dielectric constant tensor:
#      x y z
#    x 1.666630 0.000000 -0.006130 
#    y 0.000000 1.604570 0.000000 
#    z -0.006130 0.000000 1.635280 
# 
# From -- ./inp_files/84145.got.cif
#   From: 2010.05.17/outbox.cif.g08.bks.cpg/sg10_43_cif.got.tgz:84145.got - 2010.06.03 11:33:40.
