data_PCOD9144897
_publ_section_title
;
Structure prediction by ZEFSAII (Michael W. Deem and Ramdas Pophale) SiO2 
 PCOD9144897
Probable space group: P 2/M
;
_chemical_formula_sum "Si O2"
_cell_formula_units_Z 32
_cell_length_a 18.044950
_cell_length_b 8.875625
_cell_length_c 24.425292
_cell_angle_alpha 90.000000
_cell_angle_beta 149.103980
_cell_angle_gamma 90.000000
_cell_volume 2008.719599
_symmetry_space_group_name_H-M "P 2/M"
_symmetry_group_IT_number 10
_symmetry_cell_setting 'monoclinic'
loop_
_space_group_symop_operation_xyz
x,y,z
-x,y,-z
-x,-y,-z
x,-y,z
loop_
_atom_site_type_symbol
_atom_site_label
_atom_site_fract_x
_atom_site_fract_y
_atom_site_fract_z
Si Si1 0.776653 0.181425 0.093236
Si Si2 0.669267 0.178731 0.827929
Si Si3 0.390542 0.319566 0.697280
Si Si4 0.109391 0.318849 0.943717
Si Si5 0.058270 0.318519 0.477048
Si Si6 0.129030 0.673299 0.126823
Si Si7 0.448695 0.180935 0.852976
Si Si8 0.827526 0.818522 0.249593
O O1 0.864399 0.260306 0.100455
O O2 0.823008 0.228361 0.183410
O O3 0.792311 0.000000 0.098528
O O4 0.607215 0.215767 0.976508
O O5 0.510401 0.245723 0.734632
O O6 0.745465 0.227463 0.819671
O O7 0.667510 0.000000 0.832579
O O8 0.767791 0.247915 0.939208
O O9 0.403372 0.500000 0.703602
O O10 0.226332 0.277144 0.578793
O O11 0.422585 0.262959 0.779063
O O12 0.121382 0.500000 0.954529
O O13 0.953557 0.277064 0.870655
O O14 0.047693 0.500000 0.468145
O O15 0.000000 0.270546 0.500000
O O16 0.958147 0.249472 0.366942
O O17 0.177738 0.500000 0.163127
O O18 0.000000 0.674075 0.000000
O O19 0.322329 0.222347 0.815151
O O20 0.442280 0.000000 0.839936
O O21 0.837004 0.000000 0.256762
#
# Coordination Sequence:
#
# PCOD9144897 Si02
#       8
#     4   4   4   4   4   4   4   4
#     4  10  20  33  49  73 104 136 170 207 246 294
#     4  11  20  30  47  73 102 130 164 204 247 298
#     4  11  21  33  51  72  99 132 168 209 254 297
#     4  10  19  31  48  71 101 136 168 199 241 294
#     4  10  21  37  53  71  96 128 170 217 257 295
#     4   8  16  30  46  67  98 133 165 197 238 292
#     4  10  19  32  50  72 100 133 168 205 249 296
#     4  10  21  35  52  73  99 133 172 212 253 297
#
# _framework density 15.930547000000001
#
# number of rings (size 3 to 8) (size 9 to 14) (size 15 to 20)
#    0.000    2.000    2.500    3.000    0.000    6.000 
#    0.000    0.000    0.000    2.250    0.000    0.875 
#    0.000    7.000    0.000    0.000    0.000    0.000 
#
# Total GULP energy -178545.247883 kJ/mol
# GULP energy per Si atom -5579.538996 kJ/mol
# Density = 1.589429 g / cm^3
# Si number density = 15.930547 Si / 1000 Ang^3
#
#
#
# Elastic Constant Matrix: (Units=GPa)
#
#
# Indices 1 2 3 4 5 6 
#
# 1 151.9653 56.1504 83.3939 0.0000 17.6347 0.0000
# 2 56.1504 45.7607 40.1091 0.0000 7.2321 0.0000
# 3 83.3939 40.1091 97.3991 0.0000 -1.5786 0.0000
# 4 0.0000 0.0000 0.0000 3.0149 0.0000 10.9951
# 5 17.6347 7.2321 -1.5786 0.0000 20.8178 0.0000
# 6 0.0000 0.0000 0.0000 10.9951 0.0000 16.0522
#
#
#
# Elastic Compliance Matrix: (Units=1/GPa)
#
#
# Indices 1 2 3 4 5 6 
#
# 1 0.018151 -0.010101 -0.011588 0.000000 -0.012745 0.000000
# 2 -0.010101 0.043708 -0.009470 0.000000 -0.007346 0.000000
# 3 -0.011588 -0.009470 0.024331 0.000000 0.014951 0.000000
# 4 0.000000 0.000000 0.000000 -0.221422 0.000000 0.151665
# 5 -0.012745 -0.007346 0.014951 0.000000 0.062518 0.000000
# 6 0.000000 0.000000 0.000000 0.151665 0.000000 -0.041587
#
#
# Mechanical properties :
#
#
# Convention : Reuss Voigt Hill
#
# Bulk Modulus (GPa) = 41.88894 72.71465 57.30180
# Shear Modulus (GPa) = -113.56362 15.67510 -48.94426
#
# Velocity S-wave (km/s) = -8.45230 3.14022 -5.54889
# Velocity P-wave (km/s) = 8.30081 7.67411 2.23736
#
# Compressibility (1/GPa) = 0.02387265
#
# Stress axis : x y z
#
# Youngs Moduli (GPa) = 55.09448 22.87911 41.10045
#
# Poissons Ratio (x) = 0.23109 0.47626
# Poissons Ratio (y) = 0.55649 0.38921
# Poissons Ratio (z) = 0.63843 0.21666
#
# Static dielectric constant tensor:
#      x y z
#    x 1.548410 0.000000 0.014470 
#    y 0.000000 1.534770 0.000000 
#    z 0.014470 0.000000 1.500360 
# 
# From -- ./inp_files/56448.got.cif
#   From: 2010.05.17/outbox.cif.g08.bks.cpg/sg10_29_cif.got.tgz:56448.got - 2010.06.03 11:33:40.
