data_PCOD9144268
_publ_section_title
;
Structure prediction by ZEFSAII (Michael W. Deem and Ramdas Pophale) SiO2 
 PCOD9144268
Probable space group: P 2/M
;
_chemical_formula_sum "Si O2"
_cell_formula_units_Z 32
_cell_length_a 15.307235
_cell_length_b 7.610750
_cell_length_c 14.584989
_cell_angle_alpha 90.000000
_cell_angle_beta 91.327422
_cell_angle_gamma 90.000000
_cell_volume 1698.688503
_symmetry_space_group_name_H-M "P 2/M"
_symmetry_group_IT_number 10
_symmetry_cell_setting 'monoclinic'
loop_
_space_group_symop_operation_xyz
x,y,z
-x,y,-z
-x,-y,-z
x,-y,z
loop_
_atom_site_type_symbol
_atom_site_label
_atom_site_fract_x
_atom_site_fract_y
_atom_site_fract_z
Si Si1 0.593355 0.209575 0.471198
Si Si2 0.171207 0.301230 0.212871
Si Si3 0.004323 0.794956 0.702095
Si Si4 0.831610 0.788011 0.165845
Si Si5 0.096379 0.705889 0.025073
Si Si6 0.755125 0.713732 0.606643
Si Si7 0.882583 0.296359 0.459611
Si Si8 0.719962 0.213831 0.323827
O O1 0.500000 0.282502 0.500000
O O2 0.667666 0.239127 0.549847
O O3 0.633716 0.274543 0.375405
O O4 0.583408 0.000000 0.460260
O O5 0.201932 0.500000 0.194379
O O6 0.144469 0.217121 0.115450
O O7 0.237873 0.222109 0.288670
O O8 0.080993 0.306191 0.268423
O O9 0.084027 0.737541 0.770536
O O10 0.037133 0.775522 0.598202
O O11 0.988404 0.000000 0.718840
O O12 0.746087 0.732704 0.221558
O O13 0.831609 0.000000 0.161151
O O14 0.845837 0.719374 0.064512
O O15 0.081559 0.500000 0.047179
O O16 0.000000 0.781502 0.000000
O O17 0.760213 0.500000 0.607357
O O18 0.838935 0.781548 0.550139
O O19 0.900955 0.500000 0.476609
O O20 0.800375 0.277904 0.388214
O O21 0.721908 0.000000 0.326117
#
# Coordination Sequence:
#
# PCOD9144268 Si02
#       8
#     4   4   4   4   4   4   4   4
#     4   9  17  31  53  77  99 121 144 176 220 273
#     4  10  20  33  45  60  87 120 156 194 233 271
#     4  10  19  29  42  62  86 118 156 192 231 265
#     4   9  17  28  43  62  88 119 150 190 230 266
#     4  10  19  30  45  64  84 115 159 203 238 264
#     4   9  19  33  47  65  91 122 150 183 225 271
#     4   9  16  27  43  61  84 117 154 185 218 262
#     4   8  15  28  44  67  95 119 145 178 222 270
#
# _framework density 18.838062000000001
#
# number of rings (size 3 to 8) (size 9 to 14) (size 15 to 20)
#    0.000    2.750    1.250    1.500    0.000    4.500 
#    0.000    2.500    0.000    0.000    0.000    0.875 
#    0.000    7.000    0.000    0.000    0.000    0.000 
#
# Total GULP energy -178316.498625 kJ/mol
# GULP energy per Si atom -5572.390582 kJ/mol
# Density = 1.879519 g / cm^3
# Si number density = 18.838062 Si / 1000 Ang^3
#
#
#
# Elastic Constant Matrix: (Units=GPa)
#
#
# Indices 1 2 3 4 5 6 
#
# 1 87.9691 -0.9716 40.3845 0.0000 -17.8472 0.0000
# 2 -0.9716 39.1424 -6.8976 0.0000 -3.3623 0.0000
# 3 40.3845 -6.8976 144.7459 0.0000 -7.7971 0.0000
# 4 0.0000 0.0000 0.0000 18.1881 0.0000 -1.4862
# 5 -17.8472 -3.3623 -7.7971 0.0000 19.4220 0.0000
# 6 0.0000 0.0000 0.0000 -1.4862 0.0000 12.5565
#
#
#
# Elastic Compliance Matrix: (Units=1/GPa)
#
#
# Indices 1 2 3 4 5 6 
#
# 1 0.015709 0.000877 -0.003634 0.000000 0.013128 0.000000
# 2 0.000877 0.026309 0.001326 0.000000 0.005893 0.000000
# 3 -0.003634 0.001326 0.007991 0.000000 0.000098 0.000000
# 4 0.000000 0.000000 0.000000 0.055518 0.000000 0.006571
# 5 0.013128 0.005893 0.000098 0.000000 0.064612 0.000000
# 6 0.000000 0.000000 0.000000 0.006571 0.000000 0.080417
#
#
# Mechanical properties :
#
#
# Convention : Reuss Voigt Hill
#
# Bulk Modulus (GPa) = 21.20928 37.43201 29.32065
# Shear Modulus (GPa) = 18.57815 25.98946 22.28381
#
# Velocity S-wave (km/s) = 3.14379 3.71836 3.44308
# Velocity P-wave (km/s) = 4.94582 6.19262 5.60400
#
# Compressibility (1/GPa) = 0.04714917
#
# Stress axis : x y z
#
# Youngs Moduli (GPa) = 63.65763 38.00914 125.14037
#
# Poissons Ratio (x) = -0.03334 0.45474
# Poissons Ratio (y) = -0.05584 -0.16599
# Poissons Ratio (z) = 0.23132 -0.05042
#
# Static dielectric constant tensor:
#      x y z
#    x 1.654130 0.000000 -0.002130 
#    y 0.000000 1.718760 0.000000 
#    z -0.002130 0.000000 1.713890 
# 
# From -- ./inp_files/66145.got.cif
#   From: 2010.05.17/outbox.cif.g08.bks.cpg/sg10_34_cif.got.tgz:66145.got - 2010.06.03 11:33:40.
