data_PCOD9144843
_publ_section_title
;
Structure prediction by ZEFSAII (Michael W. Deem and Ramdas Pophale) SiO2 
 PCOD9144843
Probable space group: P 2/M
;
_chemical_formula_sum "Si O2"
_cell_formula_units_Z 32
_cell_length_a 22.559538
_cell_length_b 7.566174
_cell_length_c 16.901625
_cell_angle_alpha 90.000000
_cell_angle_beta 147.980248
_cell_angle_gamma 90.000000
_cell_volume 1529.622284
_symmetry_space_group_name_H-M "P 2/M"
_symmetry_group_IT_number 10
_symmetry_cell_setting 'monoclinic'
loop_
_space_group_symop_operation_xyz
x,y,z
-x,y,-z
-x,-y,-z
x,-y,z
loop_
_atom_site_type_symbol
_atom_site_label
_atom_site_fract_x
_atom_site_fract_y
_atom_site_fract_z
Si Si1 0.891900 0.705215 0.662854
Si Si2 0.356766 0.202549 0.624158
Si Si3 0.772397 0.289943 0.197985
Si Si4 0.790731 0.215647 0.970893
Si Si5 0.623497 0.285271 0.171634
Si Si6 0.401161 0.786492 0.139432
Si Si7 0.945577 0.798390 0.015883
Si Si8 0.037654 0.702951 0.694248
O O1 0.926137 0.500000 0.703339
O O2 0.761039 0.713311 0.529970
O O3 0.960796 0.799427 0.809547
O O4 0.928757 0.775081 0.617122
O O5 0.364553 0.211336 0.727698
O O6 0.472996 0.281648 0.724361
O O7 0.350508 0.000000 0.590544
O O8 0.789205 0.500000 0.226096
O O9 0.719218 0.223270 0.219161
O O10 0.889794 0.217478 0.295885
O O11 0.675440 0.266676 0.022074
O O12 0.667264 0.264489 0.859583
O O13 0.799889 0.000000 0.983606
O O14 0.837789 0.276880 0.939789
O O15 0.872251 0.288042 0.131809
O O16 0.629665 0.500000 0.183227
O O17 0.500000 0.240284 0.000000
O O18 0.406284 0.000000 0.142293
O O19 0.915578 0.000000 0.959751
O O20 0.000000 0.713078 0.000000
O O21 0.011594 0.500000 0.642599
#
# Coordination Sequence:
#
# PCOD9144843 Si02
#       8
#     4   4   4   4   4   4   4   4
#     4  10  20  34  51  71  97 127 161 196 233 281
#     4  11  22  33  47  67  95 130 165 200 239 282
#     4   9  16  28  47  68  91 118 154 200 244 284
#     4   8  14  26  45  70  97 121 149 187 229 274
#     4  10  19  31  47  69  95 124 160 201 244 287
#     4   9  17  28  44  67  93 123 159 197 234 274
#     4   9  17  31  54  81 104 124 148 184 232 284
#     4   8  15  28  46  67  89 118 155 195 236 278
#
# _framework density 20.920197999999999
#
# number of rings (size 3 to 8) (size 9 to 14) (size 15 to 20)
#    0.000    2.750    1.250    0.750    0.000    2.000 
#    0.000    0.625    0.000    4.500    0.000    5.250 
#    0.000    0.000    0.000    0.000    0.000    0.000 
#
# Total GULP energy -178305.930204 kJ/mol
# GULP energy per Si atom -5572.060319 kJ/mol
# Density = 2.087258 g / cm^3
# Si number density = 20.920198 Si / 1000 Ang^3
#
#
#
# Elastic Constant Matrix: (Units=GPa)
#
#
# Indices 1 2 3 4 5 6 
#
# 1 185.1394 3.4876 33.9487 0.0000 37.0446 0.0000
# 2 3.4876 52.8207 -1.6075 0.0000 0.5533 0.0000
# 3 33.9487 -1.6075 41.8025 0.0000 24.8641 0.0000
# 4 0.0000 0.0000 0.0000 13.2773 0.0000 -5.8527
# 5 37.0446 0.5533 24.8641 0.0000 26.0491 0.0000
# 6 0.0000 0.0000 0.0000 -5.8527 0.0000 -7.8451
#
#
#
# Elastic Compliance Matrix: (Units=1/GPa)
#
#
# Indices 1 2 3 4 5 6 
#
# 1 0.007563 -0.000365 0.000547 0.000000 -0.011270 0.000000
# 2 -0.000365 0.019045 0.002222 0.000000 -0.002007 0.000000
# 3 0.000547 0.002222 0.055648 0.000000 -0.053942 0.000000
# 4 0.000000 0.000000 0.000000 0.056678 0.000000 -0.042283
# 5 -0.011270 -0.002007 -0.053942 0.000000 0.105947 0.000000
# 6 0.000000 0.000000 0.000000 -0.042283 0.000000 -0.095924
#
#
# Mechanical properties :
#
#
# Convention : Reuss Voigt Hill
#
# Bulk Modulus (GPa) = 11.48560 39.04668 25.26614
# Shear Modulus (GPa) = 28.87373 22.55850 25.71612
#
# Velocity S-wave (km/s) = 3.71911 3.28733 3.50987
# Velocity P-wave (km/s) = 4.89331 5.75446 5.34127
#
# Compressibility (1/GPa) = 0.08706554
#
# Stress axis : x y z
#
# Youngs Moduli (GPa) = 132.22573 52.50798 17.97022
#
# Poissons Ratio (x) = 0.01915 -0.00984
# Poissons Ratio (y) = 0.04822 -0.03994
# Poissons Ratio (z) = -0.07237 -0.11670
#
# Static dielectric constant tensor:
#      x y z
#    x 1.832350 0.000000 0.050560 
#    y 0.000000 1.859700 0.000000 
#    z 0.050560 0.000000 1.721070 
# 
# From -- ./inp_files/52746.got.cif
#   From: 2010.05.17/outbox.cif.g08.bks.cpg/sg10_27_cif.got.tgz:52746.got - 2010.06.03 11:33:40.
