data_PCOD9144587
_publ_section_title
;
Structure prediction by ZEFSAII (Michael W. Deem and Ramdas Pophale) SiO2 
 PCOD9144587
Probable space group: P 2/M
;
_chemical_formula_sum "Si O2"
_cell_formula_units_Z 28
_cell_length_a 16.838880
_cell_length_b 8.985874
_cell_length_c 14.639475
_cell_angle_alpha 90.000000
_cell_angle_beta 41.055743
_cell_angle_gamma 90.000000
_cell_volume 1454.881185
_symmetry_space_group_name_H-M "P 2/M"
_symmetry_group_IT_number 10
_symmetry_cell_setting 'monoclinic'
loop_
_space_group_symop_operation_xyz
x,y,z
-x,y,-z
-x,-y,-z
x,-y,z
loop_
_atom_site_type_symbol
_atom_site_label
_atom_site_fract_x
_atom_site_fract_y
_atom_site_fract_z
Si Si1 0.136483 0.668644 0.922332
Si Si2 0.613502 0.674407 0.830959
Si Si3 0.480132 0.822410 0.412477
Si Si4 0.781519 0.320309 0.838985
Si Si5 0.438896 0.321043 0.833642
Si Si6 0.786383 0.822069 0.325046
Si Si7 0.045053 0.822310 0.180111
O O1 0.177171 0.500000 0.906131
O O2 0.210113 0.744938 0.777081
O O3 0.122857 0.760556 0.027024
O O4 0.000000 0.662312 0.000000
O O5 0.639091 0.500000 0.792293
O O6 0.728057 0.734039 0.788022
O O7 0.557301 0.737121 0.786663
O O8 0.500000 0.678664 0.000000
O O9 0.500000 0.776969 0.500000
O O10 0.561646 0.744095 0.266614
O O11 0.338943 0.787971 0.516634
O O12 0.499014 0.000000 0.390987
O O13 0.792511 0.500000 0.826447
O O14 0.902320 0.248393 0.773510
O O15 0.677087 0.284370 0.004057
O O16 0.445427 0.500000 0.824234
O O17 0.906284 0.780204 0.277403
O O18 0.791092 0.000000 0.305508
O O19 0.053554 0.000000 0.175778
#
# Coordination Sequence:
#
# PCOD9144587 Si02
#       7
#     4   4   4   4   4   4   4
#     4   9  17  29  46  68  92 121 159 201 243 285
#     4   7  12  27  50  73  99 128 154 190 246 300
#     4  10  22  37  51  69  96 132 170 206 242 283
#     4   9  17  30  51  79 105 126 155 198 247 296
#     4   9  18  33  53  76 100 128 162 200 245 294
#     4   9  19  35  49  64  93 133 168 199 242 291
#     4  10  19  30  47  70  98 130 162 197 242 293
#
# _framework density 19.245559
#
# number of rings (size 3 to 8) (size 9 to 14) (size 15 to 20)
#    0.000    3.000    0.000    2.571    2.000    3.714 
#    0.000    0.714    0.000    3.429    0.000    6.000 
#    0.000    0.000    0.000    0.000    0.000    0.000 
#
# Total GULP energy -156042.875974 kJ/mol
# GULP energy per Si atom -5572.959856 kJ/mol
# Density = 1.920176 g / cm^3
# Si number density = 19.245559 Si / 1000 Ang^3
#
#
#
# Elastic Constant Matrix: (Units=GPa)
#
#
# Indices 1 2 3 4 5 6 
#
# 1 121.5129 18.3999 1.3574 0.0000 -2.0666 0.0000
# 2 18.3999 12.8715 5.9482 0.0000 -5.8041 0.0000
# 3 1.3574 5.9482 28.8325 0.0000 -0.0695 0.0000
# 4 0.0000 0.0000 0.0000 19.7574 0.0000 -4.8481
# 5 -2.0666 -5.8041 -0.0695 0.0000 20.9979 0.0000
# 6 0.0000 0.0000 0.0000 -4.8481 0.0000 20.7588
#
#
#
# Elastic Compliance Matrix: (Units=1/GPa)
#
#
# Indices 1 2 3 4 5 6 
#
# 1 0.011039 -0.019282 0.003448 0.000000 -0.004232 0.000000
# 2 -0.019282 0.133202 -0.026488 0.000000 0.034833 0.000000
# 3 0.003448 -0.026488 0.039969 0.000000 -0.006850 0.000000
# 4 0.000000 0.000000 0.000000 0.053691 0.000000 0.012539
# 5 -0.004232 0.034833 -0.006850 0.000000 0.056813 0.000000
# 6 0.000000 0.000000 0.000000 0.012539 0.000000 0.051101
#
#
# Mechanical properties :
#
#
# Convention : Reuss Voigt Hill
#
# Bulk Modulus (GPa) = 10.04355 23.84755 16.94555
# Shear Modulus (GPa) = 10.78408 21.47024 16.12716
#
# Velocity S-wave (km/s) = 2.36972 3.34368 2.89791
# Velocity P-wave (km/s) = 3.56615 5.22733 4.47450
#
# Compressibility (1/GPa) = 0.09956639
#
# Stress axis : x y z
#
# Youngs Moduli (GPa) = 90.58964 7.50739 25.01956
#
# Poissons Ratio (x) = 0.14475 -0.08626
# Poissons Ratio (y) = 1.74672 0.66271
# Poissons Ratio (z) = -0.31234 0.19885
#
# Static dielectric constant tensor:
#      x y z
#    x 1.749960 0.000000 -0.029430 
#    y 0.000000 1.648060 0.000000 
#    z -0.029430 0.000000 1.651230 
# 
# From -- ./inp_files/68597.got.cif
#   From: 2010.05.17/outbox.cif.g08.bks.cpg/sg10_35_cif.got.tgz:68597.got - 2010.06.03 11:33:40.
