data_PCOD9144420
_publ_section_title
;
Structure prediction by ZEFSAII (Michael W. Deem and Ramdas Pophale) SiO2 
 PCOD9144420
Probable space group: P 2/M
;
_chemical_formula_sum "Si O2"
_cell_formula_units_Z 30
_cell_length_a 15.681756
_cell_length_b 21.174959
_cell_length_c 16.330526
_cell_angle_alpha 90.000000
_cell_angle_beta 162.022565
_cell_angle_gamma 90.000000
_cell_volume 1673.682398
_symmetry_space_group_name_H-M "P 2/M"
_symmetry_group_IT_number 10
_symmetry_cell_setting 'monoclinic'
loop_
_space_group_symop_operation_xyz
x,y,z
-x,y,-z
-x,-y,-z
x,-y,z
loop_
_atom_site_type_symbol
_atom_site_label
_atom_site_fract_x
_atom_site_fract_y
_atom_site_fract_z
Si Si1 0.308100 0.071838 0.746586
Si Si2 0.492622 0.426813 0.679345
Si Si3 0.898284 0.428092 0.823015
Si Si4 0.189384 0.000000 0.251950
Si Si5 0.970961 0.254697 0.876957
Si Si6 0.569650 0.708850 0.366389
Si Si7 0.655505 0.154011 0.379494
Si Si8 0.052495 0.879075 0.880294
O O1 0.346151 0.123971 0.711560
O O2 0.000000 0.073181 0.500000
O O3 0.363343 0.000000 0.764967
O O4 0.500000 0.082590 0.000000
O O5 0.409600 0.500000 0.624638
O O6 0.389875 0.362685 0.630287
O O7 0.367174 0.413008 0.474038
O O8 0.825332 0.426667 0.980025
O O9 0.835895 0.500000 0.789063
O O10 0.000000 0.396005 0.000000
O O11 0.500000 0.000000 0.500000
O O12 0.095583 0.060093 0.218943
O O13 0.000000 0.000000 0.000000
O O14 0.963321 0.180035 0.854085
O O15 0.724024 0.281386 0.595078
O O16 0.246099 0.282786 0.087877
O O17 0.000000 0.264211 0.000000
O O18 0.646792 0.769570 0.380925
O O19 0.928606 0.132469 0.677021
O O20 0.384485 0.125102 0.177681
#
# Coordination Sequence:
#
# PCOD9144420 Si02
#       8
#     4   4   4   2   4   4   4   4
#     4  10  21  36  58  87 111 133 157 193 242 300
#     4  10  19  30  43  61  88 117 156 208 249 293
#     4   9  17  27  39  57  83 116 154 202 260 306
#     4  12  24  36  52  76 102 132 182 232 264 292
#     4  10  20  34  48  64  91 128 173 219 257 297
#     4  10  21  33  48  70  92 130 172 204 256 302
#     4  10  21  38  55  76 107 134 167 203 244 313
#     4  10  22  35  53  74  97 138 173 214 263 296
#
# _framework density 17.924547
#
# number of rings (size 3 to 8) (size 9 to 14) (size 15 to 20)
#    0.000    2.000    0.000    3.600    1.867    6.933 
#    0.000    0.000    0.000    0.000    0.000    0.000 
#    0.000    1.067    0.000    0.000    0.000    3.200 
#
# Total GULP energy -167067.302659 kJ/mol
# GULP energy per Si atom -5568.910089 kJ/mol
# Density = 1.788375 g / cm^3
# Si number density = 17.924547 Si / 1000 Ang^3
#
#
#
# Elastic Constant Matrix: (Units=GPa)
#
#
# Indices 1 2 3 4 5 6 
#
# 1 40.3231 47.4276 -0.1790 0.0000 -12.1417 0.0000
# 2 47.4276 167.8101 15.9352 0.0000 -11.5469 0.0000
# 3 -0.1790 15.9352 92.2034 0.0000 -2.6809 0.0000
# 4 0.0000 0.0000 0.0000 -101.0890 0.0000 102.3627
# 5 -12.1417 -11.5469 -2.6809 0.0000 18.0686 0.0000
# 6 0.0000 0.0000 0.0000 102.3627 0.0000 -91.7195
#
#
#
# Elastic Compliance Matrix: (Units=1/GPa)
#
#
# Indices 1 2 3 4 5 6 
#
# 1 0.045409 -0.011472 0.002757 0.000000 0.023591 0.000000
# 2 -0.011472 0.009218 -0.001676 0.000000 -0.002067 0.000000
# 3 0.002757 -0.001676 0.011212 0.000000 0.002445 0.000000
# 4 0.000000 0.000000 0.000000 0.076035 0.000000 0.084858
# 5 0.023591 -0.002067 0.002445 0.000000 0.070239 0.000000
# 6 0.000000 0.000000 0.000000 0.084858 0.000000 0.083802
#
#
# Mechanical properties :
#
#
# Convention : Reuss Voigt Hill
#
# Bulk Modulus (GPa) = 22.19412 47.41160 34.80286
# Shear Modulus (GPa) = 15.07314 -19.13779 -2.03232
#
# Velocity S-wave (km/s) = 2.90301 -3.27109 -1.06597
# Velocity P-wave (km/s) = 4.86266 3.49877 4.23597
#
# Compressibility (1/GPa) = 0.04505699
#
# Stress axis : x y z
#
# Youngs Moduli (GPa) = 22.02205 108.47867 89.19324
#
# Poissons Ratio (x) = 1.24450 -0.24589
# Poissons Ratio (y) = 0.25264 0.14945
# Poissons Ratio (z) = -0.06071 0.18176
#
# Static dielectric constant tensor:
#      x y z
#    x 1.570870 0.000000 -0.004280 
#    y 0.000000 1.707320 0.000000 
#    z -0.004280 0.000000 1.616390 
# 
# From -- ./inp_files/67891.got.cif
#   From: 2010.05.17/outbox.cif.g08.bks.cpg/sg10_34_cif.got.tgz:67891.got - 2010.06.03 11:33:40.
