data_PCOD9144163
_publ_section_title
;
Structure prediction by ZEFSAII (Michael W. Deem and Ramdas Pophale) SiO2 
 PCOD9144163
Probable space group: P 2/M
;
_chemical_formula_sum "Si O2"
_cell_formula_units_Z 32
_cell_length_a 11.204476
_cell_length_b 18.407874
_cell_length_c 13.540973
_cell_angle_alpha 90.000000
_cell_angle_beta 147.892527
_cell_angle_gamma 90.000000
_cell_volume 1484.416355
_symmetry_space_group_name_H-M "P 2/M"
_symmetry_group_IT_number 10
_symmetry_cell_setting 'monoclinic'
loop_
_space_group_symop_operation_xyz
x,y,z
-x,y,-z
-x,-y,-z
x,-y,z
loop_
_atom_site_type_symbol
_atom_site_label
_atom_site_fract_x
_atom_site_fract_y
_atom_site_fract_z
Si Si1 0.118413 0.417312 0.900805
Si Si2 0.516168 0.330843 0.281627
Si Si3 0.217457 0.082973 0.055598
Si Si4 0.985463 0.375627 0.382388
Si Si5 0.322884 0.238325 0.785789
Si Si6 0.816664 0.703431 0.785432
Si Si7 0.747585 0.139761 0.705654
Si Si8 0.372257 0.079947 0.806486
O O1 0.077566 0.500000 0.902489
O O2 0.136267 0.412469 0.794759
O O3 0.920030 0.363889 0.798697
O O4 0.343767 0.385889 0.107945
O O5 0.758169 0.364584 0.467758
O O6 0.557260 0.266053 0.231045
O O7 0.407558 0.311094 0.309968
O O8 0.248258 0.133465 0.172300
O O9 0.427539 0.090541 0.131671
O O10 0.215886 0.000000 0.090953
O O11 0.975997 0.098169 0.835641
O O12 0.000000 0.412553 0.500000
O O13 0.862369 0.298327 0.315658
O O14 0.238741 0.155653 0.714530
O O15 0.500000 0.238550 0.000000
O O16 0.785396 0.776757 0.701801
O O17 0.000000 0.718344 0.000000
O O18 0.500000 0.114183 0.500000
O O19 0.266357 0.000000 0.715008
O O20 0.500000 0.075726 0.000000
#
# Coordination Sequence:
#
# PCOD9144163 Si02
#       8
#     4   4   4   4   4   4   4   4
#     4  11  25  44  67  95 128 164 204 255 315 380
#     4  10  22  40  65  93 127 163 208 256 313 373
#     4  10  21  39  62  92 129 167 210 263 315 362
#     4  10  23  41  65  96 124 162 211 259 312 368
#     4  10  18  36  65  92 121 164 210 262 308 363
#     4  10  22  40  63  91 129 165 209 253 314 375
#     4  11  22  36  61  94 123 168 211 261 307 368
#     4   9  19  35  62  92 124 169 211 256 317 369
#
# _framework density 21.557293999999999
#
# number of rings (size 3 to 8) (size 9 to 14) (size 15 to 20)
#    0.000    1.875    2.500    1.500    3.500    4.000 
#    0.000    5.000    0.000    3.375    0.000    0.000 
#    0.000    0.000    0.000    0.000    0.000    0.000 
#
# Total GULP energy -178590.299834 kJ/mol
# GULP energy per Si atom -5580.946870 kJ/mol
# Density = 2.150823 g / cm^3
# Si number density = 21.557294 Si / 1000 Ang^3
#
#
#
# Elastic Constant Matrix: (Units=GPa)
#
#
# Indices 1 2 3 4 5 6 
#
# 1 62.5227 21.9505 11.1062 0.0000 3.5063 0.0000
# 2 21.9505 136.4323 20.9089 0.0000 0.2483 0.0000
# 3 11.1062 20.9089 92.6449 0.0000 3.1627 0.0000
# 4 0.0000 0.0000 0.0000 -23.6439 0.0000 12.0308
# 5 3.5063 0.2483 3.1627 0.0000 29.5366 0.0000
# 6 0.0000 0.0000 0.0000 12.0308 0.0000 66.6973
#
#
#
# Elastic Compliance Matrix: (Units=1/GPa)
#
#
# Indices 1 2 3 4 5 6 
#
# 1 0.017249 -0.002553 -0.001428 0.000000 -0.001873 0.000000
# 2 -0.002553 0.007971 -0.001506 0.000000 0.000397 0.000000
# 3 -0.001428 -0.001506 0.011340 0.000000 -0.001032 0.000000
# 4 0.000000 0.000000 0.000000 -0.038739 0.000000 0.006988
# 5 -0.001873 0.000397 -0.001032 0.000000 0.034186 0.000000
# 6 0.000000 0.000000 0.000000 0.006988 0.000000 0.013733
#
#
# Mechanical properties :
#
#
# Convention : Reuss Voigt Hill
#
# Bulk Modulus (GPa) = 39.08414 44.39235 41.73824
# Shear Modulus (GPa) = 76.63715 30.36029 53.49872
#
# Velocity S-wave (km/s) = 5.96889 3.75687 4.98707
# Velocity P-wave (km/s) = 8.10390 6.28142 7.25015
#
# Compressibility (1/GPa) = 0.02558583
#
# Stress axis : x y z
#
# Youngs Moduli (GPa) = 57.97387 125.46214 88.18141
#
# Poissons Ratio (x) = 0.32030 0.12590
# Poissons Ratio (y) = 0.14801 0.13283
# Poissons Ratio (z) = 0.08277 0.18899
#
# Static dielectric constant tensor:
#      x y z
#    x 0.270610 0.000000 -0.669150 
#    y 0.000000 1.810860 0.000000 
#    z -0.669150 0.000000 1.496100 
# 
# From -- ./inp_files/65416.got.cif
#   From: 2010.05.17/outbox.cif.g08.bks.cpg/sg10_33_cif.got.tgz:65416.got - 2010.06.03 11:33:40.
