data_PCOD9144454
_publ_section_title
;
Structure prediction by ZEFSAII (Michael W. Deem and Ramdas Pophale) SiO2 
 PCOD9144454
Probable space group: P 2/M
;
_chemical_formula_sum "Si O2"
_cell_formula_units_Z 28
_cell_length_a 18.836164
_cell_length_b 7.593388
_cell_length_c 15.073755
_cell_angle_alpha 90.000000
_cell_angle_beta 139.453013
_cell_angle_gamma 90.000000
_cell_volume 1401.556407
_symmetry_space_group_name_H-M "P 2/M"
_symmetry_group_IT_number 10
_symmetry_cell_setting 'monoclinic'
loop_
_space_group_symop_operation_xyz
x,y,z
-x,y,-z
-x,-y,-z
x,-y,z
loop_
_atom_site_type_symbol
_atom_site_label
_atom_site_fract_x
_atom_site_fract_y
_atom_site_fract_z
Si Si1 0.915127 0.202726 0.035614
Si Si2 0.325281 0.206945 0.490014
Si Si3 0.563244 0.293709 0.771540
Si Si4 0.051884 0.706756 0.638222
Si Si5 0.287964 0.214367 0.257390
Si Si6 0.095472 0.214671 0.332684
Si Si7 0.767110 0.715690 0.064589
O O1 0.838388 0.213641 0.050034
O O2 0.028224 0.275918 0.181266
O O3 0.936241 0.000000 0.031519
O O4 0.834619 0.277661 0.884320
O O5 0.441751 0.223244 0.646707
O O6 0.325729 0.277425 0.389639
O O7 0.220156 0.274941 0.443155
O O8 0.303864 0.000000 0.459224
O O9 0.551522 0.500000 0.774649
O O10 0.628378 0.266127 0.740894
O O11 0.644007 0.226569 0.925794
O O12 0.070657 0.500000 0.638728
O O13 0.167785 0.774805 0.786197
O O14 0.000000 0.785389 0.500000
O O15 0.966684 0.723195 0.638456
O O16 0.285357 0.000000 0.253278
O O17 0.089147 0.000000 0.328374
O O18 0.770848 0.500000 0.064123
#
# Coordination Sequence:
#
# PCOD9144454 Si02
#       7
#     4   4   4   4   4   4   4
#     4   8  14  26  44  64  86 114 148 183 220 262
#     4  10  20  31  43  62  91 125 156 187 221 256
#     4  10  19  30  45  64  88 120 157 191 219 253
#     4   9  17  31  53  76  93 110 136 175 224 276
#     4   9  17  29  45  64  87 118 156 194 226 255
#     4   9  18  31  46  67  94 120 146 179 222 269
#     4   8  15  28  45  66  90 113 140 178 221 261
#
# _framework density 19.977791
#
# number of rings (size 3 to 8) (size 9 to 14) (size 15 to 20)
#    0.000    3.000    0.000    0.857    0.000    4.286 
#    0.000    2.857    0.000    0.857    0.000   17.000 
#    0.000    0.000    0.000    0.000    0.000    0.000 
#
# Total GULP energy -155955.868675 kJ/mol
# GULP energy per Si atom -5569.852453 kJ/mol
# Density = 1.993232 g / cm^3
# Si number density = 19.977791 Si / 1000 Ang^3
#
#
#
# Elastic Constant Matrix: (Units=GPa)
#
#
# Indices 1 2 3 4 5 6 
#
# 1 -5.2625 -13.4466 11.8489 0.0000 67.9536 0.0000
# 2 -13.4466 38.3482 -11.0006 0.0000 -2.0010 0.0000
# 3 11.8489 -11.0006 149.0210 0.0000 55.8658 0.0000
# 4 0.0000 0.0000 0.0000 11.4743 0.0000 1.3789
# 5 67.9536 -2.0010 55.8658 0.0000 -49.5552 0.0000
# 6 0.0000 0.0000 0.0000 1.3789 0.0000 8.0289
#
#
#
# Elastic Compliance Matrix: (Units=1/GPa)
#
#
# Indices 1 2 3 4 5 6 
#
# 1 0.020837 0.005907 -0.008325 0.000000 0.018950 0.000000
# 2 0.005907 0.028270 -0.000697 0.000000 0.006173 0.000000
# 3 -0.008325 -0.000697 0.008147 0.000000 -0.002203 0.000000
# 4 0.000000 0.000000 0.000000 0.088988 0.000000 -0.015283
# 5 0.018950 0.006173 -0.002203 0.000000 0.003073 0.000000
# 6 0.000000 0.000000 0.000000 -0.015283 0.000000 0.127175
#
#
# Mechanical properties :
#
#
# Convention : Reuss Voigt Hill
#
# Bulk Modulus (GPa) = 19.59813 17.43445 18.51629
# Shear Modulus (GPa) = 16.68177 6.96993 11.82585
#
# Velocity S-wave (km/s) = 2.89280 1.86987 2.43564
# Velocity P-wave (km/s) = 4.58137 3.66166 4.14709
#
# Compressibility (1/GPa) = 0.05102528
#
# Stress axis : x y z
#
# Youngs Moduli (GPa) = 47.99072 35.37276 122.74663
#
# Poissons Ratio (x) = -0.20895 1.02185
# Poissons Ratio (y) = -0.28349 0.08555
# Poissons Ratio (z) = 0.39952 0.02465
#
# Static dielectric constant tensor:
#      x y z
#    x 1.665320 0.000000 0.011870 
#    y 0.000000 1.769950 0.000000 
#    z 0.011870 0.000000 1.786350 
# 
# From -- ./inp_files/48791.got.cif
#   From: 2010.05.17/outbox.cif.g08.bks.cpg/sg10_25_cif.got.tgz:48791.got - 2010.06.03 11:33:40.
