data_PCOD9144198
_publ_section_title
;
Structure prediction by ZEFSAII (Michael W. Deem and Ramdas Pophale) SiO2 
 PCOD9144198
Probable space group: P 2/M
;
_chemical_formula_sum "Si O2"
_cell_formula_units_Z 28
_cell_length_a 12.623175
_cell_length_b 11.643749
_cell_length_c 15.546578
_cell_angle_alpha 90.000000
_cell_angle_beta 27.008662
_cell_angle_gamma 90.000000
_cell_volume 1037.700074
_symmetry_space_group_name_H-M "P 2/M"
_symmetry_group_IT_number 10
_symmetry_cell_setting 'monoclinic'
loop_
_space_group_symop_operation_xyz
x,y,z
-x,y,-z
-x,-y,-z
x,-y,z
loop_
_atom_site_type_symbol
_atom_site_label
_atom_site_fract_x
_atom_site_fract_y
_atom_site_fract_z
Si Si1 0.939735 0.624307 0.426561
Si Si2 0.062445 0.378935 0.779074
Si Si3 0.453108 0.373782 0.881511
Si Si4 0.352892 0.174889 0.531394
Si Si5 0.923494 0.123225 0.435800
Si Si6 0.756794 0.133342 0.132165
Si Si7 0.455726 0.125322 0.890527
O O1 0.048185 0.500000 0.373930
O O2 0.927283 0.618917 0.332866
O O3 0.685664 0.626550 0.655271
O O4 0.040100 0.752864 0.370634
O O5 0.152231 0.500000 0.748590
O O6 0.224747 0.272624 0.678487
O O7 0.788619 0.370880 0.997772
O O8 0.443528 0.500000 0.932469
O O9 0.447251 0.252736 0.937203
O O10 0.500000 0.113631 0.500000
O O11 0.164032 0.124431 0.600520
O O12 0.550652 0.210111 0.319339
O O13 0.695298 0.120944 0.661858
O O14 0.044339 0.000000 0.363299
O O15 0.744186 0.131100 0.038592
O O16 0.698050 0.000000 0.197944
O O17 0.000000 0.160145 0.000000
O O18 0.431308 0.000000 0.951289
#
# Coordination Sequence:
#
# PCOD9144198 Si02
#       7
#     4   4   4   4   4   4   4
#     4   8  14  26  41  52  60  73  83  88  98 112
#     4   9  18  30  39  49  61  70  80  91  99 107
#     4   9  16  26  42  54  61  71  82  90 100 111
#     4  10  19  27  36  48  57  68  75  89  98 109
#     4   8  14  25  37  48  60  69  74  88 103 107
#     4   9  18  30  40  47  57  70  78  90 102 108
#     4   8  14  25  39  50  59  68  79  89  98 109
#
# _framework density 26.982748999999998
#
# number of rings (size 3 to 8) (size 9 to 14) (size 15 to 20)
#    0.000    3.286    0.000    2.143    2.000    1.429 
#    0.000    3.571    0.000    0.857    0.000    0.000 
#    0.000    0.000    0.000    0.000    0.000    0.000 
#
# Total GULP energy -156024.508833 kJ/mol
# GULP energy per Si atom -5572.303887 kJ/mol
# Density = 2.692133 g / cm^3
# Si number density = 26.982749 Si / 1000 Ang^3
#
#
#
# Elastic Constant Matrix: (Units=GPa)
#
#
# Indices 1 2 3 4 5 6 
#
# 1 124.9936 18.5816 18.1517 0.0000 -6.4909 0.0000
# 2 18.5816 312.3844 27.3891 0.0000 -13.7333 0.0000
# 3 18.1517 27.3891 125.7557 0.0000 -3.2930 0.0000
# 4 0.0000 0.0000 0.0000 7.9518 0.0000 3.3715
# 5 -6.4909 -13.7333 -3.2930 0.0000 37.0905 0.0000
# 6 0.0000 0.0000 0.0000 3.3715 0.0000 -20.8227
#
#
#
# Elastic Compliance Matrix: (Units=1/GPa)
#
#
# Indices 1 2 3 4 5 6 
#
# 1 0.008273 -0.000343 -0.001087 0.000000 0.001224 0.000000
# 2 -0.000343 0.003327 -0.000646 0.000000 0.001115 0.000000
# 3 -0.001087 -0.000646 0.008258 0.000000 0.000304 0.000000
# 4 0.000000 0.000000 0.000000 0.117679 0.000000 0.019054
# 5 0.001224 0.001115 0.000304 0.000000 0.027615 0.000000
# 6 0.000000 0.000000 0.000000 0.019054 0.000000 -0.044939
#
#
# Mechanical properties :
#
#
# Convention : Reuss Voigt Hill
#
# Bulk Modulus (GPa) = 63.67371 76.81983 70.24677
# Shear Modulus (GPa) = 38.58043 38.11135 38.34589
#
# Velocity S-wave (km/s) = 3.78540 3.76231 3.77387
# Velocity P-wave (km/s) = 6.53871 6.88514 6.71416
#
# Compressibility (1/GPa) = 0.01570507
#
# Stress axis : x y z
#
# Youngs Moduli (GPa) = 120.87694 300.55115 121.10175
#
# Poissons Ratio (x) = 0.10307 0.13168
# Poissons Ratio (y) = 0.04145 0.07823
# Poissons Ratio (z) = 0.13144 0.19415
#
# Static dielectric constant tensor:
#      x y z
#    x 2.061940 0.000000 -0.014760 
#    y 0.000000 2.221320 0.000000 
#    z -0.014760 0.000000 2.051910 
# 
# From -- ./inp_files/85819.got.cif
#   From: 2010.05.17/outbox.cif.g08.bks.cpg/sg10_43_cif.got.tgz:85819.got - 2010.06.03 11:33:40.
