data_PCOD9144874
_publ_section_title
;
Structure prediction by ZEFSAII (Michael W. Deem and Ramdas Pophale) SiO2 
 PCOD9144874
Probable space group: P 2/M
;
_chemical_formula_sum "Si O2"
_cell_formula_units_Z 32
_cell_length_a 14.815917
_cell_length_b 7.954706
_cell_length_c 23.296309
_cell_angle_alpha 90.000000
_cell_angle_beta 37.171791
_cell_angle_gamma 90.000000
_cell_volume 1658.920036
_symmetry_space_group_name_H-M "P 2/M"
_symmetry_group_IT_number 10
_symmetry_cell_setting 'monoclinic'
loop_
_space_group_symop_operation_xyz
x,y,z
-x,y,-z
-x,-y,-z
x,-y,z
loop_
_atom_site_type_symbol
_atom_site_label
_atom_site_fract_x
_atom_site_fract_y
_atom_site_fract_z
Si Si1 0.425080 0.195949 0.677919
Si Si2 0.779793 0.702921 0.773736
Si Si3 0.136809 0.798048 0.392148
Si Si4 0.159483 0.705899 0.128221
Si Si5 0.833926 0.298811 0.276234
Si Si6 0.529745 0.203428 0.746603
Si Si7 0.446355 0.702185 0.912568
Si Si8 0.361954 0.692713 0.524831
O O1 0.285089 0.267331 0.713583
O O2 0.458059 0.267983 0.724009
O O3 0.572938 0.217723 0.563762
O O4 0.394235 0.000000 0.699807
O O5 0.778159 0.500000 0.774507
O O6 0.871594 0.757367 0.671194
O O7 0.836569 0.757468 0.807131
O O8 0.608318 0.763092 0.852418
O O9 0.299329 0.735836 0.331233
O O10 0.000000 0.733520 0.500000
O O11 0.138400 0.000000 0.396699
O O12 0.163835 0.500000 0.124942
O O13 0.002053 0.760029 0.180846
O O14 0.305993 0.765076 0.020193
O O15 0.838150 0.500000 0.281751
O O16 0.769457 0.231413 0.369729
O O17 0.439595 0.252906 0.849055
O O18 0.535209 0.000000 0.740999
O O19 0.448444 0.500000 0.916876
O O20 0.500000 0.688074 0.500000
O O21 0.326743 0.500000 0.526654
#
# Coordination Sequence:
#
# PCOD9144874 Si02
#       8
#     4   4   4   4   4   4   4   4
#     4  10  19  31  48  68  92 125 161 195 231 272
#     4   9  17  30  50  75  99 122 152 191 233 279
#     4   9  18  33  50  69  98 131 158 188 228 276
#     4   9  17  31  51  73  97 123 151 191 241 282
#     4   9  18  32  48  68  96 126 155 190 233 279
#     4   9  19  34  49  67  94 127 159 192 234 278
#     4   9  17  31  52  74  93 119 157 194 230 279
#     4   8  15  28  45  65  90 120 152 186 227 274
#
# _framework density 19.289656999999998
#
# number of rings (size 3 to 8) (size 9 to 14) (size 15 to 20)
#    0.000    3.000    0.000    1.500    0.000    6.000 
#    0.000    2.500    0.000    6.750    0.000    0.000 
#    0.000    0.000    0.000    0.000    0.000    0.000 
#
# Total GULP energy -178325.289178 kJ/mol
# GULP energy per Si atom -5572.665287 kJ/mol
# Density = 1.924575 g / cm^3
# Si number density = 19.289657 Si / 1000 Ang^3
#
#
#
# Elastic Constant Matrix: (Units=GPa)
#
#
# Indices 1 2 3 4 5 6 
#
# 1 89.7244 1.8607 65.3990 0.0000 17.7685 0.0000
# 2 1.8607 8.7158 3.7874 0.0000 -4.0667 0.0000
# 3 65.3990 3.7874 148.6484 0.0000 1.3000 0.0000
# 4 0.0000 0.0000 0.0000 19.9835 0.0000 8.1115
# 5 17.7685 -4.0667 1.3000 0.0000 22.3075 0.0000
# 6 0.0000 0.0000 0.0000 8.1115 0.0000 16.0351
#
#
#
# Elastic Compliance Matrix: (Units=1/GPa)
#
#
# Indices 1 2 3 4 5 6 
#
# 1 0.021619 -0.009226 -0.009116 0.000000 -0.018371 0.000000
# 2 -0.009226 0.131075 0.000446 0.000000 0.031218 0.000000
# 3 -0.009116 0.000446 0.010668 0.000000 0.006720 0.000000
# 4 0.000000 0.000000 0.000000 0.062971 0.000000 -0.031854
# 5 -0.018371 0.031218 0.006720 0.000000 0.064760 0.000000
# 6 0.000000 0.000000 0.000000 -0.031854 0.000000 0.078477
#
#
# Mechanical properties :
#
#
# Convention : Reuss Voigt Hill
#
# Bulk Modulus (GPa) = 7.83874 43.24256 25.54065
# Shear Modulus (GPa) = 11.16361 23.40133 17.28247
#
# Velocity S-wave (km/s) = 2.40830 3.48682 2.99648
# Velocity P-wave (km/s) = 3.43595 6.21906 5.02406
#
# Compressibility (1/GPa) = 0.12757146
#
# Stress axis : x y z
#
# Youngs Moduli (GPa) = 46.25597 7.62921 93.74145
#
# Poissons Ratio (x) = 0.07039 0.85451
# Poissons Ratio (y) = 0.42675 -0.04183
# Poissons Ratio (z) = 0.42165 -0.00340
#
# Static dielectric constant tensor:
#      x y z
#    x 1.677270 0.000000 -0.011600 
#    y 0.000000 1.697170 0.000000 
#    z -0.011600 0.000000 1.682260 
# 
# From -- ./inp_files/84702.got.cif
#   From: 2010.05.17/outbox.cif.g08.bks.cpg/sg10_43_cif.got.tgz:84702.got - 2010.06.03 11:33:40.
