data_PCOD9144755
_publ_section_title
;
Structure prediction by ZEFSAII (Michael W. Deem and Ramdas Pophale) SiO2 
 PCOD9144755
Probable space group: P 2/M
;
_chemical_formula_sum "Si O2"
_cell_formula_units_Z 32
_cell_length_a 12.573073
_cell_length_b 9.063973
_cell_length_c 21.148859
_cell_angle_alpha 90.000000
_cell_angle_beta 51.840719
_cell_angle_gamma 90.000000
_cell_volume 1895.104448
_symmetry_space_group_name_H-M "P 2/M"
_symmetry_group_IT_number 10
_symmetry_cell_setting 'monoclinic'
loop_
_space_group_symop_operation_xyz
x,y,z
-x,y,-z
-x,-y,-z
x,-y,z
loop_
_atom_site_type_symbol
_atom_site_label
_atom_site_fract_x
_atom_site_fract_y
_atom_site_fract_z
Si Si1 0.936633 0.177148 0.711836
Si Si2 0.656457 0.176900 0.756937
Si Si3 0.349639 0.675845 0.378094
Si Si4 0.343543 0.323100 0.743063
Si Si5 0.906559 0.177399 0.474272
Si Si6 0.093441 0.322601 0.025728
Si Si7 0.063367 0.322852 0.788164
Si Si8 0.650361 0.824155 0.121906
O O1 0.780150 0.218213 0.756754
O O2 1.000000 0.250000 0.750000
O O3 0.019077 0.217559 0.618052
O O4 0.942797 0.000000 0.715797
O O5 0.671667 0.257590 0.684189
O O6 0.506091 0.208706 0.837579
O O7 0.665428 0.000000 0.742056
O O8 0.333002 0.500000 0.382579
O O9 0.506091 0.708706 0.337579
O O10 0.238495 0.747876 0.463876
O O11 0.334572 0.500000 0.757944
O O12 0.328333 0.242411 0.815811
O O13 0.219850 0.281787 0.743246
O O14 0.000000 0.219502 0.500000
O O15 0.891752 0.000000 0.481596
O O16 0.108249 0.500000 0.018404
O O17 0.019077 0.282442 0.118052
O O18 0.238495 0.247875 0.963876
O O19 0.000000 0.280497 0.000000
O O20 0.057203 0.500000 0.784203
O O21 0.666998 0.000000 0.117422
#
# Coordination Sequence:
#
# PCOD9144755 Si02
#       8
#     4   4   4   4   4   4   4   4
#     4  10  21  37  56  76 104 143 178 213 261 316
#     4   9  18  35  53  74 108 145 173 207 267 321
#     4  10  19  30  53  84 107 131 174 227 261 298
#     4   9  18  35  53  74 108 145 173 207 267 321
#     4  10  19  35  56  76 105 143 176 212 265 318
#     4  10  19  35  56  76 105 143 176 212 265 318
#     4  10  21  37  56  76 104 143 178 213 261 316
#     4  10  19  30  53  84 107 131 174 227 261 298
#
# _framework density 16.885611999999998
#
# number of rings (size 3 to 8) (size 9 to 14) (size 15 to 20)
#    0.000    2.250    2.500    0.750    0.000    3.500 
#    0.000    1.250    0.000    7.500    0.000    0.000 
#    0.000    0.000    0.000    0.000    0.000    0.000 
#
# Total GULP energy -178498.019255 kJ/mol
# GULP energy per Si atom -5578.063102 kJ/mol
# Density = 1.684718 g / cm^3
# Si number density = 16.885612 Si / 1000 Ang^3
#
#
#
# Elastic Constant Matrix: (Units=GPa)
#
#
# Indices 1 2 3 4 5 6 
#
# 1 165.6189 45.7363 90.5955 0.0000 -11.9650 0.0000
# 2 45.7363 21.1111 41.6332 0.0000 -7.3433 0.0000
# 3 90.5955 41.6332 113.5141 0.0000 -12.7374 0.0000
# 4 0.0000 0.0000 0.0000 32.8353 0.0000 -0.9791
# 5 -11.9650 -7.3433 -12.7374 0.0000 29.4344 0.0000
# 6 0.0000 0.0000 0.0000 -0.9791 0.0000 29.2641
#
#
#
# Elastic Compliance Matrix: (Units=1/GPa)
#
#
# Indices 1 2 3 4 5 6 
#
# 1 0.015162 -0.033484 -0.000069 0.000000 -0.002220 0.000000
# 2 -0.033484 0.252946 -0.063582 0.000000 0.021979 0.000000
# 3 -0.000069 -0.063582 0.031953 0.000000 -0.002063 0.000000
# 4 0.000000 0.000000 0.000000 0.030485 0.000000 0.001020
# 5 -0.002220 0.021979 -0.002063 0.000000 0.037662 0.000000
# 6 0.000000 0.000000 0.000000 0.001020 0.000000 0.034206
#
#
# Mechanical properties :
#
#
# Convention : Reuss Voigt Hill
#
# Bulk Modulus (GPa) = 9.45268 72.90824 41.18046
# Shear Modulus (GPa) = 7.91204 26.45868 17.18536
#
# Velocity S-wave (km/s) = 2.16699 3.96275 3.19368
# Velocity P-wave (km/s) = 3.44548 8.01307 6.16768
#
# Compressibility (1/GPa) = 0.10579007
#
# Stress axis : x y z
#
# Youngs Moduli (GPa) = 65.95363 3.95342 31.29584
#
# Poissons Ratio (x) = 0.13238 0.00217
# Poissons Ratio (y) = 2.20838 1.98986
# Poissons Ratio (z) = 0.00457 0.25137
#
# Static dielectric constant tensor:
#      x y z
#    x 1.563420 0.000000 -0.029820 
#    y 0.000000 1.564780 0.000000 
#    z -0.029820 0.000000 1.560320 
# 
# From -- ./inp_files/49970.got.cif
#   From: 2010.05.17/outbox.cif.g08.bks.cpg/sg10_25_cif.got.tgz:49970.got - 2010.06.03 11:33:40.
