data_PCOD9144827
_publ_section_title
;
Structure prediction by ZEFSAII (Michael W. Deem and Ramdas Pophale) SiO2 
 PCOD9144827
Probable space group: P 2/M
;
_chemical_formula_sum "Si O2"
_cell_formula_units_Z 28
_cell_length_a 12.625734
_cell_length_b 8.581308
_cell_length_c 19.788227
_cell_angle_alpha 90.000000
_cell_angle_beta 48.589750
_cell_angle_gamma 90.000000
_cell_volume 1607.955683
_symmetry_space_group_name_H-M "P 2/M"
_symmetry_group_IT_number 10
_symmetry_cell_setting 'monoclinic'
loop_
_space_group_symop_operation_xyz
x,y,z
-x,y,-z
-x,-y,-z
x,-y,z
loop_
_atom_site_type_symbol
_atom_site_label
_atom_site_fract_x
_atom_site_fract_y
_atom_site_fract_z
Si Si1 0.568924 0.311844 0.313453
Si Si2 0.575854 0.689292 0.756105
Si Si3 0.399128 0.688626 0.102876
Si Si4 0.099374 0.311403 0.395723
Si Si5 0.366502 0.824744 0.505913
Si Si6 0.089304 0.184154 0.250912
Si Si7 0.179568 0.316302 0.695958
O O1 0.568891 0.500000 0.317320
O O2 0.541418 0.261142 0.248413
O O3 0.433148 0.250429 0.411659
O O4 0.711712 0.260298 0.291551
O O5 0.575948 0.500000 0.755895
O O6 0.551029 0.740007 0.843436
O O7 0.735333 0.735759 0.667036
O O8 0.397904 0.500000 0.102729
O O9 0.238787 0.745683 0.165099
O O10 0.500000 0.742576 0.000000
O O11 0.094757 0.500000 0.396128
O O12 0.055039 0.251577 0.340269
O O13 0.000000 0.259720 0.500000
O O14 0.500000 0.836175 0.500000
O O15 0.257805 0.717868 0.591845
O O16 0.310784 0.000000 0.518548
O O17 0.968174 0.230463 0.249191
O O18 0.100011 0.000000 0.252149
O O19 0.157276 0.500000 0.713620
#
# Coordination Sequence:
#
# PCOD9144827 Si02
#       7
#     4   4   4   4   4   4   4
#     4   9  17  29  47  70  97 134 173 209 246 293
#     4   8  15  29  49  76 102 124 161 207 252 299
#     4   9  18  36  61  82  99 124 161 206 257 313
#     4   9  18  32  50  72 100 137 172 206 251 298
#     4   9  17  28  41  62  94 132 172 209 245 283
#     4  11  22  34  50  75 104 132 167 209 257 304
#     4  10  19  31  47  67  96 135 179 213 243 289
#
# _framework density 17.413416000000002
#
# number of rings (size 3 to 8) (size 9 to 14) (size 15 to 20)
#    0.000    2.714    0.000    3.000    2.000    2.857 
#    0.000    2.857    0.000    0.857    0.000    6.000 
#    0.000    0.000    0.000    0.000    0.000    0.000 
#
# Total GULP energy -156006.938491 kJ/mol
# GULP energy per Si atom -5571.676375 kJ/mol
# Density = 1.737378 g / cm^3
# Si number density = 17.413416 Si / 1000 Ang^3
#
#
#
# Elastic Constant Matrix: (Units=GPa)
#
#
# Indices 1 2 3 4 5 6 
#
# 1 127.5002 10.7865 61.9081 0.0000 11.2743 0.0000
# 2 10.7865 18.0797 14.9502 0.0000 3.4592 0.0000
# 3 61.9081 14.9502 122.3865 0.0000 12.6984 0.0000
# 4 0.0000 0.0000 0.0000 -10.4982 0.0000 2.5956
# 5 11.2743 3.4592 12.6984 0.0000 11.7983 0.0000
# 6 0.0000 0.0000 0.0000 2.5956 0.0000 7.5980
#
#
#
# Elastic Compliance Matrix: (Units=1/GPa)
#
#
# Indices 1 2 3 4 5 6 
#
# 1 0.010684 -0.001572 -0.004729 0.000000 -0.004659 0.000000
# 2 -0.001572 0.063100 -0.005796 0.000000 -0.010760 0.000000
# 3 -0.004729 -0.005796 0.011962 0.000000 -0.006656 0.000000
# 4 0.000000 0.000000 0.000000 -0.087836 0.000000 0.030006
# 5 -0.004659 -0.010760 -0.006656 0.000000 0.099528 0.000000
# 6 0.000000 0.000000 0.000000 0.030006 0.000000 0.121363
#
#
# Mechanical properties :
#
#
# Convention : Reuss Voigt Hill
#
# Bulk Modulus (GPa) = 16.24678 49.25067 32.74873
# Shear Modulus (GPa) = 18.97433 13.80106 16.38770
#
# Velocity S-wave (km/s) = 3.30455 2.81829 3.07106
# Velocity P-wave (km/s) = 4.88982 6.23978 5.60559
#
# Compressibility (1/GPa) = 0.06155066
#
# Stress axis : x y z
#
# Youngs Moduli (GPa) = 93.59479 15.84777 83.60051
#
# Poissons Ratio (x) = 0.02492 0.39536
# Poissons Ratio (y) = 0.14717 0.48457
# Poissons Ratio (z) = 0.44262 0.09186
#
# Static dielectric constant tensor:
#      x y z
#    x 1.628930 0.000000 0.006290 
#    y 0.000000 1.592700 0.000000 
#    z 0.006290 0.000000 1.576310 
# 
# From -- ./inp_files/83322.got.cif
#   From: 2010.05.17/outbox.cif.g08.bks.cpg/sg10_42_cif.got.tgz:83322.got - 2010.06.03 11:33:40.
