data_PCOD9144319
_publ_section_title
;
Structure prediction by ZEFSAII (Michael W. Deem and Ramdas Pophale) SiO2 
 PCOD9144319
Probable space group: P 2/M
;
_chemical_formula_sum "Si O2"
_cell_formula_units_Z 30
_cell_length_a 12.831693
_cell_length_b 28.992040
_cell_length_c 14.807204
_cell_angle_alpha 90.000000
_cell_angle_beta 20.310692
_cell_angle_gamma 90.000000
_cell_volume 1912.069851
_symmetry_space_group_name_H-M "P 2/M"
_symmetry_group_IT_number 10
_symmetry_cell_setting 'monoclinic'
loop_
_space_group_symop_operation_xyz
x,y,z
-x,y,-z
-x,-y,-z
x,-y,z
loop_
_atom_site_type_symbol
_atom_site_label
_atom_site_fract_x
_atom_site_fract_y
_atom_site_fract_z
Si Si1 0.378080 0.055295 0.373215
Si Si2 0.640126 0.231050 0.286222
Si Si3 0.314494 0.944366 0.066545
Si Si4 0.360155 0.500000 0.713596
Si Si5 0.641590 0.131396 0.285646
Si Si6 0.692539 0.444191 0.934756
Si Si7 0.388244 0.416769 0.370129
Si Si8 0.363392 0.665817 0.712597
O O1 0.534868 0.086868 0.319106
O O2 0.030533 0.069052 0.652493
O O3 0.402220 0.000000 0.370773
O O4 0.527534 0.065670 0.155805
O O5 0.500000 0.230413 0.500000
O O6 0.552319 0.181473 0.315564
O O7 0.566399 0.281960 0.310359
O O8 0.000000 0.230417 0.000000
O O9 0.312677 0.000000 0.076387
O O10 0.500000 0.925455 0.000000
O O11 0.500000 0.500000 0.500000
O O12 0.476496 0.456209 0.674724
O O13 0.000000 0.500000 0.000000
O O14 0.500000 0.129812 0.500000
O O15 0.000000 0.130304 0.000000
O O16 0.714279 0.500000 0.927258
O O17 0.029388 0.423999 0.655596
O O18 0.500000 0.435364 0.000000
O O19 0.529314 0.423991 0.156116
O O20 0.490883 0.369934 0.336096
O O21 0.500000 0.660075 0.500000
O O22 0.000000 0.659959 0.000000
#
# Coordination Sequence:
#
# PCOD9144319 Si02
#       8
#     4   4   4   2   4   4   4   4
#     4  10  19  29  44  68  94 123 157 193 235 286
#     4   8  16  30  48  67  91 123 160 196 227 264
#     4   9  17  30  46  64  88 118 154 198 238 274
#     4  12  22  32  45  70 105 132 148 174 224 290
#     4  10  19  31  46  67  96 129 160 191 227 275
#     4  11  22  38  54  71  95 128 171 211 231 261
#     4  12  21  35  52  75  98 131 161 192 240 284
#     4  10  19  33  51  75 102 126 155 193 233 287
#
# _framework density 15.689802999999999
#
# number of rings (size 3 to 8) (size 9 to 14) (size 15 to 20)
#    0.000    1.867    1.333    4.000    0.000    3.200 
#    0.000    0.000    0.000    0.000    0.000    5.600 
#    0.000    0.000    0.000    0.000    0.000    0.000 
#
# Total GULP energy -167168.920711 kJ/mol
# GULP energy per Si atom -5572.297357 kJ/mol
# Density = 1.565409 g / cm^3
# Si number density = 15.689803 Si / 1000 Ang^3
#
#
#
# Elastic Constant Matrix: (Units=GPa)
#
#
# Indices 1 2 3 4 5 6 
#
# 1 84.9156 67.6949 59.7758 0.0000 -16.4066 0.0000
# 2 67.6949 116.4417 43.9703 0.0000 -3.2670 0.0000
# 3 59.7758 43.9703 154.8525 0.0000 4.8458 0.0000
# 4 0.0000 0.0000 0.0000 19.5996 0.0000 7.2690
# 5 -16.4066 -3.2670 4.8458 0.0000 6.6355 0.0000
# 6 0.0000 0.0000 0.0000 7.2690 0.0000 -0.3302
#
#
#
# Elastic Compliance Matrix: (Units=1/GPa)
#
#
# Indices 1 2 3 4 5 6 
#
# 1 -0.266393 0.099624 0.095810 0.000000 -0.679585 0.000000
# 2 0.099624 -0.027320 -0.038875 0.000000 0.261264 0.000000
# 3 0.095810 -0.038875 -0.026917 0.000000 0.237412 0.000000
# 4 0.000000 0.000000 0.000000 0.005567 0.000000 0.122559
# 5 -0.679585 0.261264 0.237412 0.000000 -1.574344 0.000000
# 6 0.000000 0.000000 0.000000 0.122559 0.000000 -0.330458
#
#
# Mechanical properties :
#
#
# Convention : Reuss Voigt Hill
#
# Bulk Modulus (GPa) = -133.14161 77.67688 -27.73237
# Shear Modulus (GPa) = -1.97201 17.49890 7.76345
#
# Velocity S-wave (km/s) = -1.12232 3.34324 2.22684
# Velocity P-wave (km/s) = 9.31248 8.03233 3.33197
#
# Compressibility (1/GPa) = -0.00751080
#
# Stress axis : x y z
#
# Youngs Moduli (GPa) = -3.75386 -36.60333 -37.15061
#
# Poissons Ratio (x) = 3.64659 3.55941
# Poissons Ratio (y) = 0.37398 -1.44423
# Poissons Ratio (z) = 0.35966 -1.42296
#
# Static dielectric constant tensor:
#      x y z
#    x 1.500630 0.000000 0.008030 
#    y 0.000000 1.542970 0.000000 
#    z 0.008030 0.000000 1.524130 
# 
# From -- ./inp_files/65546.got.cif
#   From: 2010.05.17/outbox.cif.g08.bks.cpg/sg10_33_cif.got.tgz:65546.got - 2010.06.03 11:33:40.
