data_PCOD9144461
_publ_section_title
;
Structure prediction by ZEFSAII (Michael W. Deem and Ramdas Pophale) SiO2 
 PCOD9144461
Probable space group: P 2/M
;
_chemical_formula_sum "Si O2"
_cell_formula_units_Z 28
_cell_length_a 9.793316
_cell_length_b 7.593014
_cell_length_c 33.731325
_cell_angle_alpha 90.000000
_cell_angle_beta 30.344672
_cell_angle_gamma 90.000000
_cell_volume 1267.188606
_symmetry_space_group_name_H-M "P 2/M"
_symmetry_group_IT_number 10
_symmetry_cell_setting 'monoclinic'
loop_
_space_group_symop_operation_xyz
x,y,z
-x,y,-z
-x,-y,-z
x,-y,z
loop_
_atom_site_type_symbol
_atom_site_label
_atom_site_fract_x
_atom_site_fract_y
_atom_site_fract_z
Si Si1 0.310519 0.216504 0.923363
Si Si2 0.842557 0.713577 0.168355
Si Si3 0.182438 0.206294 0.247841
Si Si4 0.635471 0.203780 0.004360
Si Si5 0.820406 0.288550 0.262559
Si Si6 0.193877 0.284625 0.416476
Si Si7 0.226271 0.708051 0.321658
O O1 0.520830 0.280834 0.837788
O O2 0.308232 0.000000 0.923522
O O3 0.421740 0.277424 0.938220
O O4 0.000000 0.273232 0.000000
O O5 0.853237 0.500000 0.163211
O O6 0.924331 0.768229 0.192885
O O7 0.534477 0.774845 0.240119
O O8 0.046098 0.788571 0.085013
O O9 0.080952 0.267797 0.316132
O O10 0.990977 0.235666 0.258061
O O11 0.216601 0.000000 0.243743
O O12 0.549175 0.000000 0.027431
O O13 0.500000 0.289958 0.000000
O O14 0.819648 0.500000 0.261585
O O15 0.506653 0.232216 0.344256
O O16 0.187409 0.500000 0.419373
O O17 0.112468 0.226645 0.392246
O O18 0.000000 0.221506 0.500000
O O19 0.254108 0.500000 0.320248
#
# Coordination Sequence:
#
# PCOD9144461 Si02
#       7
#     4   4   4   4   4   4   4
#     4   9  18  31  45  63  90 126 168 211 247 279
#     4   9  18  32  49  70  96 127 163 204 254 304
#     4  11  21  33  51  74 101 135 172 205 244 300
#     4  10  19  30  45  65  90 123 165 211 251 286
#     4   9  18  33  53  76 103 132 162 205 253 292
#     4   8  15  32  59  84 101 125 166 206 240 289
#     4   9  18  33  53  76 101 127 159 204 250 291
#
# _framework density 22.096156000000001
#
# number of rings (size 3 to 8) (size 9 to 14) (size 15 to 20)
#    0.000    2.714    0.000    3.857    0.000    3.714 
#    0.000    4.286    0.000    9.857    0.000    0.000 
#    0.000    0.000    0.000    0.000    0.000    0.000 
#
# Total GULP energy -156250.762287 kJ/mol
# GULP energy per Si atom -5580.384367 kJ/mol
# Density = 2.204586 g / cm^3
# Si number density = 22.096156 Si / 1000 Ang^3
#
#
#
# Elastic Constant Matrix: (Units=GPa)
#
#
# Indices 1 2 3 4 5 6 
#
# 1 93.0506 -3.8863 30.4096 0.0000 36.4678 0.0000
# 2 -3.8863 49.6835 0.7141 0.0000 0.6726 0.0000
# 3 30.4096 0.7141 115.8098 0.0001 34.3081 -0.0001
# 4 0.0000 0.0000 0.0001 5.0558 0.0000 -13.7404
# 5 36.4678 0.6726 34.3081 0.0000 35.5777 0.0000
# 6 0.0000 0.0000 -0.0001 -13.7404 0.0000 2.9957
#
#
#
# Elastic Compliance Matrix: (Units=1/GPa)
#
#
# Indices 1 2 3 4 5 6 
#
# 1 0.018190 0.001674 0.001045 0.000000 -0.019684 0.000000
# 2 0.001674 0.020287 0.000080 0.000000 -0.002177 0.000000
# 3 0.001045 0.000080 0.012148 0.000000 -0.012787 0.000000
# 4 0.000000 0.000000 0.000000 -0.017251 0.000000 -0.079125
# 5 -0.019684 -0.002177 -0.012787 0.000000 0.060655 0.000000
# 6 0.000000 0.000000 0.000000 -0.079125 0.000000 -0.029114
#
#
# Mechanical properties :
#
#
# Convention : Reuss Voigt Hill
#
# Bulk Modulus (GPa) = 17.78639 34.77984 26.28312
# Shear Modulus (GPa) = 64.05516 24.14628 44.10072
#
# Velocity S-wave (km/s) = 5.39001 3.30931 4.47235
# Velocity P-wave (km/s) = 6.84129 5.51148 6.21207
#
# Compressibility (1/GPa) = 0.05622275
#
# Stress axis : x y z
#
# Youngs Moduli (GPa) = 54.97605 49.29345 82.31741
#
# Poissons Ratio (x) = -0.08253 -0.08599
# Poissons Ratio (y) = -0.09205 -0.00660
# Poissons Ratio (z) = -0.05743 -0.00395
#
# Static dielectric constant tensor:
#      x y z
#    x 1.883200 0.000000 0.025730 
#    y 0.000000 1.815310 0.000000 
#    z 0.025730 0.000000 1.810730 
# 
# From -- ./inp_files/37269.got.cif
#   From: 2010.05.17/outbox.cif.g08.bks.cpg/sg10_19_cif.got.tgz:37269.got - 2010.06.03 11:33:40.
