data_PCOD9144350
_publ_section_title
;
Structure prediction by ZEFSAII (Michael W. Deem and Ramdas Pophale) SiO2 
 PCOD9144350
Probable space group: P 2/M
;
_chemical_formula_sum "Si O2"
_cell_formula_units_Z 20
_cell_length_a 20.615859
_cell_length_b 7.386859
_cell_length_c 17.524338
_cell_angle_alpha 90.000000
_cell_angle_beta 158.691110
_cell_angle_gamma 90.000000
_cell_volume 969.801282
_symmetry_space_group_name_H-M "P 2/M"
_symmetry_group_IT_number 10
_symmetry_cell_setting 'monoclinic'
loop_
_space_group_symop_operation_xyz
x,y,z
-x,y,-z
-x,-y,-z
x,-y,z
loop_
_atom_site_type_symbol
_atom_site_label
_atom_site_fract_x
_atom_site_fract_y
_atom_site_fract_z
Si Si1 0.058261 0.714188 0.674782
Si Si2 0.097872 0.779049 0.185364
Si Si3 0.298120 0.721024 0.798121
Si Si4 0.510377 0.220950 0.422885
Si Si5 0.149997 0.217060 0.949993
O O1 0.051312 0.500000 0.653937
O O2 0.213745 0.779321 0.787349
O O3 0.104325 0.743143 0.812977
O O4 0.859860 0.779320 0.433462
O O5 0.301955 0.721215 0.405863
O O6 0.994802 0.717299 0.147433
O O7 0.095429 0.000000 0.182477
O O8 0.000000 0.723557 0.000000
O O9 0.306639 0.500000 0.806639
O O10 0.500000 0.782390 0.000000
O O11 0.500000 0.276443 0.500000
O O12 0.508381 0.000000 0.421333
O O13 0.342169 0.282701 0.189538
O O14 0.153465 0.000000 0.960394
#
# Coordination Sequence:
#
# PCOD9144350 Si02
#       5
#     4   4   4   4   4
#     4   9  18  32  50  72  94 118 152 190 227 273
#     4   9  15  25  42  64  88 118 158 196 225 258
#     4   8  15  31  54  72  88 118 158 190 218 268
#     4   9  15  25  42  64  88 118 158 196 225 258
#     4  10  19  29  45  70  98 122 150 193 235 270
#
# _framework density 20.622782999999998
#
# number of rings (size 3 to 8) (size 9 to 14) (size 15 to 20)
#    0.000    3.000    2.000    1.200    0.000    1.600 
#    0.000    2.000    0.000    2.400    0.000    0.000 
#    0.000    0.000    0.000    0.000    0.000    0.000 
#
# Total GULP energy -111574.361637 kJ/mol
# GULP energy per Si atom -5578.718082 kJ/mol
# Density = 2.057584 g / cm^3
# Si number density = 20.622783 Si / 1000 Ang^3
#
#
#
# Elastic Constant Matrix: (Units=GPa)
#
#
# Indices 1 2 3 4 5 6 
#
# 1 211.5432 2.7447 169.1521 0.0000 9.9666 0.0000
# 2 2.7447 68.4203 3.9499 0.0000 5.5776 0.0000
# 3 169.1521 3.9499 217.0659 0.0000 15.6649 0.0000
# 4 0.0000 0.0000 0.0000 3.6027 0.0000 -18.3679
# 5 9.9666 5.5776 15.6649 0.0000 48.6838 0.0000
# 6 0.0000 0.0000 0.0000 -18.3679 0.0000 7.5664
#
#
#
# Elastic Compliance Matrix: (Units=1/GPa)
#
#
# Indices 1 2 3 4 5 6 
#
# 1 0.012559 0.000016 -0.009830 0.000000 0.000590 0.000000
# 2 0.000016 0.014758 -0.000162 0.000000 -0.001642 0.000000
# 3 -0.009830 -0.000162 0.012412 0.000000 -0.001963 0.000000
# 4 0.000000 0.000000 0.000000 -0.024398 0.000000 -0.059228
# 5 0.000590 -0.001642 -0.001963 0.000000 0.021240 0.000000
# 6 0.000000 0.000000 0.000000 -0.059228 0.000000 -0.011617
#
#
# Mechanical properties :
#
#
# Convention : Reuss Voigt Hill
#
# Bulk Modulus (GPa) = 50.56650 94.30254 72.43452
# Shear Modulus (GPa) = 97.09132 33.38274 65.23703
#
# Velocity S-wave (km/s) = 6.86890 4.02771 5.63047
# Velocity P-wave (km/s) = 9.35319 8.21319 8.80167
#
# Compressibility (1/GPa) = 0.01977594
#
# Stress axis : x y z
#
# Youngs Moduli (GPa) = 79.62303 67.75933 80.57030
#
# Poissons Ratio (x) = -0.00105 0.79199
# Poissons Ratio (y) = -0.00124 0.01307
# Poissons Ratio (z) = 0.78268 0.01099
#
# Static dielectric constant tensor:
#      x y z
#    x 1.705900 0.000000 0.004420 
#    y 0.000000 1.798740 0.000000 
#    z 0.004420 0.000000 1.706850 
# 
# From -- ./inp_files/45771.got.cif
#   From: 2010.05.17/outbox.cif.g08.bks.cpg/sg10_23_cif.got.tgz:45771.got - 2010.06.03 11:33:40.
