data_PCOD9144477
_publ_section_title
;
Structure prediction by ZEFSAII (Michael W. Deem and Ramdas Pophale) SiO2 
 PCOD9144477
Probable space group: P 2/M
;
_chemical_formula_sum "Si O2"
_cell_formula_units_Z 26
_cell_length_a 11.872290
_cell_length_b 9.385561
_cell_length_c 14.516435
_cell_angle_alpha 90.000000
_cell_angle_beta 89.695412
_cell_angle_gamma 90.000000
_cell_volume 1617.515944
_symmetry_space_group_name_H-M "P 2/M"
_symmetry_group_IT_number 10
_symmetry_cell_setting 'monoclinic'
loop_
_space_group_symop_operation_xyz
x,y,z
-x,y,-z
-x,-y,-z
x,-y,z
loop_
_atom_site_type_symbol
_atom_site_label
_atom_site_fract_x
_atom_site_fract_y
_atom_site_fract_z
Si Si1 0.131071 0.335459 0.986322
Si Si2 0.302073 0.163189 0.865297
Si Si3 0.619487 0.168686 0.691157
Si Si4 0.363228 0.162535 0.511540
Si Si5 0.500000 0.751244 0.000000
Si Si6 0.381569 0.329943 0.688320
Si Si7 0.311112 0.342523 0.142429
O O1 0.141995 0.500000 0.952472
O O2 0.199482 0.330340 0.081706
O O3 0.196176 0.226929 0.920319
O O4 0.000000 0.304081 0.000000
O O5 0.322344 0.262959 0.777405
O O6 0.286320 0.000000 0.837481
O O7 0.411190 0.170033 0.933145
O O8 0.678635 0.192107 0.591950
O O9 0.506787 0.263257 0.692196
O O10 0.684401 0.221497 0.780644
O O11 0.592020 0.000000 0.696568
O O12 0.500000 0.166499 0.500000
O O13 0.331872 0.270648 0.592265
O O14 0.334289 0.000000 0.537811
O O15 0.583111 0.669954 0.928844
O O16 0.383557 0.500000 0.690840
O O17 0.316121 0.500000 0.185405
#
# Coordination Sequence:
#
# PCOD9144477 Si02
#       7
#     4   4   4   4   2   4   4
#     4   9  20  38  54  70  96 128 164 205 246 286
#     4  11  21  32  49  72  99 129 163 200 241 288
#     4  10  19  30  45  67  98 131 162 196 239 286
#     4   8  16  30  44  61  92 131 162 193 234 282
#     4  10  20  30  46  68 100 130 158 196 242 284
#     4  11  20  29  45  69  97 129 164 198 236 286
#     4  10  19  30  49  72  97 128 163 199 240 287
#
# _framework density 16.07403
#
# number of rings (size 3 to 8) (size 9 to 14) (size 15 to 20)
#    0.000    2.154    1.538    3.692    0.000    7.385 
#    0.000    0.000    0.000    0.000    0.000    1.077 
#    0.000    8.615    0.000    0.000    0.000    0.000 
#
# Total GULP energy -144841.548001 kJ/mol
# GULP energy per Si atom -5570.828769 kJ/mol
# Density = 1.603744 g / cm^3
# Si number density = 16.074030 Si / 1000 Ang^3
#
#
#
# Elastic Constant Matrix: (Units=GPa)
#
#
# Indices 1 2 3 4 5 6 
#
# 1 73.1037 31.8223 24.7454 0.0000 -2.0439 0.0000
# 2 31.8223 136.8871 70.5701 0.0000 -3.4431 0.0000
# 3 24.7454 70.5701 101.1764 0.0000 2.7102 0.0000
# 4 0.0000 0.0000 0.0000 34.2170 0.0000 4.1656
# 5 -2.0439 -3.4431 2.7102 0.0000 7.4689 0.0000
# 6 0.0000 0.0000 0.0000 4.1656 0.0000 12.7954
#
#
#
# Elastic Compliance Matrix: (Units=1/GPa)
#
#
# Indices 1 2 3 4 5 6 
#
# 1 0.015585 -0.002345 -0.002284 0.000000 0.004013 0.000000
# 2 -0.002345 0.012283 -0.008208 0.000000 0.007999 0.000000
# 3 -0.002284 -0.008208 0.016446 0.000000 -0.010376 0.000000
# 4 0.000000 0.000000 0.000000 0.030431 0.000000 -0.009907
# 5 0.004013 0.007999 -0.010376 0.000000 0.142439 0.000000
# 6 0.000000 0.000000 0.000000 -0.009907 0.000000 0.081378
#
#
# Mechanical properties :
#
#
# Convention : Reuss Voigt Hill
#
# Bulk Modulus (GPa) = 53.64768 62.82699 58.23733
# Shear Modulus (GPa) = 15.13089 23.16489 19.14789
#
# Velocity S-wave (km/s) = 3.07143 3.80035 3.45517
# Velocity P-wave (km/s) = 6.78425 7.64381 7.22682
#
# Compressibility (1/GPa) = 0.01864014
#
# Stress axis : x y z
#
# Youngs Moduli (GPa) = 64.16372 81.41149 60.80690
#
# Poissons Ratio (x) = 0.19089 0.13887
# Poissons Ratio (y) = 0.15045 0.49912
# Poissons Ratio (z) = 0.14653 0.66825
#
# Static dielectric constant tensor:
#      x y z
#    x 1.512540 0.000000 0.024320 
#    y 0.000000 1.549720 0.000000 
#    z 0.024320 0.000000 1.574740 
# 
# From -- ./inp_files/57878.got.cif
#   From: 2010.05.17/outbox.cif.g08.bks.cpg/sg10_29_cif.got.tgz:57878.got - 2010.06.03 11:33:40.
