data_PCOD9144468
_publ_section_title
;
Structure prediction by ZEFSAII (Michael W. Deem and Ramdas Pophale) SiO2 
 PCOD9144468
Probable space group: P 2/M
;
_chemical_formula_sum "Si O2"
_cell_formula_units_Z 32
_cell_length_a 14.968946
_cell_length_b 9.113878
_cell_length_c 20.405999
_cell_angle_alpha 90.000000
_cell_angle_beta 135.225922
_cell_angle_gamma 90.000000
_cell_volume 1960.731231
_symmetry_space_group_name_H-M "P 2/M"
_symmetry_group_IT_number 10
_symmetry_cell_setting 'monoclinic'
loop_
_space_group_symop_operation_xyz
x,y,z
-x,y,-z
-x,-y,-z
x,-y,z
loop_
_atom_site_type_symbol
_atom_site_label
_atom_site_fract_x
_atom_site_fract_y
_atom_site_fract_z
Si Si1 0.624782 0.831469 0.325558
Si Si2 0.371110 0.328499 0.177961
Si Si3 0.878898 0.672901 0.483563
Si Si4 0.095406 0.321214 0.991357
Si Si5 0.869079 0.822482 0.618350
Si Si6 0.336947 0.669390 0.317473
Si Si7 0.587812 0.167744 0.464469
Si Si8 0.943611 0.677247 0.783680
O O1 0.498668 0.760546 0.229383
O O2 0.752837 0.738617 0.384031
O O3 0.601696 0.830778 0.392287
O O4 0.642150 0.000000 0.314375
O O5 0.389375 0.500000 0.170404
O O6 0.349085 0.322563 0.244980
O O7 0.239965 0.273180 0.078185
O O8 0.859351 0.500000 0.486983
O O9 0.899274 0.758483 0.562526
O O10 0.000000 0.689837 0.500000
O O11 0.096627 0.500000 0.995596
O O12 0.040833 0.281578 0.891879
O O13 0.000000 0.272812 0.000000
O O14 0.723538 0.770632 0.557812
O O15 0.956498 0.757648 0.721044
O O16 0.870215 0.000000 0.617485
O O17 0.349604 0.500000 0.343397
O O18 0.454945 0.755455 0.409019
O O19 0.196233 0.718400 0.262400
O O20 0.581815 0.000000 0.482348
O O21 0.947986 0.500000 0.777818
#
# Coordination Sequence:
#
# PCOD9144468 Si02
#       8
#     4   4   4   4   4   4   4   4
#     4   9  17  29  46  71 102 131 157 189 235 291
#     4   9  15  26  46  68  93 128 170 214 250 281
#     4  10  20  35  57  82 102 120 149 191 236 288
#     4   9  15  27  47  69  93 126 174 222 257 285
#     4  10  21  35  48  66  96 131 160 191 236 293
#     4   9  16  25  41  64  87 119 163 207 244 277
#     4   8  16  29  42  57  84 123 161 194 230 276
#     4  10  19  30  45  66  93 126 168 214 250 283
#
# _framework density 16.320440999999999
#
# number of rings (size 3 to 8) (size 9 to 14) (size 15 to 20)
#    0.000    2.750    1.250    1.875    0.000    5.500 
#    0.000    3.125    0.000    0.750    0.000    0.875 
#    0.000    7.000    0.000    0.000    0.000    0.000 
#
# Total GULP energy -178323.535144 kJ/mol
# GULP energy per Si atom -5572.610473 kJ/mol
# Density = 1.628329 g / cm^3
# Si number density = 16.320441 Si / 1000 Ang^3
#
#
#
# Elastic Constant Matrix: (Units=GPa)
#
#
# Indices 1 2 3 4 5 6 
#
# 1 54.0643 32.7559 38.2539 0.0000 11.5119 0.0000
# 2 32.7559 52.9827 48.1557 0.0000 6.6612 0.0000
# 3 38.2539 48.1557 138.2701 0.0000 8.5915 0.0000
# 4 0.0000 0.0000 0.0000 9.2098 0.0000 -11.5004
# 5 11.5119 6.6612 8.5915 0.0000 18.7881 0.0000
# 6 0.0000 0.0000 0.0000 -11.5004 0.0000 -14.1931
#
#
#
# Elastic Compliance Matrix: (Units=1/GPa)
#
#
# Indices 1 2 3 4 5 6 
#
# 1 0.033134 -0.016436 -0.002618 0.000000 -0.013278 0.000000
# 2 -0.016436 0.036343 -0.008167 0.000000 0.000920 0.000000
# 3 -0.002618 -0.008167 0.010829 0.000000 -0.000452 0.000000
# 4 0.000000 0.000000 0.000000 0.053971 0.000000 -0.043732
# 5 -0.013278 0.000920 -0.000452 0.000000 0.061241 0.000000
# 6 0.000000 0.000000 0.000000 -0.043732 0.000000 -0.035022
#
#
# Mechanical properties :
#
#
# Convention : Reuss Voigt Hill
#
# Bulk Modulus (GPa) = 38.66401 53.73868 46.20135
# Shear Modulus (GPa) = 22.36534 11.17108 16.76821
#
# Velocity S-wave (km/s) = 3.70589 2.61910 3.20884
# Velocity P-wave (km/s) = 6.48487 6.49192 6.48839
#
# Compressibility (1/GPa) = 0.02586384
#
# Stress axis : x y z
#
# Youngs Moduli (GPa) = 30.18043 27.51560 92.34542
#
# Poissons Ratio (x) = 0.45226 0.24172
# Poissons Ratio (y) = 0.49606 0.75420
# Poissons Ratio (z) = 0.07900 0.22472
#
# Static dielectric constant tensor:
#      x y z
#    x 1.544480 0.000000 -0.001380 
#    y 0.000000 1.555730 0.000000 
#    z -0.001380 0.000000 1.565670 
# 
# From -- ./inp_files/66213.got.cif
#   From: 2010.05.17/outbox.cif.g08.bks.cpg/sg10_34_cif.got.tgz:66213.got - 2010.06.03 11:33:40.
