data_PCOD9144913
_publ_section_title
;
Structure prediction by ZEFSAII (Michael W. Deem and Ramdas Pophale) SiO2 
 PCOD9144913
Probable space group: P 2/M
;
_chemical_formula_sum "Si O2"
_cell_formula_units_Z 32
_cell_length_a 26.278154
_cell_length_b 9.024948
_cell_length_c 17.145899
_cell_angle_alpha 90.000000
_cell_angle_beta 153.366020
_cell_angle_gamma 90.000000
_cell_volume 1822.880481
_symmetry_space_group_name_H-M "P 2/M"
_symmetry_group_IT_number 10
_symmetry_cell_setting 'monoclinic'
loop_
_space_group_symop_operation_xyz
x,y,z
-x,y,-z
-x,-y,-z
x,-y,z
loop_
_atom_site_type_symbol
_atom_site_label
_atom_site_fract_x
_atom_site_fract_y
_atom_site_fract_z
Si Si1 0.475414 0.174537 0.058375
Si Si2 0.459219 0.822536 0.568992
Si Si3 0.994229 0.829832 0.404991
Si Si4 0.161436 0.677498 0.417777
Si Si5 0.753535 0.168287 0.314903
Si Si6 0.635342 0.322477 0.404079
Si Si7 0.916881 0.677796 0.144526
Si Si8 0.319957 0.177613 0.220072
O O1 0.551877 0.268210 0.220889
O O2 0.491187 0.000000 0.098087
O O3 0.500000 0.197268 0.000000
O O4 0.341945 0.212871 0.877750
O O5 0.409579 0.745498 0.577157
O O6 0.587053 0.778027 0.718257
O O7 0.379701 0.792859 0.385035
O O8 0.460832 0.000000 0.583116
O O9 0.124112 0.836087 0.555776
O O10 0.000000 0.767879 0.500000
O O11 0.930842 0.737139 0.252043
O O12 0.949653 0.000000 0.346756
O O13 0.157825 0.500000 0.412005
O O14 0.232619 0.730498 0.590601
O O15 0.236634 0.725316 0.446468
O O16 0.031143 0.728038 0.253623
O O17 0.723934 0.000000 0.300272
O O18 0.633910 0.500000 0.406898
O O19 0.914625 0.500000 0.140622
O O20 0.800207 0.742783 0.951927
O O21 0.304123 0.000000 0.192069
#
# Coordination Sequence:
#
# PCOD9144913 Si02
#       8
#     4   4   4   4   4   4   4   4
#     4  10  19  31  48  72 102 138 181 224 263 305
#     4   9  20  39  61  82 106 136 170 217 273 322
#     4   9  18  32  49  71 101 137 177 219 262 308
#     4   9  19  34  49  71 107 145 175 209 257 310
#     4   9  17  30  48  68  93 132 180 221 257 302
#     4  11  22  34  52  79 111 144 181 220 265 320
#     4  10  20  34  55  80 106 140 178 217 263 315
#     4   9  19  39  63  83 104 134 174 218 269 325
#
# _framework density 17.554634
#
# number of rings (size 3 to 8) (size 9 to 14) (size 15 to 20)
#    0.000    2.500    1.250    1.500    0.000    4.000 
#    0.000    4.375    0.000    3.750    0.000    0.000 
#    0.000    0.000    0.000    0.000    0.000    0.000 
#
# Total GULP energy -178271.207708 kJ/mol
# GULP energy per Si atom -5570.975241 kJ/mol
# Density = 1.751468 g / cm^3
# Si number density = 17.554634 Si / 1000 Ang^3
#
#
#
# Elastic Constant Matrix: (Units=GPa)
#
#
# Indices 1 2 3 4 5 6 
#
# 1 122.2490 39.0824 52.2497 0.0000 0.3042 0.0000
# 2 39.0824 31.2587 39.4908 0.0000 3.7876 0.0000
# 3 52.2497 39.4908 106.7180 0.0000 19.9571 0.0000
# 4 0.0000 0.0000 0.0000 -95.3804 0.0000 84.9467
# 5 0.3042 3.7876 19.9571 0.0000 17.4731 0.0000
# 6 0.0000 0.0000 0.0000 84.9467 0.0000 -33.1918
#
#
#
# Elastic Compliance Matrix: (Units=1/GPa)
#
#
# Indices 1 2 3 4 5 6 
#
# 1 0.014054 -0.015455 -0.002216 0.000000 0.005636 0.000000
# 2 -0.015455 0.080677 -0.024246 0.000000 0.010474 0.000000
# 3 -0.002216 -0.024246 0.023445 0.000000 -0.021484 0.000000
# 4 0.000000 0.000000 0.000000 0.008195 0.000000 0.020974
# 5 0.005636 0.010474 -0.021484 0.000000 0.079400 0.000000
# 6 0.000000 0.000000 0.000000 0.020974 0.000000 0.023550
#
#
# Mechanical properties :
#
#
# Convention : Reuss Voigt Hill
#
# Bulk Modulus (GPa) = 29.11888 57.98573 43.55230
# Shear Modulus (GPa) = 15.40345 -13.59295 0.90525
#
# Velocity S-wave (km/s) = 2.96541 -2.78568 0.71888
# Velocity P-wave (km/s) = 5.32432 4.77038 5.05495
#
# Compressibility (1/GPa) = 0.03434199
#
# Stress axis : x y z
#
# Youngs Moduli (GPa) = 71.15425 12.39515 42.65278
#
# Poissons Ratio (x) = 0.19157 0.09451
# Poissons Ratio (y) = 1.09970 1.03416
# Poissons Ratio (z) = 0.15766 0.30053
#
# Static dielectric constant tensor:
#      x y z
#    x 1.628980 0.000000 0.040910 
#    y 0.000000 1.598090 0.000000 
#    z 0.040910 0.000000 1.599770 
# 
# From -- ./inp_files/71660.got.cif
#   From: 2010.05.17/outbox.cif.g08.bks.cpg/sg10_36_cif.got.tgz:71660.got - 2010.06.03 11:33:40.
