data_PCOD9144520
_publ_section_title
;
Structure prediction by ZEFSAII (Michael W. Deem and Ramdas Pophale) SiO2 
 PCOD9144520
Probable space group: P 2/M
;
_chemical_formula_sum "Si O2"
_cell_formula_units_Z 26
_cell_length_a 18.756177
_cell_length_b 16.614084
_cell_length_c 5.101171
_cell_angle_alpha 90.000000
_cell_angle_beta 116.293759
_cell_angle_gamma 90.000000
_cell_volume 1425.140570
_symmetry_space_group_name_H-M "P 2/M"
_symmetry_group_IT_number 10
_symmetry_cell_setting 'monoclinic'
loop_
_space_group_symop_operation_xyz
x,y,z
-x,y,-z
-x,-y,-z
x,-y,z
loop_
_atom_site_type_symbol
_atom_site_label
_atom_site_fract_x
_atom_site_fract_y
_atom_site_fract_z
Si Si1 0.555706 0.589067 0.837760
Si Si2 0.365498 0.257968 0.807392
Si Si3 0.759863 0.093307 0.856081
Si Si4 0.195436 0.192684 0.554076
Si Si5 0.411691 0.160648 0.392154
Si Si6 0.057557 0.500000 0.343823
Si Si7 0.942398 0.677033 0.656167
O O1 0.500000 0.611544 0.500000
O O2 0.589673 0.500000 0.835042
O O3 0.500000 0.582449 0.000000
O O4 0.616640 0.656472 0.031629
O O5 0.272325 0.246762 0.607621
O O6 0.410775 0.231033 0.614629
O O7 0.391341 0.196130 0.074988
O O8 0.805243 0.125710 0.674057
O O9 0.664252 0.105710 0.658887
O O10 0.775314 0.000000 0.931718
O O11 0.787009 0.148498 0.143113
O O12 0.120220 0.250844 0.444050
O O13 0.500000 0.125021 0.500000
O O14 0.098639 0.587733 0.411202
O O15 0.000000 0.500000 0.500000
O O16 0.000000 0.500000 0.000000
O O17 0.000000 0.682177 0.500000
O O18 0.000000 0.681745 0.000000
#
# Coordination Sequence:
#
# PCOD9144520 Si02
#       7
#     4   4   4   4   4   2   4
#     4  10  19  30  46  67  96 136 177 214 252 296
#     4  10  19  32  48  72 103 133 175 216 261 312
#     4  10  21  37  56  77 108 143 176 221 272 323
#     4  10  21  36  56  81 105 140 179 213 269 330
#     4  10  19  31  52  76  99 132 176 220 265 311
#     4   8  16  30  52  82 110 136 165 204 257 310
#     4  10  19  35  59  84 112 141 177 216 261 320
#
# _framework density 18.243811999999998
#
# number of rings (size 3 to 8) (size 9 to 14) (size 15 to 20)
#    0.000    2.154    0.000    4.154    0.000    0.308 
#    1.385    0.000    0.000   14.769    0.000    0.000 
#    0.000    0.000    0.000    0.000    0.000    0.000 
#
# Total GULP energy -144847.065572 kJ/mol
# GULP energy per Si atom -5571.040984 kJ/mol
# Density = 1.820229 g / cm^3
# Si number density = 18.243812 Si / 1000 Ang^3
#
#
#
# Elastic Constant Matrix: (Units=GPa)
#
#
# Indices 1 2 3 4 5 6 
#
# 1 68.0060 27.8583 30.8335 0.0000 -0.9609 0.0000
# 2 27.8583 101.3951 22.3901 0.0000 21.9131 0.0000
# 3 30.8335 22.3901 86.1121 0.0000 -18.8302 0.0000
# 4 0.0000 0.0000 0.0000 19.8456 0.0000 0.0112
# 5 -0.9609 21.9131 -18.8302 0.0000 29.8001 0.0000
# 6 0.0000 0.0000 0.0000 0.0112 0.0000 19.5141
#
#
#
# Elastic Compliance Matrix: (Units=1/GPa)
#
#
# Indices 1 2 3 4 5 6 
#
# 1 0.018924 -0.003865 -0.005820 0.000000 -0.000225 0.000000
# 2 -0.003865 0.015585 -0.006035 0.000000 -0.015399 0.000000
# 3 -0.005820 -0.006035 0.018792 0.000000 0.016125 0.000000
# 4 0.000000 0.000000 0.000000 0.050389 0.000000 -0.000029
# 5 -0.000225 -0.015399 0.016125 0.000000 0.055062 0.000000
# 6 0.000000 0.000000 0.000000 -0.000029 0.000000 0.051245
#
#
# Mechanical properties :
#
#
# Convention : Reuss Voigt Hill
#
# Bulk Modulus (GPa) = 45.74790 46.40854 46.07822
# Shear Modulus (GPa) = 20.10258 25.46072 22.78165
#
# Velocity S-wave (km/s) = 3.32307 3.73980 3.53758
# Velocity P-wave (km/s) = 6.31300 6.64389 6.48056
#
# Compressibility (1/GPa) = 0.02185893
#
# Stress axis : x y z
#
# Youngs Moduli (GPa) = 52.84401 64.16405 53.21429
#
# Poissons Ratio (x) = 0.24803 0.30970
# Poissons Ratio (y) = 0.20427 0.32117
# Poissons Ratio (z) = 0.30755 0.38726
#
# Static dielectric constant tensor:
#      x y z
#    x 1.619920 0.000000 0.001630 
#    y 0.000000 1.679330 0.000000 
#    z 0.001630 0.000000 1.608760 
# 
# From -- ./inp_files/11355.got.cif
#   From: 2010.05.17/outbox.cif.g08.bks.cpg/sg10_6_cif.got.tgz:11355.got - 2010.06.03 11:33:40.
