data_PCOD9144535
_publ_section_title
;
Structure prediction by ZEFSAII (Michael W. Deem and Ramdas Pophale) SiO2 
 PCOD9144535
Probable space group: P 2/M
;
_chemical_formula_sum "Si O2"
_cell_formula_units_Z 32
_cell_length_a 24.973884
_cell_length_b 7.345866
_cell_length_c 10.419223
_cell_angle_alpha 90.000000
_cell_angle_beta 49.771856
_cell_angle_gamma 90.000000
_cell_volume 1459.356697
_symmetry_space_group_name_H-M "P 2/M"
_symmetry_group_IT_number 10
_symmetry_cell_setting 'monoclinic'
loop_
_space_group_symop_operation_xyz
x,y,z
-x,y,-z
-x,-y,-z
x,-y,z
loop_
_atom_site_type_symbol
_atom_site_label
_atom_site_fract_x
_atom_site_fract_y
_atom_site_fract_z
Si Si1 0.952007 0.280098 0.760852
Si Si2 0.102034 0.280361 0.433487
Si Si3 0.663431 0.777473 0.351450
Si Si4 0.742394 0.789870 0.714702
Si Si5 0.512003 0.791010 0.635753
Si Si6 0.226000 0.776406 0.610673
Si Si7 0.358940 0.776471 0.906043
Si Si8 0.924515 0.208412 0.087062
O O1 0.950784 0.500000 0.766934
O O2 0.913379 0.224364 0.689624
O O3 0.918048 0.210103 0.943215
O O4 0.033679 0.223542 0.620929
O O5 0.103127 0.500000 0.433881
O O6 0.176448 0.215638 0.368164
O O7 0.589918 0.713721 0.528317
O O8 0.728809 0.721831 0.336273
O O9 0.665151 0.721425 0.199823
O O10 0.661114 0.000000 0.354562
O O11 0.739885 0.713769 0.575157
O O12 0.720814 0.000000 0.736587
O O13 0.693453 0.713036 0.902317
O O14 0.500000 0.793644 0.500000
O O15 0.439377 0.714702 0.802384
O O16 0.515699 0.000000 0.675236
O O17 0.224283 0.000000 0.612842
O O18 0.145769 0.712235 0.744359
O O19 0.359849 0.000000 0.902430
O O20 0.928183 0.000000 0.127926
O O21 0.000000 0.294355 0.000000
#
# Coordination Sequence:
#
# PCOD9144535 Si02
#       8
#     4   4   4   4   4   4   4   4
#     4   9  19  35  52  69  88 116 157 198 234 275
#     4   9  19  35  51  67  92 121 149 191 241 280
#     4   8  13  23  39  58  87 126 155 183 231 277
#     4  10  19  30  46  69  96 123 154 190 228 273
#     4   7  10  19  35  56  85 120 153 184 222 271
#     4   9  18  29  40  61  96 127 152 189 237 276
#     4   8  14  23  39  64  90 118 156 191 222 271
#     4  10  20  32  47  67  95 127 158 191 232 279
#
# _framework density 21.92747
#
# number of rings (size 3 to 8) (size 9 to 14) (size 15 to 20)
#    0.000    3.250    0.000    3.000    1.750    2.250 
#    0.000    2.500    0.000    3.750    0.000    0.000 
#    0.000    7.500    0.000    0.000    0.000    0.000 
#
# Total GULP energy -178545.406988 kJ/mol
# GULP energy per Si atom -5579.543968 kJ/mol
# Density = 2.187756 g / cm^3
# Si number density = 21.927470 Si / 1000 Ang^3
#
#
#
# Elastic Constant Matrix: (Units=GPa)
#
#
# Indices 1 2 3 4 5 6 
#
# 1 90.5524 4.0591 56.3468 0.0000 -14.3722 0.0000
# 2 4.0591 83.7688 4.2305 0.0000 -0.6429 0.0000
# 3 56.3468 4.2305 156.3456 0.0000 -3.6351 0.0000
# 4 0.0000 0.0000 0.0000 107.5721 0.0000 -54.1118
# 5 -14.3722 -0.6429 -3.6351 0.0000 24.4547 0.0000
# 6 0.0000 0.0000 0.0000 -54.1118 0.0000 78.7123
#
#
#
# Elastic Compliance Matrix: (Units=1/GPa)
#
#
# Indices 1 2 3 4 5 6 
#
# 1 0.015827 -0.000424 -0.005495 0.000000 0.008473 0.000000
# 2 -0.000424 0.011967 -0.000170 0.000000 0.000040 0.000000
# 3 -0.005495 -0.000170 0.008335 0.000000 -0.001995 0.000000
# 4 0.000000 0.000000 0.000000 0.014210 0.000000 0.009769
# 5 0.008473 0.000040 -0.001995 0.000000 0.045576 0.000000
# 6 0.000000 0.000000 0.000000 0.009769 0.000000 0.019420
#
#
# Mechanical properties :
#
#
# Convention : Reuss Voigt Hill
#
# Bulk Modulus (GPa) = 41.75503 51.10439 46.42971
# Shear Modulus (GPa) = 36.90089 59.88317 48.39203
#
# Velocity S-wave (km/s) = 4.10672 5.23153 4.70288
# Velocity P-wave (km/s) = 6.44752 7.73619 7.12107
#
# Compressibility (1/GPa) = 0.02394921
#
# Stress axis : x y z
#
# Youngs Moduli (GPa) = 63.18380 83.56265 119.97794
#
# Poissons Ratio (x) = 0.03546 0.65934
# Poissons Ratio (y) = 0.02681 0.02039
# Poissons Ratio (z) = 0.34723 0.01420
#
# Static dielectric constant tensor:
#      x y z
#    x 1.776510 0.000000 -0.016420 
#    y 0.000000 1.828520 0.000000 
#    z -0.016420 0.000000 1.790060 
# 
# From -- ./inp_files/36020.got.cif
#   From: 2010.05.17/outbox.cif.g08.bks.cpg/sg10_19_cif.got.tgz:36020.got - 2010.06.03 11:33:40.
