data_PCOD9144238
_publ_section_title
;
Structure prediction by ZEFSAII (Michael W. Deem and Ramdas Pophale) SiO2 
 PCOD9144238
Probable space group: P 2/M
;
_chemical_formula_sum "Si O2"
_cell_formula_units_Z 28
_cell_length_a 12.198628
_cell_length_b 7.768751
_cell_length_c 15.715264
_cell_angle_alpha 90.000000
_cell_angle_beta 73.170600
_cell_angle_gamma 90.000000
_cell_volume 1425.520380
_symmetry_space_group_name_H-M "P 2/M"
_symmetry_group_IT_number 10
_symmetry_cell_setting 'monoclinic'
loop_
_space_group_symop_operation_xyz
x,y,z
-x,y,-z
-x,-y,-z
x,-y,z
loop_
_atom_site_type_symbol
_atom_site_label
_atom_site_fract_x
_atom_site_fract_y
_atom_site_fract_z
Si Si1 0.606701 0.000000 0.596889
Si Si2 0.674211 0.297182 0.710044
Si Si3 0.830456 0.791049 0.822647
Si Si4 0.335965 0.000000 0.613752
Si Si5 0.038746 0.791300 0.895547
Si Si6 0.254737 0.307317 0.737652
Si Si7 0.435201 0.697649 0.836676
Si Si8 0.624831 0.803542 0.981405
O O1 0.654828 0.833068 0.636638
O O2 0.466971 0.000000 0.622203
O O3 0.649797 0.000000 0.490478
O O4 0.662195 0.500000 0.691194
O O5 0.789910 0.269528 0.738677
O O6 0.567112 0.250487 0.796724
O O7 0.946826 0.738868 0.843500
O O8 0.831886 0.000000 0.820306
O O9 0.730650 0.726316 0.908781
O O10 0.264789 0.836465 0.663801
O O11 0.158999 0.726337 0.831352
O O12 0.042818 0.000000 0.897380
O O13 0.000000 0.735913 0.000000
O O14 0.239249 0.500000 0.707530
O O15 0.375640 0.295380 0.759287
O O16 0.429517 0.500000 0.865749
O O17 0.362316 0.804225 0.920280
O O18 0.615547 0.000000 0.952708
O O19 0.500000 0.720457 0.000000
#
# Coordination Sequence:
#
# PCOD9144238 Si02
#       8
#     2   4   4   2   4   4   4   4
#     4  11  24  42  67  95 127 157 195 251 326 393
#     4  11  22  37  60  89 124 160 198 249 307 372
#     4  10  20  35  55  86 122 164 214 255 302 361
#     4  11  24  42  68  96 123 162 196 251 325 382
#     4  10  21  38  62  92 128 173 219 260 300 351
#     4  11  23  40  63  91 124 162 209 255 303 370
#     4  10  21  33  50  81 116 155 199 244 293 353
#     4  10  19  28  48  77 112 158 199 240 288 346
#
# _framework density 19.641950000000001
#
# number of rings (size 3 to 8) (size 9 to 14) (size 15 to 20)
#    0.000    1.571    4.286    0.857    2.000    3.429 
#    0.000    1.429    0.000    1.714    0.000    2.000 
#    0.000    0.000    0.000    0.000    0.000    0.000 
#
# Total GULP energy -156122.277386 kJ/mol
# GULP energy per Si atom -5575.795621 kJ/mol
# Density = 1.959724 g / cm^3
# Si number density = 19.641950 Si / 1000 Ang^3
#
#
#
# Elastic Constant Matrix: (Units=GPa)
#
#
# Indices 1 2 3 4 5 6 
#
# 1 83.6968 24.1733 22.1360 0.0000 11.2726 0.0000
# 2 24.1733 100.6056 62.5432 0.0000 9.5275 0.0000
# 3 22.1360 62.5432 97.8370 0.0000 6.7995 0.0000
# 4 0.0000 0.0000 0.0000 3.9526 0.0000 -2.5559
# 5 11.2726 9.5275 6.7995 0.0000 28.0530 0.0000
# 6 0.0000 0.0000 0.0000 -2.5559 0.0000 13.8181
#
#
#
# Elastic Compliance Matrix: (Units=1/GPa)
#
#
# Indices 1 2 3 4 5 6 
#
# 1 0.013490 -0.001853 -0.001561 0.000000 -0.004413 0.000000
# 2 -0.001853 0.017019 -0.010283 0.000000 -0.002543 0.000000
# 3 -0.001561 -0.010283 0.017151 0.000000 -0.000037 0.000000
# 4 0.000000 0.000000 0.000000 0.287370 0.000000 0.053155
# 5 -0.004413 -0.002543 -0.000037 0.000000 0.038293 0.000000
# 6 0.000000 0.000000 0.000000 0.053155 0.000000 0.082201
#
#
# Mechanical properties :
#
#
# Convention : Reuss Voigt Hill
#
# Bulk Modulus (GPa) = 49.34668 55.53827 52.44248
# Shear Modulus (GPa) = 10.21091 20.71722 15.46407
#
# Velocity S-wave (km/s) = 2.28250 3.25121 2.80893
# Velocity P-wave (km/s) = 5.66781 6.51387 6.10551
#
# Compressibility (1/GPa) = 0.02026479
#
# Stress axis : x y z
#
# Youngs Moduli (GPa) = 74.12734 58.75892 58.30714
#
# Poissons Ratio (x) = 0.10889 0.09101
# Poissons Ratio (y) = 0.13737 0.59959
# Poissons Ratio (z) = 0.11571 0.60424
#
# Static dielectric constant tensor:
#      x y z
#    x 1.735870 0.000000 0.034400 
#    y 0.000000 1.721660 0.000000 
#    z 0.034400 0.000000 1.700910 
# 
# From -- ./inp_files/63428.got.cif
#   From: 2010.05.17/outbox.cif.g08.bks.cpg/sg10_32_cif.got.tgz:63428.got - 2010.06.03 11:33:40.
