data_PCOD9144927
_publ_section_title
;
Structure prediction by ZEFSAII (Michael W. Deem and Ramdas Pophale) SiO2 
 PCOD9144927
Probable space group: P 2/M
;
_chemical_formula_sum "Si O2"
_cell_formula_units_Z 32
_cell_length_a 23.745854
_cell_length_b 9.165545
_cell_length_c 21.429659
_cell_angle_alpha 90.000000
_cell_angle_beta 155.875767
_cell_angle_gamma 90.000000
_cell_volume 1906.266086
_symmetry_space_group_name_H-M "P 2/M"
_symmetry_group_IT_number 10
_symmetry_cell_setting 'monoclinic'
loop_
_space_group_symop_operation_xyz
x,y,z
-x,y,-z
-x,-y,-z
x,-y,z
loop_
_atom_site_type_symbol
_atom_site_label
_atom_site_fract_x
_atom_site_fract_y
_atom_site_fract_z
Si Si1 0.422677 0.166648 0.989001
Si Si2 0.267620 0.325078 0.504310
Si Si3 0.160154 0.823814 0.650251
Si Si4 0.973542 0.674163 0.832660
Si Si5 0.759096 0.175475 0.862426
Si Si6 0.454460 0.173158 0.594246
Si Si7 0.677286 0.674874 0.298336
Si Si8 0.790266 0.827007 0.748554
O O1 0.266351 0.212807 0.814339
O O2 0.421945 0.000000 0.012169
O O3 0.500000 0.164086 0.000000
O O4 0.521127 0.267886 0.129643
O O5 0.279953 0.500000 0.513363
O O6 0.126798 0.284471 0.326071
O O7 0.389149 0.254460 0.586841
O O8 0.274238 0.283553 0.583256
O O9 0.224210 0.747284 0.654074
O O10 0.000000 0.786258 0.500000
O O11 0.169187 0.000000 0.651709
O O12 0.982671 0.500000 0.845071
O O13 0.901817 0.736684 0.822645
O O14 0.121915 0.746772 0.978714
O O15 0.608093 0.218957 0.732634
O O16 0.777557 0.212407 0.807941
O O17 0.771082 0.000000 0.879438
O O18 0.353800 0.196268 0.433237
O O19 0.454442 0.000000 0.606533
O O20 0.680739 0.500000 0.295107
O O21 0.824186 0.000000 0.778742
#
# Coordination Sequence:
#
# PCOD9144927 Si02
#       8
#     4   4   4   4   4   4   4   4
#     4   8  15  29  49  73 100 127 155 189 229 271
#     4   9  20  37  51  66  93 129 165 200 237 277
#     4   9  18  33  52  76 106 133 155 187 234 280
#     4  10  20  33  48  67  95 129 163 197 235 285
#     4  10  19  31  48  72  98 120 150 198 251 294
#     4   9  18  32  51  72  92 120 159 199 239 288
#     4  10  19  32  52  74  96 127 166 200 232 276
#     4   9  17  31  50  70  94 123 154 194 245 294
#
# _framework density 16.786743999999999
#
# number of rings (size 3 to 8) (size 9 to 14) (size 15 to 20)
#    0.000    2.750    0.000    2.250    0.000    8.000 
#    0.000    1.250    0.000    9.750    0.000    0.000 
#    0.000    0.000    0.000    0.000    0.000    0.000 
#
# Total GULP energy -178366.143775 kJ/mol
# GULP energy per Si atom -5573.941993 kJ/mol
# Density = 1.674854 g / cm^3
# Si number density = 16.786744 Si / 1000 Ang^3
#
#
#
# Elastic Constant Matrix: (Units=GPa)
#
#
# Indices 1 2 3 4 5 6 
#
# 1 69.8018 32.4507 65.9144 0.0000 -12.6567 0.0000
# 2 32.4507 26.4007 43.3828 0.0000 -2.9342 0.0000
# 3 65.9144 43.3828 132.7670 0.0000 15.7220 0.0000
# 4 0.0000 0.0000 0.0000 28.2844 0.0000 -0.8956
# 5 -12.6567 -2.9342 15.7220 0.0000 21.2440 0.0000
# 6 0.0000 0.0000 0.0000 -0.8956 0.0000 22.0317
#
#
#
# Elastic Compliance Matrix: (Units=1/GPa)
#
#
# Indices 1 2 3 4 5 6 
#
# 1 0.067430 -0.018192 -0.035065 0.000000 0.063612 0.000000
# 2 -0.018192 0.117729 -0.032969 0.000000 0.029821 0.000000
# 3 -0.035065 -0.032969 0.042447 0.000000 -0.056858 0.000000
# 4 0.000000 0.000000 0.000000 0.035401 0.000000 0.001439
# 5 0.063612 0.029821 -0.056858 0.000000 0.131168 0.000000
# 6 0.000000 0.000000 0.000000 0.001439 0.000000 0.045448
#
#
# Mechanical properties :
#
#
# Convention : Reuss Voigt Hill
#
# Bulk Modulus (GPa) = 18.13108 56.94059 37.53584
# Shear Modulus (GPa) = 7.93073 20.12677 14.02875
#
# Velocity S-wave (km/s) = 2.17593 3.46637 2.89399
# Velocity P-wave (km/s) = 4.13971 7.07210 5.79447
#
# Compressibility (1/GPa) = 0.05515390
#
# Stress axis : x y z
#
# Youngs Moduli (GPa) = 14.83011 8.49411 23.55900
#
# Poissons Ratio (x) = 0.15452 0.82610
# Poissons Ratio (y) = 0.26979 0.77671
# Poissons Ratio (z) = 0.52002 0.28004
#
# Static dielectric constant tensor:
#      x y z
#    x 1.533330 0.000000 -0.004280 
#    y 0.000000 1.560440 0.000000 
#    z -0.004280 0.000000 1.591900 
# 
# From -- ./inp_files/91231.got.cif
#   From: 2010.05.17/outbox.cif.g08.bks.cpg/sg10_46_cif.got.tgz:91231.got - 2010.06.03 11:33:40.
