data_PCOD9144972
_publ_section_title
;
Structure prediction by ZEFSAII (Michael W. Deem and Ramdas Pophale) SiO2 
 PCOD9144972
Probable space group: P 2/M
;
_chemical_formula_sum "Si O2"
_cell_formula_units_Z 32
_cell_length_a 17.030708
_cell_length_b 7.494387
_cell_length_c 24.921859
_cell_angle_alpha 90.000000
_cell_angle_beta 151.993338
_cell_angle_gamma 90.000000
_cell_volume 1493.666023
_symmetry_space_group_name_H-M "P 2/M"
_symmetry_group_IT_number 10
_symmetry_cell_setting 'monoclinic'
loop_
_space_group_symop_operation_xyz
x,y,z
-x,y,-z
-x,-y,-z
x,-y,z
loop_
_atom_site_type_symbol
_atom_site_label
_atom_site_fract_x
_atom_site_fract_y
_atom_site_fract_z
Si Si1 0.051501 0.703212 0.974668
Si Si2 0.061701 0.718335 0.865020
Si Si3 0.032455 0.216379 0.580148
Si Si4 0.707391 0.787605 0.448653
Si Si5 0.448238 0.284895 0.089390
Si Si6 0.727296 0.299015 0.185941
Si Si7 0.433839 0.211724 0.201422
Si Si8 0.051128 0.286138 0.315839
O O1 0.985130 0.500000 0.935702
O O2 0.252480 0.700107 0.093111
O O3 0.001542 0.782853 0.886976
O O4 0.000000 0.788545 0.000000
O O5 0.062612 0.500000 0.867924
O O6 0.956157 0.773374 0.749888
O O7 0.254444 0.772690 0.971455
O O8 0.185884 0.303448 0.702958
O O9 0.000000 0.264508 0.500000
O O10 0.867973 0.273795 0.512365
O O11 0.052025 0.000000 0.595325
O O12 0.546916 0.720193 0.319128
O O13 0.774472 0.754327 0.549075
O O14 0.696644 0.000000 0.436682
O O15 0.451884 0.500000 0.088083
O O16 0.550709 0.217636 0.098859
O O17 0.508974 0.236719 0.186628
O O18 0.696979 0.500000 0.146778
O O19 0.879334 0.218691 0.241984
O O20 0.408222 0.000000 0.192371
O O21 0.034894 0.500000 0.307746
#
# Coordination Sequence:
#
# PCOD9144972 Si02
#       8
#     4   4   4   4   4   4   4   4
#     4   9  18  34  56  79 100 119 140 175 229 286
#     4   8  15  29  48  69  92 119 151 187 228 276
#     4   9  16  26  39  54  78 116 157 194 234 273
#     4   9  18  30  43  62  90 123 156 191 230 271
#     4   9  17  29  44  64  93 125 157 196 240 278
#     4   9  17  26  38  60  87 118 157 197 232 265
#     4  10  19  31  49  72  96 121 153 192 231 272
#     4   9  17  29  45  65  90 123 163 198 226 264
#
# _framework density 21.423797
#
# number of rings (size 3 to 8) (size 9 to 14) (size 15 to 20)
#    0.000    3.000    0.000    1.875    0.000    3.500 
#    0.000    7.500    0.000    0.750    0.000   12.250 
#    0.000    0.000    0.000    0.000    0.000    0.000 
#
# Total GULP energy -178200.776300 kJ/mol
# GULP energy per Si atom -5568.774259 kJ/mol
# Density = 2.137504 g / cm^3
# Si number density = 21.423797 Si / 1000 Ang^3
#
#
#
# Elastic Constant Matrix: (Units=GPa)
#
#
# Indices 1 2 3 4 5 6 
#
# 1 79.8262 -5.4948 24.6864 0.0000 -26.8541 0.0000
# 2 -5.4948 60.8200 -6.9216 0.0000 0.9104 0.0000
# 3 24.6864 -6.9216 88.1921 0.0000 -38.9040 0.0000
# 4 0.0000 0.0000 0.0000 14.8830 0.0000 -13.1023
# 5 -26.8541 0.9104 -38.9040 0.0000 30.7491 0.0000
# 6 0.0000 0.0000 0.0000 -13.1023 0.0000 -6.3706
#
#
#
# Elastic Compliance Matrix: (Units=1/GPa)
#
#
# Indices 1 2 3 4 5 6 
#
# 1 0.018676 0.001893 0.004732 0.000000 0.022242 0.000000
# 2 0.001893 0.016876 0.002950 0.000000 0.004885 0.000000
# 3 0.004732 0.002950 0.027225 0.000000 0.038491 0.000000
# 4 0.000000 0.000000 0.000000 0.023906 0.000000 -0.049167
# 5 0.022242 0.004885 0.038491 0.000000 0.100500 0.000000
# 6 0.000000 0.000000 0.000000 -0.049167 0.000000 -0.055850
#
#
# Mechanical properties :
#
#
# Convention : Reuss Voigt Hill
#
# Bulk Modulus (GPa) = 12.20601 28.15313 20.17957
# Shear Modulus (GPa) = 35.84424 22.29020 29.06722
#
# Velocity S-wave (km/s) = 4.09480 3.22909 3.68744
# Velocity P-wave (km/s) = 5.29776 5.20310 5.25064
#
# Compressibility (1/GPa) = 0.08192683
#
# Stress axis : x y z
#
# Youngs Moduli (GPa) = 53.54359 59.25734 36.73074
#
# Poissons Ratio (x) = -0.11217 -0.17382
# Poissons Ratio (y) = -0.10135 -0.10834
# Poissons Ratio (z) = -0.25338 -0.17479
#
# Static dielectric constant tensor:
#      x y z
#    x 1.812270 0.000000 -0.048040 
#    y 0.000000 1.846260 0.000000 
#    z -0.048040 0.000000 1.856900 
# 
# From -- ./inp_files/88545.got.cif
#   From: 2010.05.17/outbox.cif.g08.bks.cpg/sg10_45_cif.got.tgz:88545.got - 2010.06.03 11:33:40.
