data_PCOD9144517
_publ_section_title
;
Structure prediction by ZEFSAII (Michael W. Deem and Ramdas Pophale) SiO2 
 PCOD9144517
Probable space group: P 2/M
;
_chemical_formula_sum "Si O2"
_cell_formula_units_Z 28
_cell_length_a 24.227964
_cell_length_b 17.358473
_cell_length_c 20.927966
_cell_angle_alpha 90.000000
_cell_angle_beta 169.965706
_cell_angle_gamma 90.000000
_cell_volume 1533.547847
_symmetry_space_group_name_H-M "P 2/M"
_symmetry_group_IT_number 10
_symmetry_cell_setting 'monoclinic'
loop_
_space_group_symop_operation_xyz
x,y,z
-x,y,-z
-x,-y,-z
x,-y,z
loop_
_atom_site_type_symbol
_atom_site_label
_atom_site_fract_x
_atom_site_fract_y
_atom_site_fract_z
Si Si1 0.508350 0.909047 0.264254
Si Si2 0.739767 0.734807 0.872893
Si Si3 0.277120 0.684328 0.683586
Si Si4 0.224572 0.587750 0.819088
Si Si5 0.371376 0.413775 0.425198
Si Si6 0.117856 0.183612 0.409507
Si Si7 0.116648 0.828161 0.201056
O O1 0.624856 0.869780 0.331596
O O2 0.778572 0.889014 0.625499
O O3 0.471165 0.000000 0.216309
O O4 0.183826 0.868326 0.915961
O O5 0.609302 0.648260 0.726348
O O6 0.434089 0.783634 0.544031
O O7 0.005731 0.754448 0.228171
O O8 0.874775 0.767897 0.959444
O O9 0.234797 0.766424 0.602204
O O10 0.948800 0.645378 0.330285
O O11 0.500000 0.691188 0.000000
O O12 0.450564 0.625140 0.833745
O O13 0.255531 0.500000 0.877798
O O14 0.000000 0.584791 0.500000
O O15 0.500000 0.418783 0.500000
O O16 0.380258 0.500000 0.464116
O O17 0.000000 0.389374 0.000000
O O18 0.000000 0.860503 0.000000
#
# Coordination Sequence:
#
# PCOD9144517 Si02
#       7
#     4   4   4   4   4   4   4
#     4  10  21  37  56  77 104 136 165 204 261 320
#     4  10  19  32  49  70 100 133 168 207 250 300
#     4  10  19  33  55  79 105 139 179 220 255 299
#     4   9  17  30  50  78 109 138 170 210 257 304
#     4  10  19  30  46  67  93 129 170 209 244 279
#     4  10  21  36  55  77 102 135 173 210 259 319
#     4  10  19  31  52  78  99 127 164 204 250 301
#
# _framework density 18.258315
#
# number of rings (size 3 to 8) (size 9 to 14) (size 15 to 20)
#    0.000    2.143    0.000    4.286    0.000    2.000 
#    0.000    1.429    0.000    9.429    0.000    0.000 
#    0.000    0.000    0.000    0.000    0.000    0.000 
#
# Total GULP energy -156130.099084 kJ/mol
# GULP energy per Si atom -5576.074967 kJ/mol
# Density = 1.821676 g / cm^3
# Si number density = 18.258315 Si / 1000 Ang^3
#
#
#
# Elastic Constant Matrix: (Units=GPa)
#
#
# Indices 1 2 3 4 5 6 
#
# 1 84.0447 38.0884 25.5956 0.0000 20.2694 0.0000
# 2 38.0884 103.6300 10.3561 0.0000 -7.3737 0.0000
# 3 25.5956 10.3561 28.7994 0.0000 16.6030 0.0000
# 4 0.0000 0.0000 0.0000 20.4258 0.0000 6.2600
# 5 20.2694 -7.3737 16.6030 0.0000 29.8749 0.0000
# 6 0.0000 0.0000 0.0000 6.2600 0.0000 11.1293
#
#
#
# Elastic Compliance Matrix: (Units=1/GPa)
#
#
# Indices 1 2 3 4 5 6 
#
# 1 0.020745 -0.007400 -0.009725 0.000000 -0.010497 0.000000
# 2 -0.007400 0.013612 -0.004634 0.000000 0.010956 0.000000
# 3 -0.009725 -0.004634 0.061636 0.000000 -0.028800 0.000000
# 4 0.000000 0.000000 0.000000 0.059155 0.000000 -0.033274
# 5 -0.010497 0.010956 -0.028800 0.000000 0.059305 0.000000
# 6 0.000000 0.000000 0.000000 -0.033274 0.000000 0.108569
#
#
# Mechanical properties :
#
#
# Convention : Reuss Voigt Hill
#
# Bulk Modulus (GPa) = 19.05674 40.50603 29.78138
# Shear Modulus (GPa) = 13.01974 21.78158 17.40066
#
# Velocity S-wave (km/s) = 2.67326 3.45768 3.09046
# Velocity P-wave (km/s) = 4.47084 6.17850 5.39269
#
# Compressibility (1/GPa) = 0.05247488
#
# Stress axis : x y z
#
# Youngs Moduli (GPa) = 48.20382 73.46391 16.22433
#
# Poissons Ratio (x) = 0.54362 0.15778
# Poissons Ratio (y) = 0.35670 0.07519
# Poissons Ratio (z) = 0.46878 0.34046
#
# Static dielectric constant tensor:
#      x y z
#    x 1.652710 0.000000 -0.015970 
#    y 0.000000 1.629700 0.000000 
#    z -0.015970 0.000000 1.629190 
# 
# From -- ./inp_files/86641.got.cif
#   From: 2010.05.17/outbox.cif.g08.bks.cpg/sg10_44_cif.got.tgz:86641.got - 2010.06.03 11:33:40.
