data_PCOD9144015
_publ_section_title
;
Structure prediction by ZEFSAII (Michael W. Deem and Ramdas Pophale) SiO2 
 PCOD9144015
Probable space group: P 2/M
;
_chemical_formula_sum "Si O2"
_cell_formula_units_Z 32
_cell_length_a 11.588816
_cell_length_b 16.656192
_cell_length_c 18.650070
_cell_angle_alpha 90.000000
_cell_angle_beta 29.576287
_cell_angle_gamma 90.000000
_cell_volume 1776.865422
_symmetry_space_group_name_H-M "P 2/M"
_symmetry_group_IT_number 10
_symmetry_cell_setting 'monoclinic'
loop_
_space_group_symop_operation_xyz
x,y,z
-x,y,-z
-x,-y,-z
x,-y,z
loop_
_atom_site_type_symbol
_atom_site_label
_atom_site_fract_x
_atom_site_fract_y
_atom_site_fract_z
Si Si1 0.069127 0.670170 0.385457
Si Si2 0.768841 0.411402 0.833524
Si Si3 0.341128 0.174690 0.651552
Si Si4 0.730239 0.094922 0.158451
Si Si5 0.899612 0.277386 0.874400
Si Si6 0.541524 0.683115 0.636989
Si Si7 0.889056 0.587301 0.138861
Si Si8 0.511849 0.773222 0.801782
O O1 0.215443 0.609731 0.258524
O O2 0.225350 0.750212 0.314868
O O3 0.000000 0.636533 0.500000
O O4 0.819350 0.680472 0.483132
O O5 0.874953 0.500000 0.789914
O O6 0.867786 0.334463 0.822849
O O7 0.500000 0.415446 0.000000
O O8 0.500000 0.145267 0.500000
O O9 0.324087 0.116199 0.729345
O O10 0.460541 0.253971 0.620865
O O11 0.085206 0.205354 0.764864
O O12 0.559524 0.142102 0.195873
O O13 0.717558 0.000000 0.153449
O O14 0.000000 0.122418 0.000000
O O15 0.001344 0.339120 0.877946
O O16 0.660718 0.244815 0.038861
O O17 0.389175 0.603172 0.710942
O O18 0.474540 0.715205 0.752836
O O19 0.942906 0.500000 0.141311
O O20 0.000000 0.588910 0.000000
#
# Coordination Sequence:
#
# PCOD9144015 Si02
#       8
#     4   4   4   4   4   4   4   4
#     4  10  21  38  57  79 105 147 194 239 278 338
#     4  11  23  36  51  77 113 148 191 239 285 330
#     4  10  20  33  56  83 115 147 180 227 278 338
#     4  10  20  35  59  92 120 143 181 231 281 337
#     4  11  19  34  55  78 109 149 189 234 281 333
#     4   9  19  33  53  78 110 137 191 235 274 329
#     4  10  19  30  50  78 110 147 188 237 291 337
#     4  10  18  34  57  81 106 145 183 228 275 334
#
# _framework density 18.009240999999999
#
# number of rings (size 3 to 8) (size 9 to 14) (size 15 to 20)
#    0.000    1.875    3.750    1.125    0.000    1.000 
#    0.000    1.875    0.000   13.500    0.000    2.625 
#    0.000    0.000    0.000    0.000    0.000    0.000 
#
# Total GULP energy -178218.603453 kJ/mol
# GULP energy per Si atom -5569.331358 kJ/mol
# Density = 1.796825 g / cm^3
# Si number density = 18.009241 Si / 1000 Ang^3
#
#
#
# Elastic Constant Matrix: (Units=GPa)
#
#
# Indices 1 2 3 4 5 6 
#
# 1 45.0766 11.6971 32.9920 0.0000 0.5544 0.0000
# 2 11.6971 55.4844 21.1336 0.0000 2.1248 0.0000
# 3 32.9920 21.1336 123.2613 0.0000 11.9417 0.0000
# 4 0.0000 0.0000 0.0000 -53.6674 0.0000 8.7370
# 5 0.5544 2.1248 11.9417 0.0000 30.9179 0.0000
# 6 0.0000 0.0000 0.0000 8.7370 0.0000 18.4314
#
#
#
# Elastic Compliance Matrix: (Units=1/GPa)
#
#
# Indices 1 2 3 4 5 6 
#
# 1 0.028324 -0.003303 -0.007259 0.000000 0.002523 0.000000
# 2 -0.003303 0.019668 -0.002455 0.000000 -0.000344 0.000000
# 3 -0.007259 -0.002455 0.010854 0.000000 -0.003893 0.000000
# 4 0.000000 0.000000 0.000000 -0.017298 0.000000 0.008200
# 5 0.002523 -0.000344 -0.003893 0.000000 0.033826 0.000000
# 6 0.000000 0.000000 0.000000 0.008200 0.000000 0.050368
#
#
# Mechanical properties :
#
#
# Convention : Reuss Voigt Hill
#
# Bulk Modulus (GPa) = 30.47696 39.49640 34.98668
# Shear Modulus (GPa) = 30.72925 9.66967 20.19946
#
# Velocity S-wave (km/s) = 4.13523 2.31969 3.35269
# Velocity P-wave (km/s) = 6.30554 5.39939 5.86997
#
# Compressibility (1/GPa) = 0.03281168
#
# Stress axis : x y z
#
# Youngs Moduli (GPa) = 35.30627 50.84518 92.13283
#
# Poissons Ratio (x) = 0.16793 0.66881
# Poissons Ratio (y) = 0.11661 0.22616
# Poissons Ratio (z) = 0.25630 0.12481
#
# Static dielectric constant tensor:
#      x y z
#    x 1.662010 0.000000 -0.017610 
#    y 0.000000 1.596810 0.000000 
#    z -0.017610 0.000000 1.649120 
# 
# From -- ./inp_files/47847.got.cif
#   From: 2010.05.17/outbox.cif.g08.bks.cpg/sg10_24_cif.got.tgz:47847.got - 2010.06.03 11:33:40.
