data_PCOD9144781
_publ_section_title
;
Structure prediction by ZEFSAII (Michael W. Deem and Ramdas Pophale) SiO2 
 PCOD9144781
Probable space group: P 2/M
;
_chemical_formula_sum "Si O2"
_cell_formula_units_Z 32
_cell_length_a 14.435585
_cell_length_b 15.538126
_cell_length_c 5.719736
_cell_angle_alpha 90.000000
_cell_angle_beta 67.004804
_cell_angle_gamma 90.000000
_cell_volume 1181.001771
_symmetry_space_group_name_H-M "P 2/M"
_symmetry_group_IT_number 10
_symmetry_cell_setting 'monoclinic'
loop_
_space_group_symop_operation_xyz
x,y,z
-x,y,-z
-x,-y,-z
x,-y,z
loop_
_atom_site_type_symbol
_atom_site_label
_atom_site_fract_x
_atom_site_fract_y
_atom_site_fract_z
Si Si1 0.881655 0.601119 0.138345
Si Si2 0.627050 0.629633 0.099902
Si Si3 0.365824 0.831204 0.476266
Si Si4 0.641284 0.160806 0.018190
Si Si5 0.877653 0.855629 0.747145
Si Si6 0.611284 0.373008 0.613195
Si Si7 0.147754 0.903073 0.725879
Si Si8 0.887508 0.655499 0.632968
O O1 0.880246 0.500000 0.186374
O O2 0.843964 0.647133 0.413300
O O3 0.839435 0.617925 0.917875
O O4 0.000000 0.629534 0.000000
O O5 0.507535 0.608846 0.243273
O O6 0.660868 0.597113 0.322085
O O7 0.639766 0.734026 0.051325
O O8 0.657548 0.597479 0.813172
O O9 0.400833 0.866598 0.191843
O O10 0.388599 0.730319 0.424284
O O11 0.244419 0.840873 0.610752
O O12 0.401237 0.867610 0.690208
O O13 0.756802 0.131067 0.885849
O O14 0.908126 0.896061 0.468208
O O15 0.895874 0.755115 0.691539
O O16 0.908304 0.883809 0.976346
O O17 0.187048 0.000000 0.704319
O O18 0.000000 0.616272 0.500000
#
# Coordination Sequence:
#
# PCOD9144781 Si02
#       8
#     4   4   4   4   4   4   4   4
#     4   9  17  30  49  74 101 125 145 163 191 240
#     4   8  12  18  29  46  66  90 118 152 196 249
#     4   8  14  23  35  52  69  90 124 169 214 260
#     4   8  14  23  35  52  72  96 127 166 204 250
#     4  10  19  31  46  64  84 108 144 186 225 266
#     4   8  12  18  29  46  66  87 115 155 199 253
#     4  10  19  31  46  61  79 108 148 193 234 270
#     4  10  19  31  49  71  95 121 145 176 213 247
#
# _framework density 27.09564
#
# number of rings (size 3 to 8) (size 9 to 14) (size 15 to 20)
#    0.000    3.125    0.000    1.500    0.000    1.500 
#    0.000    0.000    0.000    2.250    0.000   31.500 
#    0.000    0.000    0.000    0.000    0.000    0.000 
#
# Total GULP energy -178649.507379 kJ/mol
# GULP energy per Si atom -5582.797106 kJ/mol
# Density = 2.703397 g / cm^3
# Si number density = 27.095640 Si / 1000 Ang^3
#
#
#
# Elastic Constant Matrix: (Units=GPa)
#
#
# Indices 1 2 3 4 5 6 
#
# 1 71.8360 0.3619 76.4999 0.0000 13.0237 0.0000
# 2 0.3619 60.0461 13.8839 0.0000 7.2770 0.0000
# 3 76.4999 13.8839 366.3838 0.0000 44.3384 0.0000
# 4 0.0000 0.0000 0.0000 7.5957 0.0000 12.5485
# 5 13.0237 7.2770 44.3384 0.0000 74.1880 0.0000
# 6 0.0000 0.0000 0.0000 12.5485 0.0000 -3.3555
#
#
#
# Elastic Compliance Matrix: (Units=1/GPa)
#
#
# Indices 1 2 3 4 5 6 
#
# 1 0.018012 0.000867 -0.003666 0.000000 -0.001056 0.000000
# 2 0.000867 0.016972 -0.000651 0.000000 -0.001428 0.000000
# 3 -0.003666 -0.000651 0.003702 0.000000 -0.001505 0.000000
# 4 0.000000 0.000000 0.000000 0.018341 0.000000 0.068589
# 5 -0.001056 -0.001428 -0.001505 0.000000 0.014704 0.000000
# 6 0.000000 0.000000 0.000000 0.068589 0.000000 -0.041517
#
#
# Mechanical properties :
#
#
# Convention : Reuss Voigt Hill
#
# Bulk Modulus (GPa) = 31.46137 75.52860 53.49498
# Shear Modulus (GPa) = 104.80264 42.85363 73.82813
#
# Velocity S-wave (km/s) = 6.22597 3.98121 5.22555
# Velocity P-wave (km/s) = 7.95739 7.00491 7.49629
#
# Compressibility (1/GPa) = 0.03178502
#
# Stress axis : x y z
#
# Youngs Moduli (GPa) = 55.52005 58.91959 270.15479
#
# Poissons Ratio (x) = -0.05109 0.99034
# Poissons Ratio (y) = -0.04814 0.17598
# Poissons Ratio (z) = 0.20353 0.03838
#
# Static dielectric constant tensor:
#      x y z
#    x 2.555040 0.000000 0.191290 
#    y 0.000000 1.990690 0.000000 
#    z 0.191290 0.000000 2.190380 
# 
# From -- ./inp_files/12707.got.cif
#   From: 2010.05.17/outbox.cif.g08.bks.cpg/sg10_7_cif.got.tgz:12707.got - 2010.06.03 11:33:40.
