data_PCOD9144465
_publ_section_title
;
Structure prediction by ZEFSAII (Michael W. Deem and Ramdas Pophale) SiO2 
 PCOD9144465
Probable space group: P 2/M
;
_chemical_formula_sum "Si O2"
_cell_formula_units_Z 28
_cell_length_a 18.607440
_cell_length_b 9.010101
_cell_length_c 19.515844
_cell_angle_alpha 90.000000
_cell_angle_beta 148.298759
_cell_angle_gamma 90.000000
_cell_volume 1719.365253
_symmetry_space_group_name_H-M "P 2/M"
_symmetry_group_IT_number 10
_symmetry_cell_setting 'monoclinic'
loop_
_space_group_symop_operation_xyz
x,y,z
-x,y,-z
-x,-y,-z
x,-y,z
loop_
_atom_site_type_symbol
_atom_site_label
_atom_site_fract_x
_atom_site_fract_y
_atom_site_fract_z
Si Si1 0.388363 0.823009 0.583523
Si Si2 0.416823 0.321576 0.364775
Si Si3 0.154726 0.325896 0.656137
Si Si4 0.893218 0.678143 0.853309
Si Si5 0.749225 0.177316 0.393498
Si Si6 0.018827 0.321446 0.679848
Si Si7 0.088042 0.822493 0.277807
O O1 0.509286 0.743923 0.641554
O O2 0.370872 0.786459 0.649963
O O3 0.243109 0.784718 0.429052
O O4 0.404604 0.000000 0.590817
O O5 0.500000 0.273051 0.500000
O O6 0.423998 0.500000 0.367151
O O7 0.259260 0.278901 0.246518
O O8 0.188508 0.500000 0.678975
O O9 0.253655 0.234660 0.686578
O O10 0.000000 0.309581 0.500000
O O11 0.138849 0.283051 0.723053
O O12 0.893357 0.500000 0.841031
O O13 0.928380 0.760310 0.811506
O O14 0.000000 0.710401 0.000000
O O15 0.881607 0.255268 0.534322
O O16 0.768471 0.000000 0.410237
O O17 0.009851 0.500000 0.675326
O O18 0.016688 0.252131 0.753498
O O19 0.074984 0.000000 0.269942
#
# Coordination Sequence:
#
# PCOD9144465 Si02
#       7
#     4   4   4   4   4   4   4
#     4   9  18  29  42  64  91 120 151 188 232 270
#     4  10  19  31  49  71  89 114 157 194 224 272
#     4   8  14  23  34  52  79 115 152 183 222 270
#     4  10  21  36  51  68  93 122 151 190 238 278
#     4   9  16  24  35  56  85 116 150 186 227 272
#     4   9  16  25  38  56  82 116 153 188 225 271
#     4  10  19  30  45  66  90 117 154 192 230 274
#
# _framework density 16.285081000000002
#
# number of rings (size 3 to 8) (size 9 to 14) (size 15 to 20)
#    0.000    2.714    1.429    3.000    0.000    7.143 
#    0.000    0.000    0.000    0.000    0.000    0.000 
#    0.000    1.143    0.000   12.857    0.000    9.286 
#
# Total GULP energy -155884.379156 kJ/mol
# GULP energy per Si atom -5567.299256 kJ/mol
# Density = 1.624802 g / cm^3
# Si number density = 16.285081 Si / 1000 Ang^3
#
#
#
# Elastic Constant Matrix: (Units=GPa)
#
#
# Indices 1 2 3 4 5 6 
#
# 1 199.9915 67.0280 41.2722 0.0000 -3.5398 0.0000
# 2 67.0280 42.4000 20.9017 0.0000 -3.5389 0.0000
# 3 41.2722 20.9017 45.7343 0.0000 0.2797 0.0000
# 4 0.0000 0.0000 0.0000 8.0182 0.0000 1.3108
# 5 -3.5398 -3.5389 0.2797 0.0000 9.0630 0.0000
# 6 0.0000 0.0000 0.0000 1.3108 0.0000 45.3869
#
#
#
# Elastic Compliance Matrix: (Units=1/GPa)
#
#
# Indices 1 2 3 4 5 6 
#
# 1 0.010890 -0.016191 -0.002416 0.000000 -0.001994 0.000000
# 2 -0.016191 0.055956 -0.011059 0.000000 0.015867 0.000000
# 3 -0.002416 -0.011059 0.029137 0.000000 -0.006161 0.000000
# 4 0.000000 0.000000 0.000000 0.125308 0.000000 -0.003619
# 5 -0.001994 0.015867 -0.006161 0.000000 0.115945 0.000000
# 6 0.000000 0.000000 0.000000 -0.003619 0.000000 0.022137
#
#
# Mechanical properties :
#
#
# Convention : Reuss Voigt Hill
#
# Bulk Modulus (GPa) = 27.28354 60.72552 44.00453
# Shear Modulus (GPa) = 11.60300 23.08856 17.34578
#
# Velocity S-wave (km/s) = 2.67215 3.76942 3.26718
# Velocity P-wave (km/s) = 5.12939 7.50431 6.42749
#
# Compressibility (1/GPa) = 0.03665214
#
# Stress axis : x y z
#
# Youngs Moduli (GPa) = 91.82866 17.87106 34.32025
#
# Poissons Ratio (x) = 0.28935 0.08290
# Poissons Ratio (y) = 1.48679 0.37956
# Poissons Ratio (z) = 0.22182 0.19764
#
# Static dielectric constant tensor:
#      x y z
#    x 1.598920 0.000000 -0.012000 
#    y 0.000000 1.541510 0.000000 
#    z -0.012000 0.000000 1.517540 
# 
# From -- ./inp_files/79258.got.cif
#   From: 2010.05.17/outbox.cif.g08.bks.cpg/sg10_40_cif.got.tgz:79258.got - 2010.06.03 11:33:40.
