data_PCOD9144447
_publ_section_title
;
Structure prediction by ZEFSAII (Michael W. Deem and Ramdas Pophale) SiO2 
 PCOD9144447
Probable space group: P 2/M
;
_chemical_formula_sum "Si O2"
_cell_formula_units_Z 28
_cell_length_a 15.832090
_cell_length_b 9.206209
_cell_length_c 12.337203
_cell_angle_alpha 90.000000
_cell_angle_beta 46.639225
_cell_angle_gamma 90.000000
_cell_volume 1307.365481
_symmetry_space_group_name_H-M "P 2/M"
_symmetry_group_IT_number 10
_symmetry_cell_setting 'monoclinic'
loop_
_space_group_symop_operation_xyz
x,y,z
-x,y,-z
-x,-y,-z
x,-y,z
loop_
_atom_site_type_symbol
_atom_site_label
_atom_site_fract_x
_atom_site_fract_y
_atom_site_fract_z
Si Si1 0.300654 0.166531 0.070080
Si Si2 0.652679 0.832338 0.230215
Si Si3 0.591181 0.826600 0.614942
Si Si4 0.879667 0.334994 0.062101
Si Si5 0.925590 0.666727 0.764681
Si Si6 0.380984 0.333574 0.195653
Si Si7 0.811081 0.333464 0.469854
O O1 0.377248 0.270872 0.078792
O O2 0.169509 0.225550 0.199485
O O3 0.313923 0.000000 0.094683
O O4 0.325241 0.170796 0.919772
O O5 0.519788 0.778746 0.357742
O O6 0.758855 0.746063 0.188712
O O7 0.656627 0.000000 0.262605
O O8 0.565624 0.771571 0.760251
O O9 0.717207 0.756654 0.482764
O O10 0.596803 0.000000 0.607030
O O11 0.872498 0.500000 0.110926
O O12 0.000000 0.267926 0.000000
O O13 0.896527 0.341553 0.917978
O O14 0.917014 0.500000 0.729486
O O15 0.057886 0.719708 0.639369
O O16 0.422214 0.500000 0.167537
O O17 0.248324 0.335367 0.359348
O O18 0.815088 0.500000 0.427053
#
# Coordination Sequence:
#
# PCOD9144447 Si02
#       7
#     4   4   4   4   4   4   4
#     4  10  19  30  44  67  95 123 160 196 231 271
#     4   9  19  33  49  69  95 126 153 186 234 281
#     4   9  17  31  48  66  90 123 161 196 227 264
#     4   9  18  32  53  79  98 115 146 187 230 279
#     4   9  17  32  50  67  94 125 150 187 237 279
#     4   9  18  31  44  65  93 125 162 194 230 269
#     4   8  17  31  46  65  90 125 160 190 228 273
#
# _framework density 21.417117999999999
#
# number of rings (size 3 to 8) (size 9 to 14) (size 15 to 20)
#    0.857    2.143    0.000    0.857    0.000    3.714 
#    0.000    5.714    0.000    0.857    0.000    6.000 
#    0.000    0.000    0.000    0.000    0.000    0.000 
#
# Total GULP energy -156000.794235 kJ/mol
# GULP energy per Si atom -5571.456937 kJ/mol
# Density = 2.136837 g / cm^3
# Si number density = 21.417118 Si / 1000 Ang^3
#
#
#
# Elastic Constant Matrix: (Units=GPa)
#
#
# Indices 1 2 3 4 5 6 
#
# 1 93.6247 40.3493 12.2689 0.0000 -23.4505 0.0000
# 2 40.3493 61.9949 -3.1956 0.0000 -11.8493 0.0000
# 3 12.2689 -3.1956 45.6953 0.0000 -2.9506 0.0000
# 4 0.0000 0.0000 0.0000 17.6136 0.0000 -15.6988
# 5 -23.4505 -11.8493 -2.9506 0.0000 43.8319 0.0000
# 6 0.0000 0.0000 0.0000 -15.6988 0.0000 25.6136
#
#
#
# Elastic Compliance Matrix: (Units=1/GPa)
#
#
# Indices 1 2 3 4 5 6 
#
# 1 0.017341 -0.010370 -0.004985 0.000000 0.006139 0.000000
# 2 -0.010370 0.023312 0.004483 0.000000 0.001056 0.000000
# 3 -0.004985 0.004483 0.023544 0.000000 0.000130 0.000000
# 4 0.000000 0.000000 0.000000 0.125130 0.000000 0.076694
# 5 0.006139 0.001056 0.000130 0.000000 0.026393 0.000000
# 6 0.000000 0.000000 0.000000 0.076694 0.000000 0.086048
#
#
# Mechanical properties :
#
#
# Convention : Reuss Voigt Hill
#
# Bulk Modulus (GPa) = 23.55498 33.35111 28.45304
# Shear Modulus (GPa) = 14.80763 27.53798 21.17280
#
# Velocity S-wave (km/s) = 2.63229 3.58969 3.14760
# Velocity P-wave (km/s) = 4.50118 5.72600 5.15013
#
# Compressibility (1/GPa) = 0.04245387
#
# Stress axis : x y z
#
# Youngs Moduli (GPa) = 57.66744 42.89552 42.47308
#
# Poissons Ratio (x) = 0.44482 0.21172
# Poissons Ratio (y) = 0.59800 -0.19040
# Poissons Ratio (z) = 0.28746 -0.19229
#
# Static dielectric constant tensor:
#      x y z
#    x 1.792700 0.000000 -0.007770 
#    y 0.000000 1.734690 0.000000 
#    z -0.007770 0.000000 1.847680 
# 
# From -- ./inp_files/66423.got.cif
#   From: 2010.05.17/outbox.cif.g08.bks.cpg/sg10_34_cif.got.tgz:66423.got - 2010.06.03 11:33:40.
