data_PCOD9144506
_publ_section_title
;
Structure prediction by ZEFSAII (Michael W. Deem and Ramdas Pophale) SiO2 
 PCOD9144506
Probable space group: P 2/M
;
_chemical_formula_sum "Si O2"
_cell_formula_units_Z 28
_cell_length_a 15.404064
_cell_length_b 7.612824
_cell_length_c 19.009802
_cell_angle_alpha 90.000000
_cell_angle_beta 140.934587
_cell_angle_gamma 90.000000
_cell_volume 1404.889208
_symmetry_space_group_name_H-M "P 2/M"
_symmetry_group_IT_number 10
_symmetry_cell_setting 'monoclinic'
loop_
_space_group_symop_operation_xyz
x,y,z
-x,y,-z
-x,-y,-z
x,-y,z
loop_
_atom_site_type_symbol
_atom_site_label
_atom_site_fract_x
_atom_site_fract_y
_atom_site_fract_z
Si Si1 0.566621 0.798430 0.446916
Si Si2 0.997525 0.711842 0.163434
Si Si3 0.861014 0.791227 0.611758
Si Si4 0.431218 0.713969 0.717171
Si Si5 0.262232 0.708374 0.246016
Si Si6 0.866572 0.704445 0.453513
Si Si7 0.269245 0.285346 0.088245
O O1 0.717864 0.718339 0.556152
O O2 0.563734 0.780129 0.360010
O O3 0.415645 0.733227 0.374206
O O4 0.571573 0.000000 0.471455
O O5 0.997136 0.500000 0.158241
O O6 0.017535 0.758102 0.257297
O O7 0.133753 0.780466 0.208810
O O8 0.858495 0.775183 0.038719
O O9 0.882396 0.714141 0.547906
O O10 0.843533 0.000000 0.591382
O O11 0.426720 0.500000 0.710649
O O12 0.286731 0.776836 0.658314
O O13 0.578007 0.764632 0.842042
O O14 0.243125 0.500000 0.229435
O O15 0.256958 0.773779 0.161923
O O16 0.861441 0.500000 0.428867
O O17 0.000000 0.784636 0.500000
O O18 0.265813 0.500000 0.087091
#
# Coordination Sequence:
#
# PCOD9144506 Si02
#       7
#     4   4   4   4   4   4   4
#     4   9  17  29  44  62  88 121 154 189 227 268
#     4  10  19  30  46  66  90 123 160 195 228 265
#     4  10  21  34  46  65  95 126 153 183 226 277
#     4   8  14  27  48  71  93 116 144 182 227 271
#     4   9  17  29  46  67  89 117 157 201 237 266
#     4   9  17  31  54  80  98 112 139 183 230 277
#     4   8  14  27  47  68  90 119 156 193 227 264
#
# _framework density 19.930398
#
# number of rings (size 3 to 8) (size 9 to 14) (size 15 to 20)
#    0.000    3.000    0.000    2.143    0.000    4.857 
#    0.000    5.714    0.000    5.143    0.000    6.000 
#    0.000    0.000    0.000    0.000    0.000    0.000 
#
# Total GULP energy -156019.129350 kJ/mol
# GULP energy per Si atom -5572.111762 kJ/mol
# Density = 1.988504 g / cm^3
# Si number density = 19.930398 Si / 1000 Ang^3
#
#
#
# Elastic Constant Matrix: (Units=GPa)
#
#
# Indices 1 2 3 4 5 6 
#
# 1 114.4832 -0.1310 49.6306 0.0000 34.4282 0.0000
# 2 -0.1310 43.5857 -9.0003 0.0000 3.6874 0.0000
# 3 49.6306 -9.0003 136.4953 0.0000 23.8512 0.0000
# 4 0.0000 0.0000 0.0000 52.9197 0.0000 -2.0907
# 5 34.4282 3.6874 23.8512 0.0000 25.4714 0.0000
# 6 0.0000 0.0000 0.0000 -2.0907 0.0000 -0.9411
#
#
#
# Elastic Compliance Matrix: (Units=1/GPa)
#
#
# Indices 1 2 3 4 5 6 
#
# 1 0.015373 0.001186 -0.002213 0.000000 -0.018878 0.000000
# 2 0.001186 0.024076 0.002446 0.000000 -0.007379 0.000000
# 3 -0.002213 0.002446 0.009363 0.000000 -0.006131 0.000000
# 4 0.000000 0.000000 0.000000 0.017372 0.000000 -0.038593
# 5 -0.018878 -0.007379 -0.006131 0.000000 0.071586 0.000000
# 6 0.000000 0.000000 0.000000 -0.038593 0.000000 -0.976850
#
#
# Mechanical properties :
#
#
# Convention : Reuss Voigt Hill
#
# Bulk Modulus (GPa) = 19.36070 41.72923 30.54496
# Shear Modulus (GPa) = -6.06280 32.42766 13.18243
#
# Velocity S-wave (km/s) = -1.74602 4.03804 2.57461
# Velocity P-wave (km/s) = 2.38127 6.53636 4.91907
#
# Compressibility (1/GPa) = 0.05165102
#
# Stress axis : x y z
#
# Youngs Moduli (GPa) = 65.05053 41.53487 106.79889
#
# Poissons Ratio (x) = -0.04928 0.23630
# Poissons Ratio (y) = -0.07718 -0.26118
# Poissons Ratio (z) = 0.14393 -0.10158
#
# Static dielectric constant tensor:
#      x y z
#    x 1.722280 0.000000 0.048950 
#    y 0.000000 1.759700 0.000000 
#    z 0.048950 0.000000 1.725960 
# 
# From -- ./inp_files/54538.got.cif
#   From: 2010.05.17/outbox.cif.g08.bks.cpg/sg10_28_cif.got.tgz:54538.got - 2010.06.03 11:33:40.
