data_PCOD9144660
_publ_section_title
;
Structure prediction by ZEFSAII (Michael W. Deem and Ramdas Pophale) SiO2 
 PCOD9144660
Probable space group: P 2/M
;
_chemical_formula_sum "Si O2"
_cell_formula_units_Z 28
_cell_length_a 10.894422
_cell_length_b 9.358362
_cell_length_c 13.966499
_cell_angle_alpha 90.000000
_cell_angle_beta 99.212448
_cell_angle_gamma 90.000000
_cell_volume 1405.572992
_symmetry_space_group_name_H-M "P 2/M"
_symmetry_group_IT_number 10
_symmetry_cell_setting 'monoclinic'
loop_
_space_group_symop_operation_xyz
x,y,z
-x,y,-z
-x,-y,-z
x,-y,z
loop_
_atom_site_type_symbol
_atom_site_label
_atom_site_fract_x
_atom_site_fract_y
_atom_site_fract_z
Si Si1 0.468835 0.328979 0.773436
Si Si2 0.057949 0.334340 0.722577
Si Si3 0.363232 0.161835 0.933743
Si Si4 0.278772 0.333766 0.594027
Si Si5 0.112594 0.837526 0.436218
Si Si6 0.993034 0.830907 0.889585
Si Si7 0.711990 0.169325 0.869878
O O1 0.474234 0.500000 0.783305
O O2 0.380961 0.265118 0.846404
O O3 0.406464 0.294818 0.663378
O O4 0.603296 0.258949 0.807020
O O5 0.033770 0.500000 0.738645
O O6 0.174121 0.325178 0.664699
O O7 0.942780 0.261140 0.653470
O O8 0.076310 0.250497 0.823523
O O9 0.330976 0.000000 0.898994
O O10 0.500000 0.156390 0.000000
O O11 0.281649 0.204835 0.015341
O O12 0.283359 0.500000 0.563649
O O13 0.230077 0.233197 0.503557
O O14 0.000000 0.842431 0.500000
O O15 0.136121 0.000000 0.407402
O O16 0.848119 0.810735 0.844093
O O17 0.020939 0.000000 0.891237
O O18 0.000000 0.782113 0.000000
O O19 0.680746 0.000000 0.861814
#
# Coordination Sequence:
#
# PCOD9144660 Si02
#       7
#     4   4   4   4   4   4   4
#     4  10  19  30  48  75 103 133 168 209 257 307
#     4  10  20  35  54  76 107 142 171 208 261 311
#     4   8  15  28  45  65  92 128 167 206 252 301
#     4   9  19  33  50  78 112 138 165 208 262 313
#     4   9  17  31  53  80 105 133 172 212 254 307
#     4  10  22  38  55  75 101 137 181 223 255 295
#     4   9  19  35  50  68  98 135 173 214 260 303
#
# _framework density 19.920701000000001
#
# number of rings (size 3 to 8) (size 9 to 14) (size 15 to 20)
#    0.000    2.714    0.000    2.143    2.000    6.857 
#    0.000    0.000    0.000    0.857    0.000    6.000 
#    0.000    0.000    0.000    0.000    0.000    0.000 
#
# Total GULP energy -156234.166848 kJ/mol
# GULP energy per Si atom -5579.791673 kJ/mol
# Density = 1.987536 g / cm^3
# Si number density = 19.920701 Si / 1000 Ang^3
#
#
#
# Elastic Constant Matrix: (Units=GPa)
#
#
# Indices 1 2 3 4 5 6 
#
# 1 39.5808 9.4443 0.0593 0.0000 13.1677 0.0000
# 2 9.4443 67.2635 31.9875 0.0000 17.3050 0.0000
# 3 0.0593 31.9875 63.8387 0.0000 23.1625 0.0000
# 4 0.0000 0.0000 0.0000 35.5381 0.0000 2.5562
# 5 13.1677 17.3050 23.1625 0.0000 31.8803 0.0000
# 6 0.0000 0.0000 0.0000 2.5562 0.0000 13.2084
#
#
#
# Elastic Compliance Matrix: (Units=1/GPa)
#
#
# Indices 1 2 3 4 5 6 
#
# 1 0.031804 -0.003970 0.008072 0.000000 -0.016846 0.000000
# 2 -0.003970 0.020555 -0.009292 0.000000 -0.002767 0.000000
# 3 0.008072 -0.009292 0.026742 0.000000 -0.017720 0.000000
# 4 0.000000 0.000000 0.000000 0.028536 0.000000 -0.005522
# 5 -0.016846 -0.002767 -0.017720 0.000000 0.052701 0.000000
# 6 0.000000 0.000000 0.000000 -0.005522 0.000000 0.076778
#
#
# Mechanical properties :
#
#
# Convention : Reuss Voigt Hill
#
# Bulk Modulus (GPa) = 14.55165 28.18503 21.36834
# Shear Modulus (GPa) = 18.49084 24.73814 21.61449
#
# Velocity S-wave (km/s) = 3.04998 3.52778 3.29755
# Velocity P-wave (km/s) = 4.44115 5.54734 5.02478
#
# Compressibility (1/GPa) = 0.06872074
#
# Stress axis : x y z
#
# Youngs Moduli (GPa) = 31.44236 48.65002 37.39424
#
# Poissons Ratio (x) = 0.19315 -0.30185
# Poissons Ratio (y) = 0.12484 0.34747
# Poissons Ratio (z) = -0.25380 0.45205
#
# Static dielectric constant tensor:
#      x y z
#    x 1.752480 0.000000 0.004430 
#    y 0.000000 1.663180 0.000000 
#    z 0.004430 0.000000 1.707470 
# 
# From -- ./inp_files/63479.got.cif
#   From: 2010.05.17/outbox.cif.g08.bks.cpg/sg10_32_cif.got.tgz:63479.got - 2010.06.03 11:33:40.
