data_PCOD9144610
_publ_section_title
;
Structure prediction by ZEFSAII (Michael W. Deem and Ramdas Pophale) SiO2 
 PCOD9144610
Probable space group: P 2/M
;
_chemical_formula_sum "Si O2"
_cell_formula_units_Z 32
_cell_length_a 23.817224
_cell_length_b 8.968365
_cell_length_c 12.817319
_cell_angle_alpha 90.000000
_cell_angle_beta 133.225611
_cell_angle_gamma 90.000000
_cell_volume 1994.931866
_symmetry_space_group_name_H-M "P 2/M"
_symmetry_group_IT_number 10
_symmetry_cell_setting 'monoclinic'
loop_
_space_group_symop_operation_xyz
x,y,z
-x,y,-z
-x,-y,-z
x,-y,z
loop_
_atom_site_type_symbol
_atom_site_label
_atom_site_fract_x
_atom_site_fract_y
_atom_site_fract_z
Si Si1 0.195047 0.321747 0.893777
Si Si2 0.094178 0.177866 0.949695
Si Si3 0.163832 0.677627 0.242889
Si Si4 0.515153 0.827840 0.394080
Si Si5 0.332052 0.676399 0.370394
Si Si6 0.344962 0.820679 0.158859
Si Si7 0.083940 0.177187 0.335958
Si Si8 0.916439 0.321482 0.440463
O O1 0.199886 0.500000 0.913040
O O2 0.147614 0.253628 0.930312
O O3 0.147696 0.289370 0.728395
O O4 0.279536 0.250257 0.003966
O O5 0.005247 0.206634 0.808255
O O6 0.107062 0.000000 0.966287
O O7 0.115729 0.244961 0.089098
O O8 0.151531 0.500000 0.223541
O O9 0.253767 0.706782 0.333116
O O10 0.136932 0.742507 0.318488
O O11 0.500000 0.824704 0.500000
O O12 0.590819 0.730463 0.473067
O O13 0.433133 0.778953 0.242779
O O14 0.530135 0.000000 0.384851
O O15 0.336622 0.500000 0.355358
O O16 0.329098 0.761341 0.255882
O O17 0.340522 0.000000 0.153822
O O18 0.097060 0.238733 0.468455
O O19 0.096001 0.000000 0.347579
O O20 0.917814 0.500000 0.460427
O O21 0.000000 0.279301 0.500000
#
# Coordination Sequence:
#
# PCOD9144610 Si02
#       8
#     4   4   4   4   4   4   4   4
#     4  11  21  33  53  78 102 135 175 211 257 309
#     4  11  22  35  52  75 104 136 172 215 259 303
#     4  11  23  36  52  75 105 140 176 212 255 308
#     4   8  16  29  45  68  99 136 169 199 249 306
#     4  10  19  30  47  73 102 135 172 208 249 303
#     4  10  19  31  48  72 104 137 168 208 254 304
#     4  11  24  38  54  76 101 134 178 220 259 304
#     4  10  21  38  57  75 100 134 172 216 263 308
#
# _framework density 16.040647
#
# number of rings (size 3 to 8) (size 9 to 14) (size 15 to 20)
#    0.000    1.750    2.500    3.375    0.000    8.500 
#    0.000    0.000    0.000    0.000    0.000    0.875 
#    0.000    7.000    0.000    0.000    0.000    0.000 
#
# Total GULP energy -178636.142085 kJ/mol
# GULP energy per Si atom -5582.379440 kJ/mol
# Density = 1.600414 g / cm^3
# Si number density = 16.040647 Si / 1000 Ang^3
#
#
#
# Elastic Constant Matrix: (Units=GPa)
#
#
# Indices 1 2 3 4 5 6 
#
# 1 55.2832 40.6732 57.7559 0.0000 -2.8568 0.0000
# 2 40.6732 58.1769 57.0591 0.0000 7.7939 0.0000
# 3 57.7559 57.0591 116.5227 0.0000 14.2689 0.0000
# 4 0.0000 0.0000 0.0000 34.5846 0.0000 -6.6697
# 5 -2.8568 7.7939 14.2689 0.0000 26.9679 0.0000
# 6 0.0000 0.0000 0.0000 -6.6697 0.0000 32.2565
#
#
#
# Elastic Compliance Matrix: (Units=1/GPa)
#
#
# Indices 1 2 3 4 5 6 
#
# 1 0.057470 -0.024176 -0.019512 0.000000 0.023399 0.000000
# 2 -0.024176 0.043272 -0.007871 0.000000 -0.010902 0.000000
# 3 -0.019512 -0.007871 0.023612 0.000000 -0.012286 0.000000
# 4 0.000000 0.000000 0.000000 0.030116 0.000000 0.006227
# 5 0.023399 -0.010902 -0.012286 0.000000 0.049211 0.000000
# 6 0.000000 0.000000 0.000000 0.006227 0.000000 0.032289
#
#
# Mechanical properties :
#
#
# Convention : Reuss Voigt Hill
#
# Bulk Modulus (GPa) = 47.09301 60.10657 53.59979
# Shear Modulus (GPa) = 14.44389 23.72812 19.08600
#
# Velocity S-wave (km/s) = 3.00401 3.85027 3.45317
# Velocity P-wave (km/s) = 6.43851 7.57092 7.02756
#
# Compressibility (1/GPa) = 0.02123458
#
# Stress axis : x y z
#
# Youngs Moduli (GPa) = 17.40040 23.10980 42.35084
#
# Poissons Ratio (x) = 0.55871 0.82636
# Poissons Ratio (y) = 0.42068 0.33335
# Poissons Ratio (z) = 0.33952 0.18190
#
# Static dielectric constant tensor:
#      x y z
#    x 1.514900 0.000000 0.030170 
#    y 0.000000 1.535390 0.000000 
#    z 0.030170 0.000000 1.540900 
# 
# From -- ./inp_files/55232.got.cif
#   From: 2010.05.17/outbox.cif.g08.bks.cpg/sg10_28_cif.got.tgz:55232.got - 2010.06.03 11:33:40.
