data_PCOD9144949
_publ_section_title
;
Structure prediction by ZEFSAII (Michael W. Deem and Ramdas Pophale) SiO2 
 PCOD9144949
Probable space group: P 2/M
;
_chemical_formula_sum "Si O2"
_cell_formula_units_Z 32
_cell_length_a 20.494248
_cell_length_b 7.507064
_cell_length_c 14.762259
_cell_angle_alpha 90.000000
_cell_angle_beta 133.864637
_cell_angle_gamma 90.000000
_cell_volume 1637.485666
_symmetry_space_group_name_H-M "P 2/M"
_symmetry_group_IT_number 10
_symmetry_cell_setting 'monoclinic'
loop_
_space_group_symop_operation_xyz
x,y,z
-x,y,-z
-x,-y,-z
x,-y,z
loop_
_atom_site_type_symbol
_atom_site_label
_atom_site_fract_x
_atom_site_fract_y
_atom_site_fract_z
Si Si1 0.323352 0.289963 0.505301
Si Si2 0.144130 0.782507 0.865981
Si Si3 0.956712 0.782173 0.770418
Si Si4 0.488455 0.713142 0.386373
Si Si5 0.283013 0.786246 0.141897
Si Si6 0.178165 0.203697 0.215287
Si Si7 0.812958 0.214062 0.479274
Si Si8 0.102563 0.782314 0.623160
O O1 0.319825 0.500000 0.481473
O O2 0.425508 0.224823 0.589251
O O3 0.255799 0.202052 0.367565
O O4 0.280749 0.263480 0.563111
O O5 0.130592 0.721864 0.750001
O O6 0.058216 0.728676 0.844748
O O7 0.142918 0.000000 0.862092
O O8 0.235203 0.725077 0.003901
O O9 0.909220 0.718572 0.817268
O O10 0.892365 0.726731 0.624676
O O11 0.954840 0.000000 0.771148
O O12 0.500000 0.782607 0.500000
O O13 0.495461 0.500000 0.397589
O O14 0.388753 0.749707 0.253944
O O15 0.225079 0.715625 0.171966
O O16 0.274999 0.000000 0.137286
O O17 0.153540 0.000000 0.167971
O O18 0.833482 0.276622 0.397818
O O19 0.817594 0.000000 0.482185
O O20 0.000000 0.730208 0.500000
O O21 0.103244 0.000000 0.625474
#
# Coordination Sequence:
#
# PCOD9144949 Si02
#       8
#     4   4   4   4   4   4   4   4
#     4  10  19  31  49  70  91 119 155 199 243 283
#     4   9  16  26  42  70 103 131 160 192 230 277
#     4   8  13  23  40  64  97 128 155 185 218 269
#     4  10  20  35  52  68  88 122 165 199 236 290
#     4  10  20  30  45  72 102 127 155 199 243 275
#     4   9  17  28  43  68  98 128 158 188 229 278
#     4   9  16  27  47  75  99 122 155 196 236 274
#     4   9  14  24  46  74 101 129 160 193 230 275
#
# _framework density 19.542155999999999
#
# number of rings (size 3 to 8) (size 9 to 14) (size 15 to 20)
#    0.000    2.750    2.500    1.125    0.000    1.750 
#    0.000    2.500    0.000    4.875    0.000    9.625 
#    0.000    0.000    0.000    0.000    0.000    0.000 
#
# Total GULP energy -178482.765387 kJ/mol
# GULP energy per Si atom -5577.586418 kJ/mol
# Density = 1.949768 g / cm^3
# Si number density = 19.542156 Si / 1000 Ang^3
#
#
#
# Elastic Constant Matrix: (Units=GPa)
#
#
# Indices 1 2 3 4 5 6 
#
# 1 148.7971 -0.0156 80.8257 0.0000 4.0962 0.0000
# 2 -0.0156 51.3415 -3.8178 0.0000 -0.6591 0.0000
# 3 80.8257 -3.8178 122.4879 0.0000 6.7439 0.0000
# 4 0.0000 0.0000 0.0000 18.7660 0.0000 18.5592
# 5 4.0962 -0.6591 6.7439 0.0000 21.9707 0.0000
# 6 0.0000 0.0000 0.0000 18.5592 0.0000 14.4589
#
#
#
# Elastic Compliance Matrix: (Units=1/GPa)
#
#
# Indices 1 2 3 4 5 6 
#
# 1 0.010489 -0.000511 -0.006946 0.000000 0.000161 0.000000
# 2 -0.000511 0.019551 0.000925 0.000000 0.000398 0.000000
# 3 -0.006946 0.000925 0.012922 0.000000 -0.002644 0.000000
# 4 0.000000 0.000000 0.000000 -0.197776 0.000000 0.253861
# 5 0.000161 0.000398 -0.002644 0.000000 0.046308 0.000000
# 6 0.000000 0.000000 0.000000 0.253861 0.000000 -0.256690
#
#
# Mechanical properties :
#
#
# Convention : Reuss Voigt Hill
#
# Bulk Modulus (GPa) = 33.44820 52.95681 43.20250
# Shear Modulus (GPa) = -14.61290 27.41473 6.40092
#
# Velocity S-wave (km/s) = -2.73749 3.74953 1.81178
# Velocity P-wave (km/s) = 2.67605 6.77517 5.15093
#
# Compressibility (1/GPa) = 0.02989698
#
# Stress axis : x y z
#
# Youngs Moduli (GPa) = 95.33540 51.14792 77.38670
#
# Poissons Ratio (x) = 0.02615 0.53755
# Poissons Ratio (y) = 0.04874 -0.07157
# Poissons Ratio (z) = 0.66223 -0.04730
#
# Static dielectric constant tensor:
#      x y z
#    x 1.706200 0.000000 -0.003990 
#    y 0.000000 1.757150 0.000000 
#    z -0.003990 0.000000 1.658580 
# 
# From -- ./inp_files/70014.got.cif
#   From: 2010.05.17/outbox.cif.g08.bks.cpg/sg10_36_cif.got.tgz:70014.got - 2010.06.03 11:33:40.
