data_PCOD9144518
_publ_section_title
;
Structure prediction by ZEFSAII (Michael W. Deem and Ramdas Pophale) SiO2 
 PCOD9144518
Probable space group: P 2/M
;
_chemical_formula_sum "Si O2"
_cell_formula_units_Z 32
_cell_length_a 5.355089
_cell_length_b 15.334198
_cell_length_c 20.852108
_cell_angle_alpha 90.000000
_cell_angle_beta 88.856425
_cell_angle_gamma 90.000000
_cell_volume 1711.950548
_symmetry_space_group_name_H-M "P 2/M"
_symmetry_group_IT_number 10
_symmetry_cell_setting 'monoclinic'
loop_
_space_group_symop_operation_xyz
x,y,z
-x,y,-z
-x,-y,-z
x,-y,z
loop_
_atom_site_type_symbol
_atom_site_label
_atom_site_fract_x
_atom_site_fract_y
_atom_site_fract_z
Si Si1 0.513678 0.894787 0.072874
Si Si2 0.687855 0.596450 0.256384
Si Si3 0.376736 0.097758 0.315735
Si Si4 0.012850 0.105226 0.150709
Si Si5 0.182219 0.405144 0.342634
Si Si6 0.702061 0.093796 0.442603
Si Si7 0.985933 0.770524 0.378241
Si Si8 0.729272 0.782901 0.247554
O O1 0.776226 0.875230 0.105499
O O2 0.270788 0.869458 0.115177
O O3 0.500868 0.000000 0.069715
O O4 0.500000 0.861639 0.000000
O O5 0.664610 0.500000 0.224902
O O6 0.448314 0.602198 0.305462
O O7 0.680157 0.687803 0.217487
O O8 0.955776 0.594269 0.291739
O O9 0.570617 0.090078 0.373818
O O10 0.165922 0.156996 0.347297
O O11 0.505862 0.148080 0.256341
O O12 0.297277 0.000000 0.298476
O O13 0.950156 0.163694 0.212859
O O14 0.011931 0.000000 0.163216
O O15 0.175025 0.500000 0.375474
O O16 0.127790 0.320506 0.386034
O O17 0.500000 0.097713 0.500000
O O18 0.861044 0.181531 0.438437
O O19 0.838133 0.000000 0.447093
O O20 0.789934 0.757911 0.321141
#
# Coordination Sequence:
#
# PCOD9144518 Si02
#       8
#     4   4   4   4   4   4   4   4
#     4   9  18  33  49  66  92 130 175 212 237 268
#     4   9  17  30  48  69  96 129 161 195 236 287
#     4  10  19  30  46  67  94 128 159 194 241 294
#     4  10  20  30  46  70  98 134 165 198 242 287
#     4   9  17  30  49  71  93 122 161 197 239 295
#     4   9  19  34  48  66  91 122 166 210 242 282
#     4  10  19  31  48  68  95 127 159 198 249 296
#     4  10  20  31  44  70 104 127 157 195 246 300
#
# _framework density 18.692129000000001
#
# number of rings (size 3 to 8) (size 9 to 14) (size 15 to 20)
#    0.000    2.500    1.250    1.125    1.750    3.500 
#    0.000    1.875    0.000    0.375    0.000    0.875 
#    0.000    3.000    0.000    0.000    0.000    0.000 
#
# Total GULP energy -178189.661749 kJ/mol
# GULP energy per Si atom -5568.426930 kJ/mol
# Density = 1.864959 g / cm^3
# Si number density = 18.692129 Si / 1000 Ang^3
#
#
#
# Elastic Constant Matrix: (Units=GPa)
#
#
# Indices 1 2 3 4 5 6 
#
# 1 80.4083 16.1179 22.6059 0.0000 -7.4894 0.0000
# 2 16.1179 152.9962 21.0303 0.0000 -17.7368 0.0000
# 3 22.6059 21.0303 60.5868 0.0000 -3.4465 0.0000
# 4 0.0000 0.0000 0.0000 10.1415 0.0000 4.1984
# 5 -7.4894 -17.7368 -3.4465 0.0000 27.7903 0.0000
# 6 0.0000 0.0000 0.0000 4.1984 0.0000 18.8676
#
#
#
# Elastic Compliance Matrix: (Units=1/GPa)
#
#
# Indices 1 2 3 4 5 6 
#
# 1 0.014199 -0.000476 -0.004967 0.000000 0.002907 0.000000
# 2 -0.000476 0.007381 -0.002139 0.000000 0.004317 0.000000
# 3 -0.004967 -0.002139 0.019082 0.000000 -0.000337 0.000000
# 4 0.000000 0.000000 0.000000 0.108610 0.000000 -0.024168
# 5 0.002907 0.004317 -0.000337 0.000000 0.039481 0.000000
# 6 0.000000 0.000000 0.000000 -0.024168 0.000000 0.058379
#
#
# Mechanical properties :
#
#
# Convention : Reuss Voigt Hill
#
# Bulk Modulus (GPa) = 39.21957 45.94438 42.58197
# Shear Modulus (GPa) = 18.46416 26.97570 22.71993
#
# Velocity S-wave (km/s) = 3.14634 3.80301 3.49016
# Velocity P-wave (km/s) = 5.85036 6.62697 6.25074
#
# Compressibility (1/GPa) = 0.02549748
#
# Stress axis : x y z
#
# Youngs Moduli (GPa) = 70.42648 135.48799 52.40592
#
# Poissons Ratio (x) = 0.06450 0.26032
# Poissons Ratio (y) = 0.03353 0.11208
# Poissons Ratio (z) = 0.34983 0.28977
#
# Static dielectric constant tensor:
#      x y z
#    x 1.738250 0.000000 0.028650 
#    y 0.000000 1.735410 0.000000 
#    z 0.028650 0.000000 1.647260 
# 
# From -- ./inp_files/12690.got.cif
#   From: 2010.05.17/outbox.cif.g08.bks.cpg/sg10_7_cif.got.tgz:12690.got - 2010.06.03 11:33:40.
