data_PCOD9144113
_publ_section_title
;
Structure prediction by ZEFSAII (Michael W. Deem and Ramdas Pophale) SiO2 
 PCOD9144113
Probable space group: P 2/M
;
_chemical_formula_sum "Si O2"
_cell_formula_units_Z 26
_cell_length_a 14.669113
_cell_length_b 14.589697
_cell_length_c 7.135183
_cell_angle_alpha 90.000000
_cell_angle_beta 42.481680
_cell_angle_gamma 90.000000
_cell_volume 1031.304701
_symmetry_space_group_name_H-M "P 2/M"
_symmetry_group_IT_number 10
_symmetry_cell_setting 'monoclinic'
loop_
_space_group_symop_operation_xyz
x,y,z
-x,y,-z
-x,-y,-z
x,-y,z
loop_
_atom_site_type_symbol
_atom_site_label
_atom_site_fract_x
_atom_site_fract_y
_atom_site_fract_z
Si Si1 0.059065 0.679863 0.596452
Si Si2 0.744709 0.500000 0.045067
Si Si3 0.246350 0.627260 0.612789
Si Si4 0.788563 0.000000 0.691713
Si Si5 0.181915 0.805812 0.880204
Si Si6 0.085143 0.000000 0.078446
Si Si7 0.697783 0.808360 0.904275
Si Si8 0.537073 0.357202 0.220436
O O1 0.133124 0.612943 0.628596
O O2 0.168916 0.752668 0.357566
O O3 0.000000 0.631027 0.500000
O O4 0.947152 0.744574 0.861630
O O5 0.787203 0.578814 0.139390
O O6 0.669075 0.420743 0.030394
O O7 0.249823 0.737891 0.630589
O O8 0.401204 0.601557 0.337274
O O9 0.703192 0.092861 0.800799
O O10 0.845343 0.000000 0.820461
O O11 0.926066 0.000000 0.364067
O O12 0.132384 0.906848 0.907640
O O13 0.282047 0.818603 0.902471
O O14 0.574973 0.739052 0.073441
O O15 0.500000 0.350028 0.500000
#
# Coordination Sequence:
#
# PCOD9144113 Si02
#       8
#     4   2   4   2   4   2   4   4
#     4  10  22  37  59  86 125 166 199 247 308 366
#     4  10  21  42  70  89 114 165 213 252 310 381
#     4  11  21  38  64  90 119 159 212 259 308 362
#     4   9  16  30  57  93 124 173 202 236 305 380
#     4  10  18  35  60  91 125 160 208 251 298 368
#     4   9  16  30  57  94 122 169 212 240 293 375
#     4  10  18  35  61  90 126 159 209 249 303 366
#     4  10  19  37  65  91 113 159 210 260 304 363
#
# _framework density 25.210782999999999
#
# number of rings (size 3 to 8) (size 9 to 14) (size 15 to 20)
#    0.000    2.000    4.615    2.538    0.000    0.615 
#    0.000    6.154    0.000    5.538    0.000    0.000 
#    0.000    0.000    0.000    0.154    0.000    0.000 
#
# Total GULP energy -144869.049950 kJ/mol
# GULP energy per Si atom -5571.886537 kJ/mol
# Density = 2.515340 g / cm^3
# Si number density = 25.210783 Si / 1000 Ang^3
#
#
#
# Elastic Constant Matrix: (Units=GPa)
#
#
# Indices 1 2 3 4 5 6 
#
# 1 166.7284 33.4183 5.4152 0.0000 -7.7729 0.0000
# 2 33.4183 194.3025 28.0301 0.0000 -4.9014 0.0000
# 3 5.4152 28.0301 48.1765 0.0000 -11.5625 0.0000
# 4 0.0000 0.0000 0.0000 278.8286 0.0000 5.8711
# 5 -7.7729 -4.9014 -11.5625 0.0000 21.6674 0.0000
# 6 0.0000 0.0000 0.0000 5.8711 0.0000 -0.5160
#
#
#
# Elastic Compliance Matrix: (Units=1/GPa)
#
#
# Indices 1 2 3 4 5 6 
#
# 1 0.006308 -0.001096 0.000473 0.000000 0.002267 0.000000
# 2 -0.001096 0.005814 -0.003485 0.000000 -0.000937 0.000000
# 3 0.000473 -0.003485 0.025900 0.000000 0.013203 0.000000
# 4 0.000000 0.000000 0.000000 0.002893 0.000000 0.032921
# 5 0.002267 -0.000937 0.013203 0.000000 0.053799 0.000000
# 6 0.000000 0.000000 0.000000 0.032921 0.000000 -1.563475
#
#
# Mechanical properties :
#
#
# Convention : Reuss Voigt Hill
#
# Bulk Modulus (GPa) = 33.54990 60.32607 46.93798
# Shear Modulus (GPa) = -3.44683 82.81891 39.68604
#
# Velocity S-wave (km/s) = -1.17054 5.73776 3.97188
# Velocity P-wave (km/s) = 3.39260 8.23872 6.30025
#
# Compressibility (1/GPa) = 0.02980635
#
# Stress axis : x y z
#
# Youngs Moduli (GPa) = 158.53444 171.99459 38.61016
#
# Poissons Ratio (x) = 0.18849 -0.01825
# Poissons Ratio (y) = 0.17374 0.13454
# Poissons Ratio (z) = -0.07494 0.59933
#
# Static dielectric constant tensor:
#      x y z
#    x 2.050580 0.000000 0.022630 
#    y 0.000000 1.987030 0.000000 
#    z 0.022630 0.000000 2.053520 
# 
# From -- ./inp_files/29802.got.cif
#   From: 2010.05.17/outbox.cif.g08.bks.cpg/sg10_15_cif.got.tgz:29802.got - 2010.06.03 11:33:40.
