data_PCOD9144994
_publ_section_title
;
Structure prediction by ZEFSAII (Michael W. Deem and Ramdas Pophale) SiO2 
 PCOD9144994
Probable space group: P 2/M
;
_chemical_formula_sum "Si O2"
_cell_formula_units_Z 32
_cell_length_a 24.352051
_cell_length_b 14.199306
_cell_length_c 20.528991
_cell_angle_alpha 90.000000
_cell_angle_beta 17.083320
_cell_angle_gamma 90.000000
_cell_volume 2085.287666
_symmetry_space_group_name_H-M "P 2/M"
_symmetry_group_IT_number 10
_symmetry_cell_setting 'monoclinic'
loop_
_space_group_symop_operation_xyz
x,y,z
-x,y,-z
-x,-y,-z
x,-y,z
loop_
_atom_site_type_symbol
_atom_site_label
_atom_site_fract_x
_atom_site_fract_y
_atom_site_fract_z
Si Si1 0.788738 0.607740 0.159431
Si Si2 0.557364 0.885868 0.863514
Si Si3 0.364315 0.201762 0.712783
Si Si4 0.976211 0.887633 0.179809
Si Si5 0.233639 0.607984 0.659879
Si Si6 0.402787 0.795340 0.423353
Si Si7 0.648502 0.113557 0.033692
Si Si8 0.953541 0.885903 0.356763
O O1 0.734641 0.500000 0.205666
O O2 0.681387 0.687045 0.241484
O O3 0.753750 0.624072 0.276282
O O4 0.012076 0.617096 0.895571
O O5 0.406257 0.865417 0.978633
O O6 0.761328 0.852902 0.607924
O O7 0.568215 0.000000 0.855077
O O8 0.500000 0.851241 0.000000
O O9 0.500000 0.175838 0.500000
O O10 0.465116 0.179455 0.665994
O O11 0.167123 0.149501 0.932785
O O12 0.795684 0.847593 0.348393
O O13 0.967939 0.855293 0.265103
O O14 0.972140 0.000000 0.183764
O O15 0.288229 0.500000 0.585115
O O16 0.352592 0.685136 0.486821
O O17 0.506716 0.830706 0.241004
O O18 0.622868 0.000000 0.072667
O O19 0.859351 0.138137 0.815593
O O20 0.945394 0.000000 0.364477
#
# Coordination Sequence:
#
# PCOD9144994 Si02
#       8
#     4   4   4   4   4   4   4   4
#     4   9  18  35  54  73  97 123 154 205 271 326
#     4   9  17  29  47  73 102 131 164 203 244 287
#     4  12  24  35  53  75  95 124 176 224 257 305
#     4  11  23  38  52  67  97 138 176 214 254 294
#     4   9  18  33  55  75  96 124 158 204 261 318
#     4  12  21  33  56  74  96 130 172 208 256 304
#     4  10  19  31  49  73  98 134 174 200 237 296
#     4   9  17  31  49  68  95 131 169 202 239 290
#
# _framework density 15.345604
#
# number of rings (size 3 to 8) (size 9 to 14) (size 15 to 20)
#    0.000    1.875    5.000    1.125    0.000    2.500 
#    0.000    3.125    0.000    0.000    0.000    0.000 
#    0.000    0.500    0.000    1.250    0.000    0.250 
#
# Total GULP energy -178509.740560 kJ/mol
# GULP energy per Si atom -5578.429393 kJ/mol
# Density = 1.531068 g / cm^3
# Si number density = 15.345604 Si / 1000 Ang^3
#
#
#
# Elastic Constant Matrix: (Units=GPa)
#
#
# Indices 1 2 3 4 5 6 
#
# 1 64.2131 18.2121 14.8601 0.0000 -7.7615 0.0000
# 2 18.2121 41.1844 14.0041 0.0000 -3.0053 0.0000
# 3 14.8601 14.0041 58.0247 0.0000 -13.0653 0.0000
# 4 0.0000 0.0000 0.0000 19.0858 0.0000 -6.2322
# 5 -7.7615 -3.0053 -13.0653 0.0000 28.0712 0.0000
# 6 0.0000 0.0000 0.0000 -6.2322 0.0000 5.6014
#
#
#
# Elastic Compliance Matrix: (Units=1/GPa)
#
#
# Indices 1 2 3 4 5 6 
#
# 1 0.018535 -0.007184 -0.002270 0.000000 0.003299 0.000000
# 2 -0.007184 0.029237 -0.005539 0.000000 -0.001434 0.000000
# 3 -0.002270 -0.005539 0.021087 0.000000 0.008594 0.000000
# 4 0.000000 0.000000 0.000000 0.082292 0.000000 0.091558
# 5 0.003299 -0.001434 0.008594 0.000000 0.040382 0.000000
# 6 0.000000 0.000000 0.000000 0.091558 0.000000 0.280394
#
#
# Mechanical properties :
#
#
# Convention : Reuss Voigt Hill
#
# Bulk Modulus (GPa) = 25.72515 28.61943 27.17229
# Shear Modulus (GPa) = 9.71119 18.30809 14.00964
#
# Velocity S-wave (km/s) = 2.51834 3.45780 3.02477
# Velocity P-wave (km/s) = 5.02557 5.88492 5.47214
#
# Compressibility (1/GPa) = 0.03887246
#
# Stress axis : x y z
#
# Youngs Moduli (GPa) = 53.95305 34.20368 47.42151
#
# Poissons Ratio (x) = 0.24570 0.10765
# Poissons Ratio (y) = 0.38757 0.26269
# Poissons Ratio (z) = 0.12248 0.18947
#
# Static dielectric constant tensor:
#      x y z
#    x 1.513360 0.000000 -0.020750 
#    y 0.000000 1.500530 0.000000 
#    z -0.020750 0.000000 1.524960 
# 
# From -- ./inp_files/79688.got.cif
#   From: 2010.05.17/outbox.cif.g08.bks.cpg/sg10_40_cif.got.tgz:79688.got - 2010.06.03 11:33:40.
