data_PCOD9144556
_publ_section_title
;
Structure prediction by ZEFSAII (Michael W. Deem and Ramdas Pophale) SiO2 
 PCOD9144556
Probable space group: P 2/M
;
_chemical_formula_sum "Si O2"
_cell_formula_units_Z 30
_cell_length_a 5.193657
_cell_length_b 23.154007
_cell_length_c 13.995006
_cell_angle_alpha 90.000000
_cell_angle_beta 78.198667
_cell_angle_gamma 90.000000
_cell_volume 1647.381797
_symmetry_space_group_name_H-M "P 2/M"
_symmetry_group_IT_number 10
_symmetry_cell_setting 'monoclinic'
loop_
_space_group_symop_operation_xyz
x,y,z
-x,y,-z
-x,-y,-z
x,-y,z
loop_
_atom_site_type_symbol
_atom_site_label
_atom_site_fract_x
_atom_site_fract_y
_atom_site_fract_z
Si Si1 0.159051 0.430883 0.766610
Si Si2 0.291615 0.861551 0.432300
Si Si3 0.879139 0.383531 0.615708
Si Si4 0.093493 0.070163 0.888501
Si Si5 0.425899 0.431024 0.109968
Si Si6 0.290955 0.269455 0.433039
Si Si7 0.708929 0.500000 0.568453
Si Si8 0.338151 0.069718 0.233500
O O1 0.187807 0.500000 0.742460
O O2 0.109442 0.395797 0.673245
O O3 0.879205 0.424108 0.842377
O O4 0.383931 0.409338 0.820701
O O5 0.500000 0.875754 0.500000
O O6 0.352426 0.795391 0.394900
O O7 0.314606 0.902368 0.339221
O O8 0.000000 0.864852 0.500000
O O9 0.730841 0.322890 0.638192
O O10 0.699558 0.441238 0.629592
O O11 0.000000 0.381237 0.500000
O O12 0.388495 0.086404 0.837932
O O13 0.897204 0.087801 0.818878
O O14 0.086304 0.000000 0.892273
O O15 0.000000 0.090460 0.000000
O O16 0.478490 0.500000 0.103997
O O17 0.500000 0.407927 0.000000
O O18 0.500000 0.284566 0.500000
O O19 0.000000 0.263897 0.500000
O O20 0.500000 0.500000 0.500000
O O21 0.000000 0.500000 0.500000
O O22 0.333182 0.000000 0.242770
#
# Coordination Sequence:
#
# PCOD9144556 Si02
#       8
#     4   4   4   4   4   4   2   4
#     4  10  19  30  46  71  94 121 152 185 234 287
#     4  10  20  34  50  70  99 134 174 217 253 291
#     4  10  20  34  48  72 102 131 157 193 237 300
#     4   9  17  30  48  73 106 138 168 207 252 303
#     4   9  18  32  48  65  90 120 154 193 231 274
#     4   9  19  34  50  66  91 131 172 204 236 284
#     4  10  20  30  44  64  93 130 153 180 232 284
#     4  10  19  30  48  75 104 137 174 209 255 303
#
# _framework density 18.210713999999999
#
# number of rings (size 3 to 8) (size 9 to 14) (size 15 to 20)
#    0.000    2.400    0.667    2.000    0.000    8.000 
#    0.000    0.000    0.000    0.000    0.000    3.733 
#    0.000    0.000    0.000    0.000    0.000    0.000 
#
# Total GULP energy -167379.685502 kJ/mol
# GULP energy per Si atom -5579.322850 kJ/mol
# Density = 1.816927 g / cm^3
# Si number density = 18.210714 Si / 1000 Ang^3
#
#
#
# Elastic Constant Matrix: (Units=GPa)
#
#
# Indices 1 2 3 4 5 6 
#
# 1 74.3998 0.7962 14.8380 0.0000 17.0496 0.0000
# 2 0.7962 42.8787 17.7798 0.0000 1.9530 0.0000
# 3 14.8380 17.7798 93.6534 0.0000 3.8735 0.0000
# 4 0.0000 0.0000 0.0000 3.1658 0.0000 3.8763
# 5 17.0496 1.9530 3.8735 0.0000 30.2137 0.0000
# 6 0.0000 0.0000 0.0000 3.8763 0.0000 12.4712
#
#
#
# Elastic Compliance Matrix: (Units=1/GPa)
#
#
# Indices 1 2 3 4 5 6 
#
# 1 0.015904 0.001083 -0.002364 0.000000 -0.008742 0.000000
# 2 0.001083 0.025420 -0.004930 0.000000 -0.001622 0.000000
# 3 -0.002364 -0.004930 0.011983 0.000000 0.000116 0.000000
# 4 0.000000 0.000000 0.000000 0.509960 0.000000 -0.158506
# 5 -0.008742 -0.001622 0.000116 0.000000 0.038120 0.000000
# 6 0.000000 0.000000 0.000000 -0.158506 0.000000 0.129452
#
#
# Mechanical properties :
#
#
# Convention : Reuss Voigt Hill
#
# Bulk Modulus (GPa) = 24.45897 30.86221 27.66059
# Shear Modulus (GPa) = 6.60598 21.00465 13.80532
#
# Velocity S-wave (km/s) = 1.90667 3.39989 2.75633
# Velocity P-wave (km/s) = 4.27872 5.69179 5.03507
#
# Compressibility (1/GPa) = 0.04088480
#
# Stress axis : x y z
#
# Youngs Moduli (GPa) = 62.87741 39.33945 83.44883
#
# Poissons Ratio (x) = -0.04260 0.19726
# Poissons Ratio (y) = -0.06810 0.41143
# Poissons Ratio (z) = 0.14863 0.19396
#
# Static dielectric constant tensor:
#      x y z
#    x 0.842540 0.000000 0.575070 
#    y 0.000000 1.652160 0.000000 
#    z 0.575070 0.000000 1.211550 
# 
# From -- ./inp_files/39967.got.cif
#   From: 2010.05.17/outbox.cif.g08.bks.cpg/sg10_20_cif.got.tgz:39967.got - 2010.06.03 11:33:40.
