data_PCOD9144567
_publ_section_title
;
Structure prediction by ZEFSAII (Michael W. Deem and Ramdas Pophale) SiO2 
 PCOD9144567
Probable space group: P 2/M
;
_chemical_formula_sum "Si O2"
_cell_formula_units_Z 28
_cell_length_a 8.386664
_cell_length_b 10.178010
_cell_length_c 28.566808
_cell_angle_alpha 90.000000
_cell_angle_beta 140.918930
_cell_angle_gamma 90.000000
_cell_volume 1537.246046
_symmetry_space_group_name_H-M "P 2/M"
_symmetry_group_IT_number 10
_symmetry_cell_setting 'monoclinic'
loop_
_space_group_symop_operation_xyz
x,y,z
-x,y,-z
-x,-y,-z
x,-y,z
loop_
_atom_site_type_symbol
_atom_site_label
_atom_site_fract_x
_atom_site_fract_y
_atom_site_fract_z
Si Si1 0.361512 0.148204 0.380669
Si Si2 0.236361 0.152761 0.085962
Si Si3 0.321075 0.356512 0.807916
Si Si4 0.219941 0.347370 0.268638
Si Si5 0.696847 0.143021 0.793138
Si Si6 0.919835 0.154397 0.535155
Si Si7 0.862752 0.222566 0.322589
O O1 0.353062 0.260128 0.339254
O O2 0.616929 0.166285 0.468461
O O3 0.107127 0.158333 0.353392
O O4 0.376228 0.000000 0.363717
O O5 0.478445 0.244753 0.134544
O O6 0.173514 0.160827 0.126901
O O7 0.298592 0.000000 0.090335
O O8 0.000000 0.190388 0.000000
O O9 0.438414 0.500000 0.839262
O O10 0.216746 0.338219 0.731022
O O11 0.075130 0.347151 0.784357
O O12 0.302820 0.500000 0.285369
O O13 0.255454 0.265367 0.229511
O O14 0.395717 0.140806 0.734240
O O15 0.771357 0.000000 0.790285
O O16 0.000000 0.182589 0.500000
O O17 0.054733 0.242468 0.604975
O O18 0.985181 0.000000 0.559199
#
# Coordination Sequence:
#
# PCOD9144567 Si02
#       7
#     4   4   4   4   4   4   4
#     4  10  19  32  53  77 102 135 175 220 268 315
#     4   9  19  36  58  85 112 136 168 211 256 304
#     4   9  20  37  56  78 104 139 178 213 254 308
#     4  10  21  36  52  74 106 139 176 218 258 305
#     4  10  19  32  54  79 103 134 171 211 257 309
#     4  10  19  30  46  73 107 138 171 216 267 317
#     4  10  19  32  52  77 104 132 173 220 262 307
#
# _framework density 18.214389000000001
#
# number of rings (size 3 to 8) (size 9 to 14) (size 15 to 20)
#    0.000    2.286    0.000    3.000    0.000    9.429 
#    0.000    1.429    0.000    9.429    0.000    0.000 
#    0.000    0.000    0.000    0.000    0.000    0.000 
#
# Total GULP energy -156027.177425 kJ/mol
# GULP energy per Si atom -5572.399194 kJ/mol
# Density = 1.817293 g / cm^3
# Si number density = 18.214389 Si / 1000 Ang^3
#
#
#
# Elastic Constant Matrix: (Units=GPa)
#
#
# Indices 1 2 3 4 5 6 
#
# 1 60.6646 36.2947 37.8484 0.0000 -9.5764 0.0000
# 2 36.2947 100.7003 40.8321 0.0000 -0.3230 0.0000
# 3 37.8484 40.8321 124.2828 0.0000 -6.3524 0.0000
# 4 0.0000 0.0000 0.0000 10.0310 0.0000 8.0918
# 5 -9.5764 -0.3230 -6.3524 0.0000 18.8180 0.0000
# 6 0.0000 0.0000 0.0000 8.0918 0.0000 13.1302
#
#
#
# Elastic Compliance Matrix: (Units=1/GPa)
#
#
# Indices 1 2 3 4 5 6 
#
# 1 0.025614 -0.007230 -0.004849 0.000000 0.011274 0.000000
# 2 -0.007230 0.013519 -0.002459 0.000000 -0.004277 0.000000
# 3 -0.004849 -0.002459 0.010381 0.000000 0.000995 0.000000
# 4 0.000000 0.000000 0.000000 0.198244 0.000000 -0.122172
# 5 0.011274 -0.004277 0.000995 0.000000 0.059140 0.000000
# 6 0.000000 0.000000 0.000000 -0.122172 0.000000 0.151451
#
#
# Mechanical properties :
#
#
# Convention : Reuss Voigt Hill
#
# Bulk Modulus (GPa) = 48.92193 57.28867 53.10530
# Shear Modulus (GPa) = 10.11657 19.77401 14.94529
#
# Velocity S-wave (km/s) = 2.35928 3.29846 2.86758
# Velocity P-wave (km/s) = 5.85994 6.78433 6.33901
#
# Compressibility (1/GPa) = 0.02044073
#
# Stress axis : x y z
#
# Youngs Moduli (GPa) = 39.04044 73.96767 96.32577
#
# Poissons Ratio (x) = 0.53476 0.46708
# Poissons Ratio (y) = 0.28225 0.23683
# Poissons Ratio (z) = 0.18931 0.18186
#
# Static dielectric constant tensor:
#      x y z
#    x 1.645230 0.000000 -0.015570 
#    y 0.000000 1.630300 0.000000 
#    z -0.015570 0.000000 1.613980 
# 
# From -- ./inp_files/37937.got.cif
#   From: 2010.05.17/outbox.cif.g08.bks.cpg/sg10_19_cif.got.tgz:37937.got - 2010.06.03 11:33:40.
