data_PCOD9144691
_publ_section_title
;
Structure prediction by ZEFSAII (Michael W. Deem and Ramdas Pophale) SiO2 
 PCOD9144691
Probable space group: P 2/M
;
_chemical_formula_sum "Si O2"
_cell_formula_units_Z 32
_cell_length_a 23.746645
_cell_length_b 8.576138
_cell_length_c 17.456074
_cell_angle_alpha 90.000000
_cell_angle_beta 31.385032
_cell_angle_gamma 90.000000
_cell_volume 1851.400695
_symmetry_space_group_name_H-M "P 2/M"
_symmetry_group_IT_number 10
_symmetry_cell_setting 'monoclinic'
loop_
_space_group_symop_operation_xyz
x,y,z
-x,y,-z
-x,-y,-z
x,-y,z
loop_
_atom_site_type_symbol
_atom_site_label
_atom_site_fract_x
_atom_site_fract_y
_atom_site_fract_z
Si Si1 0.881410 0.191239 0.467642
Si Si2 0.442888 0.313705 0.394577
Si Si3 0.131197 0.179183 0.350255
Si Si4 0.111626 0.315261 0.833911
Si Si5 0.326959 0.683911 0.682244
Si Si6 0.329567 0.185430 0.848683
Si Si7 0.762497 0.814328 0.453397
Si Si8 0.131154 0.191061 0.182229
O O1 0.843282 0.247754 0.595965
O O2 0.806340 0.240650 0.484675
O O3 0.007119 0.237582 0.309590
O O4 0.881247 0.000000 0.470201
O O5 0.439990 0.500000 0.399430
O O6 0.407858 0.260187 0.521270
O O7 0.562506 0.254883 0.239013
O O8 0.350531 0.256480 0.443960
O O9 0.162865 0.247262 0.231136
O O10 0.000000 0.173898 0.500000
O O11 0.170451 0.000000 0.305339
O O12 0.101079 0.500000 0.829076
O O13 0.208546 0.299030 0.782240
O O14 0.149300 0.230146 0.713441
O O15 0.000000 0.258832 0.000000
O O16 0.347958 0.500000 0.671160
O O17 0.331602 0.768468 0.757351
O O18 0.333358 0.000000 0.851322
O O19 0.219702 0.240927 0.017616
O O20 0.751087 0.000000 0.469133
O O21 0.130304 0.000000 0.185447
#
# Coordination Sequence:
#
# PCOD9144691 Si02
#       8
#     4   4   4   4   4   4   4   4
#     4   8  14  25  44  71 101 128 153 186 231 287
#     4  10  21  38  53  63  88 129 171 202 233 284
#     4   7  10  21  41  63  94 133 158 174 217 287
#     4   9  19  34  48  64  95 136 169 192 223 279
#     4   9  19  34  49  65  87 124 168 201 231 275
#     4  11  21  30  48  75 100 120 152 204 249 284
#     4  10  19  30  49  75  98 119 156 205 247 280
#     4   8  15  26  41  69 104 129 149 183 236 288
#
# _framework density 17.284210000000002
#
# number of rings (size 3 to 8) (size 9 to 14) (size 15 to 20)
#    0.000    3.000    0.000    3.750    1.750    4.250 
#    0.000    0.000    0.000    0.750    0.000    8.750 
#    0.000   12.000    0.000    0.000    0.000    0.000 
#
# Total GULP energy -178253.775252 kJ/mol
# GULP energy per Si atom -5570.430477 kJ/mol
# Density = 1.724487 g / cm^3
# Si number density = 17.284210 Si / 1000 Ang^3
#
#
#
# Elastic Constant Matrix: (Units=GPa)
#
#
# Indices 1 2 3 4 5 6 
#
# 1 119.6489 21.2982 37.2729 0.0000 21.2118 0.0000
# 2 21.2982 16.7247 11.5019 0.0000 1.2118 0.0000
# 3 37.2729 11.5019 53.9635 0.0000 2.5885 0.0000
# 4 0.0000 0.0000 0.0000 0.5720 0.0000 -32.7677
# 5 21.2118 1.2118 2.5885 0.0000 9.0597 0.0000
# 6 0.0000 0.0000 0.0000 -32.7677 0.0000 -41.2075
#
#
#
# Elastic Compliance Matrix: (Units=1/GPa)
#
#
# Indices 1 2 3 4 5 6 
#
# 1 0.023984 -0.020097 -0.009853 0.000000 -0.050652 0.000000
# 2 -0.020097 0.087141 -0.006479 0.000000 0.037249 0.000000
# 3 -0.009853 -0.006479 0.025925 0.000000 0.016529 0.000000
# 4 0.000000 0.000000 0.000000 0.037554 0.000000 -0.029862
# 5 -0.050652 0.037249 0.016529 0.000000 0.219269 0.000000
# 6 0.000000 0.000000 0.000000 -0.029862 0.000000 -0.000521
#
#
# Mechanical properties :
#
#
# Convention : Reuss Voigt Hill
#
# Bulk Modulus (GPa) = 15.57817 36.72034 26.14925
# Shear Modulus (GPa) = 10.25414 1.70244 5.97829
#
# Velocity S-wave (km/s) = 2.43835 0.99353 1.86181
# Velocity P-wave (km/s) = 4.11824 4.75471 4.44788
#
# Compressibility (1/GPa) = 0.06419241
#
# Stress axis : x y z
#
# Youngs Moduli (GPa) = 41.69373 11.47559 38.57312
#
# Poissons Ratio (x) = 0.23062 0.38006
# Poissons Ratio (y) = 0.83791 0.24992
# Poissons Ratio (z) = 0.41081 0.07435
#
# Static dielectric constant tensor:
#      x y z
#    x 1.598970 0.000000 0.012800 
#    y 0.000000 1.593050 0.000000 
#    z 0.012800 0.000000 1.586270 
# 
# From -- ./inp_files/56444.got.cif
#   From: 2010.05.17/outbox.cif.g08.bks.cpg/sg10_29_cif.got.tgz:56444.got - 2010.06.03 11:33:40.
