data_PCOD9144411
_publ_section_title
;
Structure prediction by ZEFSAII (Michael W. Deem and Ramdas Pophale) SiO2 
 PCOD9144411
Probable space group: P 2/M
;
_chemical_formula_sum "Si O2"
_cell_formula_units_Z 26
_cell_length_a 13.245220
_cell_length_b 7.664854
_cell_length_c 33.168485
_cell_angle_alpha 90.000000
_cell_angle_beta 149.996773
_cell_angle_gamma 90.000000
_cell_volume 1683.840947
_symmetry_space_group_name_H-M "P 2/M"
_symmetry_group_IT_number 10
_symmetry_cell_setting 'monoclinic'
loop_
_space_group_symop_operation_xyz
x,y,z
-x,y,-z
-x,-y,-z
x,-y,z
loop_
_atom_site_type_symbol
_atom_site_label
_atom_site_fract_x
_atom_site_fract_y
_atom_site_fract_z
Si Si1 0.889237 0.793610 0.828256
Si Si2 0.506172 0.500000 0.193279
Si Si3 0.352707 0.794295 0.986136
Si Si4 0.366057 0.500000 0.057123
Si Si5 0.925923 0.703727 0.517806
Si Si6 0.104205 0.500000 0.102988
Si Si7 0.309114 0.200215 0.689272
Si Si8 0.530694 0.208245 0.344593
O O1 0.864878 0.671035 0.858583
O O2 0.705530 0.746728 0.734895
O O3 0.867359 0.000000 0.830452
O O4 0.117908 0.766219 0.892588
O O5 0.503547 0.500000 0.144159
O O6 0.274126 0.500000 0.128063
O O7 0.612101 0.331289 0.249781
O O8 0.394026 0.668617 0.038158
O O9 0.374819 0.000000 0.003940
O O10 0.500000 0.754276 0.000000
O O11 0.131047 0.500000 0.989763
O O12 0.977496 0.500000 0.537291
O O13 0.685289 0.720608 0.431255
O O14 0.000000 0.776243 0.500000
O O15 0.066240 0.791349 0.599626
O O16 0.397122 0.259778 0.675809
O O17 0.371622 0.000000 0.717512
O O18 0.549971 0.000000 0.353171
#
# Coordination Sequence:
#
# PCOD9144411 Si02
#       8
#     4   2   4   2   4   2   4   4
#     4   9  17  28  45  70  93 119 154 186 226 275
#     4  12  21  31  45  64  91 127 166 193 216 261
#     4   9  18  35  56  73  92 116 144 187 241 287
#     4  10  22  34  48  71  93 118 154 194 229 270
#     4   9  16  24  39  59  84 118 159 193 224 261
#     4  10  19  31  46  60  91 128 157 190 224 255
#     4  10  19  30  42  59  87 126 163 193 223 256
#     4   9  16  25  39  60  89 122 154 190 224 263
#
# _framework density 15.440887
#
# number of rings (size 3 to 8) (size 9 to 14) (size 15 to 20)
#    0.000    2.462    2.308    0.923    2.154    2.462 
#    0.000    0.000    0.000    4.615    0.000    0.000 
#    0.000    2.462    0.000    9.231    0.000    0.000 
#
# Total GULP energy -144751.417261 kJ/mol
# GULP energy per Si atom -5567.362202 kJ/mol
# Density = 1.540574 g / cm^3
# Si number density = 15.440887 Si / 1000 Ang^3
#
#
#
# Elastic Constant Matrix: (Units=GPa)
#
#
# Indices 1 2 3 4 5 6 
#
# 1 55.2024 30.6429 50.9680 0.0000 3.6820 0.0000
# 2 30.6429 68.2636 44.8089 0.0000 -3.4509 0.0000
# 3 50.9680 44.8089 105.2302 0.0000 -3.1494 0.0000
# 4 0.0000 0.0000 0.0000 19.8551 0.0000 4.9216
# 5 3.6820 -3.4509 -3.1494 0.0000 14.2545 0.0000
# 6 0.0000 0.0000 0.0000 4.9216 0.0000 6.7813
#
#
#
# Elastic Compliance Matrix: (Units=1/GPa)
#
#
# Indices 1 2 3 4 5 6 
#
# 1 0.037496 -0.007455 -0.015433 0.000000 -0.014900 0.000000
# 2 -0.007455 0.021945 -0.005554 0.000000 0.006011 0.000000
# 3 -0.015433 -0.005554 0.019551 0.000000 0.006961 0.000000
# 4 0.000000 0.000000 0.000000 0.061413 0.000000 -0.044571
# 5 -0.014900 0.006011 0.006961 0.000000 0.076995 0.000000
# 6 0.000000 0.000000 0.000000 -0.044571 0.000000 0.179813
#
#
# Mechanical properties :
#
#
# Convention : Reuss Voigt Hill
#
# Bulk Modulus (GPa) = 45.22976 53.50400 49.36688
# Shear Modulus (GPa) = 10.83503 14.99659 12.91581
#
# Velocity S-wave (km/s) = 2.65186 3.11983 2.89531
# Velocity P-wave (km/s) = 6.22352 6.90680 6.57404
#
# Compressibility (1/GPa) = 0.02210934
#
# Stress axis : x y z
#
# Youngs Moduli (GPa) = 26.66954 45.56839 51.14798
#
# Poissons Ratio (x) = 0.33970 0.78935
# Poissons Ratio (y) = 0.19881 0.28408
# Poissons Ratio (z) = 0.41158 0.25309
#
# Static dielectric constant tensor:
#      x y z
#    x 1.474230 0.000000 0.038540 
#    y 0.000000 1.541120 0.000000 
#    z 0.038540 0.000000 1.566450 
# 
# From -- ./inp_files/63241.got.cif
#   From: 2010.05.17/outbox.cif.g08.bks.cpg/sg10_32_cif.got.tgz:63241.got - 2010.06.03 11:33:40.
