data_PCOD9144808
_publ_section_title
;
Structure prediction by ZEFSAII (Michael W. Deem and Ramdas Pophale) SiO2 
 PCOD9144808
Probable space group: P 2/M
;
_chemical_formula_sum "Si O2"
_cell_formula_units_Z 28
_cell_length_a 19.854262
_cell_length_b 7.734672
_cell_length_c 15.498320
_cell_angle_alpha 90.000000
_cell_angle_beta 142.802443
_cell_angle_gamma 90.000000
_cell_volume 1438.876050
_symmetry_space_group_name_H-M "P 2/M"
_symmetry_group_IT_number 10
_symmetry_cell_setting 'monoclinic'
loop_
_space_group_symop_operation_xyz
x,y,z
-x,y,-z
-x,-y,-z
x,-y,z
loop_
_atom_site_type_symbol
_atom_site_label
_atom_site_fract_x
_atom_site_fract_y
_atom_site_fract_z
Si Si1 0.862457 0.799609 0.610930
Si Si2 0.754016 0.288164 0.232333
Si Si3 0.976158 0.789281 0.071698
Si Si4 0.404318 0.291319 0.088597
Si Si5 0.797366 0.203348 0.018671
Si Si6 0.650105 0.298738 0.303733
Si Si7 0.954318 0.303377 0.332172
O O1 0.933880 0.731215 0.764744
O O2 0.745077 0.712455 0.472596
O O3 0.940365 0.784067 0.605276
O O4 0.840670 0.000000 0.604544
O O5 0.759935 0.500000 0.239147
O O6 0.704914 0.224707 0.272499
O O7 0.879297 0.231167 0.334026
O O8 0.666800 0.238310 0.068441
O O9 0.855182 0.745466 0.988068
O O10 0.982006 0.000000 0.075343
O O11 0.000000 0.725841 0.000000
O O12 0.404971 0.500000 0.091584
O O13 0.530495 0.226357 0.209006
O O14 0.332508 0.231682 0.097476
O O15 0.863047 0.302240 0.161388
O O16 0.822108 0.000000 0.057356
O O17 0.629150 0.500000 0.262136
O O18 0.988161 0.500000 0.385890
#
# Coordination Sequence:
#
# PCOD9144808 Si02
#       7
#     4   4   4   4   4   4   4
#     4  10  20  32  46  68  96 120 146 186 236 282
#     4   8  15  28  47  68  86 115 164 205 221 245
#     4   8  15  30  52  73  90 112 144 182 224 274
#     4   9  17  30  48  67  90 124 163 195 220 256
#     4   9  16  27  47  73  96 116 143 186 234 272
#     4  10  19  31  47  65  90 126 163 194 223 260
#     4   9  16  29  48  66  89 121 156 191 225 267
#
# _framework density 19.459633
#
# number of rings (size 3 to 8) (size 9 to 14) (size 15 to 20)
#    0.000    3.000    0.000    3.429    0.000    2.857 
#    0.000    6.429    0.000   20.571    0.000    6.000 
#    0.000    0.000    0.000    0.000    0.000    0.000 
#
# Total GULP energy -156062.324170 kJ/mol
# GULP energy per Si atom -5573.654435 kJ/mol
# Density = 1.941534 g / cm^3
# Si number density = 19.459633 Si / 1000 Ang^3
#
#
#
# Elastic Constant Matrix: (Units=GPa)
#
#
# Indices 1 2 3 4 5 6 
#
# 1 166.4688 4.1061 78.0528 0.0000 8.1106 0.0000
# 2 4.1061 33.5870 -1.7110 0.0000 -2.1603 0.0000
# 3 78.0528 -1.7110 86.5805 0.0000 21.8962 0.0000
# 4 0.0000 0.0000 0.0000 12.2243 0.0000 -0.0636
# 5 8.1106 -2.1603 21.8962 0.0000 32.1549 0.0000
# 6 0.0000 0.0000 0.0000 -0.0636 0.0000 12.6135
#
#
#
# Elastic Compliance Matrix: (Units=1/GPa)
#
#
# Indices 1 2 3 4 5 6 
#
# 1 0.011073 -0.001621 -0.011212 0.000000 0.004733 0.000000
# 2 -0.001621 0.030141 0.001741 0.000000 0.001248 0.000000
# 3 -0.011212 0.001741 0.025305 0.000000 -0.014287 0.000000
# 4 0.000000 0.000000 0.000000 0.081806 0.000000 0.000412
# 5 0.004733 0.001248 -0.014287 0.000000 0.039718 0.000000
# 6 0.000000 0.000000 0.000000 0.000412 0.000000 0.079282
#
#
# Mechanical properties :
#
#
# Convention : Reuss Voigt Hill
#
# Bulk Modulus (GPa) = 22.55498 49.72580 36.14039
# Shear Modulus (GPa) = 16.43190 25.14444 20.78817
#
# Velocity S-wave (km/s) = 2.90903 3.59853 3.27199
# Velocity P-wave (km/s) = 4.78530 6.54787 5.73470
#
# Compressibility (1/GPa) = 0.04433610
#
# Stress axis : x y z
#
# Youngs Moduli (GPa) = 90.30694 33.17790 39.51828
#
# Poissons Ratio (x) = 0.05376 0.44306
# Poissons Ratio (y) = 0.14634 -0.06879
# Poissons Ratio (z) = 1.01249 -0.05776
#
# Static dielectric constant tensor:
#      x y z
#    x 1.717310 0.000000 0.016520 
#    y 0.000000 1.724680 0.000000 
#    z 0.016520 0.000000 1.679930 
# 
# From -- ./inp_files/54650.got.cif
#   From: 2010.05.17/outbox.cif.g08.bks.cpg/sg10_28_cif.got.tgz:54650.got - 2010.06.03 11:33:40.
