data_PCOD9144434
_publ_section_title
;
Structure prediction by ZEFSAII (Michael W. Deem and Ramdas Pophale) SiO2 
 PCOD9144434
Probable space group: P 2/M
;
_chemical_formula_sum "Si O2"
_cell_formula_units_Z 32
_cell_length_a 14.126779
_cell_length_b 9.241218
_cell_length_c 24.674037
_cell_angle_alpha 90.000000
_cell_angle_beta 34.753914
_cell_angle_gamma 90.000000
_cell_volume 1836.232753
_symmetry_space_group_name_H-M "P 2/M"
_symmetry_group_IT_number 10
_symmetry_cell_setting 'monoclinic'
loop_
_space_group_symop_operation_xyz
x,y,z
-x,y,-z
-x,-y,-z
x,-y,z
loop_
_atom_site_type_symbol
_atom_site_label
_atom_site_fract_x
_atom_site_fract_y
_atom_site_fract_z
Si Si1 0.979398 0.667407 0.331757
Si Si2 0.307882 0.172407 0.595423
Si Si3 0.565959 0.167587 0.051982
Si Si4 0.817649 0.666877 0.875431
Si Si5 0.548559 0.671749 0.166609
Si Si6 0.110820 0.828019 0.797569
Si Si7 0.248405 0.831818 0.266976
Si Si8 0.841294 0.671885 0.112404
O O1 0.951832 0.500000 0.359341
O O2 0.100544 0.669990 0.222229
O O3 0.078402 0.753284 0.331688
O O4 0.811787 0.743456 0.389751
O O5 0.500000 0.213471 0.500000
O O6 0.243650 0.198471 0.686886
O O7 0.291850 0.000000 0.592707
O O8 0.629478 0.251754 0.075901
O O9 0.368949 0.171753 0.156808
O O10 0.614665 0.000000 0.028224
O O11 0.646516 0.249258 0.964174
O O12 0.796655 0.500000 0.900976
O O13 0.946478 0.748485 0.853774
O O14 0.530313 0.500000 0.165971
O O15 0.366591 0.746791 0.253943
O O16 0.671758 0.694895 0.158512
O O17 0.159476 0.761736 0.832149
O O18 0.084876 0.000000 0.813744
O O19 0.226512 0.000000 0.291682
O O20 0.855205 0.500000 0.117927
O O21 0.000000 0.709561 0.000000
#
# Coordination Sequence:
#
# PCOD9144434 Si02
#       8
#     4   4   4   4   4   4   4   4
#     4  10  20  32  49  73  97 125 163 203 249 304
#     4   9  19  37  58  79 105 134 164 204 258 313
#     4   9  18  29  43  63  90 125 166 207 246 286
#     4  10  19  30  44  63  93 129 163 206 251 295
#     4   9  17  30  46  64  91 127 166 206 245 289
#     4  10  20  32  50  75 101 132 171 213 253 300
#     4   9  19  32  46  66  95 128 167 210 249 294
#     4  10  20  32  48  71 101 139 176 210 254 301
#
# _framework density 17.426985999999999
#
# number of rings (size 3 to 8) (size 9 to 14) (size 15 to 20)
#    0.750    1.750    0.000    2.625    0.000    5.000 
#    0.000    2.500    0.000    0.000    0.000    0.875 
#    0.000    7.000    0.000    0.000    0.000    0.000 
#
# Total GULP energy -178236.342480 kJ/mol
# GULP energy per Si atom -5569.885702 kJ/mol
# Density = 1.738732 g / cm^3
# Si number density = 17.426986 Si / 1000 Ang^3
#
#
#
# Elastic Constant Matrix: (Units=GPa)
#
#
# Indices 1 2 3 4 5 6 
#
# 1 96.1610 70.4296 34.8854 0.0000 -27.7298 0.0000
# 2 70.4296 123.3210 46.8299 0.0000 -25.4803 0.0000
# 3 34.8854 46.8299 55.3172 0.0000 -21.6005 0.0000
# 4 0.0000 0.0000 0.0000 15.9067 0.0000 -4.5184
# 5 -27.7298 -25.4803 -21.6005 0.0000 19.4890 0.0000
# 6 0.0000 0.0000 0.0000 -4.5184 0.0000 -0.7198
#
#
#
# Elastic Compliance Matrix: (Units=1/GPa)
#
#
# Indices 1 2 3 4 5 6 
#
# 1 0.023029 -0.009246 0.002431 0.000000 0.023373 0.000000
# 2 -0.009246 0.016371 -0.008476 0.000000 -0.001146 0.000000
# 3 0.002431 -0.008476 0.036571 0.000000 0.032911 0.000000
# 4 0.000000 0.000000 0.000000 0.022588 0.000000 -0.141798
# 5 0.023373 -0.001146 0.032911 0.000000 0.119545 0.000000
# 6 0.000000 0.000000 0.000000 -0.141798 0.000000 -0.499195
#
#
# Mechanical properties :
#
#
# Convention : Reuss Voigt Hill
#
# Bulk Modulus (GPa) = 22.03149 64.34323 43.18736
# Shear Modulus (GPa) = -21.24246 15.11213 -3.06516
#
# Velocity S-wave (km/s) = -3.49512 2.94797 -1.32766
# Velocity P-wave (km/s) = 1.90216 6.97059 4.74188
#
# Compressibility (1/GPa) = 0.04538958
#
# Stress axis : x y z
#
# Youngs Moduli (GPa) = 43.42307 61.08232 27.34404
#
# Poissons Ratio (x) = 0.56477 -0.06647
# Poissons Ratio (y) = 0.40149 0.23177
# Poissons Ratio (z) = -0.10556 0.51773
#
# Static dielectric constant tensor:
#      x y z
#    x 1.600870 0.000000 -0.012480 
#    y 0.000000 1.585570 0.000000 
#    z -0.012480 0.000000 1.605300 
# 
# From -- ./inp_files/95243.got.cif
#   From: 2010.05.17/outbox.cif.g08.bks.cpg/sg10_48_cif.got.tgz:95243.got - 2010.06.03 11:33:40.
