data_PCOD9144219
_publ_section_title
;
Structure prediction by ZEFSAII (Michael W. Deem and Ramdas Pophale) SiO2 
 PCOD9144219
Probable space group: P 2/M
;
_chemical_formula_sum "Si O2"
_cell_formula_units_Z 28
_cell_length_a 21.743726
_cell_length_b 9.309107
_cell_length_c 11.506885
_cell_angle_alpha 90.000000
_cell_angle_beta 130.267905
_cell_angle_gamma 90.000000
_cell_volume 1777.221956
_symmetry_space_group_name_H-M "P 2/M"
_symmetry_group_IT_number 10
_symmetry_cell_setting 'monoclinic'
loop_
_space_group_symop_operation_xyz
x,y,z
-x,y,-z
-x,-y,-z
x,-y,z
loop_
_atom_site_type_symbol
_atom_site_label
_atom_site_fract_x
_atom_site_fract_y
_atom_site_fract_z
Si Si1 0.457578 0.173951 0.123193
Si Si2 0.893789 0.833152 0.984770
Si Si3 0.416107 0.827780 0.331167
Si Si4 0.771801 0.669810 0.516895
Si Si5 0.736450 0.669679 0.747921
Si Si6 0.625828 0.826278 0.218007
Si Si7 0.070394 0.166917 0.248845
O O1 0.427255 0.221490 0.211518
O O2 0.549439 0.216358 0.205539
O O3 0.458883 0.000000 0.126681
O O4 0.401201 0.213774 0.945723
O O5 0.815546 0.736461 0.905744
O O6 0.912693 0.829042 0.869475
O O7 0.877367 0.000000 0.993879
O O8 0.977055 0.788265 0.148705
O O9 0.500000 0.801965 0.500000
O O10 0.342737 0.748730 0.303398
O O11 0.401661 0.000000 0.315110
O O12 0.772151 0.500000 0.495530
O O13 0.747136 0.692725 0.622230
O O14 0.706172 0.750388 0.358894
O O15 0.860815 0.736447 0.610600
O O16 0.731885 0.500000 0.762690
O O17 0.634223 0.000000 0.234077
O O18 0.078181 0.000000 0.293790
#
# Coordination Sequence:
#
# PCOD9144219 Si02
#       7
#     4   4   4   4   4   4   4
#     4   8  16  30  48  69  87 109 146 188 225 259
#     4   8  14  26  43  62  85 114 149 184 215 257
#     4  10  19  31  48  68  89 115 149 185 219 259
#     4  10  19  28  40  64  95 121 148 181 217 260
#     4  10  20  30  41  62  93 125 151 178 217 262
#     4   9  16  30  50  66  85 113 146 185 225 264
#     4   8  14  25  42  63  86 114 147 181 219 260
#
# _framework density 15.754925
#
# number of rings (size 3 to 8) (size 9 to 14) (size 15 to 20)
#    0.000    3.000    0.000    3.429    0.000    3.714 
#    0.000    5.714    0.000    0.000    0.000    1.000 
#    0.000    8.000    0.000    0.000    0.000    0.000 
#
# Total GULP energy -155941.384456 kJ/mol
# GULP energy per Si atom -5569.335159 kJ/mol
# Density = 1.571907 g / cm^3
# Si number density = 15.754925 Si / 1000 Ang^3
#
#
#
# Elastic Constant Matrix: (Units=GPa)
#
#
# Indices 1 2 3 4 5 6 
#
# 1 67.7835 44.7614 44.3370 0.0000 22.2169 0.0000
# 2 44.7614 54.3928 59.0008 0.0000 20.5009 0.0000
# 3 44.3370 59.0008 106.6178 0.0000 34.3349 0.0000
# 4 0.0000 0.0000 0.0000 -2.8640 0.0000 -7.4232
# 5 22.2169 20.5009 34.3349 0.0000 28.1666 0.0000
# 6 0.0000 0.0000 0.0000 -7.4232 0.0000 11.6811
#
#
#
# Elastic Compliance Matrix: (Units=1/GPa)
#
#
# Indices 1 2 3 4 5 6 
#
# 1 0.035697 -0.032259 0.007430 0.000000 -0.013734 0.000000
# 2 -0.032259 0.075425 -0.031015 0.000000 0.008354 0.000000
# 3 0.007430 -0.031015 0.029748 0.000000 -0.019550 0.000000
# 4 0.000000 0.000000 0.000000 -0.131904 0.000000 -0.083823
# 5 -0.013734 0.008354 -0.019550 0.000000 0.064087 0.000000
# 6 0.000000 0.000000 0.000000 -0.083823 0.000000 0.032340
#
#
# Mechanical properties :
#
#
# Convention : Reuss Voigt Hill
#
# Bulk Modulus (GPa) = 34.26603 58.33251 46.29927
# Shear Modulus (GPa) = 22.04500 12.77641 17.41070
#
# Velocity S-wave (km/s) = 3.74471 2.85080 3.32790
# Velocity P-wave (km/s) = 6.36347 6.92397 6.64963
#
# Compressibility (1/GPa) = 0.02918342
#
# Stress axis : x y z
#
# Youngs Moduli (GPa) = 28.01355 13.25814 33.61533
#
# Poissons Ratio (x) = 0.42770 -0.24977
# Poissons Ratio (y) = 0.90369 1.04257
# Poissons Ratio (z) = -0.20814 0.41120
#
# Static dielectric constant tensor:
#      x y z
#    x 1.518180 0.000000 0.001620 
#    y 0.000000 1.518190 0.000000 
#    z 0.001620 0.000000 1.525410 
# 
# From -- ./inp_files/49102.got.cif
#   From: 2010.05.17/outbox.cif.g08.bks.cpg/sg10_25_cif.got.tgz:49102.got - 2010.06.03 11:33:40.
