data_PCOD9144645
_publ_section_title
;
Structure prediction by ZEFSAII (Michael W. Deem and Ramdas Pophale) SiO2 
 PCOD9144645
Probable space group: P 2/M
;
_chemical_formula_sum "Si O2"
_cell_formula_units_Z 24
_cell_length_a 10.380292
_cell_length_b 8.838177
_cell_length_c 23.561506
_cell_angle_alpha 90.000000
_cell_angle_beta 41.137164
_cell_angle_gamma 90.000000
_cell_volume 1422.038528
_symmetry_space_group_name_H-M "P 2/M"
_symmetry_group_IT_number 10
_symmetry_cell_setting 'monoclinic'
loop_
_space_group_symop_operation_xyz
x,y,z
-x,y,-z
-x,-y,-z
x,-y,z
loop_
_atom_site_type_symbol
_atom_site_label
_atom_site_fract_x
_atom_site_fract_y
_atom_site_fract_z
Si Si1 0.530236 0.819529 0.556928
Si Si2 0.870582 0.681124 0.274638
Si Si3 0.511089 0.180499 0.911261
Si Si4 0.944941 0.680818 0.453713
Si Si5 0.850677 0.181197 0.719810
Si Si6 0.211205 0.319457 0.082824
O O1 0.500000 0.787669 0.500000
O O2 0.342438 0.753729 0.651628
O O3 0.730613 0.744082 0.510407
O O4 0.541281 0.000000 0.560255
O O5 0.858816 0.500000 0.285089
O O6 0.998838 0.747485 0.284269
O O7 0.991293 0.713706 0.176687
O O8 0.629589 0.215031 0.814391
O O9 0.656025 0.246403 0.911504
O O10 0.497836 0.000000 0.921689
O O11 0.300907 0.252809 0.995193
O O12 0.946471 0.500000 0.446280
O O13 0.000000 0.717658 0.500000
O O14 0.094447 0.753691 0.359273
O O15 0.877008 0.000000 0.712109
O O16 0.237826 0.500000 0.074263
#
# Coordination Sequence:
#
# PCOD9144645 Si02
#       6
#     4   4   4   4   4   4
#     4  11  22  35  54  79 103 134 174 212 256 309
#     4  10  19  30  48  73 102 135 169 210 254 299
#     4   9  16  25  40  63  94 130 164 201 247 297
#     4  11  24  39  55  76 102 135 174 214 258 307
#     4  10  19  31  48  72 100 133 172 210 253 304
#     4   9  16  25  39  64  96 129 164 201 247 297
#
# _framework density 16.877181
#
# number of rings (size 3 to 8) (size 9 to 14) (size 15 to 20)
#    0.000    2.000    1.667    4.000    0.000    6.000 
#    0.000    0.000    0.000    0.000    0.000    1.167 
#    0.000    9.333    0.000    0.000    0.000    0.000 
#
# Total GULP energy -133803.484357 kJ/mol
# GULP energy per Si atom -5575.145182 kJ/mol
# Density = 1.683877 g / cm^3
# Si number density = 16.877181 Si / 1000 Ang^3
#
#
#
# Elastic Constant Matrix: (Units=GPa)
#
#
# Indices 1 2 3 4 5 6 
#
# 1 43.5775 24.8874 37.3965 0.0000 4.9784 0.0000
# 2 24.8874 51.5458 51.1995 0.0000 0.4691 0.0000
# 3 37.3965 51.1995 177.6349 0.0000 -5.7750 0.0000
# 4 0.0000 0.0000 0.0000 34.6825 0.0000 -1.5450
# 5 4.9784 0.4691 -5.7750 0.0000 13.2283 0.0000
# 6 0.0000 0.0000 0.0000 -1.5450 0.0000 19.8543
#
#
#
# Elastic Compliance Matrix: (Units=1/GPa)
#
#
# Indices 1 2 3 4 5 6 
#
# 1 0.035642 -0.012809 -0.004294 0.000000 -0.014834 0.000000
# 2 -0.012809 0.032046 -0.006513 0.000000 0.000841 0.000000
# 3 -0.004294 -0.006513 0.008593 0.000000 0.005598 0.000000
# 4 0.000000 0.000000 0.000000 0.028933 0.000000 0.002252
# 5 -0.014834 0.000841 0.005598 0.000000 0.083593 0.000000
# 6 0.000000 0.000000 0.000000 0.002252 0.000000 0.050542
#
#
# Mechanical properties :
#
#
# Convention : Reuss Voigt Hill
#
# Bulk Modulus (GPa) = 34.42329 55.52499 44.97414
# Shear Modulus (GPa) = 16.87690 24.17134 20.52412
#
# Velocity S-wave (km/s) = 3.16568 3.78854 3.49103
# Velocity P-wave (km/s) = 5.81401 7.21860 6.55404
#
# Compressibility (1/GPa) = 0.02905010
#
# Stress axis : x y z
#
# Youngs Moduli (GPa) = 28.05645 31.20534 116.37836
#
# Poissons Ratio (x) = 0.39970 0.49973
# Poissons Ratio (y) = 0.35937 0.75793
# Poissons Ratio (z) = 0.12048 0.20323
#
# Static dielectric constant tensor:
#      x y z
#    x 1.523750 0.000000 -0.005260 
#    y 0.000000 1.561640 0.000000 
#    z -0.005260 0.000000 1.636290 
# 
# From -- ./inp_files/80059.got.cif
#   From: 2010.05.17/outbox.cif.g08.bks.cpg/sg10_41_cif.got.tgz:80059.got - 2010.06.03 11:33:40.
