data_PCOD9144888
_publ_section_title
;
Structure prediction by ZEFSAII (Michael W. Deem and Ramdas Pophale) SiO2 
 PCOD9144888
Probable space group: P 2/M
;
_chemical_formula_sum "Si O2"
_cell_formula_units_Z 22
_cell_length_a 11.857612
_cell_length_b 14.331620
_cell_length_c 14.029000
_cell_angle_alpha 90.000000
_cell_angle_beta 149.144992
_cell_angle_gamma 90.000000
_cell_volume 1222.712176
_symmetry_space_group_name_H-M "P 2/M"
_symmetry_group_IT_number 10
_symmetry_cell_setting 'monoclinic'
loop_
_space_group_symop_operation_xyz
x,y,z
-x,y,-z
-x,-y,-z
x,-y,z
loop_
_atom_site_type_symbol
_atom_site_label
_atom_site_fract_x
_atom_site_fract_y
_atom_site_fract_z
Si Si1 0.090271 0.500000 0.452210
Si Si2 0.502120 0.861728 0.259145
Si Si3 0.894567 0.000000 0.028723
Si Si4 0.406902 0.342664 0.723401
Si Si5 0.284621 0.106408 0.790203
Si Si6 0.000000 0.762987 0.500000
Si Si7 0.670199 0.000000 0.536195
Si Si8 0.649801 0.500000 0.014930
O O1 0.249970 0.412071 0.551004
O O2 0.000000 0.500000 0.500000
O O3 0.891921 0.500000 0.234342
O O4 0.495768 0.749284 0.255798
O O5 0.638791 0.891490 0.264301
O O6 0.615702 0.910179 0.431747
O O7 0.264769 0.910489 0.077140
O O8 0.086421 0.000000 0.245162
O O9 0.000000 0.000000 0.000000
O O10 0.217502 0.298945 0.653739
O O11 0.580400 0.408347 0.903797
O O12 0.067036 0.169025 0.636144
O O13 0.244511 0.000000 0.791478
O O14 0.500000 0.143463 0.000000
O O15 0.500000 0.000000 0.500000
O O16 0.500000 0.500000 0.000000
#
# Coordination Sequence:
#
# PCOD9144888 Si02
#       8
#     2   4   2   4   4   2   2   2
#     4  11  19  36  55  79 112 166 201 237 288 334
#     4  10  22  38  55  91 115 149 204 246 285 351
#     4  11  21  40  65  83 114 153 194 248 315 358
#     4  10  21  34  51  85 117 148 200 247 268 346
#     4  10  20  34  47  72 117 158 197 232 274 333
#     4  10  19  31  48  70 110 158 198 224 276 318
#     4  11  21  40  65  82 114 152 190 253 306 354
#     4  11  19  34  59  77 116 162 201 237 284 330
#
# _framework density 17.992788000000001
#
# number of rings (size 3 to 8) (size 9 to 14) (size 15 to 20)
#    0.000    1.636    6.364    0.273    0.000   10.182 
#    0.000    0.000    0.000    0.000    0.000    5.091 
#    0.000    0.000    0.000    0.000    0.000    0.000 
#
# Total GULP energy -122507.519086 kJ/mol
# GULP energy per Si atom -5568.523595 kJ/mol
# Density = 1.795184 g / cm^3
# Si number density = 17.992788 Si / 1000 Ang^3
#
#
#
# Elastic Constant Matrix: (Units=GPa)
#
#
# Indices 1 2 3 4 5 6 
#
# 1 57.4761 22.3006 25.1892 0.0000 -4.4441 0.0000
# 2 22.3006 161.6794 85.3119 0.0000 -2.1963 0.0000
# 3 25.1892 85.3119 200.8455 0.0000 -12.8981 0.0000
# 4 0.0000 0.0000 0.0000 2.9859 0.0000 8.2858
# 5 -4.4441 -2.1963 -12.8981 0.0000 24.3777 0.0000
# 6 0.0000 0.0000 0.0000 8.2858 0.0000 9.0426
#
#
#
# Elastic Compliance Matrix: (Units=1/GPa)
#
#
# Indices 1 2 3 4 5 6 
#
# 1 0.018930 -0.001817 -0.001440 0.000000 0.002525 0.000000
# 2 -0.001817 0.008175 -0.003332 0.000000 -0.001358 0.000000
# 3 -0.001440 -0.003332 0.006769 0.000000 0.003019 0.000000
# 4 0.000000 0.000000 0.000000 -0.217086 0.000000 0.198918
# 5 0.002525 -0.001358 0.003019 0.000000 0.042956 0.000000
# 6 0.000000 0.000000 0.000000 0.198918 0.000000 -0.071683
#
#
# Mechanical properties :
#
#
# Convention : Reuss Voigt Hill
#
# Bulk Modulus (GPa) = 48.31826 76.17825 62.24826
# Shear Modulus (GPa) = -26.06040 26.42785 0.18373
#
# Velocity S-wave (km/s) = -3.80989 3.83665 0.31989
# Velocity P-wave (km/s) = 2.74934 7.87761 5.89981
#
# Compressibility (1/GPa) = 0.02069611
#
# Stress axis : x y z
#
# Youngs Moduli (GPa) = 52.82651 122.31895 147.73869
#
# Poissons Ratio (x) = 0.22222 0.21278
# Poissons Ratio (y) = 0.09597 0.49225
# Poissons Ratio (z) = 0.07608 0.40756
#
# Static dielectric constant tensor:
#      x y z
#    x 1.629300 0.000000 0.042160 
#    y 0.000000 1.728990 0.000000 
#    z 0.042160 0.000000 1.657740 
# 
# From -- ./inp_files/65000.got.cif
#   From: 2010.05.17/outbox.cif.g08.bks.cpg/sg10_33_cif.got.tgz:65000.got - 2010.06.03 11:33:40.
