data_PCOD9144910
_publ_section_title
;
Structure prediction by ZEFSAII (Michael W. Deem and Ramdas Pophale) SiO2 
 PCOD9144910
Probable space group: P 2/M
;
_chemical_formula_sum "Si O2"
_cell_formula_units_Z 32
_cell_length_a 18.521674
_cell_length_b 7.806541
_cell_length_c 24.989391
_cell_angle_alpha 90.000000
_cell_angle_beta 29.610937
_cell_angle_gamma 90.000000
_cell_volume 1785.320910
_symmetry_space_group_name_H-M "P 2/M"
_symmetry_group_IT_number 10
_symmetry_cell_setting 'monoclinic'
loop_
_space_group_symop_operation_xyz
x,y,z
-x,y,-z
-x,-y,-z
x,-y,z
loop_
_atom_site_type_symbol
_atom_site_label
_atom_site_fract_x
_atom_site_fract_y
_atom_site_fract_z
Si Si1 0.467774 0.801206 0.961373
Si Si2 0.285524 0.706731 0.402080
Si Si3 0.411521 0.205225 0.430960
Si Si4 0.367519 0.198385 0.628756
Si Si5 0.159019 0.208045 0.674484
Si Si6 0.855232 0.297321 0.821446
Si Si7 0.955245 0.709867 0.639353
Si Si8 0.702960 0.701494 0.724640
O O1 0.565764 0.719208 0.852314
O O2 0.510758 0.000000 0.934931
O O3 0.500000 0.727703 0.000000
O O4 0.295564 0.784731 0.062596
O O5 0.285181 0.500000 0.402298
O O6 0.391914 0.758931 0.381440
O O7 0.321466 0.770585 0.319266
O O8 0.121060 0.764695 0.522603
O O9 0.556420 0.274280 0.367494
O O10 0.267703 0.266376 0.556420
O O11 0.414744 0.000000 0.436190
O O12 0.500000 0.197295 0.500000
O O13 0.231120 0.271477 0.683602
O O14 0.330026 0.000000 0.664577
O O15 0.995541 0.264314 0.767771
O O16 0.162305 0.000000 0.672926
O O17 0.829510 0.500000 0.834663
O O18 0.896874 0.234308 0.734930
O O19 0.954677 0.500000 0.639902
O O20 0.844664 0.770830 0.664638
O O21 0.733007 0.500000 0.698279
#
# Coordination Sequence:
#
# PCOD9144910 Si02
#       8
#     4   4   4   4   4   4   4   4
#     4  11  23  37  52  70  94 122 160 209 252 285
#     4  10  19  31  48  72 100 129 164 200 236 282
#     4   9  16  27  45  68  97 132 164 193 233 284
#     4   7  12  24  42  64  92 129 164 191 226 281
#     4   9  16  28  46  69  98 128 162 200 237 278
#     4  11  20  31  51  73  96 128 164 198 240 291
#     4   9  17  30  48  69  95 127 161 196 232 281
#     4  10  20  35  53  69  91 129 170 203 238 284
#
# _framework density 17.923947999999999
#
# number of rings (size 3 to 8) (size 9 to 14) (size 15 to 20)
#    0.000    2.500    2.500    2.625    0.000    2.500 
#    0.000    1.250    0.000    3.750    0.000    0.875 
#    0.000    7.000    0.000    0.000    0.000    0.000 
#
# Total GULP energy -178392.373476 kJ/mol
# GULP energy per Si atom -5574.761671 kJ/mol
# Density = 1.788315 g / cm^3
# Si number density = 17.923948 Si / 1000 Ang^3
#
#
#
# Elastic Constant Matrix: (Units=GPa)
#
#
# Indices 1 2 3 4 5 6 
#
# 1 172.4351 -1.3176 46.3823 0.0000 -3.9436 0.0000
# 2 -1.3176 21.8840 -6.8775 0.0000 1.9758 0.0000
# 3 46.3823 -6.8775 36.1249 0.0000 4.4004 0.0000
# 4 0.0000 0.0000 0.0000 7.6602 0.0000 1.8192
# 5 -3.9436 1.9758 4.4004 0.0000 22.0522 0.0000
# 6 0.0000 0.0000 0.0000 1.8192 0.0000 17.3941
#
#
#
# Elastic Compliance Matrix: (Units=1/GPa)
#
#
# Indices 1 2 3 4 5 6 
#
# 1 0.009542 -0.004140 -0.013624 0.000000 0.004796 0.000000
# 2 -0.004140 0.051285 0.016121 0.000000 -0.008552 0.000000
# 3 -0.013624 0.016121 0.049929 0.000000 -0.013844 0.000000
# 4 0.000000 0.000000 0.000000 0.133870 0.000000 -0.014001
# 5 0.004796 -0.008552 -0.013844 0.000000 0.049733 0.000000
# 6 0.000000 0.000000 0.000000 -0.014001 0.000000 0.058955
#
#
# Mechanical properties :
#
#
# Convention : Reuss Voigt Hill
#
# Bulk Modulus (GPa) = 9.30490 34.09092 21.69791
# Shear Modulus (GPa) = 12.74137 22.23843 17.48990
#
# Velocity S-wave (km/s) = 2.66908 3.52619 3.12714
# Velocity P-wave (km/s) = 3.83422 5.96991 5.01702
#
# Compressibility (1/GPa) = 0.10747031
#
# Stress axis : x y z
#
# Youngs Moduli (GPa) = 104.80161 19.49902 20.02843
#
# Poissons Ratio (x) = 0.08073 0.27286
# Poissons Ratio (y) = 0.43387 -0.32288
# Poissons Ratio (z) = 1.42777 -0.31434
#
# Static dielectric constant tensor:
#      x y z
#    x 1.661240 0.000000 -0.003240 
#    y 0.000000 1.666700 0.000000 
#    z -0.003240 0.000000 1.575100 
# 
# From -- ./inp_files/56476.got.cif
#   From: 2010.05.17/outbox.cif.g08.bks.cpg/sg10_29_cif.got.tgz:56476.got - 2010.06.03 11:33:40.
