data_PCOD9144366
_publ_section_title
;
Structure prediction by ZEFSAII (Michael W. Deem and Ramdas Pophale) SiO2 
 PCOD9144366
Probable space group: P 2/M
;
_chemical_formula_sum "Si O2"
_cell_formula_units_Z 32
_cell_length_a 14.121281
_cell_length_b 9.030081
_cell_length_c 26.624353
_cell_angle_alpha 90.000000
_cell_angle_beta 146.083219
_cell_angle_gamma 90.000000
_cell_volume 1894.391798
_symmetry_space_group_name_H-M "P 2/M"
_symmetry_group_IT_number 10
_symmetry_cell_setting 'monoclinic'
loop_
_space_group_symop_operation_xyz
x,y,z
-x,y,-z
-x,-y,-z
x,-y,z
loop_
_atom_site_type_symbol
_atom_site_label
_atom_site_fract_x
_atom_site_fract_y
_atom_site_fract_z
Si Si1 0.327020 0.171089 0.457184
Si Si2 0.769447 0.679220 0.110912
Si Si3 0.481587 0.323164 0.371861
Si Si4 0.013692 0.667371 0.945404
Si Si5 0.660405 0.823496 0.783955
Si Si6 0.534495 0.678627 0.096756
Si Si7 0.853905 0.678051 0.711173
Si Si8 0.633837 0.823810 0.890038
O O1 0.500000 0.175256 0.500000
O O2 0.373595 0.256299 0.528637
O O3 0.188966 0.249758 0.361333
O O4 0.285484 0.000000 0.448378
O O5 0.768810 0.500000 0.108536
O O6 0.695814 0.718702 0.133450
O O7 0.962256 0.728694 0.188406
O O8 0.629924 0.725602 0.008773
O O9 0.496118 0.500000 0.375161
O O10 0.468878 0.250004 0.311785
O O11 0.301667 0.287160 0.320144
O O12 0.015765 0.500000 0.925403
O O13 0.846549 0.754574 0.855448
O O14 0.000000 0.657793 0.000000
O O15 0.189888 0.750030 0.013886
O O16 0.618263 0.791223 0.823754
O O17 0.665975 0.000000 0.779992
O O18 0.530700 0.500000 0.100561
O O19 0.514125 0.755394 0.141235
O O20 0.856817 0.500000 0.706906
O O21 0.643458 0.000000 0.900070
#
# Coordination Sequence:
#
# PCOD9144366 Si02
#       8
#     4   4   4   4   4   4   4   4
#     4   9  17  30  46  66  94 125 155 187 231 281
#     4   8  16  31  49  71  94 120 156 199 241 277
#     4  10  19  29  46  71  97 125 159 193 227 272
#     4   9  17  29  44  61  83 115 157 196 225 265
#     4  10  20  32  44  63  95 127 156 191 233 280
#     4   9  17  31  51  69  91 124 161 198 236 277
#     4   9  17  30  48  69  95 123 155 193 233 277
#     4  10  20  32  45  64  92 126 157 193 240 278
#
# _framework density 16.891966
#
# number of rings (size 3 to 8) (size 9 to 14) (size 15 to 20)
#    0.000    2.750    0.000    2.625    1.750    5.000 
#    0.000    2.500    0.000    0.000    0.000    0.875 
#    0.000    7.000    0.000    0.000    0.000    0.000 
#
# Total GULP energy -178393.031860 kJ/mol
# GULP energy per Si atom -5574.782246 kJ/mol
# Density = 1.685352 g / cm^3
# Si number density = 16.891966 Si / 1000 Ang^3
#
#
#
# Elastic Constant Matrix: (Units=GPa)
#
#
# Indices 1 2 3 4 5 6 
#
# 1 58.1419 26.3689 2.2783 0.0000 -11.7946 0.0000
# 2 26.3689 45.9003 12.3663 0.0000 -14.5009 0.0000
# 3 2.2783 12.3663 41.6003 0.0000 -12.1508 0.0000
# 4 0.0000 0.0000 0.0000 21.6460 0.0000 -6.0113
# 5 -11.7946 -14.5009 -12.1508 0.0000 23.3189 0.0000
# 6 0.0000 0.0000 0.0000 -6.0113 0.0000 17.8812
#
#
#
# Elastic Compliance Matrix: (Units=1/GPa)
#
#
# Indices 1 2 3 4 5 6 
#
# 1 0.024278 -0.013110 0.004450 0.000000 0.006446 0.000000
# 2 -0.013110 0.034683 -0.006168 0.000000 0.011723 0.000000
# 3 0.004450 -0.006168 0.029683 0.000000 0.013882 0.000000
# 4 0.000000 0.000000 0.000000 0.050955 0.000000 0.017130
# 5 0.006446 0.011723 0.013882 0.000000 0.060668 0.000000
# 6 0.000000 0.000000 0.000000 0.017130 0.000000 0.061683
#
#
# Mechanical properties :
#
#
# Convention : Reuss Voigt Hill
#
# Bulk Modulus (GPa) = 16.95229 25.29662 21.12445
# Shear Modulus (GPa) = 16.06330 19.54448 17.80389
#
# Velocity S-wave (km/s) = 3.08708 3.40520 3.25004
# Velocity P-wave (km/s) = 4.77119 5.51983 5.15911
#
# Compressibility (1/GPa) = 0.05898909
#
# Stress axis : x y z
#
# Youngs Moduli (GPa) = 41.18903 28.83263 33.68950
#
# Poissons Ratio (x) = 0.37799 -0.14993
# Poissons Ratio (y) = 0.53998 0.20780
# Poissons Ratio (z) = -0.18331 0.17784
#
# Static dielectric constant tensor:
#      x y z
#    x 1.589470 0.000000 -0.011730 
#    y 0.000000 1.561220 0.000000 
#    z -0.011730 0.000000 1.567770 
# 
# From -- ./inp_files/93141.got.cif
#   From: 2010.05.17/outbox.cif.g08.bks.cpg/sg10_47_cif.got.tgz:93141.got - 2010.06.03 11:33:40.
