data_PCOD9144797
_publ_section_title
;
Structure prediction by ZEFSAII (Michael W. Deem and Ramdas Pophale) SiO2 
 PCOD9144797
Probable space group: P 2/M
;
_chemical_formula_sum "Si O2"
_cell_formula_units_Z 32
_cell_length_a 15.553231
_cell_length_b 8.252863
_cell_length_c 15.643679
_cell_angle_alpha 90.000000
_cell_angle_beta 78.824984
_cell_angle_gamma 90.000000
_cell_volume 1969.929856
_symmetry_space_group_name_H-M "P 2/M"
_symmetry_group_IT_number 10
_symmetry_cell_setting 'monoclinic'
loop_
_space_group_symop_operation_xyz
x,y,z
-x,y,-z
-x,-y,-z
x,-y,z
loop_
_atom_site_type_symbol
_atom_site_label
_atom_site_fract_x
_atom_site_fract_y
_atom_site_fract_z
Si Si1 0.112637 0.697773 0.561245
Si Si2 0.618385 0.805609 0.617117
Si Si3 0.251746 0.805159 0.256671
Si Si4 0.426923 0.308108 0.898616
Si Si5 0.697538 0.695616 0.422958
Si Si6 0.080414 0.305142 0.372030
Si Si7 0.575576 0.303716 0.292829
Si Si8 0.618829 0.192473 0.913100
O O1 0.113410 0.500000 0.561668
O O2 0.202219 0.754048 0.587357
O O3 0.109816 0.747619 0.461958
O O4 0.020165 0.749610 0.620017
O O5 0.687677 0.747827 0.675649
O O6 0.646771 0.743276 0.518954
O O7 0.521505 0.749186 0.660955
O O8 0.619964 0.000000 0.616142
O O9 0.152924 0.750142 0.291302
O O10 0.299522 0.753058 0.160243
O O11 0.252411 0.000000 0.258056
O O12 0.412211 0.500000 0.905302
O O13 0.405813 0.247890 0.807508
O O14 0.529897 0.274558 0.895968
O O15 0.375867 0.228981 0.987475
O O16 0.699657 0.500000 0.418847
O O17 0.645304 0.753696 0.349774
O O18 0.079584 0.500000 0.373025
O O19 0.576738 0.500000 0.291562
O O20 0.607377 0.000000 0.903659
#
# Coordination Sequence:
#
# PCOD9144797 Si02
#       8
#     4   4   4   4   4   4   4   4
#     4   8  15  28  46  68  90 114 151 190 224 265
#     4  11  21  32  44  64  95 127 159 191 219 257
#     4  10  20  31  44  67  95 122 150 182 226 273
#     4  10  19  31  46  68  91 114 150 194 228 263
#     4  10  19  33  49  65  90 126 159 189 223 267
#     4   9  16  28  48  69  88 116 151 187 226 270
#     4  10  21  33  47  66  91 124 159 189 226 266
#     4  10  19  32  48  65  89 121 151 182 228 279
#
# _framework density 16.244233000000001
#
# number of rings (size 3 to 8) (size 9 to 14) (size 15 to 20)
#    0.000    2.250    2.500    3.000    0.000    4.000 
#    0.000    1.875    0.000    0.000    0.000    0.875 
#    0.000    7.000    0.000    0.000    0.000    0.000 
#
# Total GULP energy -178452.194103 kJ/mol
# GULP energy per Si atom -5576.631066 kJ/mol
# Density = 1.620726 g / cm^3
# Si number density = 16.244233 Si / 1000 Ang^3
#
#
#
# Elastic Constant Matrix: (Units=GPa)
#
#
# Indices 1 2 3 4 5 6 
#
# 1 84.3289 0.0331 63.5646 0.0000 -8.5176 0.0000
# 2 0.0331 5.3298 3.4624 0.0000 0.4576 0.0000
# 3 63.5646 3.4624 130.4286 0.0000 -10.7990 0.0000
# 4 0.0000 0.0000 0.0000 20.7854 0.0000 -12.0845
# 5 -8.5176 0.4576 -10.7990 0.0000 25.7024 0.0000
# 6 0.0000 0.0000 0.0000 -12.0845 0.0000 36.4646
#
#
#
# Elastic Compliance Matrix: (Units=1/GPa)
#
#
# Indices 1 2 3 4 5 6 
#
# 1 0.019063 0.005690 -0.009248 0.000000 0.002330 0.000000
# 2 0.005690 0.193431 -0.008326 0.000000 -0.005057 0.000000
# 3 -0.009248 -0.008326 0.012592 0.000000 0.002374 0.000000
# 4 0.000000 0.000000 0.000000 0.059593 0.000000 0.019749
# 5 0.002330 -0.005057 0.002374 0.000000 0.040767 0.000000
# 6 0.000000 0.000000 0.000000 0.019749 0.000000 0.033969
#
#
# Mechanical properties :
#
#
# Convention : Reuss Voigt Hill
#
# Bulk Modulus (GPa) = 4.96735 39.35639 22.16187
# Shear Modulus (GPa) = 11.10399 26.79229 18.94814
#
# Velocity S-wave (km/s) = 2.61734 4.06561 3.41904
# Velocity P-wave (km/s) = 3.49264 6.80584 5.40916
#
# Compressibility (1/GPa) = 0.20131472
#
# Stress axis : x y z
#
# Youngs Moduli (GPa) = 52.45894 5.16981 79.41693
#
# Poissons Ratio (x) = -0.02941 0.73447
# Poissons Ratio (y) = -0.29847 0.66126
# Poissons Ratio (z) = 0.48515 0.04305
#
# Static dielectric constant tensor:
#      x y z
#    x 1.541040 0.000000 0.001240 
#    y 0.000000 1.564700 0.000000 
#    z 0.001240 0.000000 1.548930 
# 
# From -- ./inp_files/66005.got.cif
#   From: 2010.05.17/outbox.cif.g08.bks.cpg/sg10_34_cif.got.tgz:66005.got - 2010.06.03 11:33:40.
