data_PCOD9144699
_publ_section_title
;
Structure prediction by ZEFSAII (Michael W. Deem and Ramdas Pophale) SiO2 
 PCOD9144699
Probable space group: P 2/M
;
_chemical_formula_sum "Si O2"
_cell_formula_units_Z 32
_cell_length_a 17.296197
_cell_length_b 9.392351
_cell_length_c 12.057256
_cell_angle_alpha 90.000000
_cell_angle_beta 46.285375
_cell_angle_gamma 90.000000
_cell_volume 1415.748200
_symmetry_space_group_name_H-M "P 2/M"
_symmetry_group_IT_number 10
_symmetry_cell_setting 'monoclinic'
loop_
_space_group_symop_operation_xyz
x,y,z
-x,y,-z
-x,-y,-z
x,-y,z
loop_
_atom_site_type_symbol
_atom_site_label
_atom_site_fract_x
_atom_site_fract_y
_atom_site_fract_z
Si Si1 0.718659 0.667999 0.867280
Si Si2 0.584576 0.663330 0.793273
Si Si3 0.884026 0.158267 0.565009
Si Si4 0.814394 0.664612 0.439093
Si Si5 0.472959 0.162670 0.346185
Si Si6 0.026342 0.835017 0.843411
Si Si7 0.324046 0.834710 0.690162
Si Si8 0.182220 0.666836 0.995050
O O1 0.742811 0.500000 0.817773
O O2 0.614780 0.696484 0.891394
O O3 0.803492 0.778674 0.734548
O O4 0.736143 0.680952 0.981595
O O5 0.548558 0.500000 0.823080
O O6 0.698123 0.676099 0.612898
O O7 0.512528 0.756741 0.783418
O O8 0.887253 0.274374 0.465645
O O9 0.000000 0.146022 0.500000
O O10 0.848290 0.000000 0.562303
O O11 0.831167 0.500000 0.394832
O O12 0.859221 0.763146 0.296290
O O13 0.577548 0.162462 0.319179
O O14 0.378349 0.216633 0.521824
O O15 0.445065 0.000000 0.347422
O O16 0.027425 0.000000 0.807754
O O17 0.928791 0.751688 0.880846
O O18 0.000000 0.828420 0.000000
O O19 0.239279 0.733275 0.831497
O O20 0.287052 0.000000 0.715376
O O21 0.159271 0.500000 0.003748
#
# Coordination Sequence:
#
# PCOD9144699 Si02
#       8
#     4   4   4   4   4   4   4   4
#     4   9  20  37  53  77 112 150 188 230 285 339
#     4   9  19  35  57  84 115 148 186 237 286 331
#     4  10  19  30  49  76 103 137 185 234 277 325
#     4  10  21  36  53  77 110 147 186 231 280 330
#     4   9  19  37  61  86 114 147 187 233 284 341
#     4  11  25  41  56  79 113 153 194 236 284 339
#     4   9  20  39  60  85 116 150 186 231 287 342
#     4  11  23  39  61  85 114 152 193 235 284 344
#
# _framework density 22.602891
#
# number of rings (size 3 to 8) (size 9 to 14) (size 15 to 20)
#    0.000    2.250    0.000    3.750    1.750    8.500 
#    0.000    1.875    0.000    3.750    0.000    0.000 
#    0.000    0.000    0.000    0.000    0.000    0.000 
#
# Total GULP energy -178624.997426 kJ/mol
# GULP energy per Si atom -5582.031170 kJ/mol
# Density = 2.255145 g / cm^3
# Si number density = 22.602891 Si / 1000 Ang^3
#
#
#
# Elastic Constant Matrix: (Units=GPa)
#
#
# Indices 1 2 3 4 5 6 
#
# 1 82.7658 30.9146 11.1171 0.0000 16.7470 0.0000
# 2 30.9146 74.4208 42.1073 0.0000 8.6794 0.0000
# 3 11.1171 42.1073 94.7378 0.0000 16.7845 0.0000
# 4 0.0000 0.0000 0.0000 8.6085 0.0000 -27.5466
# 5 16.7470 8.6794 16.7845 0.0000 43.8817 0.0000
# 6 0.0000 0.0000 0.0000 -27.5466 0.0000 103.1617
#
#
#
# Elastic Compliance Matrix: (Units=1/GPa)
#
#
# Indices 1 2 3 4 5 6 
#
# 1 0.015525 -0.007121 0.002299 0.000000 -0.005396 0.000000
# 2 -0.007121 0.021229 -0.008944 0.000000 0.001939 0.000000
# 3 0.002299 -0.008944 0.015128 0.000000 -0.004895 0.000000
# 4 0.000000 0.000000 0.000000 0.798136 0.000000 0.213121
# 5 -0.005396 0.001939 -0.004895 0.000000 0.026336 0.000000
# 6 0.000000 0.000000 0.000000 0.213121 0.000000 0.066602
#
#
# Mechanical properties :
#
#
# Convention : Reuss Voigt Hill
#
# Bulk Modulus (GPa) = 41.06481 46.68915 43.87698
# Shear Modulus (GPa) = 5.10932 42.31608 23.71270
#
# Velocity S-wave (km/s) = 1.50512 4.33153 3.24250
# Velocity P-wave (km/s) = 4.60737 6.76146 5.78555
#
# Compressibility (1/GPa) = 0.02435175
#
# Stress axis : x y z
#
# Youngs Moduli (GPa) = 64.41228 47.10520 66.10296
#
# Poissons Ratio (x) = 0.33542 -0.15197
# Poissons Ratio (y) = 0.45865 0.59119
# Poissons Ratio (z) = -0.14808 0.42129
#
# Static dielectric constant tensor:
#      x y z
#    x 1.905880 0.000000 -0.023320 
#    y 0.000000 1.784300 0.000000 
#    z -0.023320 0.000000 1.888760 
# 
# From -- ./inp_files/55289.got.cif
#   From: 2010.05.17/outbox.cif.g08.bks.cpg/sg10_28_cif.got.tgz:55289.got - 2010.06.03 11:33:40.
