data_PCOD9144170
_publ_section_title
;
Structure prediction by ZEFSAII (Michael W. Deem and Ramdas Pophale) SiO2 
 PCOD9144170
Probable space group: P 2/M
;
_chemical_formula_sum "Si O2"
_cell_formula_units_Z 24
_cell_length_a 9.089723
_cell_length_b 15.506577
_cell_length_c 16.280184
_cell_angle_alpha 90.000000
_cell_angle_beta 34.104677
_cell_angle_gamma 90.000000
_cell_volume 1286.653351
_symmetry_space_group_name_H-M "P 2/M"
_symmetry_group_IT_number 10
_symmetry_cell_setting 'monoclinic'
loop_
_space_group_symop_operation_xyz
x,y,z
-x,y,-z
-x,-y,-z
x,-y,z
loop_
_atom_site_type_symbol
_atom_site_label
_atom_site_fract_x
_atom_site_fract_y
_atom_site_fract_z
Si Si1 0.786671 0.206468 0.365485
Si Si2 0.291413 0.500000 0.826264
Si Si3 0.068358 0.309733 0.371553
Si Si4 0.659363 0.249260 0.102497
Si Si5 0.765599 0.099693 0.930654
Si Si6 0.155520 0.500000 0.342071
Si Si7 0.820867 0.679285 0.194685
O O1 0.500000 0.165472 0.500000
O O2 0.770823 0.284316 0.307040
O O3 0.875544 0.249016 0.409585
O O4 0.003290 0.141502 0.230166
O O5 0.534549 0.500000 0.777462
O O6 0.303535 0.587074 0.767339
O O7 0.000000 0.500000 0.000000
O O8 0.361993 0.274478 0.223255
O O9 0.075123 0.409465 0.338802
O O10 0.000000 0.308552 0.500000
O O11 0.708981 0.255761 0.176821
O O12 0.728019 0.159051 0.028275
O O13 0.865698 0.317861 0.967984
O O14 0.815792 0.000000 0.926828
O O15 0.500000 0.105440 0.000000
O O16 0.000000 0.500000 0.500000
#
# Coordination Sequence:
#
# PCOD9144170 Si02
#       7
#     4   2   4   4   4   2   4
#     4  11  24  39  59  89 121 156 194 247 298 352
#     4  12  18  35  57  85 116 162 198 251 284 338
#     4  11  21  37  59  82 120 163 202 241 289 347
#     4  10  18  37  59  87 113 153 195 238 290 360
#     4  10  21  40  67  91 114 148 192 245 301 360
#     4  10  22  33  55  83 113 157 207 237 278 330
#     4  10  21  34  59  87 121 155 201 239 298 342
#
# _framework density 18.653041999999999
#
# number of rings (size 3 to 8) (size 9 to 14) (size 15 to 20)
#    0.000    1.500    5.000    1.000    2.333    1.000 
#    0.000    7.500    0.000    8.000    0.000    0.000 
#    0.000    0.000    0.000    0.000    0.000    0.000 
#
# Total GULP energy -133946.645223 kJ/mol
# GULP energy per Si atom -5581.110218 kJ/mol
# Density = 1.861059 g / cm^3
# Si number density = 18.653042 Si / 1000 Ang^3
#
#
#
# Elastic Constant Matrix: (Units=GPa)
#
#
# Indices 1 2 3 4 5 6 
#
# 1 69.6340 39.2405 28.7261 0.0000 -4.9673 0.0000
# 2 39.2405 141.8400 31.7880 0.0000 4.5438 0.0000
# 3 28.7261 31.7880 73.1470 0.0000 -14.2972 0.0000
# 4 0.0000 0.0000 0.0000 12.5352 0.0000 0.6194
# 5 -4.9673 4.5438 -14.2972 0.0000 41.0930 0.0000
# 6 0.0000 0.0000 0.0000 0.6194 0.0000 24.0328
#
#
#
# Elastic Compliance Matrix: (Units=1/GPa)
#
#
# Indices 1 2 3 4 5 6 
#
# 1 0.018978 -0.004035 -0.005541 0.000000 0.000812 0.000000
# 2 -0.004035 0.008857 -0.002738 0.000000 -0.002420 0.000000
# 3 -0.005541 -0.002738 0.018203 0.000000 0.005966 0.000000
# 4 0.000000 0.000000 0.000000 0.079877 0.000000 -0.002059
# 5 0.000812 -0.002420 0.005966 0.000000 0.026777 0.000000
# 6 0.000000 0.000000 0.000000 -0.002059 0.000000 0.041663
#
#
# Mechanical properties :
#
#
# Convention : Reuss Voigt Hill
#
# Bulk Modulus (GPa) = 46.70251 53.79224 50.24738
# Shear Modulus (GPa) = 22.11225 27.85662 24.98444
#
# Velocity S-wave (km/s) = 3.44677 3.86866 3.66379
# Velocity P-wave (km/s) = 6.39782 6.98973 6.70031
#
# Compressibility (1/GPa) = 0.02141212
#
# Stress axis : x y z
#
# Youngs Moduli (GPa) = 52.69220 112.89936 54.93598
#
# Poissons Ratio (x) = 0.45550 0.30440
# Poissons Ratio (y) = 0.21259 0.15040
# Poissons Ratio (z) = 0.29196 0.30909
#
# Static dielectric constant tensor:
#      x y z
#    x 1.663100 0.000000 -0.021170 
#    y 0.000000 1.637140 0.000000 
#    z -0.021170 0.000000 1.674230 
# 
# From -- ./inp_files/61694.got.cif
#   From: 2010.05.17/outbox.cif.g08.bks.cpg/sg10_31_cif.got.tgz:61694.got - 2010.06.03 11:33:40.
