data_PCOD9144840
_publ_section_title
;
Structure prediction by ZEFSAII (Michael W. Deem and Ramdas Pophale) SiO2 
 PCOD9144840
Probable space group: P 2/M
;
_chemical_formula_sum "Si O2"
_cell_formula_units_Z 28
_cell_length_a 19.570309
_cell_length_b 8.823176
_cell_length_c 11.629538
_cell_angle_alpha 90.000000
_cell_angle_beta 125.618615
_cell_angle_gamma 90.000000
_cell_volume 1632.406830
_symmetry_space_group_name_H-M "P 2/M"
_symmetry_group_IT_number 10
_symmetry_cell_setting 'monoclinic'
loop_
_space_group_symop_operation_xyz
x,y,z
-x,y,-z
-x,-y,-z
x,-y,z
loop_
_atom_site_type_symbol
_atom_site_label
_atom_site_fract_x
_atom_site_fract_y
_atom_site_fract_z
Si Si1 0.155206 0.324344 0.877337
Si Si2 0.009923 0.681434 0.144987
Si Si3 0.829204 0.173763 0.575384
Si Si4 0.317563 0.818066 0.945851
Si Si5 0.098875 0.834962 0.609851
Si Si6 0.321968 0.679210 0.692065
Si Si7 0.496922 0.826451 0.857882
O O1 0.168927 0.500000 0.919153
O O2 0.076082 0.266280 0.875262
O O3 0.243763 0.237228 0.957946
O O4 0.124645 0.300954 0.716529
O O5 0.015600 0.500000 0.170374
O O6 0.095888 0.754860 0.275996
O O7 0.000000 0.709133 0.000000
O O8 0.864855 0.172851 0.480820
O O9 0.742656 0.263139 0.468895
O O10 0.813602 0.000000 0.595747
O O11 0.305987 0.754961 0.803361
O O12 0.319209 0.000000 0.938532
O O13 0.409812 0.770092 0.081566
O O14 0.000000 0.834317 0.500000
O O15 0.124364 0.000000 0.686244
O O16 0.314087 0.500000 0.698696
O O17 0.416429 0.726664 0.749619
O O18 0.484627 0.000000 0.805674
O O19 0.500000 0.831589 0.000000
#
# Coordination Sequence:
#
# PCOD9144840 Si02
#       7
#     4   4   4   4   4   4   4
#     4  11  21  31  50  75  99 131 170 208 249 301
#     4  10  23  41  55  71 100 134 169 213 260 302
#     4  11  21  33  52  75 101 134 171 209 249 299
#     4  10  19  31  47  69 102 139 170 204 247 295
#     4  10  19  31  47  69  99 131 161 201 252 297
#     4  11  20  29  46  73 104 136 169 205 246 296
#     4   8  16  30  45  64  97 139 172 199 240 293
#
# _framework density 17.152585999999999
#
# number of rings (size 3 to 8) (size 9 to 14) (size 15 to 20)
#    0.000    1.857    2.857    3.429    0.000    4.857 
#    0.000    0.000    0.000    0.000    0.000    1.000 
#    0.000    8.000    0.000    0.000    0.000    0.000 
#
# Total GULP energy -155969.320132 kJ/mol
# GULP energy per Si atom -5570.332862 kJ/mol
# Density = 1.711355 g / cm^3
# Si number density = 17.152586 Si / 1000 Ang^3
#
#
#
# Elastic Constant Matrix: (Units=GPa)
#
#
# Indices 1 2 3 4 5 6 
#
# 1 73.3785 35.3914 60.2945 0.0000 35.1498 0.0000
# 2 35.3914 77.4647 43.9472 0.0000 15.9368 0.0000
# 3 60.2945 43.9472 74.9380 0.0000 28.7575 0.0000
# 4 0.0000 0.0000 0.0000 21.5915 0.0000 7.3202
# 5 35.1498 15.9368 28.7575 0.0000 32.1707 0.0000
# 6 0.0000 0.0000 0.0000 7.3202 0.0000 21.5920
#
#
#
# Elastic Compliance Matrix: (Units=1/GPa)
#
#
# Indices 1 2 3 4 5 6 
#
# 1 0.055453 -0.000600 -0.032161 0.000000 -0.031543 0.000000
# 2 -0.000600 0.019367 -0.011332 0.000000 0.001192 0.000000
# 3 -0.032161 -0.011332 0.046011 0.000000 -0.000377 0.000000
# 4 0.000000 0.000000 0.000000 0.052329 0.000000 -0.017741
# 5 -0.031543 0.001192 -0.000377 0.000000 0.065294 0.000000
# 6 0.000000 0.000000 0.000000 -0.017741 0.000000 0.052328
#
#
# Mechanical properties :
#
#
# Convention : Reuss Voigt Hill
#
# Bulk Modulus (GPa) = 30.63260 56.11637 43.37449
# Shear Modulus (GPa) = 12.82543 20.81403 16.81973
#
# Velocity S-wave (km/s) = 2.73742 3.48726 3.13484
# Velocity P-wave (km/s) = 5.28100 7.00012 6.20043
#
# Compressibility (1/GPa) = 0.03264496
#
# Stress axis : x y z
#
# Youngs Moduli (GPa) = 18.03315 51.63390 21.73403
#
# Poissons Ratio (x) = 0.03100 0.69898
# Poissons Ratio (y) = 0.01083 0.24629
# Poissons Ratio (z) = 0.57996 0.58511
#
# Static dielectric constant tensor:
#      x y z
#    x 1.644570 0.000000 0.048420 
#    y 0.000000 1.626990 0.000000 
#    z 0.048420 0.000000 1.572470 
# 
# From -- ./inp_files/55017.got.cif
#   From: 2010.05.17/outbox.cif.g08.bks.cpg/sg10_28_cif.got.tgz:55017.got - 2010.06.03 11:33:40.
