data_PCOD9144471
_publ_section_title
;
Structure prediction by ZEFSAII (Michael W. Deem and Ramdas Pophale) SiO2 
 PCOD9144471
Probable space group: P 2/M
;
_chemical_formula_sum "Si O2"
_cell_formula_units_Z 20
_cell_length_a 10.262250
_cell_length_b 16.189269
_cell_length_c 5.622611
_cell_angle_alpha 90.000000
_cell_angle_beta 63.693212
_cell_angle_gamma 90.000000
_cell_volume 837.386885
_symmetry_space_group_name_H-M "P 2/M"
_symmetry_group_IT_number 10
_symmetry_cell_setting 'monoclinic'
loop_
_space_group_symop_operation_xyz
x,y,z
-x,y,-z
-x,-y,-z
x,-y,z
loop_
_atom_site_type_symbol
_atom_site_label
_atom_site_fract_x
_atom_site_fract_y
_atom_site_fract_z
Si Si1 0.493164 0.714963 0.755443
Si Si2 0.780675 0.593965 0.051711
Si Si3 0.164065 0.843221 0.391453
Si Si4 0.190153 0.349213 0.470359
Si Si5 0.829004 0.097578 0.115725
O O1 0.500000 0.761770 0.500000
O O2 0.349103 0.660306 0.861175
O O3 0.632532 0.653483 0.653618
O O4 0.500000 0.761706 0.000000
O O5 0.728982 0.500000 0.113474
O O6 0.859129 0.615961 0.236161
O O7 0.854397 0.604572 0.734192
O O8 0.152574 0.746749 0.463820
O O9 0.233814 0.882559 0.571629
O O10 0.000000 0.878962 0.500000
O O11 0.228379 0.857301 0.075493
O O12 0.821576 0.000000 0.079209
O O13 0.000000 0.122778 0.000000
#
# Coordination Sequence:
#
# PCOD9144471 Si02
#       5
#     4   4   4   4   4
#     4   8  16  27  42  64  89 110 142 185 234 278
#     4  10  19  31  48  68  90 116 152 201 247 276
#     4  10  19  31  48  69  97 128 151 180 221 270
#     4  10  19  30  45  67  94 121 153 185 230 282
#     4   9  17  30  49  72  95 119 149 186 228 268
#
# _framework density 23.883823
#
# number of rings (size 3 to 8) (size 9 to 14) (size 15 to 20)
#    0.000    2.600    0.000    2.400    0.000    9.600 
#    0.000    0.000    0.000    3.600    0.000    0.000 
#    0.000  144.000    0.000    0.000    0.000    0.000 
#
# Total GULP energy -111539.893814 kJ/mol
# GULP energy per Si atom -5576.994691 kJ/mol
# Density = 2.382946 g / cm^3
# Si number density = 23.883823 Si / 1000 Ang^3
#
#
#
# Elastic Constant Matrix: (Units=GPa)
#
#
# Indices 1 2 3 4 5 6 
#
# 1 78.5867 7.1224 50.9592 0.0000 18.3912 0.0000
# 2 7.1224 72.3043 27.5561 0.0000 21.8639 0.0000
# 3 50.9592 27.5561 250.9526 0.0000 71.2431 0.0000
# 4 0.0000 0.0000 0.0000 32.1738 0.0000 26.5133
# 5 18.3912 21.8639 71.2431 0.0000 47.1612 0.0000
# 6 0.0000 0.0000 0.0000 26.5133 0.0000 -95.5113
#
#
#
# Elastic Compliance Matrix: (Units=1/GPa)
#
#
# Indices 1 2 3 4 5 6 
#
# 1 0.014779 0.000124 -0.002385 0.000000 -0.002218 0.000000
# 2 0.000124 0.016141 0.000596 0.000000 -0.008432 0.000000
# 3 -0.002385 0.000596 0.007385 0.000000 -0.010503 0.000000
# 4 0.000000 0.000000 0.000000 0.025295 0.000000 0.007022
# 5 -0.002218 -0.008432 -0.010503 0.000000 0.041843 0.000000
# 6 0.000000 0.000000 0.000000 0.007022 0.000000 -0.008521
#
#
# Mechanical properties :
#
#
# Convention : Reuss Voigt Hill
#
# Bulk Modulus (GPa) = 28.59194 63.67991 46.13592
# Shear Modulus (GPa) = 44.67825 17.84513 31.26169
#
# Velocity S-wave (km/s) = 4.32979 2.73640 3.62181
# Velocity P-wave (km/s) = 6.08222 6.05839 6.07031
#
# Compressibility (1/GPa) = 0.03497489
#
# Stress axis : x y z
#
# Youngs Moduli (GPa) = 67.66269 61.95537 135.40378
#
# Poissons Ratio (x) = -0.00767 0.32295
# Poissons Ratio (y) = -0.00837 -0.08073
# Poissons Ratio (z) = 0.16138 -0.03694
#
# Static dielectric constant tensor:
#      x y z
#    x 1.848110 0.000000 0.277850 
#    y 0.000000 1.807790 0.000000 
#    z 0.277850 0.000000 1.159550 
# 
# From -- ./inp_files/6701.got.cif
#   From: 2010.05.17/outbox.cif.g08.bks.cpg/sg10_4_cif.got.tgz:6701.got - 2010.06.03 11:33:40.
