data_PCOD9144772
_publ_section_title
;
Structure prediction by ZEFSAII (Michael W. Deem and Ramdas Pophale) SiO2 
 PCOD9144772
Probable space group: P 2/M
;
_chemical_formula_sum "Si O2"
_cell_formula_units_Z 32
_cell_length_a 9.992387
_cell_length_b 8.901006
_cell_length_c 14.947387
_cell_angle_alpha 90.000000
_cell_angle_beta 81.158156
_cell_angle_gamma 90.000000
_cell_volume 1313.656205
_symmetry_space_group_name_H-M "P 2/M"
_symmetry_group_IT_number 10
_symmetry_cell_setting 'monoclinic'
loop_
_space_group_symop_operation_xyz
x,y,z
-x,y,-z
-x,-y,-z
x,-y,z
loop_
_atom_site_type_symbol
_atom_site_label
_atom_site_fract_x
_atom_site_fract_y
_atom_site_fract_z
Si Si1 0.272106 0.318033 0.175890
Si Si2 0.559826 0.328752 0.092603
Si Si3 0.131881 0.326474 0.830778
Si Si4 0.407034 0.669312 0.419080
Si Si5 0.823091 0.174939 0.999329
Si Si6 0.641631 0.830234 0.300032
Si Si7 0.171995 0.170548 0.539609
Si Si8 0.052328 0.676488 0.327448
O O1 0.266275 0.500000 0.171024
O O2 0.429293 0.273630 0.160115
O O3 0.196717 0.272315 0.274613
O O4 0.197021 0.257067 0.094349
O O5 0.599720 0.500000 0.115267
O O6 0.677405 0.211209 0.060545
O O7 0.500000 0.349137 0.000000
O O8 0.124653 0.500000 0.858047
O O9 0.090390 0.232475 0.922981
O O10 0.279010 0.280093 0.775173
O O11 0.036103 0.308506 0.754846
O O12 0.500000 0.663474 0.500000
O O13 0.398783 0.500000 0.383776
O O14 0.495266 0.774215 0.346012
O O15 0.259256 0.727013 0.463603
O O16 0.844580 0.000000 0.982146
O O17 0.733746 0.831729 0.380549
O O18 0.640143 0.000000 0.264826
O O19 0.028663 0.232648 0.589584
O O20 0.162632 0.000000 0.507873
O O21 0.054594 0.500000 0.351520
#
# Coordination Sequence:
#
# PCOD9144772 Si02
#       8
#     4   4   4   4   4   4   4   4
#     4   9  18  33  50  66  85 111 144 181 221 262
#     4   8  15  30  50  67  83 105 136 177 223 265
#     4  10  19  31  45  61  86 119 151 179 212 257
#     4   9  15  23  37  56  78 108 146 180 210 250
#     4  11  21  31  45  65  88 113 144 182 221 259
#     4   9  16  26  39  57  82 110 142 179 218 255
#     4   9  16  25  38  57  83 113 142 176 216 254
#     4   9  18  31  46  63  85 116 150 181 213 256
#
# _framework density 24.359493000000001
#
# number of rings (size 3 to 8) (size 9 to 14) (size 15 to 20)
#    0.000    2.750    0.000    3.375    0.000    8.250 
#    0.000    2.500    0.000    0.000    0.000    0.000 
#    0.000    1.000    0.000   10.750    0.000    7.875 
#
# Total GULP energy -178822.748950 kJ/mol
# GULP energy per Si atom -5588.210905 kJ/mol
# Density = 2.430405 g / cm^3
# Si number density = 24.359493 Si / 1000 Ang^3
#
#
#
# Elastic Constant Matrix: (Units=GPa)
#
#
# Indices 1 2 3 4 5 6 
#
# 1 54.2789 -11.8147 23.2878 0.0000 -11.5405 0.0000
# 2 -11.8147 91.9506 36.6226 0.0000 -5.0306 0.0000
# 3 23.2878 36.6226 120.6995 0.0000 -11.7537 0.0000
# 4 0.0000 0.0000 0.0000 27.4305 0.0000 -6.6594
# 5 -11.5405 -5.0306 -11.7537 0.0000 60.9416 0.0000
# 6 0.0000 0.0000 0.0000 -6.6594 0.0000 13.3788
#
#
#
# Elastic Compliance Matrix: (Units=1/GPa)
#
#
# Indices 1 2 3 4 5 6 
#
# 1 0.022816 0.005395 -0.005682 0.000000 0.003670 0.000000
# 2 0.005395 0.013652 -0.005069 0.000000 0.001171 0.000000
# 3 -0.005682 -0.005069 0.010980 0.000000 0.000623 0.000000
# 4 0.000000 0.000000 0.000000 0.041467 0.000000 0.020640
# 5 0.003670 0.001171 0.000623 0.000000 0.017321 0.000000
# 6 0.000000 0.000000 0.000000 0.020640 0.000000 0.085019
#
#
# Mechanical properties :
#
#
# Convention : Reuss Voigt Hill
#
# Bulk Modulus (GPa) = 27.22095 40.34672 33.78384
# Shear Modulus (GPa) = 23.34157 34.93909 29.14033
#
# Velocity S-wave (km/s) = 3.09886 3.79134 3.46245
# Velocity P-wave (km/s) = 4.89927 5.98036 5.46660
#
# Compressibility (1/GPa) = 0.03673641
#
# Stress axis : x y z
#
# Youngs Moduli (GPa) = 43.82937 73.25111 91.07433
#
# Poissons Ratio (x) = -0.39521 0.51746
# Poissons Ratio (y) = -0.23647 0.46167
# Poissons Ratio (z) = 0.24903 0.37132
#
# Static dielectric constant tensor:
#      x y z
#    x 2.160300 0.000000 0.032280 
#    y 0.000000 1.824690 0.000000 
#    z 0.032280 0.000000 1.911580 
# 
# From -- ./inp_files/52799.got.cif
#   From: 2010.05.17/outbox.cif.g08.bks.cpg/sg10_27_cif.got.tgz:52799.got - 2010.06.03 11:33:40.
