data_PCOD9144834
_publ_section_title
;
Structure prediction by ZEFSAII (Michael W. Deem and Ramdas Pophale) SiO2 
 PCOD9144834
Probable space group: P 2/M
;
_chemical_formula_sum "Si O2"
_cell_formula_units_Z 32
_cell_length_a 27.285202
_cell_length_b 8.890885
_cell_length_c 14.793873
_cell_angle_alpha 90.000000
_cell_angle_beta 145.156420
_cell_angle_gamma 90.000000
_cell_volume 2050.440388
_symmetry_space_group_name_H-M "P 2/M"
_symmetry_group_IT_number 10
_symmetry_cell_setting 'monoclinic'
loop_
_space_group_symop_operation_xyz
x,y,z
-x,y,-z
-x,-y,-z
x,-y,z
loop_
_atom_site_type_symbol
_atom_site_label
_atom_site_fract_x
_atom_site_fract_y
_atom_site_fract_z
Si Si1 0.599185 0.681694 0.255599
Si Si2 0.848046 0.828516 0.510362
Si Si3 0.595786 0.682731 0.040909
Si Si4 0.235389 0.176374 0.418936
Si Si5 0.769279 0.322536 0.222445
Si Si6 0.087577 0.181643 0.684677
Si Si7 0.947080 0.176213 0.165273
Si Si8 0.913678 0.320145 0.923470
O O1 0.604715 0.500000 0.266904
O O2 0.501314 0.726714 0.129891
O O3 0.671023 0.751219 0.428323
O O4 0.613553 0.728560 0.172095
O O5 0.807541 0.807287 0.547078
O O6 0.812317 0.711465 0.384546
O O7 0.949942 0.815445 0.672379
O O8 0.828655 0.000000 0.449601
O O9 0.597313 0.500000 0.044210
O O10 0.671330 0.732196 0.088446
O O11 0.170609 0.254464 0.251760
O O12 0.241893 0.000000 0.408120
O O13 0.768780 0.500000 0.203283
O O14 0.829053 0.240814 0.240611
O O15 0.086226 0.229249 0.787435
O O16 0.000000 0.230417 0.500000
O O17 0.086802 0.000000 0.681947
O O18 0.924181 0.000000 0.118992
O O19 0.918669 0.266078 0.034248
O O20 0.911692 0.500000 0.916089
O O21 0.000000 0.268826 0.000000
#
# Coordination Sequence:
#
# PCOD9144834 Si02
#       8
#     4   4   4   4   4   4   4   4
#     4   9  16  31  50  68  97 132 166 200 242 293
#     4  10  19  31  47  68  98 135 167 200 242 288
#     4   8  16  29  47  70  98 133 163 197 246 297
#     4  11  21  32  49  73 100 131 168 203 244 292
#     4  11  20  30  48  74 100 130 170 207 242 286
#     4  10  20  35  51  69  97 134 170 200 243 296
#     4  10  20  36  53  67  94 135 172 205 241 286
#     4  11  23  35  50  73 100 129 165 206 246 290
#
# _framework density 15.606403999999999
#
# number of rings (size 3 to 8) (size 9 to 14) (size 15 to 20)
#    0.000    2.000    3.750    1.875    0.000    2.250 
#    0.000    2.500    0.000    0.000    0.000    0.875 
#    0.000    7.000    0.000    0.000    0.000    0.000 
#
# Total GULP energy -178447.829878 kJ/mol
# GULP energy per Si atom -5576.494684 kJ/mol
# Density = 1.557088 g / cm^3
# Si number density = 15.606404 Si / 1000 Ang^3
#
#
#
# Elastic Constant Matrix: (Units=GPa)
#
#
# Indices 1 2 3 4 5 6 
#
# 1 102.9499 32.4313 66.2896 0.0000 9.9830 0.0000
# 2 32.4313 28.2325 32.1831 0.0000 -3.1439 0.0000
# 3 66.2896 32.1831 108.4492 0.0000 6.5898 0.0000
# 4 0.0000 0.0000 0.0000 17.1584 0.0000 -9.3270
# 5 9.9830 -3.1439 6.5898 0.0000 23.9592 0.0000
# 6 0.0000 0.0000 0.0000 -9.3270 0.0000 12.3954
#
#
#
# Elastic Compliance Matrix: (Units=1/GPa)
#
#
# Indices 1 2 3 4 5 6 
#
# 1 0.020122 -0.016081 -0.007007 0.000000 -0.008567 0.000000
# 2 -0.016081 0.069741 -0.012031 0.000000 0.019161 0.000000
# 3 -0.007007 -0.012031 0.017281 0.000000 -0.003412 0.000000
# 4 0.000000 0.000000 0.000000 0.098617 0.000000 0.074205
# 5 -0.008567 0.019161 -0.003412 0.000000 0.048760 0.000000
# 6 0.000000 0.000000 0.000000 0.074205 0.000000 0.136511
#
#
# Mechanical properties :
#
#
# Convention : Reuss Voigt Hill
#
# Bulk Modulus (GPa) = 27.09532 55.71550 41.40541
# Shear Modulus (GPa) = 10.55805 17.95110 14.25458
#
# Velocity S-wave (km/s) = 2.60382 3.39520 3.02550
# Velocity P-wave (km/s) = 5.14191 7.15176 6.22844
#
# Compressibility (1/GPa) = 0.03690675
#
# Stress axis : x y z
#
# Youngs Moduli (GPa) = 49.69763 14.33876 57.86618
#
# Poissons Ratio (x) = 0.23059 0.40544
# Poissons Ratio (y) = 0.79920 0.69618
# Poissons Ratio (z) = 0.34821 0.17251
#
# Static dielectric constant tensor:
#      x y z
#    x 1.522650 0.000000 0.017280 
#    y 0.000000 1.529890 0.000000 
#    z 0.017280 0.000000 1.507600 
# 
# From -- ./inp_files/72215.got.cif
#   From: 2010.05.17/outbox.cif.g08.bks.cpg/sg10_37_cif.got.tgz:72215.got - 2010.06.03 11:33:40.
