data_PCOD9144191
_publ_section_title
;
Structure prediction by ZEFSAII (Michael W. Deem and Ramdas Pophale) SiO2 
 PCOD9144191
Probable space group: P 2/M
;
_chemical_formula_sum "Si O2"
_cell_formula_units_Z 26
_cell_length_a 5.154178
_cell_length_b 19.634242
_cell_length_c 13.520982
_cell_angle_alpha 90.000000
_cell_angle_beta 114.021210
_cell_angle_gamma 90.000000
_cell_volume 1249.799467
_symmetry_space_group_name_H-M "P 2/M"
_symmetry_group_IT_number 10
_symmetry_cell_setting 'monoclinic'
loop_
_space_group_symop_operation_xyz
x,y,z
-x,y,-z
-x,-y,-z
x,-y,z
loop_
_atom_site_type_symbol
_atom_site_label
_atom_site_fract_x
_atom_site_fract_y
_atom_site_fract_z
Si Si1 0.836039 0.838287 0.888288
Si Si2 0.846338 0.575772 0.870224
Si Si3 0.521372 0.755577 0.293069
Si Si4 0.735935 0.922507 0.162263
Si Si5 0.985510 0.130520 0.392427
Si Si6 0.500000 0.236246 0.500000
Si Si7 0.344737 0.661556 0.869520
O O1 0.776787 0.786428 0.790124
O O2 0.538346 0.873392 0.871438
O O3 0.059132 0.895801 0.891568
O O4 0.000000 0.798865 0.000000
O O5 0.848168 0.500000 0.825927
O O6 0.535383 0.602018 0.849694
O O7 0.032360 0.631566 0.840932
O O8 0.000000 0.571221 0.000000
O O9 0.710891 0.821436 0.346224
O O10 0.527348 0.720902 0.402175
O O11 0.640709 0.718332 0.214093
O O12 0.937699 0.916134 0.290584
O O13 0.643865 0.000000 0.135431
O O14 0.000000 0.093074 0.500000
O O15 0.241752 0.184674 0.434484
O O16 0.500000 0.679363 0.000000
#
# Coordination Sequence:
#
# PCOD9144191 Si02
#       7
#     4   4   4   4   4   2   4
#     4  11  24  40  59  83 117 155 185 233 294 351
#     4   9  18  34  54  81 122 165 196 229 277 330
#     4  10  22  36  60  86 118 151 196 244 298 347
#     4  11  23  40  59  84 112 147 194 236 286 355
#     4   9  20  37  58  81 111 146 188 245 301 347
#     4  10  18  40  61  78 113 152 194 244 302 358
#     4  10  21  33  55  90 123 153 193 237 280 345
#
# _framework density 20.803339000000001
#
# number of rings (size 3 to 8) (size 9 to 14) (size 15 to 20)
#    0.000    2.000    1.538    1.385    2.154    8.308 
#    0.000    0.385    0.000    0.000    0.000    3.231 
#    0.000    0.000    0.000    0.000    0.000    0.000 
#
# Total GULP energy -144902.654011 kJ/mol
# GULP energy per Si atom -5573.179000 kJ/mol
# Density = 2.075599 g / cm^3
# Si number density = 20.803339 Si / 1000 Ang^3
#
#
#
# Elastic Constant Matrix: (Units=GPa)
#
#
# Indices 1 2 3 4 5 6 
#
# 1 73.9073 5.8376 26.7663 0.0000 -5.6570 0.0000
# 2 5.8376 57.9192 21.7917 0.0000 -8.5519 0.0000
# 3 26.7663 21.7917 156.3188 0.0000 -6.9205 0.0000
# 4 0.0000 0.0000 0.0000 10.5571 0.0000 -9.1155
# 5 -5.6570 -8.5519 -6.9205 0.0000 29.5625 0.0000
# 6 0.0000 0.0000 0.0000 -9.1155 0.0000 18.1798
#
#
#
# Elastic Compliance Matrix: (Units=1/GPa)
#
#
# Indices 1 2 3 4 5 6 
#
# 1 0.014572 -0.000261 -0.002363 0.000000 0.002160 0.000000
# 2 -0.000261 0.018903 -0.002375 0.000000 0.004862 0.000000
# 3 -0.002363 -0.002375 0.007157 0.000000 0.000536 0.000000
# 4 0.000000 0.000000 0.000000 0.167042 0.000000 0.083756
# 5 0.002160 0.004862 0.000536 0.000000 0.035772 0.000000
# 6 0.000000 0.000000 0.000000 0.083756 0.000000 0.097002
#
#
# Mechanical properties :
#
#
# Convention : Reuss Voigt Hill
#
# Bulk Modulus (GPa) = 32.64363 44.10405 38.37384
# Shear Modulus (GPa) = 13.86355 27.24320 20.55337
#
# Velocity S-wave (km/s) = 2.58429 3.62271 3.14663
# Velocity P-wave (km/s) = 4.96290 6.22456 5.62919
#
# Compressibility (1/GPa) = 0.03063385
#
# Stress axis : x y z
#
# Youngs Moduli (GPa) = 68.62363 52.90068 139.72925
#
# Poissons Ratio (x) = 0.01379 0.33021
# Poissons Ratio (y) = 0.01789 0.33190
# Poissons Ratio (z) = 0.16217 0.12566
#
# Static dielectric constant tensor:
#      x y z
#    x 1.747710 0.000000 -0.206860 
#    y 0.000000 1.750850 0.000000 
#    z -0.206860 0.000000 1.467520 
# 
# From -- ./inp_files/39790.got.cif
#   From: 2010.05.17/outbox.cif.g08.bks.cpg/sg10_20_cif.got.tgz:39790.got - 2010.06.03 11:33:40.
