data_PCOD9144424
_publ_section_title
;
Structure prediction by ZEFSAII (Michael W. Deem and Ramdas Pophale) SiO2 
 PCOD9144424
Probable space group: P 2/M
;
_chemical_formula_sum "Si O2"
_cell_formula_units_Z 32
_cell_length_a 20.138904
_cell_length_b 13.882132
_cell_length_c 15.746005
_cell_angle_alpha 90.000000
_cell_angle_beta 151.225795
_cell_angle_gamma 90.000000
_cell_volume 2119.003029
_symmetry_space_group_name_H-M "P 2/M"
_symmetry_group_IT_number 10
_symmetry_cell_setting 'monoclinic'
loop_
_space_group_symop_operation_xyz
x,y,z
-x,y,-z
-x,-y,-z
x,-y,z
loop_
_atom_site_type_symbol
_atom_site_label
_atom_site_fract_x
_atom_site_fract_y
_atom_site_fract_z
Si Si1 0.861553 0.308151 0.395597
Si Si2 0.827812 0.616174 0.047695
Si Si3 0.135476 0.384466 0.410225
Si Si4 0.330062 0.385219 0.959430
Si Si5 0.728654 0.889025 0.241757
Si Si6 0.417014 0.296870 0.666943
Si Si7 0.550798 0.615755 0.651490
Si Si8 0.484114 0.889323 0.839087
O O1 0.862798 0.357125 0.488476
O O2 0.730743 0.344608 0.195213
O O3 0.842942 0.192846 0.379269
O O4 0.000000 0.333965 0.500000
O O5 0.833535 0.500000 0.059125
O O6 0.766762 0.649046 0.070344
O O7 0.984131 0.647125 0.207856
O O8 0.711723 0.639932 0.848199
O O9 0.151392 0.500000 0.417682
O O10 0.261018 0.329285 0.507159
O O11 0.324013 0.500000 0.950160
O O12 0.483874 0.353428 0.155456
O O13 0.627528 0.880097 0.209931
O O14 0.777011 0.000000 0.292496
O O15 0.631734 0.871385 0.050380
O O16 0.466496 0.328632 0.629399
O O17 0.446464 0.186481 0.724471
O O18 0.500000 0.636525 0.500000
O O19 0.535298 0.500000 0.649010
O O20 0.482521 0.000000 0.808370
#
# Coordination Sequence:
#
# PCOD9144424 Si02
#       8
#     4   4   4   4   4   4   4   4
#     4  12  21  29  44  64  93 136 171 196 234 282
#     4   8  16  31  46  63  94 131 159 186 228 279
#     4  11  21  30  43  69 101 131 160 198 233 272
#     4  10  19  30  43  63  94 134 166 193 225 274
#     4   9  18  33  46  63  90 124 170 214 243 272
#     4  11  19  32  51  72  94 119 163 206 241 275
#     4   9  18  34  55  75  97 127 156 186 235 300
#     4   9  17  31  51  67  88 123 162 204 249 282
#
# _framework density 15.101442
#
# number of rings (size 3 to 8) (size 9 to 14) (size 15 to 20)
#    0.000    2.125    3.750    3.000    0.000    1.250 
#    0.000    1.875    0.000    3.375    0.000    0.000 
#    0.000    1.000    0.000    0.000    0.000    0.000 
#
# Total GULP energy -178351.017181 kJ/mol
# GULP energy per Si atom -5573.469287 kJ/mol
# Density = 1.506707 g / cm^3
# Si number density = 15.101442 Si / 1000 Ang^3
#
#
#
# Elastic Constant Matrix: (Units=GPa)
#
#
# Indices 1 2 3 4 5 6 
#
# 1 57.8098 24.0362 46.1309 0.0000 -5.2561 0.0000
# 2 24.0362 67.4217 21.6445 0.0000 -5.9217 0.0000
# 3 46.1309 21.6445 90.7827 0.0000 -2.9679 0.0000
# 4 0.0000 0.0000 0.0000 14.5906 0.0000 0.9348
# 5 -5.2561 -5.9217 -2.9679 0.0000 25.2804 0.0000
# 6 0.0000 0.0000 0.0000 0.9348 0.0000 17.5952
#
#
#
# Elastic Compliance Matrix: (Units=1/GPa)
#
#
# Indices 1 2 3 4 5 6 
#
# 1 0.031894 -0.006392 -0.014571 0.000000 0.003423 0.000000
# 2 -0.006392 0.017626 -0.000866 0.000000 0.002698 0.000000
# 3 -0.014571 -0.000866 0.018592 0.000000 -0.001050 0.000000
# 4 0.000000 0.000000 0.000000 0.068772 0.000000 -0.003654
# 5 0.003423 0.002698 -0.001050 0.000000 0.040777 0.000000
# 6 0.000000 0.000000 0.000000 -0.003654 0.000000 0.057028
#
#
# Mechanical properties :
#
#
# Convention : Reuss Voigt Hill
#
# Bulk Modulus (GPa) = 40.89391 44.40415 42.64903
# Shear Modulus (GPa) = 17.45215 19.77342 18.61278
#
# Velocity S-wave (km/s) = 3.40319 3.62245 3.51453
# Velocity P-wave (km/s) = 6.52538 6.85303 6.69121
#
# Compressibility (1/GPa) = 0.02445352
#
# Stress axis : x y z
#
# Youngs Moduli (GPa) = 31.35347 56.73490 53.78734
#
# Poissons Ratio (x) = 0.36265 0.78374
# Poissons Ratio (y) = 0.20041 0.04658
# Poissons Ratio (z) = 0.45685 0.04914
#
# Static dielectric constant tensor:
#      x y z
#    x 1.482770 0.000000 0.018150 
#    y 0.000000 1.504870 0.000000 
#    z 0.018150 0.000000 1.515930 
# 
# From -- ./inp_files/29056.got.cif
#   From: 2010.05.17/outbox.cif.g08.bks.cpg/sg10_15_cif.got.tgz:29056.got - 2010.06.03 11:33:40.
