data_PCOD9144357
_publ_section_title
;
Structure prediction by ZEFSAII (Michael W. Deem and Ramdas Pophale) SiO2 
 PCOD9144357
Probable space group: P 2/M
;
_chemical_formula_sum "Si O2"
_cell_formula_units_Z 32
_cell_length_a 9.930393
_cell_length_b 9.317410
_cell_length_c 23.735812
_cell_angle_alpha 90.000000
_cell_angle_beta 45.167797
_cell_angle_gamma 90.000000
_cell_volume 1557.467167
_symmetry_space_group_name_H-M "P 2/M"
_symmetry_group_IT_number 10
_symmetry_cell_setting 'monoclinic'
loop_
_space_group_symop_operation_xyz
x,y,z
-x,y,-z
-x,-y,-z
x,-y,z
loop_
_atom_site_type_symbol
_atom_site_label
_atom_site_fract_x
_atom_site_fract_y
_atom_site_fract_z
Si Si1 0.885203 0.826726 0.658938
Si Si2 0.478028 0.670574 0.442330
Si Si3 0.175044 0.326606 0.991230
Si Si4 0.730154 0.163977 0.587713
Si Si5 0.680692 0.154144 0.231785
Si Si6 0.910646 0.328459 0.306353
Si Si7 0.971277 0.329760 0.845566
Si Si8 0.506162 0.161570 0.162876
O O1 0.865387 0.784024 0.598870
O O2 0.044480 0.751616 0.649017
O O3 0.692711 0.789739 0.750881
O O4 0.900076 0.000000 0.654649
O O5 0.500000 0.720867 0.500000
O O6 0.443757 0.500000 0.452866
O O7 0.315084 0.745078 0.454052
O O8 0.690177 0.696467 0.355704
O O9 0.179691 0.500000 0.989172
O O10 0.377428 0.264748 0.912143
O O11 0.138250 0.276608 0.066648
O O12 0.000000 0.285765 0.000000
O O13 0.524341 0.160415 0.679076
O O14 0.779786 0.000000 0.558118
O O15 0.641812 0.150336 0.177182
O O16 0.812890 0.287933 0.204111
O O17 0.770200 0.000000 0.222709
O O18 0.933152 0.500000 0.307521
O O19 0.044856 0.278804 0.214647
O O20 0.944683 0.500000 0.851352
O O21 0.480555 0.000000 0.147175
#
# Coordination Sequence:
#
# PCOD9144357 Si02
#       8
#     4   4   4   4   4   4   4   4
#     4   9  20  38  58  80 108 144 187 231 268 317
#     4  10  21  37  59  88 118 144 174 218 268 320
#     4  10  19  29  45  73 106 139 179 228 279 326
#     4   9  18  34  56  83 110 139 181 224 265 317
#     4   9  16  27  47  74 100 129 169 217 263 310
#     4  10  21  37  56  80 109 142 182 222 268 328
#     4  10  19  31  47  72 104 136 175 222 267 319
#     4   9  18  32  49  72 103 136 177 226 272 319
#
# _framework density 20.54618
#
# number of rings (size 3 to 8) (size 9 to 14) (size 15 to 20)
#    0.000    2.500    2.500    1.500    0.000    3.000 
#    0.000    3.750    0.000    7.500    0.000    0.000 
#    0.000    0.000    0.000    0.000    0.000    0.000 
#
# Total GULP energy -178225.658530 kJ/mol
# GULP energy per Si atom -5569.551829 kJ/mol
# Density = 2.049942 g / cm^3
# Si number density = 20.546180 Si / 1000 Ang^3
#
#
#
# Elastic Constant Matrix: (Units=GPa)
#
#
# Indices 1 2 3 4 5 6 
#
# 1 99.4744 35.3272 28.3373 0.0000 24.9704 0.0000
# 2 35.3272 2.3994 27.9038 0.0000 11.0085 0.0000
# 3 28.3373 27.9038 102.2198 0.0000 22.0319 0.0000
# 4 0.0000 0.0000 0.0000 19.4135 0.0000 5.6692
# 5 24.9704 11.0085 22.0319 0.0000 34.8253 0.0000
# 6 0.0000 0.0000 0.0000 5.6692 0.0000 18.9064
#
#
#
# Elastic Compliance Matrix: (Units=1/GPa)
#
#
# Indices 1 2 3 4 5 6 
#
# 1 0.005595 0.022632 -0.006163 0.000000 -0.007267 0.000000
# 2 0.022632 -0.073827 0.014296 0.000000 -0.001934 0.000000
# 3 -0.006163 0.014296 0.008812 0.000000 -0.005675 0.000000
# 4 0.000000 0.000000 0.000000 0.056454 0.000000 -0.016928
# 5 -0.007267 -0.001934 -0.005675 0.000000 0.038127 0.000000
# 6 0.000000 0.000000 0.000000 -0.016928 0.000000 0.057968
#
#
# Mechanical properties :
#
#
# Convention : Reuss Voigt Hill
#
# Bulk Modulus (GPa) = 473.82336 43.02557 258.42447
# Shear Modulus (GPa) = 154.78695 22.13073 88.45884
#
# Velocity S-wave (km/s) = 8.68905 3.28551 6.56865
# Velocity P-wave (km/s) = 18.21485 5.94804 13.54917
#
# Compressibility (1/GPa) = 0.00211049
#
# Stress axis : x y z
#
# Youngs Moduli (GPa) = 178.72436 -13.54517 113.48238
#
# Poissons Ratio (x) = 0.30655 0.69937
# Poissons Ratio (y) = -4.04487 -1.62236
# Poissons Ratio (z) = 1.10144 0.19364
#
# Static dielectric constant tensor:
#      x y z
#    x 1.740400 0.000000 0.012670 
#    y 0.000000 1.721310 0.000000 
#    z 0.012670 0.000000 1.799700 
# 
# From -- ./inp_files/88524.got.cif
#   From: 2010.05.17/outbox.cif.g08.bks.cpg/sg10_45_cif.got.tgz:88524.got - 2010.06.03 11:33:40.
