data_PCOD9144245
_publ_section_title
;
Structure prediction by ZEFSAII (Michael W. Deem and Ramdas Pophale) SiO2 
 PCOD9144245
Probable space group: P 2/M
;
_chemical_formula_sum "Si O2"
_cell_formula_units_Z 28
_cell_length_a 14.124308
_cell_length_b 7.832187
_cell_length_c 14.957126
_cell_angle_alpha 90.000000
_cell_angle_beta 101.638901
_cell_angle_gamma 90.000000
_cell_volume 1620.598945
_symmetry_space_group_name_H-M "P 2/M"
_symmetry_group_IT_number 10
_symmetry_cell_setting 'monoclinic'
loop_
_space_group_symop_operation_xyz
x,y,z
-x,y,-z
-x,-y,-z
x,-y,z
loop_
_atom_site_type_symbol
_atom_site_label
_atom_site_fract_x
_atom_site_fract_y
_atom_site_fract_z
Si Si1 0.367648 0.290731 0.897851
Si Si2 0.414750 0.705758 0.104108
Si Si3 0.716696 0.300294 0.552761
Si Si4 0.413473 0.800815 0.623922
Si Si5 0.626911 0.798586 0.708159
Si Si6 0.758094 0.302390 0.282012
Si Si7 0.891113 0.709383 0.461796
O O1 0.366726 0.500000 0.895354
O O2 0.472500 0.238282 0.878428
O O3 0.280967 0.227793 0.818484
O O4 0.366948 0.238955 0.001416
O O5 0.415743 0.500000 0.104375
O O6 0.364615 0.764458 0.185132
O O7 0.708534 0.500000 0.531070
O O8 0.627336 0.213167 0.484113
O O9 0.705954 0.275398 0.656047
O O10 0.815863 0.239399 0.525447
O O11 0.520757 0.731113 0.658875
O O12 0.335449 0.706603 0.670941
O O13 0.412896 0.000000 0.649979
O O14 0.627022 0.000000 0.693131
O O15 0.782686 0.500000 0.269807
O O16 0.844403 0.229653 0.359078
O O17 0.891828 0.500000 0.459859
O O18 0.000000 0.766271 0.500000
#
# Coordination Sequence:
#
# PCOD9144245 Si02
#       7
#     4   4   4   4   4   4   4
#     4   8  14  25  42  64  85 112 149 184 211 240
#     4   9  16  27  43  60  85 117 150 183 208 244
#     4  10  20  31  46  63  81 113 149 177 210 259
#     4  10  19  29  40  59  89 119 144 176 212 246
#     4  11  21  30  40  60  90 120 146 177 215 249
#     4   9  15  26  46  66  86 115 148 175 208 258
#     4   8  15  28  46  69  90 105 131 177 224 259
#
# _framework density 17.277562
#
# number of rings (size 3 to 8) (size 9 to 14) (size 15 to 20)
#    0.000    2.714    1.429    3.429    0.000    3.429 
#    0.000    2.143    0.000   10.714    0.000    1.000 
#    0.000    8.000    0.000    0.000    0.000    0.000 
#
# Total GULP energy -156027.984896 kJ/mol
# GULP energy per Si atom -5572.428032 kJ/mol
# Density = 1.723824 g / cm^3
# Si number density = 17.277562 Si / 1000 Ang^3
#
#
#
# Elastic Constant Matrix: (Units=GPa)
#
#
# Indices 1 2 3 4 5 6 
#
# 1 77.1547 5.4028 64.1531 0.0000 15.0291 0.0000
# 2 5.4028 25.4598 -1.0532 0.0000 2.0521 0.0000
# 3 64.1531 -1.0532 143.7912 0.0000 7.1234 0.0000
# 4 0.0000 0.0000 0.0000 -15.6868 0.0000 35.8803
# 5 15.0291 2.0521 7.1234 0.0000 23.1333 0.0000
# 6 0.0000 0.0000 0.0000 35.8803 0.0000 -52.5751
#
#
#
# Elastic Compliance Matrix: (Units=1/GPa)
#
#
# Indices 1 2 3 4 5 6 
#
# 1 0.024118 -0.004562 -0.010193 0.000000 -0.012125 0.000000
# 2 -0.004562 0.040455 0.002399 0.000000 -0.001363 0.000000
# 3 -0.010193 0.002399 0.011376 0.000000 0.002906 0.000000
# 4 0.000000 0.000000 0.000000 0.113637 0.000000 0.077552
# 5 -0.012125 -0.001363 0.002906 0.000000 0.050331 0.000000
# 6 0.000000 0.000000 0.000000 0.077552 0.000000 0.033906
#
#
# Mechanical properties :
#
#
# Convention : Reuss Voigt Hill
#
# Bulk Modulus (GPa) = 19.51735 42.60122 31.05929
# Shear Modulus (GPa) = 15.84222 2.83448 9.33835
#
# Velocity S-wave (km/s) = 3.03136 1.28223 2.32737
# Velocity P-wave (km/s) = 4.85521 5.18678 5.02373
#
# Compressibility (1/GPa) = 0.05123646
#
# Stress axis : x y z
#
# Youngs Moduli (GPa) = 41.46340 24.71892 87.90629
#
# Poissons Ratio (x) = 0.11278 0.89602
# Poissons Ratio (y) = 0.18917 -0.21092
# Poissons Ratio (z) = 0.42263 -0.05931
#
# Static dielectric constant tensor:
#      x y z
#    x 1.563890 0.000000 0.008220 
#    y 0.000000 1.618790 0.000000 
#    z 0.008220 0.000000 1.633340 
# 
# From -- ./inp_files/65764.got.cif
#   From: 2010.05.17/outbox.cif.g08.bks.cpg/sg10_33_cif.got.tgz:65764.got - 2010.06.03 11:33:40.
