data_PCOD9144362
_publ_section_title
;
Structure prediction by ZEFSAII (Michael W. Deem and Ramdas Pophale) SiO2 
 PCOD9144362
Probable space group: P 2/M
;
_chemical_formula_sum "Si O2"
_cell_formula_units_Z 32
_cell_length_a 8.404970
_cell_length_b 17.485616
_cell_length_c 22.179844
_cell_angle_alpha 90.000000
_cell_angle_beta 34.078240
_cell_angle_gamma 90.000000
_cell_volume 1826.481093
_symmetry_space_group_name_H-M "P 2/M"
_symmetry_group_IT_number 10
_symmetry_cell_setting 'monoclinic'
loop_
_space_group_symop_operation_xyz
x,y,z
-x,y,-z
-x,-y,-z
x,-y,z
loop_
_atom_site_type_symbol
_atom_site_label
_atom_site_fract_x
_atom_site_fract_y
_atom_site_fract_z
Si Si1 0.133386 0.587428 0.551186
Si Si2 0.392884 0.911836 0.393068
Si Si3 0.320304 0.589232 0.877543
Si Si4 0.649285 0.304888 0.354218
Si Si5 0.374538 0.311990 0.314726
Si Si6 0.756537 0.858320 0.375389
Si Si7 0.879676 0.152029 0.631788
Si Si8 0.884803 0.585797 0.765445
O O1 0.194204 0.500000 0.514795
O O2 0.408849 0.639945 0.457587
O O3 0.866234 0.623739 0.600085
O O4 0.027068 0.587411 0.653958
O O5 0.693353 0.897504 0.331188
O O6 0.354591 0.891540 0.334877
O O7 0.165375 0.860119 0.501737
O O8 0.312920 0.000000 0.427264
O O9 0.362443 0.500000 0.844941
O O10 0.400609 0.647973 0.799763
O O11 0.554319 0.601875 0.856651
O O12 0.000000 0.597796 0.000000
O O13 0.516877 0.283224 0.331321
O O14 0.719218 0.231907 0.373290
O O15 0.936271 0.352865 0.254348
O O16 0.211411 0.240152 0.337225
O O17 0.500000 0.883777 0.500000
O O18 0.035597 0.873635 0.327556
O O19 0.916446 0.500000 0.779980
#
# Coordination Sequence:
#
# PCOD9144362 Si02
#       8
#     4   4   4   4   4   4   4   4
#     4  10  20  30  41  62  96 136 171 201 242 297
#     4  10  20  33  48  72 104 141 183 212 242 293
#     4   9  19  38  57  70  90 126 173 226 280 325
#     4  12  20  29  44  70 103 135 169 210 248 302
#     4  11  21  31  49  69  98 130 175 216 256 306
#     4  10  19  29  46  65  95 139 179 205 244 284
#     4  10  19  32  47  67  98 136 171 209 251 291
#     4   9  18  31  46  66  91 126 170 210 254 307
#
# _framework density 17.520029000000001
#
# number of rings (size 3 to 8) (size 9 to 14) (size 15 to 20)
#    0.000    1.875    1.250    6.750    1.750    6.250 
#    0.000    0.625    0.000    2.250    0.000    0.000 
#    0.000    2.000    0.000    3.750    0.000    0.250 
#
# Total GULP energy -178400.157703 kJ/mol
# GULP energy per Si atom -5575.004928 kJ/mol
# Density = 1.748015 g / cm^3
# Si number density = 17.520029 Si / 1000 Ang^3
#
#
#
# Elastic Constant Matrix: (Units=GPa)
#
#
# Indices 1 2 3 4 5 6 
#
# 1 130.3526 17.6239 10.7019 0.0000 -12.7059 0.0000
# 2 17.6239 58.3046 27.1616 0.0000 -3.4901 0.0000
# 3 10.7019 27.1616 48.2461 0.0000 -15.3433 0.0000
# 4 0.0000 0.0000 0.0000 7.2838 0.0000 1.6393
# 5 -12.7059 -3.4901 -15.3433 0.0000 16.2077 0.0000
# 6 0.0000 0.0000 0.0000 1.6393 0.0000 13.0124
#
#
#
# Elastic Compliance Matrix: (Units=1/GPa)
#
#
# Indices 1 2 3 4 5 6 
#
# 1 0.008758 -0.003408 0.002755 0.000000 0.008740 0.000000
# 2 -0.003408 0.025912 -0.018467 0.000000 -0.014573 0.000000
# 3 0.002755 -0.018467 0.042828 0.000000 0.038728 0.000000
# 4 0.000000 0.000000 0.000000 0.141296 0.000000 -0.017800
# 5 0.008740 -0.014573 0.038728 0.000000 0.102075 0.000000
# 6 0.000000 0.000000 0.000000 -0.017800 0.000000 0.079092
#
#
# Mechanical properties :
#
#
# Convention : Reuss Voigt Hill
#
# Bulk Modulus (GPa) = 25.47091 38.65312 32.06202
# Shear Modulus (GPa) = 11.07943 19.39517 15.23730
#
# Velocity S-wave (km/s) = 2.51746 3.33081 2.95228
# Velocity P-wave (km/s) = 4.79790 6.07475 5.47368
#
# Compressibility (1/GPa) = 0.03926047
#
# Stress axis : x y z
#
# Youngs Moduli (GPa) = 114.18175 38.59251 23.34896
#
# Poissons Ratio (x) = 0.13151 -0.06434
# Poissons Ratio (y) = 0.38910 0.43117
# Poissons Ratio (z) = -0.31462 0.71267
#
# Static dielectric constant tensor:
#      x y z
#    x 1.706290 0.000000 -0.007990 
#    y 0.000000 1.618360 0.000000 
#    z -0.007990 0.000000 1.554590 
# 
# From -- ./inp_files/36456.got.cif
#   From: 2010.05.17/outbox.cif.g08.bks.cpg/sg10_19_cif.got.tgz:36456.got - 2010.06.03 11:33:40.
