data_PCOD9144364
_publ_section_title
;
Structure prediction by ZEFSAII (Michael W. Deem and Ramdas Pophale) SiO2 
 PCOD9144364
Probable space group: P 2/M
;
_chemical_formula_sum "Si O2"
_cell_formula_units_Z 32
_cell_length_a 23.449461
_cell_length_b 7.377628
_cell_length_c 15.207648
_cell_angle_alpha 90.000000
_cell_angle_beta 149.220167
_cell_angle_gamma 90.000000
_cell_volume 1346.360790
_symmetry_space_group_name_H-M "P 2/M"
_symmetry_group_IT_number 10
_symmetry_cell_setting 'monoclinic'
loop_
_space_group_symop_operation_xyz
x,y,z
-x,y,-z
-x,-y,-z
x,-y,z
loop_
_atom_site_type_symbol
_atom_site_label
_atom_site_fract_x
_atom_site_fract_y
_atom_site_fract_z
Si Si1 0.179886 0.287778 0.201820
Si Si2 0.165003 0.779282 0.659062
Si Si3 0.584257 0.289760 0.540817
Si Si4 0.081286 0.779894 0.730561
Si Si5 0.022739 0.219249 0.836439
Si Si6 0.595192 0.220544 0.058993
Si Si7 0.453687 0.219317 0.709553
Si Si8 0.213108 0.797101 0.441761
O O1 0.196667 0.500000 0.244759
O O2 0.290587 0.214785 0.299873
O O3 0.174014 0.193469 0.287929
O O4 0.077183 0.272449 0.000379
O O5 0.160774 0.722693 0.756308
O O6 0.277667 0.718393 0.760658
O O7 0.045396 0.726611 0.462124
O O8 0.165994 0.000000 0.658058
O O9 0.500000 0.208439 0.500000
O O10 0.598799 0.500000 0.584986
O O11 0.538541 0.280297 0.380642
O O12 0.097129 0.721666 0.851967
O O13 0.084919 0.000000 0.734719
O O14 0.895535 0.286095 0.657422
O O15 0.016633 0.000000 0.827611
O O16 0.595774 0.000000 0.065217
O O17 0.500000 0.282919 0.000000
O O18 0.553212 0.269245 0.905814
O O19 0.336489 0.283505 0.597517
O O20 0.446564 0.000000 0.697331
O O21 0.227688 0.000000 0.498695
#
# Coordination Sequence:
#
# PCOD9144364 Si02
#       8
#     4   4   4   4   4   4   4   4
#     4  10  20  33  48  68  93 121 156 195 235 280
#     4   8  14  26  41  61  92 122 153 191 231 276
#     4   9  19  36  54  69  91 127 164 196 237 292
#     4   8  15  26  41  62  89 123 155 188 231 278
#     4  10  19  29  46  70  94 123 158 193 232 277
#     4   9  17  26  42  68  97 126 156 195 241 285
#     4   9  18  31  47  73 101 126 158 198 244 285
#     4   9  18  31  46  65  96 128 155 189 232 282
#
# _framework density 23.767776999999999
#
# number of rings (size 3 to 8) (size 9 to 14) (size 15 to 20)
#    0.000    3.000    0.000    1.500    1.750    3.750 
#    0.000    1.250    0.000    0.375    0.000    2.625 
#    0.000    0.000    0.000    0.000    0.000    0.000 
#
# Total GULP energy -178612.978656 kJ/mol
# GULP energy per Si atom -5581.655583 kJ/mol
# Density = 2.371368 g / cm^3
# Si number density = 23.767777 Si / 1000 Ang^3
#
#
#
# Elastic Constant Matrix: (Units=GPa)
#
#
# Indices 1 2 3 4 5 6 
#
# 1 105.7787 -3.0049 7.2743 0.0000 24.6017 0.0000
# 2 -3.0049 87.2622 -8.1146 0.0000 4.8793 0.0000
# 3 7.2743 -8.1146 59.9006 0.0000 10.5617 0.0000
# 4 0.0000 0.0000 0.0000 0.4013 0.0000 -18.8097
# 5 24.6017 4.8793 10.5617 0.0000 30.0958 0.0000
# 6 0.0000 0.0000 0.0000 -18.8097 0.0000 4.8322
#
#
#
# Elastic Compliance Matrix: (Units=1/GPa)
#
#
# Indices 1 2 3 4 5 6 
#
# 1 0.011762 0.001004 0.000460 0.000000 -0.009939 0.000000
# 2 0.001004 0.011885 0.002103 0.000000 -0.003485 0.000000
# 3 0.000460 0.002103 0.018174 0.000000 -0.007095 0.000000
# 4 0.000000 0.000000 0.000000 -0.013733 0.000000 -0.053457
# 5 -0.009939 -0.003485 -0.007095 0.000000 0.044407 0.000000
# 6 0.000000 0.000000 0.000000 -0.053457 0.000000 -0.001140
#
#
# Mechanical properties :
#
#
# Convention : Reuss Voigt Hill
#
# Bulk Modulus (GPa) = 20.42754 27.25012 23.83883
# Shear Modulus (GPa) = 62.08091 24.18496 43.13294
#
# Velocity S-wave (km/s) = 5.11630 3.19337 4.26463
# Velocity P-wave (km/s) = 6.59661 5.00868 5.85671
#
# Compressibility (1/GPa) = 0.04895351
#
# Stress axis : x y z
#
# Youngs Moduli (GPa) = 85.01831 84.14203 55.02282
#
# Poissons Ratio (x) = -0.08444 -0.02531
# Poissons Ratio (y) = -0.08532 -0.11569
# Poissons Ratio (z) = -0.03911 -0.17692
#
# Static dielectric constant tensor:
#      x y z
#    x 1.930470 0.000000 0.031410 
#    y 0.000000 1.969970 0.000000 
#    z 0.031410 0.000000 1.877600 
# 
# From -- ./inp_files/71595.got.cif
#   From: 2010.05.17/outbox.cif.g08.bks.cpg/sg10_36_cif.got.tgz:71595.got - 2010.06.03 11:33:40.
