data_PCOD9144890
_publ_section_title
;
Structure prediction by ZEFSAII (Michael W. Deem and Ramdas Pophale) SiO2 
 PCOD9144890
Probable space group: P 2/M
;
_chemical_formula_sum "Si O2"
_cell_formula_units_Z 32
_cell_length_a 21.239219
_cell_length_b 9.075217
_cell_length_c 9.622844
_cell_angle_alpha 90.000000
_cell_angle_beta 93.441458
_cell_angle_gamma 90.000000
_cell_volume 1851.463336
_symmetry_space_group_name_H-M "P 2/M"
_symmetry_group_IT_number 10
_symmetry_cell_setting 'monoclinic'
loop_
_space_group_symop_operation_xyz
x,y,z
-x,y,-z
-x,-y,-z
x,-y,z
loop_
_atom_site_type_symbol
_atom_site_label
_atom_site_fract_x
_atom_site_fract_y
_atom_site_fract_z
Si Si1 0.625055 0.321205 0.838577
Si Si2 0.437134 0.670798 0.894730
Si Si3 0.507528 0.176847 0.664275
Si Si4 0.840887 0.176495 0.528483
Si Si5 0.896099 0.822764 0.251879
Si Si6 0.959433 0.175777 0.738705
Si Si7 0.237680 0.676385 0.254911
Si Si8 0.119584 0.675585 0.044001
O O1 0.617685 0.500000 0.831777
O O2 0.570905 0.247864 0.737409
O O3 0.693603 0.280445 0.790350
O O4 0.615259 0.279825 0.000039
O O5 0.426416 0.500000 0.854845
O O6 0.452070 0.763065 0.758662
O O7 0.500000 0.675589 0.000000
O O8 0.500000 0.215821 0.500000
O O9 0.510363 0.000000 0.675054
O O10 0.851182 0.223659 0.371838
O O11 0.906496 0.211319 0.617178
O O12 0.784428 0.250383 0.604893
O O13 0.833567 0.000000 0.531695
O O14 0.969436 0.788676 0.295079
O O15 0.891947 0.000000 0.237457
O O16 0.879586 0.746202 0.106496
O O17 0.938054 0.259401 0.874201
O O18 0.956502 0.000000 0.763459
O O19 0.237163 0.500000 0.270955
O O20 0.183415 0.714706 0.136130
O O21 0.114653 0.500000 0.035830
#
# Coordination Sequence:
#
# PCOD9144890 Si02
#       8
#     4   4   4   4   4   4   4   4
#     4   9  18  34  55  74  93 125 168 203 230 273
#     4   8  15  29  50  74  97 124 161 198 228 266
#     4  10  20  32  48  76 111 135 152 186 237 283
#     4   9  18  32  50  71  95 124 160 201 242 287
#     4  10  19  31  48  70  95 123 157 199 245 292
#     4   9  17  31  50  69  91 123 161 198 241 293
#     4   9  19  36  53  69  93 126 163 200 238 281
#     4  10  20  32  47  69  97 125 155 198 247 289
#
# _framework density 17.283626999999999
#
# number of rings (size 3 to 8) (size 9 to 14) (size 15 to 20)
#    0.000    2.750    0.000    2.250    0.000    8.250 
#    0.000    1.250    0.000    8.250    0.000    0.000 
#    0.000    0.000    0.000    0.000    0.000    0.000 
#
# Total GULP energy -178358.354669 kJ/mol
# GULP energy per Si atom -5573.698583 kJ/mol
# Density = 1.724429 g / cm^3
# Si number density = 17.283627 Si / 1000 Ang^3
#
#
#
# Elastic Constant Matrix: (Units=GPa)
#
#
# Indices 1 2 3 4 5 6 
#
# 1 75.0204 21.4039 34.6940 0.0000 -34.4552 0.0000
# 2 21.4039 20.2715 35.6162 0.0000 -11.3974 0.0000
# 3 34.6940 35.6162 117.3677 0.0000 -37.0783 0.0000
# 4 0.0000 0.0000 0.0000 -4.2926 0.0000 -19.7299
# 5 -34.4552 -11.3974 -37.0783 0.0000 28.0348 0.0000
# 6 0.0000 0.0000 0.0000 -19.7299 0.0000 12.6284
#
#
#
# Elastic Compliance Matrix: (Units=1/GPa)
#
#
# Indices 1 2 3 4 5 6 
#
# 1 0.052853 -0.059577 0.026324 0.000000 0.075552 0.000000
# 2 -0.059577 0.172840 -0.061445 0.000000 -0.084221 0.000000
# 3 0.026324 -0.061445 0.037298 0.000000 0.056702 0.000000
# 4 0.000000 0.000000 0.000000 -0.028476 0.000000 -0.044489
# 5 0.075552 -0.084221 0.056702 0.000000 0.169278 0.000000
# 6 0.000000 0.000000 0.000000 -0.044489 0.000000 0.009679
#
#
# Mechanical properties :
#
#
# Convention : Reuss Voigt Hill
#
# Bulk Modulus (GPa) = 13.58806 44.00976 28.79891
# Shear Modulus (GPa) = 7.96938 15.33715 11.65326
#
# Velocity S-wave (km/s) = 2.14964 2.98212 2.59942
# Velocity P-wave (km/s) = 3.74702 6.11359 5.07031
#
# Compressibility (1/GPa) = 0.07359400
#
# Stress axis : x y z
#
# Youngs Moduli (GPa) = 18.92027 5.78570 26.81119
#
# Poissons Ratio (x) = 0.34470 -0.70577
# Poissons Ratio (y) = 1.12722 1.64742
# Poissons Ratio (z) = -0.49805 0.35550
#
# Static dielectric constant tensor:
#      x y z
#    x 1.591460 0.000000 -0.013360 
#    y 0.000000 1.576200 0.000000 
#    z -0.013360 0.000000 1.587680 
# 
# From -- ./inp_files/35689.got.cif
#   From: 2010.05.17/outbox.cif.g08.bks.cpg/sg10_18_cif.got.tgz:35689.got - 2010.06.03 11:33:40.
