data_PCOD9144169
_publ_section_title
;
Structure prediction by ZEFSAII (Michael W. Deem and Ramdas Pophale) SiO2 
 PCOD9144169
Probable space group: P 2/M
;
_chemical_formula_sum "Si O2"
_cell_formula_units_Z 30
_cell_length_a 12.477976
_cell_length_b 7.554343
_cell_length_c 32.009169
_cell_angle_alpha 90.000000
_cell_angle_beta 152.817839
_cell_angle_gamma 90.000000
_cell_volume 1378.355653
_symmetry_space_group_name_H-M "P 2/M"
_symmetry_group_IT_number 10
_symmetry_cell_setting 'monoclinic'
loop_
_space_group_symop_operation_xyz
x,y,z
-x,y,-z
-x,-y,-z
x,-y,z
loop_
_atom_site_type_symbol
_atom_site_label
_atom_site_fract_x
_atom_site_fract_y
_atom_site_fract_z
Si Si1 0.695198 0.796777 0.696525
Si Si2 0.172516 0.204628 0.348813
Si Si3 0.264286 0.500000 0.450420
Si Si4 0.160118 0.705843 0.018756
Si Si5 0.317778 0.716313 0.787594
Si Si6 0.697999 0.713623 0.315125
Si Si7 0.814868 0.789968 0.826350
Si Si8 0.815991 0.305048 0.490976
O O1 0.759288 0.723883 0.673436
O O2 0.810309 0.716311 0.777732
O O3 0.414121 0.791774 0.604650
O O4 0.772325 0.000000 0.721310
O O5 0.262376 0.345162 0.413586
O O6 0.892184 0.207670 0.258065
O O7 0.255055 0.000000 0.382230
O O8 0.229519 0.349036 0.475696
O O9 0.195306 0.500000 0.042668
O O10 0.011887 0.715197 0.925208
O O11 0.000000 0.786604 0.000000
O O12 0.424252 0.775096 0.108607
O O13 0.294142 0.500000 0.780803
O O14 0.288432 0.767983 0.728751
O O15 0.718594 0.500000 0.322312
O O16 0.443937 0.760184 0.244407
O O17 0.924761 0.777380 0.419753
O O18 0.852641 0.000000 0.837870
O O19 0.814905 0.500000 0.469793
#
# Coordination Sequence:
#
# PCOD9144169 Si02
#       8
#     4   4   2   4   4   4   4   4
#     4  10  25  43  56  81 122 166 211 247 298 366
#     4  11  22  39  64  90 126 168 202 255 314 359
#     4  10  20  41  60  93 124 153 209 260 297 369
#     4  10  20  37  64  91 119 152 195 250 308 366
#     4  10  18  37  62  91 124 151 193 260 311 363
#     4  10  18  37  59  86 121 152 197 245 310 366
#     4  11  24  40  57  84 124 162 201 254 300 365
#     4   9  20  37  61  87 116 157 192 255 306 352
#
# _framework density 21.765063999999999
#
# number of rings (size 3 to 8) (size 9 to 14) (size 15 to 20)
#    0.400    1.467    3.333    0.400    0.933    5.067 
#    0.000    4.667    0.000    4.000    0.000    0.000 
#    0.000    0.000    0.000    0.000    0.000    0.000 
#
# Total GULP energy -167018.016970 kJ/mol
# GULP energy per Si atom -5567.267232 kJ/mol
# Density = 2.171553 g / cm^3
# Si number density = 21.765064 Si / 1000 Ang^3
#
#
#
# Elastic Constant Matrix: (Units=GPa)
#
#
# Indices 1 2 3 4 5 6 
#
# 1 76.1231 2.4056 23.7813 0.0000 5.8819 0.0000
# 2 2.4056 69.9272 1.5619 0.0000 -1.1344 0.0000
# 3 23.7813 1.5619 109.2886 0.0000 17.4371 0.0000
# 4 0.0000 0.0000 0.0000 26.1749 0.0000 9.2226
# 5 5.8819 -1.1344 17.4371 0.0000 33.0233 0.0000
# 6 0.0000 0.0000 0.0000 9.2226 0.0000 23.0314
#
#
#
# Elastic Compliance Matrix: (Units=1/GPa)
#
#
# Indices 1 2 3 4 5 6 
#
# 1 0.014137 -0.000437 -0.002911 0.000000 -0.000996 0.000000
# 2 -0.000437 0.014332 -0.000219 0.000000 0.000686 0.000000
# 3 -0.002911 -0.000219 0.010598 0.000000 -0.005085 0.000000
# 4 0.000000 0.000000 0.000000 0.044480 0.000000 -0.017811
# 5 -0.000996 0.000686 -0.005085 0.000000 0.033168 0.000000
# 6 0.000000 0.000000 0.000000 -0.017811 0.000000 0.050551
#
#
# Mechanical properties :
#
#
# Convention : Reuss Voigt Hill
#
# Bulk Modulus (GPa) = 31.31720 34.53738 32.92729
# Shear Modulus (GPa) = 27.02053 31.61860 29.31957
#
# Velocity S-wave (km/s) = 3.52726 3.81559 3.67426
# Velocity P-wave (km/s) = 5.56855 5.94259 5.75861
#
# Compressibility (1/GPa) = 0.03193133
#
# Stress axis : x y z
#
# Youngs Moduli (GPa) = 70.73724 69.77561 94.35761
#
# Poissons Ratio (x) = 0.03052 0.27468
# Poissons Ratio (y) = 0.03094 0.02067
# Poissons Ratio (z) = 0.20592 0.01529
#
# Static dielectric constant tensor:
#      x y z
#    x 1.850180 0.000000 0.048450 
#    y 0.000000 1.863840 0.000000 
#    z 0.048450 0.000000 1.862920 
# 
# From -- ./inp_files/94888.got.cif
#   From: 2010.05.17/outbox.cif.g08.bks.cpg/sg10_48_cif.got.tgz:94888.got - 2010.06.03 11:33:40.
