data_PCOD9144141
_publ_section_title
;
Structure prediction by ZEFSAII (Michael W. Deem and Ramdas Pophale) SiO2 
 PCOD9144141
Probable space group: P 2/M
;
_chemical_formula_sum "Si O2"
_cell_formula_units_Z 24
_cell_length_a 15.282851
_cell_length_b 15.597043
_cell_length_c 9.856796
_cell_angle_alpha 90.000000
_cell_angle_beta 32.408720
_cell_angle_gamma 90.000000
_cell_volume 1259.247154
_symmetry_space_group_name_H-M "P 2/M"
_symmetry_group_IT_number 10
_symmetry_cell_setting 'monoclinic'
loop_
_space_group_symop_operation_xyz
x,y,z
-x,y,-z
-x,-y,-z
x,-y,z
loop_
_atom_site_type_symbol
_atom_site_label
_atom_site_fract_x
_atom_site_fract_y
_atom_site_fract_z
Si Si1 0.728041 0.191457 0.114259
Si Si2 0.366613 0.760899 0.479492
Si Si3 0.694137 0.169953 0.716807
Si Si4 0.808250 0.000000 0.713197
Si Si5 0.670971 0.000000 0.189316
Si Si6 0.494941 0.402307 0.842829
Si Si7 0.826256 0.306035 0.753622
O O1 0.728111 0.240980 0.255817
O O2 0.545849 0.201057 0.285835
O O3 0.754632 0.091393 0.110387
O O4 0.840546 0.236929 0.856803
O O5 0.287093 0.819486 0.468429
O O6 0.393584 0.668738 0.375146
O O7 0.767108 0.250156 0.702933
O O8 0.769995 0.084345 0.677533
O O9 0.500000 0.169860 0.000000
O O10 0.000000 0.000000 0.500000
O O11 0.685483 0.000000 0.004834
O O12 0.500000 0.000000 0.500000
O O13 0.534097 0.500000 0.755939
O O14 0.500000 0.394762 0.000000
O O15 0.313272 0.374972 0.035122
O O16 0.000000 0.346703 0.500000
#
# Coordination Sequence:
#
# PCOD9144141 Si02
#       7
#     4   4   4   2   2   4   4
#     4  10  21  34  57  85 123 152 194 252 303 345
#     4  10  18  36  57  87 115 144 199 244 301 353
#     4  12  20  37  61  87 114 154 212 247 282 361
#     4  12  27  40  60  90 126 163 208 259 306 347
#     4  12  20  34  56  85 114 159 200 244 303 346
#     4  10  19  36  63  90 115 147 196 255 299 357
#     4  11  21  38  59  85 123 160 197 242 301 366
#
# _framework density 19.059007000000001
#
# number of rings (size 3 to 8) (size 9 to 14) (size 15 to 20)
#    0.000    1.167    8.333    0.750    0.000    1.667 
#    0.000    7.500    0.000    1.000    0.000    2.333 
#    0.000    0.000    0.000    0.000    0.000    0.000 
#
# Total GULP energy -133909.425078 kJ/mol
# GULP energy per Si atom -5579.559378 kJ/mol
# Density = 1.901563 g / cm^3
# Si number density = 19.059007 Si / 1000 Ang^3
#
#
#
# Elastic Constant Matrix: (Units=GPa)
#
#
# Indices 1 2 3 4 5 6 
#
# 1 82.0676 31.4387 37.4307 0.0000 22.2158 0.0000
# 2 31.4387 108.3530 9.9010 0.0000 8.8760 0.0000
# 3 37.4307 9.9010 54.9229 0.0000 17.4652 0.0000
# 4 0.0000 0.0000 0.0000 13.3528 0.0000 7.3030
# 5 22.2158 8.8760 17.4652 0.0000 35.1368 0.0000
# 6 0.0000 0.0000 0.0000 7.3030 0.0000 19.5702
#
#
#
# Elastic Compliance Matrix: (Units=1/GPa)
#
#
# Indices 1 2 3 4 5 6 
#
# 1 0.020799 -0.004476 -0.011338 0.000000 -0.006384 0.000000
# 2 -0.004476 0.010446 0.001314 0.000000 -0.000462 0.000000
# 3 -0.011338 0.001314 0.027940 0.000000 -0.007051 0.000000
# 4 0.000000 0.000000 0.000000 0.094096 0.000000 -0.035114
# 5 -0.006384 -0.000462 -0.007051 0.000000 0.036118 0.000000
# 6 0.000000 0.000000 0.000000 -0.035114 0.000000 0.064202
#
#
# Mechanical properties :
#
#
# Convention : Reuss Voigt Hill
#
# Bulk Modulus (GPa) = 33.12872 44.76494 38.94683
# Shear Modulus (GPa) = 17.08465 24.71682 20.90074
#
# Velocity S-wave (km/s) = 2.99726 3.60510 3.31514
# Velocity P-wave (km/s) = 5.42199 6.39277 5.92729
#
# Compressibility (1/GPa) = 0.03018529
#
# Stress axis : x y z
#
# Youngs Moduli (GPa) = 48.07907 95.73481 35.79155
#
# Poissons Ratio (x) = 0.42850 0.40580
# Poissons Ratio (y) = 0.21520 -0.04704
# Poissons Ratio (z) = 0.54511 -0.12582
#
# Static dielectric constant tensor:
#      x y z
#    x 1.670350 0.000000 0.001950 
#    y 0.000000 1.654510 0.000000 
#    z 0.001950 0.000000 1.705010 
# 
# From -- ./inp_files/29350.got.cif
#   From: 2010.05.17/outbox.cif.g08.bks.cpg/sg10_15_cif.got.tgz:29350.got - 2010.06.03 11:33:40.
