data_PCOD9144218
_publ_section_title
;
Structure prediction by ZEFSAII (Michael W. Deem and Ramdas Pophale) SiO2 
 PCOD9144218
Probable space group: P 2/M
;
_chemical_formula_sum "Si O2"
_cell_formula_units_Z 32
_cell_length_a 17.209291
_cell_length_b 7.989071
_cell_length_c 25.210328
_cell_angle_alpha 90.000000
_cell_angle_beta 152.064508
_cell_angle_gamma 90.000000
_cell_volume 1623.776275
_symmetry_space_group_name_H-M "P 2/M"
_symmetry_group_IT_number 10
_symmetry_cell_setting 'monoclinic'
loop_
_space_group_symop_operation_xyz
x,y,z
-x,y,-z
-x,-y,-z
x,-y,z
loop_
_atom_site_type_symbol
_atom_site_label
_atom_site_fract_x
_atom_site_fract_y
_atom_site_fract_z
Si Si1 0.168439 0.198613 0.074100
Si Si2 0.518426 0.296937 0.315925
Si Si3 0.614665 0.299151 0.255512
Si Si4 0.741461 0.697598 0.988901
Si Si5 0.828837 0.699795 0.564354
Si Si6 0.035610 0.689725 0.785353
Si Si7 0.312132 0.194961 0.879377
Si Si8 0.107686 0.191597 0.651472
O O1 0.331376 0.233861 0.207345
O O2 0.202679 0.282745 0.038083
O O3 0.154814 0.000000 0.056898
O O4 0.000000 0.258317 0.000000
O O5 0.515474 0.500000 0.314375
O O6 0.587843 0.243274 0.299962
O O7 0.648467 0.238546 0.438417
O O8 0.602798 0.500000 0.247702
O O9 0.449128 0.235709 0.124057
O O10 0.795471 0.256417 0.341632
O O11 0.732507 0.500000 0.996686
O O12 0.883832 0.770204 0.113429
O O13 0.821498 0.500000 0.567094
O O14 0.902093 0.769753 0.664037
O O15 0.952628 0.727410 0.588823
O O16 0.980196 0.500000 0.764892
O O17 0.194990 0.689084 0.843103
O O18 0.251901 0.203055 0.782929
O O19 0.291663 0.000000 0.884098
O O20 0.500000 0.243390 0.000000
O O21 0.061783 0.000000 0.614653
#
# Coordination Sequence:
#
# PCOD9144218 Si02
#       8
#     4   4   4   4   4   4   4   4
#     4  10  21  36  56  82 105 123 148 187 237 292
#     4   9  19  35  54  74  96 127 164 199 241 292
#     4   9  17  29  44  64  92 125 164 209 252 290
#     4   9  18  32  51  76 102 128 160 198 243 292
#     4   9  18  33  50  68  95 132 170 206 243 280
#     4   9  17  29  47  70  94 123 162 203 238 280
#     4   9  17  27  38  56  86 124 165 207 248 286
#     4  10  19  28  40  62  92 128 171 212 248 286
#
# _framework density 19.707148
#
# number of rings (size 3 to 8) (size 9 to 14) (size 15 to 20)
#    0.000    2.750    0.000    2.250    0.000    5.250 
#    0.000    2.500    0.000    0.750    0.000    5.250 
#    0.000    0.000    0.000    0.000    0.000    0.000 
#
# Total GULP energy -178207.309888 kJ/mol
# GULP energy per Si atom -5568.978434 kJ/mol
# Density = 1.966229 g / cm^3
# Si number density = 19.707148 Si / 1000 Ang^3
#
#
#
# Elastic Constant Matrix: (Units=GPa)
#
#
# Indices 1 2 3 4 5 6 
#
# 1 27.9405 -5.5727 24.8326 0.0000 2.9415 0.0000
# 2 -5.5727 10.7468 1.6303 0.0000 -5.9448 0.0000
# 3 24.8326 1.6303 136.2644 0.0000 -9.2905 0.0000
# 4 0.0000 0.0000 0.0000 13.2142 0.0000 7.4743
# 5 2.9415 -5.9448 -9.2905 0.0000 21.6873 0.0000
# 6 0.0000 0.0000 0.0000 7.4743 0.0000 16.6227
#
#
#
# Elastic Compliance Matrix: (Units=1/GPa)
#
#
# Indices 1 2 3 4 5 6 
#
# 1 0.049784 0.025057 -0.009646 0.000000 -0.004016 0.000000
# 2 0.025057 0.122370 -0.004095 0.000000 0.028391 0.000000
# 3 -0.009646 -0.004095 0.009434 0.000000 0.004227 0.000000
# 4 0.000000 0.000000 0.000000 0.101487 0.000000 -0.045633
# 5 -0.004016 0.028391 0.004227 0.000000 0.056248 0.000000
# 6 0.000000 0.000000 0.000000 -0.045633 0.000000 0.080677
#
#
# Mechanical properties :
#
#
# Convention : Reuss Voigt Hill
#
# Bulk Modulus (GPa) = 4.89669 24.08135 14.48902
# Shear Modulus (GPa) = 10.74251 20.57561 15.65906
#
# Velocity S-wave (km/s) = 2.33729 3.23471 2.82190
# Velocity P-wave (km/s) = 3.12634 5.11833 4.24095
#
# Compressibility (1/GPa) = 0.20421973
#
# Stress axis : x y z
#
# Youngs Moduli (GPa) = 20.08681 8.17194 106.00212
#
# Poissons Ratio (x) = -0.20476 1.02251
# Poissons Ratio (y) = -0.50331 0.43405
# Poissons Ratio (z) = 0.19376 0.03346
#
# Static dielectric constant tensor:
#      x y z
#    x 1.691580 0.000000 -0.046820 
#    y 0.000000 1.714070 0.000000 
#    z -0.046820 0.000000 1.764670 
# 
# From -- ./inp_files/89588.got.cif
#   From: 2010.05.17/outbox.cif.g08.bks.cpg/sg10_45_cif.got.tgz:89588.got - 2010.06.03 11:33:40.
