data_PCOD9144220
_publ_section_title
;
Structure prediction by ZEFSAII (Michael W. Deem and Ramdas Pophale) SiO2 
 PCOD9144220
Probable space group: P 2/M
;
_chemical_formula_sum "Si O2"
_cell_formula_units_Z 32
_cell_length_a 16.637037
_cell_length_b 9.450684
_cell_length_c 13.935108
_cell_angle_alpha 90.000000
_cell_angle_beta 88.072906
_cell_angle_gamma 90.000000
_cell_volume 2189.797059
_symmetry_space_group_name_H-M "P 2/M"
_symmetry_group_IT_number 10
_symmetry_cell_setting 'monoclinic'
loop_
_space_group_symop_operation_xyz
x,y,z
-x,y,-z
-x,-y,-z
x,-y,z
loop_
_atom_site_type_symbol
_atom_site_label
_atom_site_fract_x
_atom_site_fract_y
_atom_site_fract_z
Si Si1 0.711352 0.331959 0.802918
Si Si2 0.088894 0.661216 0.545050
Si Si3 0.387411 0.834860 0.921566
Si Si4 0.235135 0.668411 0.979964
Si Si5 0.857797 0.670576 0.660573
Si Si6 0.980999 0.832670 0.286663
Si Si7 0.440629 0.835711 0.143589
Si Si8 0.075597 0.833048 0.929079
O O1 0.698226 0.500000 0.797113
O O2 0.747891 0.303424 0.907539
O O3 0.777577 0.291418 0.721428
O O4 0.626291 0.253409 0.798804
O O5 0.106020 0.500000 0.575418
O O6 0.145407 0.701068 0.453305
O O7 0.000000 0.660269 0.500000
O O8 0.081117 0.765907 0.634330
O O9 0.466176 0.788800 0.858565
O O10 0.370091 0.000000 0.900711
O O11 0.308877 0.738791 0.918908
O O12 0.414688 0.829712 0.032300
O O13 0.233316 0.500000 0.966556
O O14 0.152135 0.740226 0.953323
O O15 0.870808 0.500000 0.669202
O O16 0.934417 0.752239 0.700765
O O17 0.950310 0.812080 0.179951
O O18 0.991311 0.000000 0.303651
O O19 0.437706 0.000000 0.172260
O O20 0.094434 0.000000 0.942120
O O21 0.000000 0.798654 0.000000
#
# Coordination Sequence:
#
# PCOD9144220 Si02
#       8
#     4   4   4   4   4   4   4   4
#     4   9  17  27  39  59  86 110 134 167 202 236
#     4   8  15  28  44  59  77 104 133 161 200 249
#     4   8  14  26  41  55  77 108 138 167 198 237
#     4  10  19  28  41  61  81 106 141 176 205 231
#     4   9  17  29  43  59  82 111 136 159 200 252
#     4  10  19  29  43  61  78 101 137 177 208 233
#     4   8  14  24  39  58  78 106 139 164 195 239
#     4  10  21  34  44  56  79 111 142 170 204 243
#
# _framework density 14.613225999999999
#
# number of rings (size 3 to 8) (size 9 to 14) (size 15 to 20)
#    0.000    3.000    0.000    3.000    0.000    5.000 
#    0.000    2.500    0.000    0.000    0.000    0.000 
#    0.000    1.000    0.000   11.250    0.000    5.500 
#
# Total GULP energy -178155.428237 kJ/mol
# GULP energy per Si atom -5567.357132 kJ/mol
# Density = 1.457997 g / cm^3
# Si number density = 14.613226 Si / 1000 Ang^3
#
#
#
# Elastic Constant Matrix: (Units=GPa)
#
#
# Indices 1 2 3 4 5 6 
#
# 1 131.1279 68.5514 52.3039 0.0000 -26.5201 0.0000
# 2 68.5514 62.1875 45.1613 0.0000 -11.2176 0.0000
# 3 52.3039 45.1613 60.4716 0.0000 -20.4352 0.0000
# 4 0.0000 0.0000 0.0000 17.0482 0.0000 -3.0022
# 5 -26.5201 -11.2176 -20.4352 0.0000 22.2095 0.0000
# 6 0.0000 0.0000 0.0000 -3.0022 0.0000 25.3241
#
#
#
# Elastic Compliance Matrix: (Units=1/GPa)
#
#
# Indices 1 2 3 4 5 6 
#
# 1 0.022833 -0.026530 0.006893 0.000000 0.020207 0.000000
# 2 -0.026530 0.067333 -0.038533 0.000000 -0.033125 0.000000
# 3 0.006893 -0.038533 0.051601 0.000000 0.036246 0.000000
# 4 0.000000 0.000000 0.000000 0.059908 0.000000 0.007102
# 5 0.020207 -0.033125 0.036246 0.000000 0.085774 0.000000
# 6 0.000000 0.000000 0.000000 0.007102 0.000000 0.040330
#
#
# Mechanical properties :
#
#
# Convention : Reuss Voigt Hill
#
# Bulk Modulus (GPa) = 39.32916 65.09113 52.21015
# Shear Modulus (GPa) = 11.04740 18.76773 14.90757
#
# Velocity S-wave (km/s) = 2.75250 3.58760 3.19743
# Velocity P-wave (km/s) = 6.08880 7.86133 7.03114
#
# Compressibility (1/GPa) = 0.02542643
#
# Stress axis : x y z
#
# Youngs Moduli (GPa) = 43.79608 14.85153 19.37958
#
# Poissons Ratio (x) = 0.39401 -0.13358
# Poissons Ratio (y) = 1.16192 0.74675
# Poissons Ratio (z) = -0.30187 0.57227
#
# Static dielectric constant tensor:
#      x y z
#    x 1.483200 0.000000 -0.024330 
#    y 0.000000 1.487780 0.000000 
#    z -0.024330 0.000000 1.476450 
# 
# From -- ./inp_files/66206.got.cif
#   From: 2010.05.17/outbox.cif.g08.bks.cpg/sg10_34_cif.got.tgz:66206.got - 2010.06.03 11:33:40.
