data_PCOD9144718
_publ_section_title
;
Structure prediction by ZEFSAII (Michael W. Deem and Ramdas Pophale) SiO2 
 PCOD9144718
Probable space group: P 2/M
;
_chemical_formula_sum "Si O2"
_cell_formula_units_Z 32
_cell_length_a 11.998094
_cell_length_b 12.948067
_cell_length_c 21.106280
_cell_angle_alpha 90.000000
_cell_angle_beta 29.741733
_cell_angle_gamma 90.000000
_cell_volume 1626.636235
_symmetry_space_group_name_H-M "P 2/M"
_symmetry_group_IT_number 10
_symmetry_cell_setting 'monoclinic'
loop_
_space_group_symop_operation_xyz
x,y,z
-x,y,-z
-x,-y,-z
x,-y,z
loop_
_atom_site_type_symbol
_atom_site_label
_atom_site_fract_x
_atom_site_fract_y
_atom_site_fract_z
Si Si1 0.269979 0.817045 0.084034
Si Si2 0.133867 0.326987 0.868316
Si Si3 0.104757 0.874166 0.295160
Si Si4 0.704218 0.615546 0.007471
Si Si5 0.692916 0.116718 0.196994
Si Si6 0.406763 0.117362 0.890973
Si Si7 0.432029 0.383148 0.274335
Si Si8 0.805354 0.183912 0.552517
O O1 0.100749 0.835603 0.224535
O O2 0.317076 0.701038 0.036444
O O3 0.500000 0.861592 0.000000
O O4 0.241079 0.874234 0.031852
O O5 0.191730 0.208643 0.821743
O O6 0.370460 0.378559 0.770077
O O7 0.963009 0.376096 0.902928
O O8 0.000000 0.334089 0.000000
O O9 0.348024 0.845292 0.206682
O O10 0.918094 0.816003 0.428250
O O11 0.082744 0.000000 0.308092
O O12 0.654075 0.500000 0.010865
O O13 0.547795 0.635733 0.147503
O O14 0.706176 0.156981 0.117282
O O15 0.425093 0.120946 0.339199
O O16 0.779353 0.000000 0.161988
O O17 0.449697 0.000000 0.852646
O O18 0.339204 0.500000 0.318499
O O19 0.264264 0.292153 0.379274
O O20 0.000000 0.134549 0.500000
#
# Coordination Sequence:
#
# PCOD9144718 Si02
#       8
#     4   4   4   4   4   4   4   4
#     4  10  20  33  52  75 106 136 177 223 262 314
#     4   9  17  31  53  78 107 134 169 213 270 331
#     4  10  20  32  49  74 106 146 181 210 252 312
#     4  10  20  36  58  79 103 137 176 222 277 327
#     4  10  19  30  49  80 112 140 173 217 267 318
#     4   9  16  29  49  73 103 139 173 213 261 312
#     4   9  19  34  54  80 107 137 176 226 276 317
#     4  11  20  31  52  75 110 147 181 216 255 315
#
# _framework density 19.672499999999999
#
# number of rings (size 3 to 8) (size 9 to 14) (size 15 to 20)
#    0.000    2.250    1.250    3.375    1.750    4.250 
#    0.000    1.875    0.000    3.000    0.000    8.750 
#    0.000    0.000    0.000    0.000    0.000    0.000 
#
# Total GULP energy -178267.597597 kJ/mol
# GULP energy per Si atom -5570.862425 kJ/mol
# Density = 1.962772 g / cm^3
# Si number density = 19.672500 Si / 1000 Ang^3
#
#
#
# Elastic Constant Matrix: (Units=GPa)
#
#
# Indices 1 2 3 4 5 6 
#
# 1 38.1727 0.3341 20.9075 0.0000 2.9745 0.0000
# 2 0.3341 114.9758 20.8680 0.0000 8.6702 0.0000
# 3 20.9075 20.8680 103.9536 0.0000 22.3726 0.0000
# 4 0.0000 0.0000 0.0000 22.1556 0.0000 0.7708
# 5 2.9745 8.6702 22.3726 0.0000 28.5704 0.0000
# 6 0.0000 0.0000 0.0000 0.7708 0.0000 10.0719
#
#
#
# Elastic Compliance Matrix: (Units=1/GPa)
#
#
# Indices 1 2 3 4 5 6 
#
# 1 0.029628 0.000968 -0.006526 0.000000 0.001732 0.000000
# 2 0.000968 0.009118 -0.001693 0.000000 -0.001542 0.000000
# 3 -0.006526 -0.001693 0.013248 0.000000 -0.009181 0.000000
# 4 0.000000 0.000000 0.000000 0.045256 0.000000 -0.003464
# 5 0.001732 -0.001542 -0.009181 0.000000 0.042478 0.000000
# 6 0.000000 0.000000 0.000000 -0.003464 0.000000 0.099551
#
#
# Mechanical properties :
#
#
# Convention : Reuss Voigt Hill
#
# Bulk Modulus (GPa) = 26.67294 37.92460 32.29877
# Shear Modulus (GPa) = 18.77735 26.49241 22.63488
#
# Velocity S-wave (km/s) = 3.09285 3.67368 3.39571
# Velocity P-wave (km/s) = 5.13246 6.10855 5.64166
#
# Compressibility (1/GPa) = 0.03749118
#
# Stress axis : x y z
#
# Youngs Moduli (GPa) = 33.75237 109.67005 75.48349
#
# Poissons Ratio (x) = -0.10613 0.49259
# Poissons Ratio (y) = -0.03266 0.12781
# Poissons Ratio (z) = 0.22026 0.18569
#
# Static dielectric constant tensor:
#      x y z
#    x 1.732580 0.000000 -0.002300 
#    y 0.000000 1.758090 0.000000 
#    z -0.002300 0.000000 1.749080 
# 
# From -- ./inp_files/77015.got.cif
#   From: 2010.05.17/outbox.cif.g08.bks.cpg/sg10_39_cif.got.tgz:77015.got - 2010.06.03 11:33:40.
