data_PCOD9144462
_publ_section_title
;
Structure prediction by ZEFSAII (Michael W. Deem and Ramdas Pophale) SiO2 
 PCOD9144462
Probable space group: P 2/M
;
_chemical_formula_sum "Si O2"
_cell_formula_units_Z 32
_cell_length_a 15.538828
_cell_length_b 7.635565
_cell_length_c 14.565030
_cell_angle_alpha 90.000000
_cell_angle_beta 90.618819
_cell_angle_gamma 90.000000
_cell_volume 1728.006974
_symmetry_space_group_name_H-M "P 2/M"
_symmetry_group_IT_number 10
_symmetry_cell_setting 'monoclinic'
loop_
_space_group_symop_operation_xyz
x,y,z
-x,y,-z
-x,-y,-z
x,-y,z
loop_
_atom_site_type_symbol
_atom_site_label
_atom_site_fract_x
_atom_site_fract_y
_atom_site_fract_z
Si Si1 0.663400 0.204456 0.788623
Si Si2 0.756135 0.204569 0.619339
Si Si3 0.404814 0.205456 0.022238
Si Si4 0.515378 0.286724 0.304912
Si Si5 0.331770 0.708713 0.829940
Si Si6 0.622498 0.301534 0.468828
Si Si7 0.096801 0.786163 0.516495
Si Si8 0.227960 0.207244 0.665087
O O1 0.733138 0.282221 0.718504
O O2 0.641399 0.282101 0.888161
O O3 0.574006 0.216529 0.732293
O O4 0.686416 0.000000 0.802189
O O5 0.670925 0.214313 0.554125
O O6 0.835367 0.276552 0.560285
O O7 0.775080 0.000000 0.633042
O O8 0.419236 0.000000 0.043449
O O9 0.500000 0.280332 0.000000
O O10 0.346278 0.220377 0.931571
O O11 0.513451 0.500000 0.305692
O O12 0.588040 0.230087 0.232426
O O13 0.543211 0.229499 0.407718
O O14 0.336101 0.500000 0.835360
O O15 0.246687 0.758215 0.771731
O O16 0.602966 0.500000 0.497109
O O17 0.697269 0.302970 0.391374
O O18 0.138828 0.741378 0.615667
O O19 0.000000 0.724270 0.500000
O O20 0.095334 0.000000 0.512206
O O21 0.240019 0.000000 0.648481
#
# Coordination Sequence:
#
# PCOD9144462 Si02
#       8
#     4   4   4   4   4   4   4   4
#     4  10  20  31  43  61  86 115 152 192 227 262
#     4   9  18  31  45  64  89 117 146 181 223 267
#     4  10  19  31  46  64  85 117 159 199 233 265
#     4   9  18  29  41  59  83 116 153 186 222 259
#     4  10  19  30  45  65  91 121 154 194 231 263
#     4   9  17  29  43  61  87 119 153 186 218 258
#     4   8  14  27  49  74  95 115 141 174 218 273
#     4   9  16  27  46  70  94 119 147 182 224 270
#
# _framework density 18.518443999999999
#
# number of rings (size 3 to 8) (size 9 to 14) (size 15 to 20)
#    0.000    2.750    1.250    2.625    0.000    4.250 
#    0.000    2.500    0.000    9.375    0.000    0.875 
#    0.000    7.000    0.000    0.000    0.000    0.000 
#
# Total GULP energy -178325.997720 kJ/mol
# GULP energy per Si atom -5572.687429 kJ/mol
# Density = 1.847630 g / cm^3
# Si number density = 18.518444 Si / 1000 Ang^3
#
#
#
# Elastic Constant Matrix: (Units=GPa)
#
#
# Indices 1 2 3 4 5 6 
#
# 1 76.5349 -1.6004 61.2319 0.0000 5.3345 0.0000
# 2 -1.6004 39.1762 -5.5862 0.0000 -4.6686 0.0000
# 3 61.2319 -5.5862 150.8984 0.0000 -7.8260 0.0000
# 4 0.0000 0.0000 0.0000 21.5224 0.0000 17.6245
# 5 5.3345 -4.6686 -7.8260 0.0000 21.2348 0.0000
# 6 0.0000 0.0000 0.0000 17.6245 0.0000 15.8961
#
#
#
# Elastic Compliance Matrix: (Units=1/GPa)
#
#
# Indices 1 2 3 4 5 6 
#
# 1 0.020825 -0.001484 -0.008965 0.000000 -0.008862 0.000000
# 2 -0.001484 0.026568 0.001945 0.000000 0.006931 0.000000
# 3 -0.008965 0.001945 0.010680 0.000000 0.006616 0.000000
# 4 0.000000 0.000000 0.000000 0.504671 0.000000 -0.559545
# 5 -0.008862 0.006931 0.006616 0.000000 0.053281 0.000000
# 6 0.000000 0.000000 0.000000 -0.559545 0.000000 0.683295
#
#
# Mechanical properties :
#
#
# Convention : Reuss Voigt Hill
#
# Bulk Modulus (GPa) = 24.35093 41.63333 32.99213
# Shear Modulus (GPa) = 3.75936 25.90161 14.83048
#
# Velocity S-wave (km/s) = 1.42635 3.74397 2.83300
# Velocity P-wave (km/s) = 3.98632 6.42033 5.34375
#
# Compressibility (1/GPa) = 0.04106620
#
# Stress axis : x y z
#
# Youngs Moduli (GPa) = 48.01930 37.63877 93.63391
#
# Poissons Ratio (x) = 0.05584 0.83942
# Poissons Ratio (y) = 0.07124 -0.18212
# Poissons Ratio (z) = 0.43049 -0.07321
#
# Static dielectric constant tensor:
#      x y z
#    x 1.645600 0.000000 -0.020600 
#    y 0.000000 1.690180 0.000000 
#    z -0.020600 0.000000 1.686020 
# 
# From -- ./inp_files/66169.got.cif
#   From: 2010.05.17/outbox.cif.g08.bks.cpg/sg10_34_cif.got.tgz:66169.got - 2010.06.03 11:33:40.
