data_PCOD9144463
_publ_section_title
;
Structure prediction by ZEFSAII (Michael W. Deem and Ramdas Pophale) SiO2 
 PCOD9144463
Probable space group: P 2/M
;
_chemical_formula_sum "Si O2"
_cell_formula_units_Z 28
_cell_length_a 15.530646
_cell_length_b 14.492444
_cell_length_c 15.530646
_cell_angle_alpha 90.000000
_cell_angle_beta 30.593512
_cell_angle_gamma 90.000000
_cell_volume 1779.060117
_symmetry_space_group_name_H-M "P 2/M"
_symmetry_group_IT_number 10
_symmetry_cell_setting 'monoclinic'
loop_
_space_group_symop_operation_xyz
x,y,z
-x,y,-z
-x,-y,-z
x,-y,z
loop_
_atom_site_type_symbol
_atom_site_label
_atom_site_fract_x
_atom_site_fract_y
_atom_site_fract_z
Si Si1 0.484241 0.388144 0.611429
Si Si2 0.111429 0.388145 0.984240
Si Si3 0.296681 0.607203 0.415495
Si Si4 0.263830 0.776835 0.128868
Si Si5 0.945694 0.106101 0.445694
Si Si6 0.628869 0.776833 0.763830
Si Si7 0.915496 0.607203 0.796680
O O1 0.500000 0.354196 0.500000
O O2 0.484185 0.500000 0.606511
O O3 0.304611 0.359063 0.804611
O O4 0.629758 0.365175 0.554161
O O5 0.106513 0.500000 0.984181
O O6 0.054159 0.365176 0.129759
O O7 0.000000 0.354196 0.000000
O O8 0.344440 0.500000 0.359028
O O9 0.366239 0.677368 0.285513
O O10 0.093981 0.612677 0.593980
O O11 0.308517 0.768636 0.191483
O O12 0.214485 0.677369 0.133762
O O13 0.097415 0.840977 0.266397
O O14 0.435238 0.811642 0.935237
O O15 0.766399 0.159026 0.597413
O O16 0.000000 0.105818 0.500000
O O17 0.930848 0.000000 0.430854
O O18 0.859028 0.500000 0.844440
#
# Coordination Sequence:
#
# PCOD9144463 Si02
#       7
#     4   4   4   4   4   4   4
#     4   9  16  26  40  59  85 119 158 196 234 272
#     4   9  16  26  40  59  85 119 158 196 234 272
#     4  10  19  30  45  65  93 131 166 196 232 273
#     4  10  20  33  49  70  96 126 159 196 236 280
#     4   9  18  34  53  71  93 119 150 194 247 293
#     4  10  20  33  49  70  96 126 159 196 236 280
#     4  10  19  30  45  65  93 131 166 196 232 273
#
# _framework density 15.738647
#
# number of rings (size 3 to 8) (size 9 to 14) (size 15 to 20)
#    0.000    2.429    1.429    1.714    0.000    6.286 
#    0.000    5.714    0.000    0.000    0.000    0.000 
#    0.000    1.143    0.571    0.000    0.000    0.000 
#
# Total GULP energy -155944.611561 kJ/mol
# GULP energy per Si atom -5569.450413 kJ/mol
# Density = 1.570283 g / cm^3
# Si number density = 15.738647 Si / 1000 Ang^3
#
#
#
# Elastic Constant Matrix: (Units=GPa)
#
#
# Indices 1 2 3 4 5 6 
#
# 1 28.9430 22.1907 23.8577 0.0000 -12.8103 0.0000
# 2 22.1907 67.5391 42.8809 0.0000 -5.9731 0.0000
# 3 23.8577 42.8809 106.3723 0.0000 -9.5426 0.0000
# 4 0.0000 0.0000 0.0000 9.2289 0.0000 -2.9377
# 5 -12.8103 -5.9731 -9.5426 0.0000 23.7864 0.0000
# 6 0.0000 0.0000 0.0000 -2.9377 0.0000 -0.9494
#
#
#
# Elastic Compliance Matrix: (Units=1/GPa)
#
#
# Indices 1 2 3 4 5 6 
#
# 1 0.062710 -0.014512 -0.005718 0.000000 0.027835 0.000000
# 2 -0.014512 0.023336 -0.006564 0.000000 -0.004589 0.000000
# 3 -0.005718 -0.006564 0.013387 0.000000 0.000643 0.000000
# 4 0.000000 0.000000 0.000000 0.054587 0.000000 -0.168912
# 5 0.027835 -0.004589 0.000643 0.000000 0.056137 0.000000
# 6 0.000000 0.000000 0.000000 -0.168912 0.000000 -0.530636
#
#
# Mechanical properties :
#
#
# Convention : Reuss Voigt Hill
#
# Bulk Modulus (GPa) = 21.81241 42.30145 32.05693
# Shear Modulus (GPa) = -19.87217 14.00818 -2.93200
#
# Velocity S-wave (km/s) = -3.55721 2.98661 -1.36637
# Velocity P-wave (km/s) = 1.72698 6.23128 4.23358
#
# Compressibility (1/GPa) = 0.04584547
#
# Stress axis : x y z
#
# Youngs Moduli (GPa) = 15.94637 42.85205 74.69857
#
# Poissons Ratio (x) = 0.62188 0.42710
# Poissons Ratio (y) = 0.23142 0.49033
# Poissons Ratio (z) = 0.09118 0.28128
#
# Static dielectric constant tensor:
#      x y z
#    x 1.523360 0.000000 -0.011360 
#    y 0.000000 1.503430 0.000000 
#    z -0.011360 0.000000 1.562720 
# 
# From -- ./inp_files/28331.got.cif
#   From: 2010.05.17/outbox.cif.g08.bks.cpg/sg10_15_cif.got.tgz:28331.got - 2010.06.03 11:33:40.
