data_PCOD9144879
_publ_section_title
;
Structure prediction by ZEFSAII (Michael W. Deem and Ramdas Pophale) SiO2 
 PCOD9144879
Probable space group: P 2/M
;
_chemical_formula_sum "Si O2"
_cell_formula_units_Z 28
_cell_length_a 16.865358
_cell_length_b 7.875045
_cell_length_c 18.582166
_cell_angle_alpha 90.000000
_cell_angle_beta 25.322910
_cell_angle_gamma 90.000000
_cell_volume 1055.610795
_symmetry_space_group_name_H-M "P 2/M"
_symmetry_group_IT_number 10
_symmetry_cell_setting 'monoclinic'
loop_
_space_group_symop_operation_xyz
x,y,z
-x,y,-z
-x,-y,-z
x,-y,z
loop_
_atom_site_type_symbol
_atom_site_label
_atom_site_fract_x
_atom_site_fract_y
_atom_site_fract_z
Si Si1 0.857178 0.700564 0.485320
Si Si2 0.905367 0.794931 0.850001
Si Si3 0.794575 0.202826 0.160441
Si Si4 0.737709 0.795422 0.361770
Si Si5 0.513668 0.303813 0.685937
Si Si6 0.542985 0.802647 0.081002
Si Si7 0.219725 0.297722 0.253344
O O1 0.830153 0.500000 0.520433
O O2 0.655660 0.775425 0.628439
O O3 0.979239 0.721248 0.311990
O O4 0.009037 0.767229 0.417702
O O5 0.042827 0.763728 0.803565
O O6 0.896048 0.000000 0.849735
O O7 0.692258 0.732969 0.016846
O O8 0.694103 0.259137 0.316538
O O9 0.681709 0.231949 0.180278
O O10 0.807818 0.000000 0.156169
O O11 0.000000 0.275141 0.000000
O O12 0.629545 0.712256 0.516008
O O13 0.705971 0.000000 0.394464
O O14 0.490646 0.500000 0.721525
O O15 0.343732 0.725842 0.223124
O O16 0.512752 0.000000 0.117764
O O17 0.663131 0.781232 0.908459
O O18 0.212400 0.500000 0.247665
#
# Coordination Sequence:
#
# PCOD9144879 Si02
#       7
#     4   4   4   4   4   4   4
#     4   8  15  25  36  53  78 107 138 171 205 246
#     4   8  14  23  36  54  76 105 139 172 206 246
#     4  10  21  35  49  66  89 116 146 180 219 265
#     4   9  17  31  49  66  87 117 150 181 216 260
#     4  10  19  31  48  69  91 115 146 183 221 259
#     4   9  14  19  28  46  73 102 133 167 202 239
#     4   9  14  20  30  45  70 105 138 163 196 242
#
# _framework density 26.524927999999999
#
# number of rings (size 3 to 8) (size 9 to 14) (size 15 to 20)
#    0.000    3.000    0.000    2.571    0.000    4.286 
#    0.000    0.000    0.000    0.000    0.000    0.000 
#    0.000    1.143    0.000   14.286    0.000    6.286 
#
# Total GULP energy -156426.220650 kJ/mol
# GULP energy per Si atom -5586.650737 kJ/mol
# Density = 2.646456 g / cm^3
# Si number density = 26.524928 Si / 1000 Ang^3
#
#
#
# Elastic Constant Matrix: (Units=GPa)
#
#
# Indices 1 2 3 4 5 6 
#
# 1 179.6839 18.4898 29.6679 0.0000 -35.4896 0.0000
# 2 18.4898 59.4478 14.1701 0.0000 1.1048 0.0000
# 3 29.6679 14.1701 167.8594 0.0000 -40.1601 0.0000
# 4 0.0000 0.0000 0.0000 -131.5219 0.0000 -21.5999
# 5 -35.4896 1.1048 -40.1601 0.0000 48.6694 0.0000
# 6 0.0000 0.0000 0.0000 -21.5999 0.0000 29.4487
#
#
#
# Elastic Compliance Matrix: (Units=1/GPa)
#
#
# Indices 1 2 3 4 5 6 
#
# 1 0.006785 -0.002263 0.000234 0.000000 0.005192 0.000000
# 2 -0.002263 0.018075 -0.002017 0.000000 -0.003725 0.000000
# 3 0.000234 -0.002017 0.007648 0.000000 0.006527 0.000000
# 4 0.000000 0.000000 0.000000 -0.006786 0.000000 -0.004977
# 5 0.005192 -0.003725 0.006527 0.000000 0.029803 0.000000
# 6 0.000000 0.000000 0.000000 -0.004977 0.000000 0.030307
#
#
# Mechanical properties :
#
#
# Convention : Reuss Voigt Hill
#
# Bulk Modulus (GPa) = 40.95536 59.07187 50.01362
# Shear Modulus (GPa) = 48.98962 12.29679 30.64320
#
# Velocity S-wave (km/s) = 4.30225 2.15546 3.40260
# Velocity P-wave (km/s) = 6.33664 5.33979 5.85945
#
# Compressibility (1/GPa) = 0.02441683
#
# Stress axis : x y z
#
# Youngs Moduli (GPa) = 147.38379 55.32439 130.75485
#
# Poissons Ratio (x) = 0.12518 -0.03060
# Poissons Ratio (y) = 0.33347 0.26374
# Poissons Ratio (z) = -0.03449 0.11159
#
# Static dielectric constant tensor:
#      x y z
#    x 2.136500 0.000000 -0.009820 
#    y 0.000000 1.925630 0.000000 
#    z -0.009820 0.000000 2.201670 
# 
# From -- ./inp_files/38007.got.cif
#   From: 2010.05.17/outbox.cif.g08.bks.cpg/sg10_20_cif.got.tgz:38007.got - 2010.06.03 11:33:40.
