data_PCOD9144492
_publ_section_title
;
Structure prediction by ZEFSAII (Michael W. Deem and Ramdas Pophale) SiO2 
 PCOD9144492
Probable space group: P 2/M
;
_chemical_formula_sum "Si O2"
_cell_formula_units_Z 28
_cell_length_a 19.836901
_cell_length_b 8.692540
_cell_length_c 12.066711
_cell_angle_alpha 90.000000
_cell_angle_beta 53.007434
_cell_angle_gamma 90.000000
_cell_volume 1661.883239
_symmetry_space_group_name_H-M "P 2/M"
_symmetry_group_IT_number 10
_symmetry_cell_setting 'monoclinic'
loop_
_space_group_symop_operation_xyz
x,y,z
-x,y,-z
-x,-y,-z
x,-y,z
loop_
_atom_site_type_symbol
_atom_site_label
_atom_site_fract_x
_atom_site_fract_y
_atom_site_fract_z
Si Si1 0.900906 0.671503 0.588005
Si Si2 0.001128 0.187407 0.871438
Si Si3 0.323215 0.683159 0.304859
Si Si4 0.497591 0.824833 0.868408
Si Si5 0.681101 0.317093 0.952824
Si Si6 0.156355 0.184366 0.126140
Si Si7 0.840459 0.179944 0.432366
O O1 0.865541 0.500000 0.597037
O O2 0.870127 0.732557 0.734868
O O3 0.881641 0.792096 0.511592
O O4 0.000000 0.657226 0.500000
O O5 0.914144 0.231484 0.894809
O O6 0.087398 0.238334 0.724102
O O7 0.003338 0.000000 0.866611
O O8 0.000000 0.237086 0.000000
O O9 0.330809 0.500000 0.296531
O O10 0.412393 0.754776 0.252716
O O11 0.305914 0.730159 0.191523
O O12 0.248884 0.736261 0.460783
O O13 0.488807 0.000000 0.837805
O O14 0.500000 0.827315 0.000000
O O15 0.414622 0.727700 0.922447
O O16 0.692938 0.500000 0.945891
O O17 0.746038 0.235936 0.973090
O O18 0.152406 0.000000 0.139502
O O19 0.825843 0.000000 0.425266
#
# Coordination Sequence:
#
# PCOD9144492 Si02
#       7
#     4   4   4   4   4   4   4
#     4  11  21  31  45  68 101 132 159 201 253 302
#     4   9  20  37  53  72  98 129 168 215 260 295
#     4  10  19  30  45  69 103 139 166 199 246 298
#     4   9  17  29  45  67  98 135 172 207 234 284
#     4  10  19  30  45  69 103 139 166 199 246 298
#     4  11  20  31  51  74  97 130 171 210 245 296
#     4  11  20  31  51  74  97 130 171 210 245 296
#
# _framework density 16.848355999999999
#
# number of rings (size 3 to 8) (size 9 to 14) (size 15 to 20)
#    0.000    1.857    2.857    2.571    0.000    3.429 
#    0.000    0.000    0.000    6.857    0.000    1.000 
#    0.000    8.000    0.000    0.000    0.000    0.000 
#
# Total GULP energy -155967.432035 kJ/mol
# GULP energy per Si atom -5570.265430 kJ/mol
# Density = 1.681001 g / cm^3
# Si number density = 16.848356 Si / 1000 Ang^3
#
#
#
# Elastic Constant Matrix: (Units=GPa)
#
#
# Indices 1 2 3 4 5 6 
#
# 1 77.3735 10.5463 55.3985 0.0000 -24.0242 0.0000
# 2 10.5463 37.7463 7.7181 0.0000 -9.7770 0.0000
# 3 55.3985 7.7181 71.0567 0.0000 -12.1273 0.0000
# 4 0.0000 0.0000 0.0000 17.0927 0.0000 -13.7691
# 5 -24.0242 -9.7770 -12.1273 0.0000 29.9024 0.0000
# 6 0.0000 0.0000 0.0000 -13.7691 0.0000 39.3967
#
#
#
# Elastic Compliance Matrix: (Units=1/GPa)
#
#
# Indices 1 2 3 4 5 6 
#
# 1 0.037656 -0.000110 -0.025988 0.000000 0.019678 0.000000
# 2 -0.000110 0.029124 -0.001576 0.000000 0.008794 0.000000
# 3 -0.025988 -0.001576 0.033149 0.000000 -0.007951 0.000000
# 4 0.000000 0.000000 0.000000 0.081431 0.000000 0.028460
# 5 0.019678 0.008794 -0.007951 0.000000 0.048903 0.000000
# 6 0.000000 0.000000 0.000000 0.028460 0.000000 0.035329
#
#
# Mechanical properties :
#
#
# Convention : Reuss Voigt Hill
#
# Bulk Modulus (GPa) = 22.43183 37.05583 29.74383
# Shear Modulus (GPa) = 14.88980 24.77927 19.83453
#
# Velocity S-wave (km/s) = 2.97602 3.83916 3.43481
# Velocity P-wave (km/s) = 5.01516 6.45707 5.78124
#
# Compressibility (1/GPa) = 0.04457951
#
# Stress axis : x y z
#
# Youngs Moduli (GPa) = 26.55603 34.33626 30.16713
#
# Poissons Ratio (x) = 0.00379 0.78398
# Poissons Ratio (y) = 0.00293 0.04756
# Poissons Ratio (z) = 0.69013 0.05413
#
# Static dielectric constant tensor:
#      x y z
#    x 1.650700 0.000000 -0.103290 
#    y 0.000000 1.576500 0.000000 
#    z -0.103290 0.000000 1.637220 
# 
# From -- ./inp_files/54643.got.cif
#   From: 2010.05.17/outbox.cif.g08.bks.cpg/sg10_28_cif.got.tgz:54643.got - 2010.06.03 11:33:40.
