data_PCOD9144935
_publ_section_title
;
Structure prediction by ZEFSAII (Michael W. Deem and Ramdas Pophale) SiO2 
 PCOD9144935
Probable space group: P 2/M
;
_chemical_formula_sum "Si O2"
_cell_formula_units_Z 32
_cell_length_a 15.789163
_cell_length_b 8.014920
_cell_length_c 23.385800
_cell_angle_alpha 90.000000
_cell_angle_beta 31.080011
_cell_angle_gamma 90.000000
_cell_volume 1527.768720
_symmetry_space_group_name_H-M "P 2/M"
_symmetry_group_IT_number 10
_symmetry_cell_setting 'monoclinic'
loop_
_space_group_symop_operation_xyz
x,y,z
-x,y,-z
-x,-y,-z
x,-y,z
loop_
_atom_site_type_symbol
_atom_site_label
_atom_site_fract_x
_atom_site_fract_y
_atom_site_fract_z
Si Si1 0.468853 0.693636 0.833802
Si Si2 0.875140 0.298048 0.122132
Si Si3 0.489626 0.699244 0.695798
Si Si4 0.692261 0.803012 0.801053
Si Si5 0.127540 0.198516 0.064535
Si Si6 0.205804 0.187931 0.546627
Si Si7 0.884908 0.203103 0.798080
Si Si8 0.990882 0.691283 0.441034
O O1 0.513859 0.500000 0.811924
O O2 0.534138 0.761290 0.734711
O O3 0.529065 0.776612 0.858291
O O4 0.272759 0.713444 0.945606
O O5 0.873273 0.500000 0.123701
O O6 0.690800 0.237861 0.216979
O O7 0.954830 0.236777 0.134910
O O8 0.000000 0.243160 0.000000
O O9 0.478183 0.500000 0.709103
O O10 0.620598 0.732493 0.569978
O O11 0.732631 0.755263 0.843644
O O12 0.827054 0.699648 0.688620
O O13 0.729353 0.000000 0.776375
O O14 0.134488 0.258919 0.125944
O O15 0.156995 0.000000 0.046324
O O16 0.060485 0.262905 0.670454
O O17 0.116913 0.194091 0.536634
O O18 0.235229 0.000000 0.549331
O O19 0.893704 0.000000 0.793631
O O20 0.927893 0.500000 0.475551
O O21 0.000000 0.748922 0.500000
#
# Coordination Sequence:
#
# PCOD9144935 Si02
#       8
#     4   4   4   4   4   4   4   4
#     4  11  22  37  55  82 118 152 185 229 289 340
#     4  10  20  40  62  83 114 150 178 220 289 346
#     4  10  21  37  58  82 115 150 179 222 286 344
#     4  10  20  35  54  78 109 149 193 234 274 324
#     4  11  22  38  61  85 109 144 191 236 276 332
#     4  10  20  35  56  80 109 146 188 231 274 324
#     4   8  19  39  57  77 113 154 186 227 285 328
#     4  10  19  31  48  73 108 148 186 227 281 335
#
# _framework density 20.945578999999999
#
# number of rings (size 3 to 8) (size 9 to 14) (size 15 to 20)
#    0.000    2.000    1.250    3.375    0.000    6.250 
#    0.000   10.625    0.000    3.750    0.000    0.000 
#    0.000    0.000    0.000    0.000    0.000    0.000 
#
# Total GULP energy -178418.854894 kJ/mol
# GULP energy per Si atom -5575.589215 kJ/mol
# Density = 2.089791 g / cm^3
# Si number density = 20.945579 Si / 1000 Ang^3
#
#
#
# Elastic Constant Matrix: (Units=GPa)
#
#
# Indices 1 2 3 4 5 6 
#
# 1 89.7907 0.6308 11.7181 0.0000 -4.7378 0.0000
# 2 0.6308 22.1454 -3.2859 0.0000 -1.9424 0.0000
# 3 11.7181 -3.2859 57.9055 0.0000 -12.0721 0.0000
# 4 0.0000 0.0000 0.0000 23.2670 0.0000 -4.2296
# 5 -4.7378 -1.9424 -12.0721 0.0000 33.4314 0.0000
# 6 0.0000 0.0000 0.0000 -4.2296 0.0000 23.9764
#
#
#
# Elastic Compliance Matrix: (Units=1/GPa)
#
#
# Indices 1 2 3 4 5 6 
#
# 1 0.011469 -0.000581 -0.002187 0.000000 0.000802 0.000000
# 2 -0.000581 0.046037 0.003537 0.000000 0.003870 0.000000
# 3 -0.002187 0.003537 0.019347 0.000000 0.006882 0.000000
# 4 0.000000 0.000000 0.000000 0.044403 0.000000 0.007833
# 5 0.000802 0.003870 0.006882 0.000000 0.032736 0.000000
# 6 0.000000 0.000000 0.000000 0.007833 0.000000 0.043089
#
#
# Mechanical properties :
#
#
# Convention : Reuss Voigt Hill
#
# Bulk Modulus (GPa) = 12.75649 20.88529 16.82089
# Shear Modulus (GPa) = 22.55570 26.85354 24.70462
#
# Velocity S-wave (km/s) = 3.28513 3.58447 3.43806
# Velocity P-wave (km/s) = 4.52692 5.20808 4.87940
#
# Compressibility (1/GPa) = 0.07839149
#
# Stress axis : x y z
#
# Youngs Moduli (GPa) = 87.19323 21.72174 51.68638
#
# Poissons Ratio (x) = 0.01262 0.11302
# Poissons Ratio (y) = 0.05064 -0.18280
# Poissons Ratio (z) = 0.19066 -0.07682
#
# Static dielectric constant tensor:
#      x y z
#    x 1.785790 0.000000 -0.026470 
#    y 0.000000 1.743480 0.000000 
#    z -0.026470 0.000000 1.788560 
# 
# From -- ./inp_files/89561.got.cif
#   From: 2010.05.17/outbox.cif.g08.bks.cpg/sg10_45_cif.got.tgz:89561.got - 2010.06.03 11:33:40.
