data_PCOD9144878
_publ_section_title
;
Structure prediction by ZEFSAII (Michael W. Deem and Ramdas Pophale) SiO2 
 PCOD9144878
Probable space group: P 2/M
;
_chemical_formula_sum "Si O2"
_cell_formula_units_Z 32
_cell_length_a 12.465601
_cell_length_b 9.016789
_cell_length_c 26.149683
_cell_angle_alpha 90.000000
_cell_angle_beta 44.908448
_cell_angle_gamma 90.000000
_cell_volume 2075.016227
_symmetry_space_group_name_H-M "P 2/M"
_symmetry_group_IT_number 10
_symmetry_cell_setting 'monoclinic'
loop_
_space_group_symop_operation_xyz
x,y,z
-x,y,-z
-x,-y,-z
x,-y,z
loop_
_atom_site_type_symbol
_atom_site_label
_atom_site_fract_x
_atom_site_fract_y
_atom_site_fract_z
Si Si1 0.925978 0.324833 0.077286
Si Si2 0.277409 0.822313 0.463443
Si Si3 0.990079 0.819390 0.629524
Si Si4 0.297488 0.177959 0.338262
Si Si5 0.887796 0.821167 0.304032
Si Si6 0.113066 0.176979 0.808240
Si Si7 0.378656 0.674112 0.770710
Si Si8 0.440035 0.327908 0.578458
O O1 0.959341 0.500000 0.070758
O O2 0.974361 0.243276 0.113250
O O3 0.742107 0.309101 0.141746
O O4 0.000000 0.269647 0.000000
O O5 0.135585 0.774449 0.546375
O O6 0.248753 0.792947 0.413368
O O7 0.430649 0.743718 0.429929
O O8 0.295593 0.000000 0.463515
O O9 0.016112 0.771682 0.679196
O O10 0.834200 0.770541 0.655681
O O11 0.987982 0.000000 0.629270
O O12 0.459404 0.254104 0.274933
O O13 0.315115 0.000000 0.327255
O O14 0.946499 0.780807 0.227612
O O15 0.718652 0.757421 0.365676
O O16 0.879067 0.000000 0.308867
O O17 0.283434 0.243637 0.758119
O O18 0.120022 0.000000 0.809874
O O19 0.392551 0.500000 0.754636
O O20 0.500000 0.319526 0.500000
O O21 0.417758 0.500000 0.599558
#
# Coordination Sequence:
#
# PCOD9144878 Si02
#       8
#     4   4   4   4   4   4   4   4
#     4   8  16  31  49  71 100 129 150 172 216 276
#     4  10  19  32  50  66  84 117 159 200 240 280
#     4   9  18  32  48  64  86 120 161 201 235 268
#     4  10  19  31  48  69  89 115 158 203 234 268
#     4  10  19  32  48  65  89 122 156 189 230 281
#     4   9  17  28  46  73  97 118 148 185 222 265
#     4   9  18  31  47  68  95 125 150 178 226 277
#     4  11  22  32  44  64  90 117 152 198 243 281
#
# _framework density 15.421566
#
# number of rings (size 3 to 8) (size 9 to 14) (size 15 to 20)
#    0.750    1.750    1.250    1.875    0.000    6.750 
#    0.000    1.250    0.000    1.500    0.000    0.875 
#    0.000    7.000    0.000    0.000    0.000    0.000 
#
# Total GULP energy -178144.018255 kJ/mol
# GULP energy per Si atom -5567.000570 kJ/mol
# Density = 1.538647 g / cm^3
# Si number density = 15.421566 Si / 1000 Ang^3
#
#
#
# Elastic Constant Matrix: (Units=GPa)
#
#
# Indices 1 2 3 4 5 6 
#
# 1 122.0953 31.4801 47.6446 0.0000 20.5790 0.0000
# 2 31.4801 23.4656 28.1283 0.0000 11.0782 0.0000
# 3 47.6446 28.1283 81.5947 0.0000 25.5965 0.0000
# 4 0.0000 0.0000 0.0000 20.7996 0.0000 -0.6419
# 5 20.5790 11.0782 25.5965 0.0000 17.5912 0.0000
# 6 0.0000 0.0000 0.0000 -0.6419 0.0000 -2.4015
#
#
#
# Elastic Compliance Matrix: (Units=1/GPa)
#
#
# Indices 1 2 3 4 5 6 
#
# 1 0.013034 -0.013517 -0.001542 0.000000 -0.004492 0.000000
# 2 -0.013517 0.089561 -0.018856 0.000000 -0.013153 0.000000
# 3 -0.001542 -0.018856 0.028269 0.000000 -0.027455 0.000000
# 4 0.000000 0.000000 0.000000 0.047684 0.000000 -0.012745
# 5 -0.004492 -0.013153 -0.027455 0.000000 0.110333 0.000000
# 6 0.000000 0.000000 0.000000 -0.012745 0.000000 -0.412998
#
#
# Mechanical properties :
#
#
# Convention : Reuss Voigt Hill
#
# Bulk Modulus (GPa) = 15.86429 49.07350 32.46889
# Shear Modulus (GPa) = -141.74436 15.19138 -63.27649
#
# Velocity S-wave (km/s) = -9.59753 3.14199 -6.41251
# Velocity P-wave (km/s) = 10.60695 6.71217 5.80750
#
# Compressibility (1/GPa) = 0.06303465
#
# Stress axis : x y z
#
# Youngs Moduli (GPa) = 76.72092 11.16558 35.37432
#
# Poissons Ratio (x) = 0.15092 0.05455
# Poissons Ratio (y) = 1.03702 0.66701
# Poissons Ratio (z) = 0.11832 0.21054
#
# Static dielectric constant tensor:
#      x y z
#    x 1.505860 0.000000 0.028080 
#    y 0.000000 1.516190 0.000000 
#    z 0.028080 0.000000 1.523120 
# 
# From -- ./inp_files/92452.got.cif
#   From: 2010.05.17/outbox.cif.g08.bks.cpg/sg10_47_cif.got.tgz:92452.got - 2010.06.03 11:33:40.
