data_PCOD9144274
_publ_section_title
;
Structure prediction by ZEFSAII (Michael W. Deem and Ramdas Pophale) SiO2 
 PCOD9144274
Probable space group: P 2/M
;
_chemical_formula_sum "Si O2"
_cell_formula_units_Z 30
_cell_length_a 15.742761
_cell_length_b 7.268660
_cell_length_c 10.738638
_cell_angle_alpha 90.000000
_cell_angle_beta 63.491138
_cell_angle_gamma 90.000000
_cell_volume 1099.618772
_symmetry_space_group_name_H-M "P 2/M"
_symmetry_group_IT_number 10
_symmetry_cell_setting 'monoclinic'
loop_
_space_group_symop_operation_xyz
x,y,z
-x,y,-z
-x,-y,-z
x,-y,z
loop_
_atom_site_type_symbol
_atom_site_label
_atom_site_fract_x
_atom_site_fract_y
_atom_site_fract_z
Si Si1 0.604379 0.221603 0.910143
Si Si2 0.891078 0.207953 0.865776
Si Si3 0.787910 0.777949 0.681742
Si Si4 0.807311 0.222015 0.180782
Si Si5 0.257624 0.500000 0.593158
Si Si6 0.614603 0.780136 0.177223
Si Si7 0.429601 0.784164 0.425392
Si Si8 0.950300 0.711392 0.405104
O O1 0.649233 0.256972 0.015925
O O2 0.595657 0.000000 0.898703
O O3 0.500000 0.294403 0.000000
O O4 0.679334 0.284542 0.760412
O O5 0.838402 0.285502 0.777176
O O6 0.999901 0.201005 0.747512
O O7 0.853202 0.000000 0.899326
O O8 0.871464 0.276860 0.018279
O O9 0.842570 0.711170 0.525109
O O10 0.790733 0.000000 0.677492
O O11 0.815869 0.341069 0.297984
O O12 0.699226 0.278784 0.210380
O O13 0.812421 0.000000 0.196350
O O14 0.338499 0.660150 0.505156
O O15 0.507043 0.718722 0.271983
O O16 0.608286 0.000000 0.195076
O O17 0.500000 0.779453 0.500000
O O18 0.403353 0.000000 0.422156
O O19 0.978332 0.500000 0.377304
O O20 0.000000 0.791414 0.500000
#
# Coordination Sequence:
#
# PCOD9144274 Si02
#       8
#     4   4   4   4   2   4   4   4
#     4   9  16  27  46  69  89 116 161 204 231 264
#     4   9  16  27  41  58  85 118 149 183 225 270
#     4   9  15  26  43  61  81 113 151 187 230 270
#     4  10  19  29  42  63  92 122 151 188 225 272
#     4  12  21  28  44  66  85 116 157 185 228 284
#     4   9  16  28  42  60  87 119 152 192 236 269
#     4  10  19  30  43  61  89 116 151 194 230 276
#     4   9  17  26  38  58  83 108 146 188 224 265
#
# _framework density 27.282184000000001
#
# number of rings (size 3 to 8) (size 9 to 14) (size 15 to 20)
#    0.000    2.533    2.667    1.000    0.933    1.600 
#    0.000    0.000    1.467    0.400    0.000    0.000 
#    0.000    0.000    0.000    2.400    0.000   27.333 
#
# Total GULP energy -167206.488805 kJ/mol
# GULP energy per Si atom -5573.549627 kJ/mol
# Density = 2.722009 g / cm^3
# Si number density = 27.282184 Si / 1000 Ang^3
#
#
#
# Elastic Constant Matrix: (Units=GPa)
#
#
# Indices 1 2 3 4 5 6 
#
# 1 68.5846 1.3952 45.6687 0.0000 -9.3335 0.0000
# 2 1.3952 154.5831 42.0614 0.0000 5.5014 0.0000
# 3 45.6687 42.0614 286.8134 0.0000 -12.1743 0.0000
# 4 0.0000 0.0000 0.0000 39.8657 0.0000 -64.2066
# 5 -9.3335 5.5014 -12.1743 0.0000 37.8916 0.0000
# 6 0.0000 0.0000 0.0000 -64.2066 0.0000 29.5665
#
#
#
# Elastic Compliance Matrix: (Units=1/GPa)
#
#
# Indices 1 2 3 4 5 6 
#
# 1 0.016737 0.000440 -0.002593 0.000000 0.003226 0.000000
# 2 0.000440 0.006815 -0.001122 0.000000 -0.001242 0.000000
# 3 -0.002593 -0.001122 0.004100 0.000000 0.000842 0.000000
# 4 0.000000 0.000000 0.000000 -0.010044 0.000000 -0.021811
# 5 0.003226 -0.001242 0.000842 0.000000 0.027636 0.000000
# 6 0.000000 0.000000 0.000000 -0.021811 0.000000 -0.013542
#
#
# Mechanical properties :
#
#
# Convention : Reuss Voigt Hill
#
# Bulk Modulus (GPa) = 47.39098 76.47019 61.93059
# Shear Modulus (GPa) = 110.41141 49.52182 79.96661
#
# Velocity S-wave (km/s) = 6.36852 4.26510 5.41983
# Velocity P-wave (km/s) = 8.45492 7.23499 7.86863
#
# Compressibility (1/GPa) = 0.02110106
#
# Stress axis : x y z
#
# Youngs Moduli (GPa) = 59.74824 146.74516 243.92285
#
# Poissons Ratio (x) = -0.06450 0.63237
# Poissons Ratio (y) = -0.02626 0.27369
# Poissons Ratio (z) = 0.15490 0.16466
#
# Static dielectric constant tensor:
#      x y z
#    x 2.371520 0.000000 0.091290 
#    y 0.000000 1.967550 0.000000 
#    z 0.091290 0.000000 2.182420 
# 
# From -- ./inp_files/69746.got.cif
#   From: 2010.05.17/outbox.cif.g08.bks.cpg/sg10_35_cif.got.tgz:69746.got - 2010.06.03 11:33:40.
