data_PCOD9144988
_publ_section_title
;
Structure prediction by ZEFSAII (Michael W. Deem and Ramdas Pophale) SiO2 
 PCOD9144988
Probable space group: P 2/M
;
_chemical_formula_sum "Si O2"
_cell_formula_units_Z 32
_cell_length_a 12.679092
_cell_length_b 8.944634
_cell_length_c 17.973690
_cell_angle_alpha 90.000000
_cell_angle_beta 77.245560
_cell_angle_gamma 90.000000
_cell_volume 1988.096345
_symmetry_space_group_name_H-M "P 2/M"
_symmetry_group_IT_number 10
_symmetry_cell_setting 'monoclinic'
loop_
_space_group_symop_operation_xyz
x,y,z
-x,y,-z
-x,-y,-z
x,-y,z
loop_
_atom_site_type_symbol
_atom_site_label
_atom_site_fract_x
_atom_site_fract_y
_atom_site_fract_z
Si Si1 0.867369 0.678314 0.409000
Si Si2 0.938019 0.322395 0.837270
Si Si3 0.532331 0.320457 0.579948
Si Si4 0.309355 0.321887 0.692114
Si Si5 0.125558 0.171836 0.007114
Si Si6 0.829372 0.820739 0.161458
Si Si7 0.763428 0.178031 0.569771
Si Si8 0.912275 0.178270 0.686198
O O1 0.883321 0.500000 0.411085
O O2 0.771589 0.706742 0.364454
O O3 0.830805 0.742691 0.493772
O O4 0.975676 0.756199 0.363105
O O5 0.945299 0.500000 0.831232
O O6 0.870911 0.272262 0.920382
O O7 0.891887 0.253822 0.768780
O O8 0.059027 0.255438 0.828885
O O9 0.500000 0.283759 0.500000
O O10 0.549678 0.500000 0.579879
O O11 0.430200 0.283278 0.647713
O O12 0.641751 0.238411 0.585014
O O13 0.304757 0.500000 0.707613
O O14 0.264586 0.233503 0.769675
O O15 0.152644 0.000000 0.021606
O O16 0.188037 0.219362 0.922738
O O17 0.000000 0.172868 0.000000
O O18 0.843264 0.000000 0.162515
O O19 0.820049 0.209096 0.639790
O O20 0.765708 0.000000 0.557062
O O21 0.922713 0.000000 0.693819
#
# Coordination Sequence:
#
# PCOD9144988 Si02
#       8
#     4   4   4   4   4   4   4   4
#     4  11  21  35  54  76 103 136 173 210 255 307
#     4  11  20  30  48  74 102 135 172 208 251 302
#     4  10  20  38  57  73  99 133 171 215 261 304
#     4  10  20  33  52  77 103 134 172 213 256 302
#     4   8  16  30  46  68 100 137 169 199 247 304
#     4  10  19  31  49  73 104 138 169 206 252 304
#     4  11  24  38  53  75 101 134 176 218 257 301
#     4  11  23  37  51  72 105 139 173 213 255 302
#
# _framework density 16.095799
#
# number of rings (size 3 to 8) (size 9 to 14) (size 15 to 20)
#    0.000    1.750    2.500    3.750    0.000    7.500 
#    0.000    0.000    0.000    0.000    0.000    0.875 
#    0.000    7.000    0.000    0.000    0.000    0.000 
#
# Total GULP energy -178645.415023 kJ/mol
# GULP energy per Si atom -5582.669219 kJ/mol
# Density = 1.605916 g / cm^3
# Si number density = 16.095799 Si / 1000 Ang^3
#
#
#
# Elastic Constant Matrix: (Units=GPa)
#
#
# Indices 1 2 3 4 5 6 
#
# 1 48.6010 41.4482 48.7619 0.0000 9.9890 0.0000
# 2 41.4482 77.1375 76.3999 0.0000 4.4095 0.0000
# 3 48.7619 76.3999 154.8474 0.0000 -5.8149 0.0000
# 4 0.0000 0.0000 0.0000 39.7751 0.0000 2.2033
# 5 9.9890 4.4095 -5.8149 0.0000 16.6861 0.0000
# 6 0.0000 0.0000 0.0000 2.2033 0.0000 26.2347
#
#
#
# Elastic Compliance Matrix: (Units=1/GPa)
#
#
# Indices 1 2 3 4 5 6 
#
# 1 0.048365 -0.016242 -0.008251 0.000000 -0.027536 0.000000
# 2 -0.016242 0.033059 -0.011307 0.000000 -0.002954 0.000000
# 3 -0.008251 -0.011307 0.015131 0.000000 0.013200 0.000000
# 4 0.000000 0.000000 0.000000 0.025259 0.000000 -0.002121
# 5 -0.027536 -0.002954 0.013200 0.000000 0.081795 0.000000
# 6 0.000000 0.000000 0.000000 -0.002121 0.000000 0.038296
#
#
# Mechanical properties :
#
#
# Convention : Reuss Voigt Hill
#
# Bulk Modulus (GPa) = 40.07243 68.20068 54.13656
# Shear Modulus (GPa) = 15.53655 24.13759 19.83707
#
# Velocity S-wave (km/s) = 3.11023 3.87669 3.51442
# Velocity P-wave (km/s) = 6.15209 7.90582 7.08344
#
# Compressibility (1/GPa) = 0.02495481
#
# Stress axis : x y z
#
# Youngs Moduli (GPa) = 20.67625 30.24885 66.09071
#
# Poissons Ratio (x) = 0.49130 0.54529
# Poissons Ratio (y) = 0.33582 0.74731
# Poissons Ratio (z) = 0.17059 0.34203
#
# Static dielectric constant tensor:
#      x y z
#    x 1.509190 0.000000 -0.006900 
#    y 0.000000 1.538320 0.000000 
#    z -0.006900 0.000000 1.551230 
# 
# From -- ./inp_files/56436.got.cif
#   From: 2010.05.17/outbox.cif.g08.bks.cpg/sg10_29_cif.got.tgz:56436.got - 2010.06.03 11:33:40.
