data_PCOD9144970
_publ_section_title
;
Structure prediction by ZEFSAII (Michael W. Deem and Ramdas Pophale) SiO2 
 PCOD9144970
Probable space group: P 2/M
;
_chemical_formula_sum "Si O2"
_cell_formula_units_Z 18
_cell_length_a 7.675569
_cell_length_b 22.212220
_cell_length_c 5.270423
_cell_angle_alpha 90.000000
_cell_angle_beta 55.493829
_cell_angle_gamma 90.000000
_cell_volume 740.473606
_symmetry_space_group_name_H-M "P 2/M"
_symmetry_group_IT_number 10
_symmetry_cell_setting 'monoclinic'
loop_
_space_group_symop_operation_xyz
x,y,z
-x,y,-z
-x,-y,-z
x,-y,z
loop_
_atom_site_type_symbol
_atom_site_label
_atom_site_fract_x
_atom_site_fract_y
_atom_site_fract_z
Si Si1 0.264081 0.305767 0.144909
Si Si2 0.755422 0.253153 0.344204
Si Si3 0.352039 0.869791 0.372653
Si Si4 0.352076 0.000000 0.371069
Si Si5 0.854596 0.434914 0.871176
O O1 0.180357 0.303628 0.502217
O O2 0.275792 0.373490 0.031474
O O3 0.500000 0.282706 0.000000
O O4 0.167792 0.263213 0.006567
O O5 0.500000 0.258560 0.500000
O O6 0.786594 0.188961 0.455692
O O7 0.500000 0.872648 0.500000
O O8 0.238881 0.935075 0.456615
O O9 0.500000 0.862888 0.000000
O O10 0.500000 0.000000 0.500000
O O11 0.500000 0.000000 0.000000
O O12 0.740453 0.500000 0.971385
O O13 0.000000 0.434671 0.500000
O O14 0.000000 0.432371 0.000000
#
# Coordination Sequence:
#
# PCOD9144970 Si02
#       5
#     4   4   4   2   4
#     4  10  19  31  49  72  94 120 155 191 228 273
#     4   9  16  26  41  63  91 120 150 188 230 270
#     4   9  14  22  34  52  81 118 155 186 220 266
#     4   8  14  20  30  48  74 114 158 186 210 260
#     4  10  21  37  54  71  94 124 153 185 232 282
#
# _framework density 24.308764
#
# number of rings (size 3 to 8) (size 9 to 14) (size 15 to 20)
#    0.000    2.667    0.000    4.667    0.000    0.444 
#    0.000    0.000    0.000    8.000    0.000    0.000 
#    0.000    0.000    0.000   20.000    0.000   25.778 
#
# Total GULP energy -100376.787308 kJ/mol
# GULP energy per Si atom -5576.488184 kJ/mol
# Density = 2.425344 g / cm^3
# Si number density = 24.308764 Si / 1000 Ang^3
#
#
#
# Elastic Constant Matrix: (Units=GPa)
#
#
# Indices 1 2 3 4 5 6 
#
# 1 67.6128 26.3275 34.8085 0.0000 38.0483 0.0000
# 2 26.3275 219.4240 23.6022 0.0000 33.0214 0.0000
# 3 34.8085 23.6022 159.9411 0.0000 42.5056 0.0000
# 4 0.0000 0.0000 0.0000 39.5599 0.0000 3.8383
# 5 38.0483 33.0214 42.5056 0.0000 40.6700 0.0000
# 6 0.0000 0.0000 0.0000 3.8383 0.0000 14.0391
#
#
#
# Elastic Compliance Matrix: (Units=1/GPa)
#
#
# Indices 1 2 3 4 5 6 
#
# 1 0.031573 0.000830 0.001433 0.000000 -0.031709 0.000000
# 2 0.000830 0.005241 0.000531 0.000000 -0.005586 0.000000
# 3 0.001433 0.000531 0.008768 0.000000 -0.010936 0.000000
# 4 0.000000 0.000000 0.000000 0.025967 0.000000 -0.007099
# 5 -0.031709 -0.005586 -0.010936 0.000000 0.070219 0.000000
# 6 0.000000 0.000000 0.000000 -0.007099 0.000000 0.073171
#
#
# Mechanical properties :
#
#
# Convention : Reuss Voigt Hill
#
# Bulk Modulus (GPa) = 19.54276 68.49491 44.01883
# Shear Modulus (GPa) = 22.08390 43.00312 32.54351
#
# Velocity S-wave (km/s) = 3.01736 4.21056 3.66287
# Velocity P-wave (km/s) = 4.49401 7.20254 6.00303
#
# Compressibility (1/GPa) = 0.05116985
#
# Stress axis : x y z
#
# Youngs Moduli (GPa) = 31.67229 190.78581 114.04667
#
# Poissons Ratio (x) = -0.15826 -0.16345
# Poissons Ratio (y) = -0.02627 -0.06051
# Poissons Ratio (z) = -0.04539 -0.10123
#
# Static dielectric constant tensor:
#      x y z
#    x 2.015210 0.000000 -0.094390 
#    y 0.000000 2.009570 0.000000 
#    z -0.094390 0.000000 2.009240 
# 
# From -- ./inp_files/4437.got.cif
#   From: 2010.05.17/outbox.cif.g08.bks.cpg/sg10_3_cif.got.tgz:4437.got - 2010.06.03 11:33:40.
