data_PCOD9144971
_publ_section_title
;
Structure prediction by ZEFSAII (Michael W. Deem and Ramdas Pophale) SiO2 
 PCOD9144971
Probable space group: P 2/M
;
_chemical_formula_sum "Si O2"
_cell_formula_units_Z 28
_cell_length_a 30.510490
_cell_length_b 9.489834
_cell_length_c 9.708697
_cell_angle_alpha 90.000000
_cell_angle_beta 144.886914
_cell_angle_gamma 90.000000
_cell_volume 1616.894397
_symmetry_space_group_name_H-M "P 2/M"
_symmetry_group_IT_number 10
_symmetry_cell_setting 'monoclinic'
loop_
_space_group_symop_operation_xyz
x,y,z
-x,y,-z
-x,-y,-z
x,-y,z
loop_
_atom_site_type_symbol
_atom_site_label
_atom_site_fract_x
_atom_site_fract_y
_atom_site_fract_z
Si Si1 0.682595 0.160301 0.461239
Si Si2 0.077223 0.663704 0.605670
Si Si3 0.001565 0.831435 0.168030
Si Si4 0.429418 0.334916 0.012080
Si Si5 0.147733 0.167583 0.030074
Si Si6 0.419395 0.158831 0.538939
Si Si7 0.592410 0.345709 0.736762
O O1 0.627852 0.265008 0.240451
O O2 0.647716 0.156887 0.524006
O O3 0.676543 0.000000 0.389488
O O4 0.770550 0.201848 0.694545
O O5 0.098209 0.500000 0.636660
O O6 0.134058 0.746653 0.853913
O O7 0.000000 0.664752 0.500000
O O8 0.059048 0.743901 0.415120
O O9 0.919611 0.807312 0.031844
O O10 0.017871 0.000000 0.219086
O O11 0.000000 0.794911 0.000000
O O12 0.443706 0.500000 0.023234
O O13 0.509763 0.252760 0.225544
O O14 0.389223 0.321847 0.057861
O O15 0.146687 0.000000 0.995838
O O16 0.387965 0.224867 0.318063
O O17 0.447918 0.000000 0.591031
O O18 0.500000 0.350729 0.500000
O O19 0.619598 0.500000 0.760710
#
# Coordination Sequence:
#
# PCOD9144971 Si02
#       7
#     4   4   4   4   4   4   4
#     4  10  21  34  48  70  99 129 163 204 245 286
#     4   9  17  30  50  75 100 126 157 192 232 282
#     4   9  17  31  54  80 101 126 162 199 236 283
#     4  10  20  33  50  71  95 127 165 203 246 294
#     4   9  18  34  52  70  98 133 164 197 240 287
#     4  10  19  31  49  72  95 123 164 208 246 288
#     4   8  16  31  48  67  91 118 153 197 242 290
#
# _framework density 17.317148
#
# number of rings (size 3 to 8) (size 9 to 14) (size 15 to 20)
#    0.000    2.714    0.000    2.571    0.000    8.571 
#    0.000    1.429    0.000    6.857    0.000    0.000 
#    0.000    0.000    0.000    0.000    0.000    0.000 
#
# Total GULP energy -155923.891092 kJ/mol
# GULP energy per Si atom -5568.710396 kJ/mol
# Density = 1.727773 g / cm^3
# Si number density = 17.317148 Si / 1000 Ang^3
#
#
#
# Elastic Constant Matrix: (Units=GPa)
#
#
# Indices 1 2 3 4 5 6 
#
# 1 51.1867 38.2519 33.1591 0.0000 -15.9719 0.0000
# 2 38.2519 56.1512 -5.2945 0.0000 -8.4313 0.0000
# 3 33.1591 -5.2945 -12.5888 0.0000 -5.7092 0.0000
# 4 0.0000 0.0000 0.0000 20.6650 0.0000 -6.2199
# 5 -15.9719 -8.4313 -5.7092 0.0000 27.5919 0.0000
# 6 0.0000 0.0000 0.0000 -6.2199 0.0000 26.2349
#
#
#
# Elastic Compliance Matrix: (Units=1/GPa)
#
#
# Indices 1 2 3 4 5 6 
#
# 1 0.009908 -0.003138 0.023085 0.000000 0.009553 0.000000
# 2 -0.003138 0.018485 -0.016253 0.000000 0.000469 0.000000
# 3 0.023085 -0.016253 -0.014263 0.000000 0.005445 0.000000
# 4 0.000000 0.000000 0.000000 0.052110 0.000000 0.012354
# 5 0.009553 0.000469 0.005445 0.000000 0.043042 0.000000
# 6 0.000000 0.000000 0.000000 0.012354 0.000000 0.041046
#
#
# Mechanical properties :
#
#
# Convention : Reuss Voigt Hill
#
# Bulk Modulus (GPa) = 46.47729 25.22021 35.84875
# Shear Modulus (GPa) = 33.30814 16.80719 25.05767
#
# Velocity S-wave (km/s) = 4.39044 3.11875 3.80805
# Velocity P-wave (km/s) = 7.25248 5.25015 6.33098
#
# Compressibility (1/GPa) = 0.02151588
#
# Stress axis : x y z
#
# Youngs Moduli (GPa) = 100.92998 54.09831 -70.11105
#
# Poissons Ratio (x) = 0.16978 1.61851
# Poissons Ratio (y) = 0.31676 -1.13955
# Poissons Ratio (z) = -2.32997 0.87929
#
# Static dielectric constant tensor:
#      x y z
#    x 1.598360 0.000000 -0.020220 
#    y 0.000000 1.610780 0.000000 
#    z -0.020220 0.000000 1.590680 
# 
# From -- ./inp_files/38056.got.cif
#   From: 2010.05.17/outbox.cif.g08.bks.cpg/sg10_20_cif.got.tgz:38056.got - 2010.06.03 11:33:40.
