data_PCOD9144514
_publ_section_title
;
Structure prediction by ZEFSAII (Michael W. Deem and Ramdas Pophale) SiO2 
 PCOD9144514
Probable space group: P 2/M
;
_chemical_formula_sum "Si O2"
_cell_formula_units_Z 28
_cell_length_a 25.926316
_cell_length_b 7.511526
_cell_length_c 9.786132
_cell_angle_alpha 90.000000
_cell_angle_beta 40.335281
_cell_angle_gamma 90.000000
_cell_volume 1233.554504
_symmetry_space_group_name_H-M "P 2/M"
_symmetry_group_IT_number 10
_symmetry_cell_setting 'monoclinic'
loop_
_space_group_symop_operation_xyz
x,y,z
-x,y,-z
-x,-y,-z
x,-y,z
loop_
_atom_site_type_symbol
_atom_site_label
_atom_site_fract_x
_atom_site_fract_y
_atom_site_fract_z
Si Si1 0.681524 0.285792 0.479424
Si Si2 0.084135 0.783404 0.891404
Si Si3 0.577001 0.781614 0.259685
Si Si4 0.496881 0.789641 0.156907
Si Si5 0.242171 0.706188 0.402337
Si Si6 0.249337 0.791597 0.073727
Si Si7 0.161162 0.796420 0.005062
O O1 0.688990 0.500000 0.462264
O O2 0.593736 0.233458 0.609227
O O3 0.696645 0.222327 0.605848
O O4 0.752584 0.208677 0.244711
O O5 0.156684 0.725233 0.648394
O O6 0.102680 0.717946 0.008080
O O7 0.085788 0.000000 0.890771
O O8 0.000000 0.726672 0.000000
O O9 0.500000 0.726185 0.500000
O O10 0.559521 0.721526 0.140281
O O11 0.578624 0.000000 0.258699
O O12 0.662791 0.716608 0.134669
O O13 0.512246 0.000000 0.115029
O O14 0.500000 0.709003 0.000000
O O15 0.261007 0.500000 0.345199
O O16 0.238962 0.783977 0.257450
O O17 0.251958 0.000000 0.032096
O O18 0.180500 0.715546 0.114607
O O19 0.133694 0.000000 0.079671
#
# Coordination Sequence:
#
# PCOD9144514 Si02
#       7
#     4   4   4   4   4   4   4
#     4  10  20  33  49  70  98 133 171 210 253 302
#     4   9  18  35  59  84 107 131 164 207 252 301
#     4   9  17  29  46  69  96 127 166 213 260 300
#     4  10  19  30  46  67  91 124 168 215 258 298
#     4  10  21  35  52  76 106 139 172 207 251 305
#     4  10  19  33  54  77 102 134 173 216 258 301
#     4   9  18  33  55  79 100 128 167 207 249 299
#
# _framework density 22.698633000000001
#
# number of rings (size 3 to 8) (size 9 to 14) (size 15 to 20)
#    0.000    2.429    0.000    2.571    0.000    6.286 
#    0.000    1.429    0.000    6.000    0.000    0.000 
#    0.000    0.000    0.000    0.000    0.000    0.000 
#
# Total GULP energy -156334.328181 kJ/mol
# GULP energy per Si atom -5583.368864 kJ/mol
# Density = 2.264697 g / cm^3
# Si number density = 22.698633 Si / 1000 Ang^3
#
#
#
# Elastic Constant Matrix: (Units=GPa)
#
#
# Indices 1 2 3 4 5 6 
#
# 1 171.0999 4.9571 20.9144 0.0000 10.9777 0.0000
# 2 4.9571 70.9318 -5.4238 0.0000 7.4982 0.0000
# 3 20.9144 -5.4238 29.0509 0.0000 12.4438 0.0000
# 4 0.0000 0.0000 0.0000 56.4397 0.0000 0.5979
# 5 10.9777 7.4982 12.4438 0.0000 38.4560 0.0000
# 6 0.0000 0.0000 0.0000 0.5979 0.0000 -3.5476
#
#
#
# Elastic Compliance Matrix: (Units=1/GPa)
#
#
# Indices 1 2 3 4 5 6 
#
# 1 0.006456 -0.000796 -0.004729 0.000000 -0.000157 0.000000
# 2 -0.000796 0.015022 0.005265 0.000000 -0.004405 0.000000
# 3 -0.004729 0.005265 0.044894 0.000000 -0.014204 0.000000
# 4 0.000000 0.000000 0.000000 0.017686 0.000000 0.002981
# 5 -0.000157 -0.004405 -0.014204 0.000000 0.031504 0.000000
# 6 0.000000 0.000000 0.000000 0.002981 0.000000 -0.281381
#
#
# Mechanical properties :
#
#
# Convention : Reuss Voigt Hill
#
# Bulk Modulus (GPa) = 15.18581 34.66421 24.92501
# Shear Modulus (GPa) = -34.87991 34.97863 0.04936
#
# Velocity S-wave (km/s) = -3.92427 3.92982 0.14762
# Velocity P-wave (km/s) = 3.71866 5.99132 3.32171
#
# Compressibility (1/GPa) = 0.06585094
#
# Stress axis : x y z
#
# Youngs Moduli (GPa) = 154.90112 66.56936 22.27486
#
# Poissons Ratio (x) = 0.05300 0.10533
# Poissons Ratio (y) = 0.12332 -0.11727
# Poissons Ratio (z) = 0.73250 -0.35047
#
# Static dielectric constant tensor:
#      x y z
#    x 1.892070 0.000000 0.052290 
#    y 0.000000 1.841420 0.000000 
#    z 0.052290 0.000000 1.825520 
# 
# From -- ./inp_files/36903.got.cif
#   From: 2010.05.17/outbox.cif.g08.bks.cpg/sg10_19_cif.got.tgz:36903.got - 2010.06.03 11:33:40.
