data_PCOD9144165
_publ_section_title
;
Structure prediction by ZEFSAII (Michael W. Deem and Ramdas Pophale) SiO2 
 PCOD9144165
Probable space group: P 2/M
;
_chemical_formula_sum "Si O2"
_cell_formula_units_Z 26
_cell_length_a 7.573665
_cell_length_b 17.215457
_cell_length_c 15.881107
_cell_angle_alpha 90.000000
_cell_angle_beta 33.399927
_cell_angle_gamma 90.000000
_cell_volume 1139.847389
_symmetry_space_group_name_H-M "P 2/M"
_symmetry_group_IT_number 10
_symmetry_cell_setting 'monoclinic'
loop_
_space_group_symop_operation_xyz
x,y,z
-x,y,-z
-x,-y,-z
x,-y,z
loop_
_atom_site_type_symbol
_atom_site_label
_atom_site_fract_x
_atom_site_fract_y
_atom_site_fract_z
Si Si1 0.777513 0.000000 0.819306
Si Si2 0.274331 0.750014 0.455387
Si Si3 0.643275 0.000000 0.180878
Si Si4 0.529335 0.415693 0.588856
Si Si5 0.346035 0.832227 0.820643
Si Si6 0.097614 0.828228 0.258109
Si Si7 0.123903 0.589681 0.045039
Si Si8 0.500000 0.709787 0.000000
O O1 0.949371 0.083797 0.755735
O O2 0.606465 0.000000 0.796400
O O3 0.500000 0.000000 0.000000
O O4 0.260772 0.658380 0.472625
O O5 0.591349 0.771601 0.277945
O O6 0.000000 0.776066 0.500000
O O7 0.197388 0.794343 0.571637
O O8 0.609354 0.917698 0.238723
O O9 0.000000 0.000000 0.000000
O O10 0.500000 0.415468 0.500000
O O11 0.658128 0.500000 0.564244
O O12 0.180621 0.407076 0.770809
O O13 0.600454 0.828118 0.796073
O O14 0.000000 0.825020 0.000000
O O15 0.215100 0.766885 0.142116
O O16 0.246575 0.500000 0.998297
O O17 0.382413 0.652388 0.972690
O O18 0.000000 0.605229 0.000000
#
# Coordination Sequence:
#
# PCOD9144165 Si02
#       8
#     2   4   2   4   4   4   4   2
#     4  10  18  37  57  77 126 167 205 254 311 390
#     4  10  22  37  57  91 122 151 212 263 317 382
#     4   8  16  33  53  83 109 150 207 250 313 377
#     4  10  22  42  62  83 122 167 207 258 331 397
#     4   9  19  35  60  85 119 161 206 264 324 383
#     4  10  22  36  57  94 119 166 213 260 319 380
#     4  10  24  43  66  98 131 171 217 269 330 392
#     4  12  23  37  68  94 134 168 222 265 321 388
#
# _framework density 22.81007
#
# number of rings (size 3 to 8) (size 9 to 14) (size 15 to 20)
#    0.000    2.154    0.769    1.154    6.462    0.923 
#    0.000    3.846    0.000    0.000    0.000    5.385 
#    0.000    0.000    0.000    0.000    0.000    0.000 
#
# Total GULP energy -145287.657063 kJ/mol
# GULP energy per Si atom -5587.986810 kJ/mol
# Density = 2.275815 g / cm^3
# Si number density = 22.810070 Si / 1000 Ang^3
#
#
#
# Elastic Constant Matrix: (Units=GPa)
#
#
# Indices 1 2 3 4 5 6 
#
# 1 71.7123 39.4619 23.4862 0.0000 -4.1913 0.0000
# 2 39.4619 184.0028 38.7434 0.0000 18.3229 0.0000
# 3 23.4862 38.7434 88.5057 0.0000 22.8370 0.0000
# 4 0.0000 0.0000 0.0000 40.9599 0.0000 2.1934
# 5 -4.1913 18.3229 22.8370 0.0000 27.1471 0.0000
# 6 0.0000 0.0000 0.0000 2.1934 0.0000 12.8198
#
#
#
# Elastic Compliance Matrix: (Units=1/GPa)
#
#
# Indices 1 2 3 4 5 6 
#
# 1 0.018585 -0.003767 -0.005976 0.000000 0.010439 0.000000
# 2 -0.003767 0.006869 -0.000844 0.000000 -0.004508 0.000000
# 3 -0.005976 -0.000844 0.017045 0.000000 -0.014692 0.000000
# 4 0.000000 0.000000 0.000000 0.024640 0.000000 -0.004216
# 5 0.010439 -0.004508 -0.014692 0.000000 0.053850 0.000000
# 6 0.000000 0.000000 0.000000 -0.004216 0.000000 0.078725
#
#
# Mechanical properties :
#
#
# Convention : Reuss Voigt Hill
#
# Bulk Modulus (GPa) = 46.89572 60.84486 53.87029
# Shear Modulus (GPa) = 21.93006 32.35399 27.14203
#
# Velocity S-wave (km/s) = 3.10404 3.77026 3.45326
# Velocity P-wave (km/s) = 5.78365 6.75912 6.29032
#
# Compressibility (1/GPa) = 0.02132391
#
# Stress axis : x y z
#
# Youngs Moduli (GPa) = 53.80691 145.57686 58.66793
#
# Poissons Ratio (x) = 0.54838 0.35063
# Poissons Ratio (y) = 0.20269 0.04953
# Poissons Ratio (z) = 0.32157 0.12291
#
# Static dielectric constant tensor:
#      x y z
#    x 1.904960 0.000000 -0.004040 
#    y 0.000000 1.889100 0.000000 
#    z -0.004040 0.000000 1.859960 
# 
# From -- ./inp_files/75487.got.cif
#   From: 2010.05.17/outbox.cif.g08.bks.cpg/sg10_38_cif.got.tgz:75487.got - 2010.06.03 11:33:40.
