data_PCOD9144806
_publ_section_title
;
Structure prediction by ZEFSAII (Michael W. Deem and Ramdas Pophale) SiO2 
 PCOD9144806
Probable space group: P 2/M
;
_chemical_formula_sum "Si O2"
_cell_formula_units_Z 28
_cell_length_a 19.077053
_cell_length_b 8.759377
_cell_length_c 14.404602
_cell_angle_alpha 90.000000
_cell_angle_beta 132.192641
_cell_angle_gamma 90.000000
_cell_volume 1783.364052
_symmetry_space_group_name_H-M "P 2/M"
_symmetry_group_IT_number 10
_symmetry_cell_setting 'monoclinic'
loop_
_space_group_symop_operation_xyz
x,y,z
-x,y,-z
-x,-y,-z
x,-y,z
loop_
_atom_site_type_symbol
_atom_site_label
_atom_site_fract_x
_atom_site_fract_y
_atom_site_fract_z
Si Si1 0.417794 0.182800 0.998702
Si Si2 0.776767 0.318005 0.249317
Si Si3 0.607306 0.323362 0.635913
Si Si4 0.323860 0.686651 0.493767
Si Si5 0.032851 0.175911 0.637189
Si Si6 0.470924 0.314544 0.245035
Si Si7 0.159791 0.683998 0.485446
O O1 0.439943 0.251312 0.119078
O O2 0.417731 0.000000 0.004145
O O3 0.500000 0.230620 0.000000
O O4 0.317397 0.240161 0.871780
O O5 0.766570 0.500000 0.236170
O O6 0.869064 0.266823 0.273639
O O7 0.796683 0.275156 0.374806
O O8 0.500000 0.325561 0.500000
O O9 0.636945 0.500000 0.673415
O O10 0.668673 0.256818 0.606068
O O11 0.595519 0.258720 0.728708
O O12 0.323937 0.500000 0.490533
O O13 0.420879 0.728973 0.633241
O O14 0.232380 0.734230 0.470273
O O15 0.000000 0.181819 0.500000
O O16 0.944789 0.246568 0.613971
O O17 0.048105 0.000000 0.675877
O O18 0.467825 0.500000 0.241344
O O19 0.152293 0.500000 0.476797
#
# Coordination Sequence:
#
# PCOD9144806 Si02
#       7
#     4   4   4   4   4   4   4
#     4  11  23  34  43  60  89 122 151 179 214 255
#     4  10  19  31  47  65  86 114 150 186 214 248
#     4   7  11  21  40  65  88 110 140 179 219 256
#     4   8  13  23  42  68  93 114 140 179 222 257
#     4   9  17  29  44  62  87 117 145 175 216 263
#     4   9  16  28  46  65  86 116 153 185 212 249
#     4   9  16  26  43  67  91 114 143 180 218 255
#
# _framework density 15.700665000000001
#
# number of rings (size 3 to 8) (size 9 to 14) (size 15 to 20)
#    0.000    3.000    0.000    3.857    0.000    4.571 
#    0.000    0.714    0.000    4.714    0.000    1.000 
#    0.000    8.000    0.000    0.000    0.000    0.000 
#
# Total GULP energy -155892.444418 kJ/mol
# GULP energy per Si atom -5567.587301 kJ/mol
# Density = 1.566493 g / cm^3
# Si number density = 15.700665 Si / 1000 Ang^3
#
#
#
# Elastic Constant Matrix: (Units=GPa)
#
#
# Indices 1 2 3 4 5 6 
#
# 1 165.4919 27.9039 58.5458 0.0000 1.9610 0.0000
# 2 27.9039 17.7838 18.8542 0.0000 -0.5388 0.0000
# 3 58.5458 18.8542 63.7288 0.0000 0.1214 0.0000
# 4 0.0000 0.0000 0.0000 9.4218 0.0000 5.1845
# 5 1.9610 -0.5388 0.1214 0.0000 24.1815 0.0000
# 6 0.0000 0.0000 0.0000 5.1845 0.0000 14.5773
#
#
#
# Elastic Compliance Matrix: (Units=1/GPa)
#
#
# Indices 1 2 3 4 5 6 
#
# 1 0.009775 -0.008520 -0.006457 0.000000 -0.000950 0.000000
# 2 -0.008520 0.089446 -0.018641 0.000000 0.002778 0.000000
# 3 -0.006457 -0.018641 0.027139 0.000000 -0.000028 0.000000
# 4 0.000000 0.000000 0.000000 0.131962 0.000000 -0.046933
# 5 -0.000950 0.002778 -0.000028 0.000000 0.041493 0.000000
# 6 0.000000 0.000000 0.000000 -0.046933 0.000000 0.085291
#
#
# Mechanical properties :
#
#
# Convention : Reuss Voigt Hill
#
# Bulk Modulus (GPa) = 16.91384 50.84582 33.87983
# Shear Modulus (GPa) = 10.59208 19.08284 14.83746
#
# Velocity S-wave (km/s) = 2.60017 3.49006 3.07745
# Velocity P-wave (km/s) = 4.45091 6.97822 5.85261
#
# Compressibility (1/GPa) = 0.05912319
#
# Stress axis : x y z
#
# Youngs Moduli (GPa) = 102.30309 11.17990 36.84779
#
# Poissons Ratio (x) = 0.09525 0.23794
# Poissons Ratio (y) = 0.87163 0.68687
# Poissons Ratio (z) = 0.66061 0.20840
#
# Static dielectric constant tensor:
#      x y z
#    x 1.554700 0.000000 -0.008830 
#    y 0.000000 1.527560 0.000000 
#    z -0.008830 0.000000 1.491280 
# 
# From -- ./inp_files/54670.got.cif
#   From: 2010.05.17/outbox.cif.g08.bks.cpg/sg10_28_cif.got.tgz:54670.got - 2010.06.03 11:33:40.
