data_PCOD9144365
_publ_section_title
;
Structure prediction by ZEFSAII (Michael W. Deem and Ramdas Pophale) SiO2 
 PCOD9144365
Probable space group: P 2/M
;
_chemical_formula_sum "Si O2"
_cell_formula_units_Z 24
_cell_length_a 7.434424
_cell_length_b 10.146660
_cell_length_c 13.071785
_cell_angle_alpha 90.000000
_cell_angle_beta 76.679597
_cell_angle_gamma 90.000000
_cell_volume 959.536313
_symmetry_space_group_name_H-M "P 2/M"
_symmetry_group_IT_number 10
_symmetry_cell_setting 'monoclinic'
loop_
_space_group_symop_operation_xyz
x,y,z
-x,y,-z
-x,-y,-z
x,-y,z
loop_
_atom_site_type_symbol
_atom_site_label
_atom_site_fract_x
_atom_site_fract_y
_atom_site_fract_z
Si Si1 0.722547 0.738862 0.724853
Si Si2 0.224742 0.143195 0.845315
Si Si3 0.773616 0.500000 0.974310
Si Si4 0.496452 0.500000 0.818500
Si Si5 0.812052 0.207900 0.929979
Si Si6 0.779512 0.144763 0.507799
Si Si7 0.158618 0.657212 0.673992
O O1 0.573527 0.623538 0.747058
O O2 0.707854 0.808898 0.836797
O O3 0.694388 0.827670 0.629777
O O4 0.934115 0.680736 0.694994
O O5 0.230622 0.257815 0.760801
O O6 0.003810 0.134402 0.892173
O O7 0.293396 0.000000 0.801817
O O8 0.293029 0.174694 0.951494
O O9 0.702862 0.500000 0.100840
O O10 0.616844 0.500000 0.907401
O O11 0.867172 0.362154 0.936582
O O12 0.753510 0.267409 0.435119
O O13 0.000000 0.139948 0.500000
O O14 0.726858 0.000000 0.473682
O O15 0.193737 0.500000 0.674263
#
# Coordination Sequence:
#
# PCOD9144365 Si02
#       7
#     4   4   2   2   4   4   4
#     4   9  17  28  47  69  97 126 161 194 236 279
#     4  10  20  31  47  70 102 132 156 188 234 292
#     4   9  18  29  46  71  93 130 158 210 234 278
#     4   9  16  30  45  67 101 123 164 198 252 265
#     4   9  18  29  47  68  97 123 162 189 236 280
#     4   9  18  29  44  67  99 132 158 189 234 286
#     4  10  19  29  46  71 101 129 161 193 229 283
#
# _framework density 25.012081999999999
#
# number of rings (size 3 to 8) (size 9 to 14) (size 15 to 20)
#    0.000    2.667    0.833    1.500    5.833    6.333 
#    0.000    0.000    0.000    2.000    0.000   19.833 
#    0.000    2.667    0.000    0.000    0.000    0.000 
#
# Total GULP energy -134037.018366 kJ/mol
# GULP energy per Si atom -5584.875765 kJ/mol
# Density = 2.495515 g / cm^3
# Si number density = 25.012082 Si / 1000 Ang^3
#
#
#
# Elastic Constant Matrix: (Units=GPa)
#
#
# Indices 1 2 3 4 5 6 
#
# 1 53.3416 22.8911 29.0953 0.0000 -11.8838 0.0000
# 2 22.8911 204.9643 90.6345 0.0000 11.5607 0.0000
# 3 29.0953 90.6345 167.6785 0.0000 18.2598 0.0000
# 4 0.0000 0.0000 0.0000 -13.7407 0.0000 -26.0668
# 5 -11.8838 11.5607 18.2598 0.0000 21.8373 0.0000
# 6 0.0000 0.0000 0.0000 -26.0668 0.0000 -55.8863
#
#
#
# Elastic Compliance Matrix: (Units=1/GPa)
#
#
# Indices 1 2 3 4 5 6 
#
# 1 0.027457 -0.001488 -0.006241 0.000000 0.020949 0.000000
# 2 -0.001488 0.006498 -0.003071 0.000000 -0.001682 0.000000
# 3 -0.006241 -0.003071 0.009791 0.000000 -0.009958 0.000000
# 4 0.000000 0.000000 0.000000 -0.631923 0.000000 0.294745
# 5 0.020949 -0.001682 -0.009958 0.000000 0.066410 0.000000
# 6 0.000000 0.000000 0.000000 0.294745 0.000000 -0.155371
#
#
# Mechanical properties :
#
#
# Convention : Reuss Voigt Hill
#
# Bulk Modulus (GPa) = 45.15592 79.02513 62.09052
# Shear Modulus (GPa) = -7.71421 9.33295 0.80937
#
# Velocity S-wave (km/s) = -1.75809 1.93377 0.56947
# Velocity P-wave (km/s) = 3.73787 6.05387 5.03095
#
# Compressibility (1/GPa) = 0.02214549
#
# Stress axis : x y z
#
# Youngs Moduli (GPa) = 36.42047 153.89549 102.13470
#
# Poissons Ratio (x) = 0.22904 0.63744
# Poissons Ratio (y) = 0.05420 0.31364
# Poissons Ratio (z) = 0.22730 0.47259
#
# Static dielectric constant tensor:
#      x y z
#    x 2.043000 0.000000 -0.010390 
#    y 0.000000 1.995160 0.000000 
#    z -0.010390 0.000000 2.029470 
# 
# From -- ./inp_files/63118.got.cif
#   From: 2010.05.17/outbox.cif.g08.bks.cpg/sg10_32_cif.got.tgz:63118.got - 2010.06.03 11:33:40.
