data_PCOD9144524
_publ_section_title
;
Structure prediction by ZEFSAII (Michael W. Deem and Ramdas Pophale) SiO2 
 PCOD9144524
Probable space group: P 2/M
;
_chemical_formula_sum "Si O2"
_cell_formula_units_Z 32
_cell_length_a 13.914544
_cell_length_b 15.121141
_cell_length_c 16.433560
_cell_angle_alpha 90.000000
_cell_angle_beta 33.856147
_cell_angle_gamma 90.000000
_cell_volume 1926.308736
_symmetry_space_group_name_H-M "P 2/M"
_symmetry_group_IT_number 10
_symmetry_cell_setting 'monoclinic'
loop_
_space_group_symop_operation_xyz
x,y,z
-x,y,-z
-x,-y,-z
x,-y,z
loop_
_atom_site_type_symbol
_atom_site_label
_atom_site_fract_x
_atom_site_fract_y
_atom_site_fract_z
Si Si1 0.151787 0.900148 0.210692
Si Si2 0.580783 0.245678 0.030619
Si Si3 0.210561 0.601839 0.029257
Si Si4 0.804843 0.664419 0.141801
Si Si5 0.189039 0.398312 0.678847
Si Si6 0.759237 0.901176 0.492417
Si Si7 0.687202 0.900512 0.729658
Si Si8 0.458568 0.749966 0.436564
O O1 0.264509 0.822833 0.094306
O O2 0.181506 0.894681 0.287237
O O3 0.954168 0.889510 0.325758
O O4 0.207122 0.000000 0.148577
O O5 0.500000 0.272320 0.000000
O O6 0.655249 0.328858 0.027016
O O7 0.440659 0.182416 0.172115
O O8 0.246765 0.500000 0.025863
O O9 0.212696 0.610598 0.929555
O O10 0.012889 0.622803 0.196213
O O11 0.795069 0.611414 0.234000
O O12 0.638722 0.727216 0.265980
O O13 0.000000 0.704210 0.000000
O O14 0.221962 0.500000 0.633282
O O15 0.327298 0.333503 0.539572
O O16 0.766782 0.896795 0.584756
O O17 0.637848 0.826845 0.542573
O O18 0.699303 0.000000 0.512655
O O19 0.606656 0.000000 0.794315
O O20 0.500000 0.777109 0.500000
#
# Coordination Sequence:
#
# PCOD9144524 Si02
#       8
#     4   4   4   4   4   4   4   4
#     4   9  17  30  49  71  92 116 150 193 236 270
#     4  10  19  30  46  68  95 125 154 186 224 270
#     4  10  19  31  47  67  94 125 154 186 224 270
#     4   9  18  32  50  70  91 116 149 191 235 270
#     4   9  18  32  50  71  92 116 150 193 236 270
#     4  10  19  31  48  69  94 123 153 186 224 270
#     4   9  17  30  48  70  93 117 150 193 236 270
#     4  10  20  32  48  69  94 123 152 185 224 271
#
# _framework density 16.612082999999998
#
# number of rings (size 3 to 8) (size 9 to 14) (size 15 to 20)
#    0.000    2.500    0.000    2.625    0.000    7.750 
#    0.000    0.000    0.000    0.375    0.000    0.000 
#    0.000   14.000    0.000    0.000    0.000    0.000 
#
# Total GULP energy -178198.359083 kJ/mol
# GULP energy per Si atom -5568.698721 kJ/mol
# Density = 1.657427 g / cm^3
# Si number density = 16.612083 Si / 1000 Ang^3
#
#
#
# Elastic Constant Matrix: (Units=GPa)
#
#
# Indices 1 2 3 4 5 6 
#
# 1 32.4058 44.6397 20.1890 0.0000 -16.2611 0.0000
# 2 44.6397 98.6721 44.1413 0.0000 -20.9899 0.0000
# 3 20.1890 44.1413 81.2523 0.0000 -14.0066 0.0000
# 4 0.0000 0.0000 0.0000 13.5383 0.0000 -5.9541
# 5 -16.2611 -20.9899 -14.0066 0.0000 18.5104 0.0000
# 6 0.0000 0.0000 0.0000 -5.9541 0.0000 18.7316
#
#
#
# Elastic Compliance Matrix: (Units=1/GPa)
#
#
# Indices 1 2 3 4 5 6 
#
# 1 0.112548 -0.040805 0.003761 0.000000 0.055447 0.000000
# 2 -0.040805 0.030525 -0.007655 0.000000 -0.007025 0.000000
# 3 0.003761 -0.007655 0.016796 0.000000 0.007332 0.000000
# 4 0.000000 0.000000 0.000000 0.085869 0.000000 0.027294
# 5 0.055447 -0.007025 0.007332 0.000000 0.100315 0.000000
# 6 0.000000 0.000000 0.000000 0.027294 0.000000 0.062061
#
#
# Mechanical properties :
#
#
# Convention : Reuss Voigt Hill
#
# Bulk Modulus (GPa) = 14.19037 47.80780 30.99908
# Shear Modulus (GPa) = 9.59688 17.04674 13.32181
#
# Velocity S-wave (km/s) = 2.40616 3.20686 2.83492
# Velocity P-wave (km/s) = 4.03487 6.52329 5.42372
#
# Compressibility (1/GPa) = 0.07047035
#
# Stress axis : x y z
#
# Youngs Moduli (GPa) = 8.88508 32.76012 59.53925
#
# Poissons Ratio (x) = 1.33676 -0.22390
# Poissons Ratio (y) = 0.36255 0.45578
# Poissons Ratio (z) = -0.03341 0.25078
#
# Static dielectric constant tensor:
#      x y z
#    x 1.548560 0.000000 -0.006110 
#    y 0.000000 1.543810 0.000000 
#    z -0.006110 0.000000 1.573790 
# 
# From -- ./inp_files/29483.got.cif
#   From: 2010.05.17/outbox.cif.g08.bks.cpg/sg10_15_cif.got.tgz:29483.got - 2010.06.03 11:33:40.
