data_PCOD9144903
_publ_section_title
;
Structure prediction by ZEFSAII (Michael W. Deem and Ramdas Pophale) SiO2 
 PCOD9144903
Probable space group: P 2/M
;
_chemical_formula_sum "Si O2"
_cell_formula_units_Z 32
_cell_length_a 12.119549
_cell_length_b 8.936898
_cell_length_c 17.599332
_cell_angle_alpha 90.000000
_cell_angle_beta 84.266172
_cell_angle_gamma 90.000000
_cell_volume 1896.667094
_symmetry_space_group_name_H-M "P 2/M"
_symmetry_group_IT_number 10
_symmetry_cell_setting 'monoclinic'
loop_
_space_group_symop_operation_xyz
x,y,z
-x,y,-z
-x,-y,-z
x,-y,z
loop_
_atom_site_type_symbol
_atom_site_label
_atom_site_fract_x
_atom_site_fract_y
_atom_site_fract_z
Si Si1 0.382435 0.179529 0.227106
Si Si2 0.734244 0.819850 0.405614
Si Si3 0.860183 0.182476 0.711960
Si Si4 0.273776 0.327724 0.832423
Si Si5 0.471621 0.681202 0.915731
Si Si6 0.099804 0.179142 0.744628
Si Si7 0.122177 0.817583 0.463482
Si Si8 0.446857 0.672786 0.678585
O O1 0.254227 0.226107 0.240692
O O2 0.442830 0.248115 0.149697
O O3 0.447721 0.237687 0.297244
O O4 0.389886 0.000000 0.224351
O O5 0.828452 0.783103 0.335813
O O6 0.783740 0.771375 0.483078
O O7 0.620221 0.745414 0.386260
O O8 0.721004 0.000000 0.406138
O O9 0.859008 0.230639 0.624033
O O10 0.974256 0.233904 0.742882
O O11 0.863240 0.000000 0.711260
O O12 0.243739 0.500000 0.847596
O O13 0.347974 0.271757 0.897552
O O14 0.166510 0.239888 0.812162
O O15 0.359852 0.322539 0.755415
O O16 0.475926 0.500000 0.907582
O O17 0.500000 0.720591 0.000000
O O18 0.097899 0.000000 0.748737
O O19 0.000000 0.770915 0.500000
O O20 0.121898 0.000000 0.464300
O O21 0.474098 0.500000 0.662283
#
# Coordination Sequence:
#
# PCOD9144903 Si02
#       8
#     4   4   4   4   4   4   4   4
#     4  10  19  31  48  71  98 123 154 193 231 278
#     4   9  15  24  45  71  89 113 158 209 245 275
#     4   9  17  28  43  67  98 128 155 192 240 283
#     4   8  15  27  44  68  92 113 145 189 229 267
#     4   9  18  34  55  75  96 123 152 186 231 279
#     4   9  15  25  43  67  93 121 154 190 231 274
#     4   9  14  24  43  68  95 122 158 202 244 281
#     4   9  17  30  46  62  89 126 159 195 239 283
#
# _framework density 16.871701000000002
#
# number of rings (size 3 to 8) (size 9 to 14) (size 15 to 20)
#    0.000    3.000    1.250    1.500    0.000    3.250 
#    0.000    1.875    0.000    7.125    0.000    5.250 
#    0.000    0.000    0.000    0.000    0.000    0.000 
#
# Total GULP energy -178208.836618 kJ/mol
# GULP energy per Si atom -5569.026144 kJ/mol
# Density = 1.683330 g / cm^3
# Si number density = 16.871701 Si / 1000 Ang^3
#
#
#
# Elastic Constant Matrix: (Units=GPa)
#
#
# Indices 1 2 3 4 5 6 
#
# 1 130.5343 31.1860 65.3206 0.0000 28.2517 0.0000
# 2 31.1860 16.9994 20.1817 0.0000 6.8248 0.0000
# 3 65.3206 20.1817 87.7627 0.0000 31.2502 0.0000
# 4 0.0000 0.0000 0.0000 10.9690 0.0000 -0.7152
# 5 28.2517 6.8248 31.2502 0.0000 30.0194 0.0000
# 6 0.0000 0.0000 0.0000 -0.7152 0.0000 -8.0692
#
#
#
# Elastic Compliance Matrix: (Units=1/GPa)
#
#
# Indices 1 2 3 4 5 6 
#
# 1 0.016894 -0.022241 -0.005719 0.000000 -0.004890 0.000000
# 2 -0.022241 0.110241 -0.011641 0.000000 0.007986 0.000000
# 3 -0.005719 -0.011641 0.024580 0.000000 -0.017560 0.000000
# 4 0.000000 0.000000 0.000000 0.090642 0.000000 -0.008034
# 5 -0.004890 0.007986 -0.017560 0.000000 0.054378 0.000000
# 6 0.000000 0.000000 0.000000 -0.008034 0.000000 -0.123217
#
#
# Mechanical properties :
#
#
# Convention : Reuss Voigt Hill
#
# Bulk Modulus (GPa) = 13.79032 52.07478 32.93255
# Shear Modulus (GPa) = 18.05763 14.49107 16.27435
#
# Velocity S-wave (km/s) = 3.27508 2.93388 3.10916
# Velocity P-wave (km/s) = 4.74267 6.51222 5.69657
#
# Compressibility (1/GPa) = 0.07251463
#
# Stress axis : x y z
#
# Youngs Moduli (GPa) = 59.19118 9.07103 40.68350
#
# Poissons Ratio (x) = 0.20175 0.23265
# Poissons Ratio (y) = 1.31648 0.47359
# Poissons Ratio (z) = 0.33849 0.10559
#
# Static dielectric constant tensor:
#      x y z
#    x 1.579750 0.000000 0.018620 
#    y 0.000000 1.572250 0.000000 
#    z 0.018620 0.000000 1.564480 
# 
# From -- ./inp_files/52806.got.cif
#   From: 2010.05.17/outbox.cif.g08.bks.cpg/sg10_27_cif.got.tgz:52806.got - 2010.06.03 11:33:40.
