data_PCOD9144526
_publ_section_title
;
Structure prediction by ZEFSAII (Michael W. Deem and Ramdas Pophale) SiO2 
 PCOD9144526
Probable space group: P 2/M
;
_chemical_formula_sum "Si O2"
_cell_formula_units_Z 32
_cell_length_a 14.926694
_cell_length_b 7.627140
_cell_length_c 14.778679
_cell_angle_alpha 90.000000
_cell_angle_beta 73.535617
_cell_angle_gamma 90.000000
_cell_volume 1613.532831
_symmetry_space_group_name_H-M "P 2/M"
_symmetry_group_IT_number 10
_symmetry_cell_setting 'monoclinic'
loop_
_space_group_symop_operation_xyz
x,y,z
-x,y,-z
-x,-y,-z
x,-y,z
loop_
_atom_site_type_symbol
_atom_site_label
_atom_site_fract_x
_atom_site_fract_y
_atom_site_fract_z
Si Si1 0.895859 0.791081 0.506120
Si Si2 0.102534 0.789432 0.994320
Si Si3 0.628173 0.214369 0.882843
Si Si4 0.263236 0.209745 0.815633
Si Si5 0.416385 0.213793 0.904673
Si Si6 0.138205 0.708034 0.691957
Si Si7 0.935197 0.708707 0.796976
Si Si8 0.784554 0.799447 0.701206
O O1 0.869037 0.765573 0.409660
O O2 0.816604 0.718753 0.596801
O O3 0.000000 0.721399 0.500000
O O4 0.899607 0.000000 0.522111
O O5 0.116992 0.749625 0.095056
O O6 0.100875 0.000000 0.984979
O O7 0.181123 0.720907 0.904734
O O8 0.000000 0.719120 0.000000
O O9 0.524506 0.266035 0.879715
O O10 0.706492 0.279156 0.790432
O O11 0.633560 0.000000 0.882614
O O12 0.633962 0.268007 0.986781
O O13 0.359661 0.273452 0.832615
O O14 0.229233 0.243731 0.723737
O O15 0.265520 0.000000 0.823979
O O16 0.417300 0.000000 0.905218
O O17 0.133832 0.500000 0.693588
O O18 0.042646 0.772865 0.768173
O O19 0.934590 0.500000 0.782620
O O20 0.879915 0.797022 0.731627
O O21 0.754069 0.000000 0.692941
#
# Coordination Sequence:
#
# PCOD9144526 Si02
#       8
#     4   4   4   4   4   4   4   4
#     4  10  20  34  52  73  96 126 166 210 252 293
#     4  10  19  30  46  68  95 129 165 199 234 281
#     4   8  14  27  49  78 106 126 154 199 248 294
#     4  10  19  32  51  73  99 133 170 203 242 292
#     4   8  14  26  48  78 106 129 155 195 245 293
#     4  11  23  35  48  68  98 135 169 203 246 294
#     4  11  22  32  45  68 100 134 165 199 241 292
#     4  10  19  32  53  75  97 126 162 205 250 295
#
# _framework density 19.832257999999999
#
# number of rings (size 3 to 8) (size 9 to 14) (size 15 to 20)
#    0.000    2.250    2.500    2.250    0.000    4.500 
#    0.000    0.000    0.000    1.500    0.000    7.875 
#    0.000    0.000    0.000    0.000    0.000    0.000 
#
# Total GULP energy -178505.732432 kJ/mol
# GULP energy per Si atom -5578.304139 kJ/mol
# Density = 1.978712 g / cm^3
# Si number density = 19.832258 Si / 1000 Ang^3
#
#
#
# Elastic Constant Matrix: (Units=GPa)
#
#
# Indices 1 2 3 4 5 6 
#
# 1 92.9793 -0.3287 52.4450 0.0000 10.4521 0.0000
# 2 -0.3287 37.9220 -10.3766 0.0000 -4.5770 0.0000
# 3 52.4450 -10.3766 113.7306 0.0000 14.8957 0.0000
# 4 0.0000 0.0000 0.0000 44.2573 0.0000 12.7300
# 5 10.4521 -4.5770 14.8957 0.0000 30.2859 0.0000
# 6 0.0000 0.0000 0.0000 12.7300 0.0000 -0.1123
#
#
#
# Elastic Compliance Matrix: (Units=1/GPa)
#
#
# Indices 1 2 3 4 5 6 
#
# 1 0.014772 -0.001962 -0.006717 0.000000 -0.002091 0.000000
# 2 -0.001962 0.027576 0.002978 0.000000 0.003380 0.000000
# 3 -0.006717 0.002978 0.012612 0.000000 -0.003435 0.000000
# 4 0.000000 0.000000 0.000000 0.000672 0.000000 0.076217
# 5 -0.002091 0.003380 -0.003435 0.000000 0.035940 0.000000
# 6 0.000000 0.000000 0.000000 0.076217 0.000000 -0.264978
#
#
# Mechanical properties :
#
#
# Convention : Reuss Voigt Hill
#
# Bulk Modulus (GPa) = 22.95835 36.45680 29.70758
# Shear Modulus (GPa) = -33.90188 28.41232 -2.74478
#
# Velocity S-wave (km/s) = -4.13901 3.78912 -1.17771
# Velocity P-wave (km/s) = 3.35269 6.12909 3.62803
#
# Compressibility (1/GPa) = 0.04355713
#
# Stress axis : x y z
#
# Youngs Moduli (GPa) = 67.69605 36.26378 79.29127
#
# Poissons Ratio (x) = 0.07116 0.53260
# Poissons Ratio (y) = 0.13284 -0.23614
# Poissons Ratio (z) = 0.45472 -0.10800
#
# Static dielectric constant tensor:
#      x y z
#    x 1.720450 0.000000 0.007760 
#    y 0.000000 1.733320 0.000000 
#    z 0.007760 0.000000 1.731320 
# 
# From -- ./inp_files/66026.got.cif
#   From: 2010.05.17/outbox.cif.g08.bks.cpg/sg10_34_cif.got.tgz:66026.got - 2010.06.03 11:33:40.
