data_PCOD9144470
_publ_section_title
;
Structure prediction by ZEFSAII (Michael W. Deem and Ramdas Pophale) SiO2 
 PCOD9144470
Probable space group: P 2/M
;
_chemical_formula_sum "Si O2"
_cell_formula_units_Z 32
_cell_length_a 20.272250
_cell_length_b 9.144521
_cell_length_c 15.120595
_cell_angle_alpha 90.000000
_cell_angle_beta 135.953201
_cell_angle_gamma 90.000000
_cell_volume 1948.812709
_symmetry_space_group_name_H-M "P 2/M"
_symmetry_group_IT_number 10
_symmetry_cell_setting 'monoclinic'
loop_
_space_group_symop_operation_xyz
x,y,z
-x,y,-z
-x,-y,-z
x,-y,z
loop_
_atom_site_type_symbol
_atom_site_label
_atom_site_fract_x
_atom_site_fract_y
_atom_site_fract_z
Si Si1 0.316912 0.667061 0.113468
Si Si2 0.004708 0.325394 0.401023
Si Si3 0.464104 0.668087 0.089774
Si Si4 0.471363 0.175305 0.373457
Si Si5 0.685081 0.169391 0.166429
Si Si6 0.614682 0.825519 0.353269
Si Si7 0.830875 0.831951 0.141499
Si Si8 0.777198 0.674284 0.423567
O O1 0.296135 0.500000 0.117177
O O2 0.388385 0.665325 0.097948
O O3 0.376467 0.747971 0.246646
O O4 0.223437 0.749900 0.989897
O O5 0.986859 0.500000 0.382479
O O6 0.110421 0.298256 0.466831
O O7 0.000000 0.279178 0.500000
O O8 0.925267 0.246327 0.266832
O O9 0.491758 0.500000 0.098673
O O10 0.550498 0.763005 0.211026
O O11 0.407161 0.743253 0.955402
O O12 0.500000 0.218149 0.500000
O O13 0.556069 0.208851 0.385821
O O14 0.457396 0.000000 0.357421
O O15 0.757962 0.169306 0.154157
O O16 0.736719 0.251465 0.295776
O O17 0.663613 0.000000 0.167224
O O18 0.715637 0.746658 0.442045
O O19 0.624030 0.000000 0.355159
O O20 0.849276 0.000000 0.135892
O O21 0.762067 0.500000 0.406200
#
# Coordination Sequence:
#
# PCOD9144470 Si02
#       8
#     4   4   4   4   4   4   4   4
#     4   9  17  29  48  74 103 131 161 199 242 291
#     4  10  20  34  50  68  93 129 173 216 254 290
#     4   9  17  30  47  66  92 127 165 200 238 285
#     4   9  18  34  56  80 105 131 158 192 239 296
#     4  10  19  30  45  67  93 125 166 208 247 284
#     4  10  20  34  50  70  98 127 158 198 241 289
#     4  10  19  30  48  71  98 130 167 212 253 290
#     4  11  22  34  48  66  93 129 168 207 247 290
#
# _framework density 16.420255000000001
#
# number of rings (size 3 to 8) (size 9 to 14) (size 15 to 20)
#    0.000    2.250    1.250    2.250    0.000    6.500 
#    0.000    2.500    0.000    0.000    0.000    0.875 
#    0.000    7.000    0.000    0.000    0.000    0.000 
#
# Total GULP energy -178607.811229 kJ/mol
# GULP energy per Si atom -5581.494101 kJ/mol
# Density = 1.638288 g / cm^3
# Si number density = 16.420255 Si / 1000 Ang^3
#
#
#
# Elastic Constant Matrix: (Units=GPa)
#
#
# Indices 1 2 3 4 5 6 
#
# 1 54.3894 46.2531 53.8830 0.0000 7.2272 0.0000
# 2 46.2531 106.0856 79.3869 0.0000 13.6031 0.0000
# 3 53.8830 79.3869 143.2162 0.0000 5.6339 0.0000
# 4 0.0000 0.0000 0.0000 29.6633 0.0000 6.2105
# 5 7.2272 13.6031 5.6339 0.0000 27.0570 0.0000
# 6 0.0000 0.0000 0.0000 6.2105 0.0000 35.5113
#
#
#
# Elastic Compliance Matrix: (Units=1/GPa)
#
#
# Indices 1 2 3 4 5 6 
#
# 1 0.033814 -0.008391 -0.007946 0.000000 -0.003159 0.000000
# 2 -0.008391 0.019328 -0.007322 0.000000 -0.005951 0.000000
# 3 -0.007946 -0.007322 0.013917 0.000000 0.002906 0.000000
# 4 0.000000 0.000000 0.000000 0.034993 0.000000 -0.006120
# 5 -0.003159 -0.005951 0.002906 0.000000 0.040190 0.000000
# 6 0.000000 0.000000 0.000000 -0.006120 0.000000 0.029230
#
#
# Mechanical properties :
#
#
# Convention : Reuss Voigt Hill
#
# Bulk Modulus (GPa) = 50.66296 73.63747 62.15021
# Shear Modulus (GPa) = 22.18566 26.72419 24.45492
#
# Velocity S-wave (km/s) = 3.67974 4.03862 3.86335
# Velocity P-wave (km/s) = 6.99821 8.16640 7.60477
#
# Compressibility (1/GPa) = 0.01973829
#
# Stress axis : x y z
#
# Youngs Moduli (GPa) = 29.57345 51.73958 71.85613
#
# Poissons Ratio (x) = 0.43417 0.57099
# Poissons Ratio (y) = 0.24816 0.52615
# Poissons Ratio (z) = 0.23500 0.37885
#
# Static dielectric constant tensor:
#      x y z
#    x 1.573770 0.000000 0.003460 
#    y 0.000000 1.554400 0.000000 
#    z 0.003460 0.000000 1.521520 
# 
# From -- ./inp_files/66071.got.cif
#   From: 2010.05.17/outbox.cif.g08.bks.cpg/sg10_34_cif.got.tgz:66071.got - 2010.06.03 11:33:40.
