data_PCOD9144324
_publ_section_title
;
Structure prediction by ZEFSAII (Michael W. Deem and Ramdas Pophale) SiO2 
 PCOD9144324
Probable space group: P 2/M
;
_chemical_formula_sum "Si O2"
_cell_formula_units_Z 32
_cell_length_a 14.511467
_cell_length_b 15.147170
_cell_length_c 8.724704
_cell_angle_alpha 90.000000
_cell_angle_beta 101.379300
_cell_angle_gamma 90.000000
_cell_volume 1880.058486
_symmetry_space_group_name_H-M "P 2/M"
_symmetry_group_IT_number 10
_symmetry_cell_setting 'monoclinic'
loop_
_space_group_symop_operation_xyz
x,y,z
-x,y,-z
-x,-y,-z
x,-y,z
loop_
_atom_site_type_symbol
_atom_site_label
_atom_site_fract_x
_atom_site_fract_y
_atom_site_fract_z
Si Si1 0.869195 0.403919 0.310060
Si Si2 0.460674 0.106995 0.824128
Si Si3 0.943284 0.226116 0.822165
Si Si4 0.092584 0.595785 0.319022
Si Si5 0.193534 0.102307 0.065046
Si Si6 0.727772 0.893726 0.403020
Si Si7 0.862449 0.208893 0.253991
Si Si8 0.625999 0.896585 0.677171
O O1 0.828738 0.500000 0.252035
O O2 0.869906 0.398648 0.495217
O O3 0.830643 0.311201 0.237397
O O4 0.978865 0.405454 0.296003
O O5 0.352305 0.123959 0.751632
O O6 0.527881 0.139733 0.708064
O O7 0.469840 0.000000 0.827907
O O8 0.500000 0.138701 0.000000
O O9 0.886601 0.315089 0.764989
O O10 0.874796 0.144634 0.829879
O O11 0.024104 0.208774 0.722759
O O12 0.000000 0.241093 0.000000
O O13 0.121189 0.500000 0.262919
O O14 0.299740 0.107951 0.159630
O O15 0.170520 0.000000 0.033218
O O16 0.174951 0.155865 0.904959
O O17 0.819862 0.839773 0.387196
O O18 0.679358 0.862632 0.544901
O O19 0.745346 0.000000 0.415046
O O20 0.609263 0.000000 0.634390
#
# Coordination Sequence:
#
# PCOD9144324 Si02
#       8
#     4   4   4   4   4   4   4   4
#     4   8  15  28  46  66  87 113 145 192 245 283
#     4   9  16  28  47  67  89 118 150 187 233 280
#     4   9  19  30  43  65  89 126 163 193 228 267
#     4   8  14  27  46  65  87 112 144 191 246 289
#     4  10  20  33  45  60  91 132 167 193 228 266
#     4  10  19  29  44  69  95 120 154 191 227 270
#     4  10  19  30  46  67  88 123 160 195 225 275
#     4   9  18  31  45  63  90 123 153 193 235 267
#
# _framework density 17.020747
#
# number of rings (size 3 to 8) (size 9 to 14) (size 15 to 20)
#    0.000    2.875    0.000    2.250    1.750    6.500 
#    0.000    1.875    0.000    2.250    0.000    0.000 
#    0.000    7.500    0.000    0.000    0.000    0.250 
#
# Total GULP energy -178203.449175 kJ/mol
# GULP energy per Si atom -5568.857787 kJ/mol
# Density = 1.698201 g / cm^3
# Si number density = 17.020747 Si / 1000 Ang^3
#
#
#
# Elastic Constant Matrix: (Units=GPa)
#
#
# Indices 1 2 3 4 5 6 
#
# 1 49.7145 27.0149 8.8120 0.0000 -19.1130 0.0000
# 2 27.0149 112.7141 21.0179 0.0000 -0.7670 0.0000
# 3 8.8120 21.0179 29.8278 0.0000 -7.8510 0.0000
# 4 0.0000 0.0000 0.0000 20.5945 0.0000 -1.0392
# 5 -19.1130 -0.7670 -7.8510 0.0000 22.6703 0.0000
# 6 0.0000 0.0000 0.0000 -1.0392 0.0000 -3.0345
#
#
#
# Elastic Compliance Matrix: (Units=1/GPa)
#
#
# Indices 1 2 3 4 5 6 
#
# 1 0.036865 -0.009402 0.004216 0.000000 0.032222 0.000000
# 2 -0.009402 0.012728 -0.008983 0.000000 -0.010607 0.000000
# 3 0.004216 -0.008983 0.043424 0.000000 0.018288 0.000000
# 4 0.000000 0.000000 0.000000 0.047732 0.000000 -0.016347
# 5 0.032222 -0.010607 0.018288 0.000000 0.077251 0.000000
# 6 0.000000 0.000000 0.000000 -0.016347 0.000000 -0.323946
#
#
# Mechanical properties :
#
#
# Convention : Reuss Voigt Hill
#
# Bulk Modulus (GPa) = 15.46139 33.99400 24.72769
# Shear Modulus (GPa) = -89.21169 17.07350 -36.06910
#
# Velocity S-wave (km/s) = -7.24757 3.17061 -4.60839
# Velocity P-wave (km/s) = 7.80595 5.78093 3.70902
#
# Compressibility (1/GPa) = 0.06467724
#
# Stress axis : x y z
#
# Youngs Moduli (GPa) = 27.12605 78.56403 23.02872
#
# Poissons Ratio (x) = 0.73870 -0.09708
# Poissons Ratio (y) = 0.25505 0.20687
# Poissons Ratio (z) = -0.11435 0.70576
#
# Static dielectric constant tensor:
#      x y z
#    x 1.588050 0.000000 -0.021910 
#    y 0.000000 1.595390 0.000000 
#    z -0.021910 0.000000 1.640750 
# 
# From -- ./inp_files/29081.got.cif
#   From: 2010.05.17/outbox.cif.g08.bks.cpg/sg10_15_cif.got.tgz:29081.got - 2010.06.03 11:33:40.
