data_PCOD9144335
_publ_section_title
;
Structure prediction by ZEFSAII (Michael W. Deem and Ramdas Pophale) SiO2 
 PCOD9144335
Probable space group: P 2/M
;
_chemical_formula_sum "Si O2"
_cell_formula_units_Z 28
_cell_length_a 8.993609
_cell_length_b 17.399502
_cell_length_c 19.732224
_cell_angle_alpha 90.000000
_cell_angle_beta 22.988929
_cell_angle_gamma 90.000000
_cell_volume 1205.943944
_symmetry_space_group_name_H-M "P 2/M"
_symmetry_group_IT_number 10
_symmetry_cell_setting 'monoclinic'
loop_
_space_group_symop_operation_xyz
x,y,z
-x,y,-z
-x,-y,-z
x,-y,z
loop_
_atom_site_type_symbol
_atom_site_label
_atom_site_fract_x
_atom_site_fract_y
_atom_site_fract_z
Si Si1 0.498252 0.710468 0.241757
Si Si2 0.118780 0.584053 0.327159
Si Si3 0.696691 0.794136 0.799295
Si Si4 0.103164 0.911969 0.711459
Si Si5 0.037991 0.339981 0.739588
Si Si6 0.474456 0.787496 0.391272
Si Si7 0.031360 0.584893 0.089137
O O1 0.141935 0.655734 0.368285
O O2 0.599297 0.761081 0.131976
O O3 0.436250 0.768468 0.329094
O O4 0.784515 0.647898 0.153850
O O5 0.007260 0.500000 0.400240
O O6 0.890986 0.606394 0.355230
O O7 0.554162 0.580648 0.118029
O O8 0.746965 0.871487 0.822126
O O9 0.747034 0.723493 0.830581
O O10 0.070908 0.803219 0.594904
O O11 0.500000 0.911121 0.500000
O O12 0.228470 0.856476 0.720156
O O13 0.024590 0.000000 0.761222
O O14 0.358034 0.284277 0.636479
O O15 0.924319 0.391711 0.851112
O O16 0.855262 0.500000 0.157048
#
# Coordination Sequence:
#
# PCOD9144335 Si02
#       7
#     4   4   4   4   4   4   4
#     4  10  19  29  45  64  90 123 154 176 217 276
#     4  10  19  31  47  66  88 113 146 197 248 271
#     4   9  17  30  47  66  93 125 149 176 214 258
#     4   8  14  27  48  71  92 115 145 180 217 256
#     4   9  17  28  47  67  88 117 153 184 226 277
#     4   9  17  30  47  66  93 125 149 176 214 258
#     4  10  19  31  47  66  88 113 146 197 248 271
#
# _framework density 23.218326999999999
#
# number of rings (size 3 to 8) (size 9 to 14) (size 15 to 20)
#    0.000    2.714    0.000    3.429    0.000    2.286 
#    0.000    0.714    0.000   63.429    0.000    0.000 
#    0.000  269.714    0.000    0.000    0.000    0.000 
#
# Total GULP energy -156322.033183 kJ/mol
# GULP energy per Si atom -5582.929757 kJ/mol
# Density = 2.316548 g / cm^3
# Si number density = 23.218327 Si / 1000 Ang^3
#
#
#
# Elastic Constant Matrix: (Units=GPa)
#
#
# Indices 1 2 3 4 5 6 
#
# 1 188.6026 64.7933 30.2216 0.0000 2.8344 0.0000
# 2 64.7933 170.5100 17.3695 0.0000 -1.5226 0.0000
# 3 30.2216 17.3695 35.3013 0.0000 -5.6386 0.0000
# 4 0.0000 0.0000 0.0000 19.0796 0.0000 -5.8410
# 5 2.8344 -1.5226 -5.6386 0.0000 34.5521 0.0000
# 6 0.0000 0.0000 0.0000 -5.8410 0.0000 24.1988
#
#
#
# Elastic Compliance Matrix: (Units=1/GPa)
#
#
# Indices 1 2 3 4 5 6 
#
# 1 0.006860 -0.002103 -0.005075 0.000000 -0.001484 0.000000
# 2 -0.002103 0.006821 -0.001520 0.000000 0.000225 0.000000
# 3 -0.005075 -0.001520 0.034372 0.000000 0.005959 0.000000
# 4 0.000000 0.000000 0.000000 0.056594 0.000000 0.013660
# 5 -0.001484 0.000225 0.005959 0.000000 0.030046 0.000000
# 6 0.000000 0.000000 0.000000 0.013660 0.000000 0.044622
#
#
# Mechanical properties :
#
#
# Convention : Reuss Voigt Hill
#
# Bulk Modulus (GPa) = 32.61896 68.79807 50.70851
# Shear Modulus (GPa) = 24.16282 34.36807 29.26545
#
# Velocity S-wave (km/s) = 3.22946 3.85153 3.55413
# Velocity P-wave (km/s) = 5.29010 7.03380 6.22332
#
# Compressibility (1/GPa) = 0.03065702
#
# Stress axis : x y z
#
# Youngs Moduli (GPa) = 145.76809 146.61164 29.09345
#
# Poissons Ratio (x) = 0.30834 0.14766
# Poissons Ratio (y) = 0.30657 0.04421
# Poissons Ratio (z) = 0.73981 0.22279
#
# Static dielectric constant tensor:
#      x y z
#    x 1.907010 0.000000 -0.029320 
#    y 0.000000 1.873560 0.000000 
#    z -0.029320 0.000000 2.030680 
# 
# From -- ./inp_files/35393.got.cif
#   From: 2010.05.17/outbox.cif.g08.bks.cpg/sg10_18_cif.got.tgz:35393.got - 2010.06.03 11:33:40.
