data_PCOD9144419
_publ_section_title
;
Structure prediction by ZEFSAII (Michael W. Deem and Ramdas Pophale) SiO2 
 PCOD9144419
Probable space group: P 2/M
;
_chemical_formula_sum "Si O2"
_cell_formula_units_Z 24
_cell_length_a 12.772871
_cell_length_b 25.319758
_cell_length_c 14.745865
_cell_angle_alpha 90.000000
_cell_angle_beta 160.168346
_cell_angle_gamma 90.000000
_cell_volume 1617.886346
_symmetry_space_group_name_H-M "P 2/M"
_symmetry_group_IT_number 10
_symmetry_cell_setting 'monoclinic'
loop_
_space_group_symop_operation_xyz
x,y,z
-x,y,-z
-x,-y,-z
x,-y,z
loop_
_atom_site_type_symbol
_atom_site_label
_atom_site_fract_x
_atom_site_fract_y
_atom_site_fract_z
Si Si1 0.167826 0.889906 0.959188
Si Si2 0.870290 0.213254 0.792020
Si Si3 0.469858 0.937703 0.580312
Si Si4 0.870134 0.556854 0.791885
Si Si5 0.361891 0.939548 0.787008
Si Si6 0.868494 0.670302 0.791101
O O1 0.292634 0.909999 0.158453
O O2 0.455427 0.898981 0.127322
O O3 0.026912 0.832057 0.859785
O O4 0.886689 0.924691 0.689783
O O5 0.500000 0.207215 0.500000
O O6 0.945476 0.272008 0.814947
O O7 0.000000 0.209804 0.000000
O O8 0.500000 0.920549 0.500000
O O9 0.527402 0.000000 0.632040
O O10 0.500000 0.556822 0.500000
O O11 0.960702 0.500000 0.823447
O O12 0.961730 0.613674 0.824207
O O13 0.000000 0.556859 0.000000
O O14 0.000000 0.928705 0.500000
O O15 0.399854 0.000000 0.781229
O O16 0.500000 0.938557 0.000000
O O17 0.500000 0.669794 0.500000
O O18 0.000000 0.670342 0.000000
#
# Coordination Sequence:
#
# PCOD9144419 Si02
#       6
#     4   4   4   4   4   4
#     4  12  21  33  50  65  83 108 134 162 202 245
#     4  10  19  30  43  61  85 110 135 160 189 234
#     4  11  22  33  46  66  89 109 130 158 194 240
#     4   8  12  18  29  45  65  92 128 164 190 210
#     4  10  21  36  51  65  79  97 127 167 208 248
#     4   8  14  23  34  49  72 101 130 160 188 215
#
# _framework density 14.834168999999999
#
# number of rings (size 3 to 8) (size 9 to 14) (size 15 to 20)
#    0.000    2.167    0.000    5.500    0.000    2.667 
#    0.000    0.000    0.000    0.000    0.000    0.000 
#    0.000    0.000    0.000    0.000    0.000    1.667 
#
# Total GULP energy -133627.930424 kJ/mol
# GULP energy per Si atom -5567.830434 kJ/mol
# Density = 1.480041 g / cm^3
# Si number density = 14.834169 Si / 1000 Ang^3
#
#
#
# Elastic Constant Matrix: (Units=GPa)
#
#
# Indices 1 2 3 4 5 6 
#
# 1 30.4775 28.7856 13.9843 0.0000 5.1487 0.0000
# 2 28.7856 146.5854 20.2466 0.0000 12.1151 0.0000
# 3 13.9843 20.2466 100.3613 0.0000 -12.2286 0.0000
# 4 0.0000 0.0000 0.0000 18.8176 0.0000 -1.9792
# 5 5.1487 12.1151 -12.2286 0.0000 22.8707 0.0000
# 6 0.0000 0.0000 0.0000 -1.9792 0.0000 3.8214
#
#
#
# Elastic Compliance Matrix: (Units=1/GPa)
#
#
# Indices 1 2 3 4 5 6 
#
# 1 0.043643 -0.007010 -0.005789 0.000000 -0.009207 0.000000
# 2 -0.007010 0.008670 -0.001219 0.000000 -0.003666 0.000000
# 3 -0.005789 -0.001219 0.012038 0.000000 0.008386 0.000000
# 4 0.000000 0.000000 0.000000 0.056203 0.000000 0.029109
# 5 -0.009207 -0.003666 0.008386 0.000000 0.052223 0.000000
# 6 0.000000 0.000000 0.000000 0.029109 0.000000 0.276759
#
#
# Mechanical properties :
#
#
# Convention : Reuss Voigt Hill
#
# Bulk Modulus (GPa) = 27.53616 44.82858 36.18237
# Shear Modulus (GPa) = 10.21080 23.39579 16.80330
#
# Velocity S-wave (km/s) = 2.62645 3.97565 3.36928
# Velocity P-wave (km/s) = 5.27263 7.16658 6.29128
#
# Compressibility (1/GPa) = 0.03631589
#
# Stress axis : x y z
#
# Youngs Moduli (GPa) = 22.91298 115.34140 83.06818
#
# Poissons Ratio (x) = 0.80853 0.48088
# Poissons Ratio (y) = 0.16062 0.10126
# Poissons Ratio (z) = 0.13264 0.14060
#
# Static dielectric constant tensor:
#      x y z
#    x 1.458860 0.000000 -0.003070 
#    y 0.000000 1.579340 0.000000 
#    z -0.003070 0.000000 1.507880 
# 
# From -- ./inp_files/52116.got.cif
#   From: 2010.05.17/outbox.cif.g08.bks.cpg/sg10_27_cif.got.tgz:52116.got - 2010.06.03 11:33:40.
