data_PCOD9144160
_publ_section_title
;
Structure prediction by ZEFSAII (Michael W. Deem and Ramdas Pophale) SiO2 
 PCOD9144160
Probable space group: P 2/M
;
_chemical_formula_sum "Si O2"
_cell_formula_units_Z 22
_cell_length_a 11.989826
_cell_length_b 11.266165
_cell_length_c 6.837103
_cell_angle_alpha 90.000000
_cell_angle_beta 108.080122
_cell_angle_gamma 90.000000
_cell_volume 877.949707
_symmetry_space_group_name_H-M "P 2/M"
_symmetry_group_IT_number 10
_symmetry_cell_setting 'monoclinic'
loop_
_space_group_symop_operation_xyz
x,y,z
-x,y,-z
-x,-y,-z
x,-y,z
loop_
_atom_site_type_symbol
_atom_site_label
_atom_site_fract_x
_atom_site_fract_y
_atom_site_fract_z
Si Si1 0.389035 0.631317 0.162694
Si Si2 0.154188 0.500000 0.690459
Si Si3 0.969396 0.733506 0.213534
Si Si4 0.654263 0.670159 0.399964
Si Si5 0.741902 0.133109 0.001733
Si Si6 0.801765 0.131783 0.571398
O O1 0.345436 0.500000 0.067911
O O2 0.529583 0.636702 0.240619
O O3 0.353440 0.639250 0.372514
O O4 0.339009 0.748483 0.031873
O O5 0.929808 0.605398 0.264580
O O6 0.240680 0.600325 0.638703
O O7 0.085234 0.784550 0.377415
O O8 0.000000 0.721862 0.000000
O O9 0.864169 0.829129 0.167514
O O10 0.688729 0.808385 0.410540
O O11 0.770496 0.126045 0.785147
O O12 0.700636 0.000000 0.034837
O O13 0.826812 0.000000 0.517514
#
# Coordination Sequence:
#
# PCOD9144160 Si02
#       6
#     4   2   4   4   4   4
#     4  10  18  36  63  88 118 147 183 237 290 341
#     4  12  23  38  55  84 117 153 194 235 291 330
#     4  10  22  39  57  82 114 151 196 239 281 332
#     4  10  20  36  58  88 117 147 185 232 288 349
#     4   9  19  36  62  88 112 150 196 236 280 340
#     4   9  19  37  61  85 113 151 187 234 290 346
#
# _framework density 25.058384
#
# number of rings (size 3 to 8) (size 9 to 14) (size 15 to 20)
#    0.000    2.182    1.818    1.364    1.273    5.091 
#    4.909    8.182    0.000    1.091    0.000    0.000 
#    0.000    0.000    0.000    0.000    0.000    0.000 
#
# Total GULP energy -122781.847071 kJ/mol
# GULP energy per Si atom -5580.993049 kJ/mol
# Density = 2.500135 g / cm^3
# Si number density = 25.058384 Si / 1000 Ang^3
#
#
#
# Elastic Constant Matrix: (Units=GPa)
#
#
# Indices 1 2 3 4 5 6 
#
# 1 119.0222 75.5821 26.4985 0.0000 0.3748 0.0000
# 2 75.5821 276.9739 58.1843 0.0000 21.8228 0.0000
# 3 26.4985 58.1843 102.6498 0.0000 -10.3580 0.0000
# 4 0.0000 0.0000 0.0000 23.1182 0.0000 4.5868
# 5 0.3748 21.8228 -10.3580 0.0000 28.7688 0.0000
# 6 0.0000 0.0000 0.0000 4.5868 0.0000 34.3533
#
#
#
# Elastic Compliance Matrix: (Units=1/GPa)
#
#
# Indices 1 2 3 4 5 6 
#
# 1 0.010357 -0.002754 -0.000950 0.000000 0.001612 0.000000
# 2 -0.002754 0.005355 -0.002834 0.000000 -0.005046 0.000000
# 3 -0.000950 -0.002834 0.012257 0.000000 0.006575 0.000000
# 4 0.000000 0.000000 0.000000 0.044433 0.000000 -0.005933
# 5 0.001612 -0.005046 0.006575 0.000000 0.040934 0.000000
# 6 0.000000 0.000000 0.000000 -0.005933 0.000000 0.029901
#
#
# Mechanical properties :
#
#
# Convention : Reuss Voigt Hill
#
# Bulk Modulus (GPa) = 67.14247 91.01952 79.08100
# Shear Modulus (GPa) = 31.00283 39.80679 35.40481
#
# Velocity S-wave (km/s) = 3.52124 3.99000 3.76292
# Velocity P-wave (km/s) = 6.58671 7.59135 7.10681
#
# Compressibility (1/GPa) = 0.01489370
#
# Stress axis : x y z
#
# Youngs Moduli (GPa) = 96.55421 186.75156 81.58830
#
# Poissons Ratio (x) = 0.51425 0.07752
# Poissons Ratio (y) = 0.26588 0.23118
# Poissons Ratio (z) = 0.09174 0.52917
#
# Static dielectric constant tensor:
#      x y z
#    x 1.962420 0.000000 -0.068080 
#    y 0.000000 1.927290 0.000000 
#    z -0.068080 0.000000 2.058800 
# 
# From -- ./inp_files/53252.got.cif
#   From: 2010.05.17/outbox.cif.g08.bks.cpg/sg10_27_cif.got.tgz:53252.got - 2010.06.03 11:33:40.
