data_PCOD9144308
_publ_section_title
;
Structure prediction by ZEFSAII (Michael W. Deem and Ramdas Pophale) SiO2 
 PCOD9144308
Probable space group: P 2/M
;
_chemical_formula_sum "Si O2"
_cell_formula_units_Z 32
_cell_length_a 14.771539
_cell_length_b 7.645739
_cell_length_c 16.032016
_cell_angle_alpha 90.000000
_cell_angle_beta 87.144638
_cell_angle_gamma 90.000000
_cell_volume 1808.397205
_symmetry_space_group_name_H-M "P 2/M"
_symmetry_group_IT_number 10
_symmetry_cell_setting 'monoclinic'
loop_
_space_group_symop_operation_xyz
x,y,z
-x,y,-z
-x,-y,-z
x,-y,z
loop_
_atom_site_type_symbol
_atom_site_label
_atom_site_fract_x
_atom_site_fract_y
_atom_site_fract_z
Si Si1 0.593320 0.299856 0.392375
Si Si2 0.774196 0.206179 0.676328
Si Si3 0.211499 0.290837 0.644370
Si Si4 0.896011 0.287860 0.513983
Si Si5 0.119988 0.215383 0.169552
Si Si6 0.394141 0.202868 0.418255
Si Si7 0.109864 0.202611 0.987646
Si Si8 0.911442 0.211168 0.191741
O O1 0.583312 0.500000 0.365507
O O2 0.685997 0.222125 0.351482
O O3 0.496883 0.211404 0.380772
O O4 0.607692 0.295645 0.492075
O O5 0.850107 0.227980 0.601543
O O6 0.812802 0.277151 0.761343
O O7 0.680913 0.276380 0.641244
O O8 0.759144 0.000000 0.691067
O O9 0.220758 0.500000 0.633515
O O10 0.162760 0.225637 0.562490
O O11 0.148709 0.258595 0.726625
O O12 0.895380 0.500000 0.514047
O O13 0.000000 0.230767 0.500000
O O14 0.142614 0.276432 0.074553
O O15 0.016312 0.268162 0.195147
O O16 0.120048 0.000000 0.168345
O O17 0.371985 0.000000 0.436413
O O18 0.139780 0.000000 0.984418
O O19 0.127556 0.278704 0.895188
O O20 0.000000 0.202246 0.000000
O O21 0.913886 0.000000 0.185773
#
# Coordination Sequence:
#
# PCOD9144308 Si02
#       8
#     4   4   4   4   4   4   4   4
#     4  10  19  32  48  61  79 113 149 178 217 263
#     4  10  19  29  44  66  89 115 143 176 219 258
#     4  10  20  31  42  61  87 116 146 176 215 257
#     4  10  20  32  43  57  85 123 154 177 204 245
#     4   8  14  26  43  65  92 117 143 174 211 258
#     4  10  19  30  45  66  87 106 138 186 228 253
#     4   7  11  22  41  64  87 111 142 178 211 247
#     4   9  16  26  45  68  87 114 149 180 209 246
#
# _framework density 17.695226999999999
#
# number of rings (size 3 to 8) (size 9 to 14) (size 15 to 20)
#    0.000    2.750    1.250    3.750    0.000    2.250 
#    0.000    0.000    0.000    4.125    0.000    0.875 
#    0.000    7.000    0.000    0.000    0.000    0.000 
#
# Total GULP energy -178337.462374 kJ/mol
# GULP energy per Si atom -5573.045699 kJ/mol
# Density = 1.765495 g / cm^3
# Si number density = 17.695227 Si / 1000 Ang^3
#
#
#
# Elastic Constant Matrix: (Units=GPa)
#
#
# Indices 1 2 3 4 5 6 
#
# 1 85.1775 0.3410 28.3276 0.0000 24.6207 0.0000
# 2 0.3410 32.5318 -4.3425 0.0000 1.7790 0.0000
# 3 28.3276 -4.3425 95.8994 0.0000 29.2904 0.0000
# 4 0.0000 0.0000 0.0000 9.5902 0.0000 -9.6773
# 5 24.6207 1.7790 29.2904 0.0000 20.4208 0.0000
# 6 0.0000 0.0000 0.0000 -9.6773 0.0000 12.9145
#
#
#
# Elastic Compliance Matrix: (Units=1/GPa)
#
#
# Indices 1 2 3 4 5 6 
#
# 1 0.018397 0.001576 0.002587 0.000000 -0.026029 0.000000
# 2 0.001576 0.031886 0.004284 0.000000 -0.010822 0.000000
# 3 0.002587 0.004284 0.019441 0.000000 -0.031377 0.000000
# 4 0.000000 0.000000 0.000000 0.427603 0.000000 0.320419
# 5 -0.026029 -0.010822 -0.031377 0.000000 0.126299 0.000000
# 6 0.000000 0.000000 0.000000 0.320419 0.000000 0.317534
#
#
# Mechanical properties :
#
#
# Convention : Reuss Voigt Hill
#
# Bulk Modulus (GPa) = 11.54503 29.14009 20.34256
# Shear Modulus (GPa) = 5.24582 21.20394 13.22488
#
# Velocity S-wave (km/s) = 1.72365 3.46538 2.73677
# Velocity P-wave (km/s) = 3.24035 5.70222 4.63763
#
# Compressibility (1/GPa) = 0.08661733
#
# Stress axis : x y z
#
# Youngs Moduli (GPa) = 54.35611 31.36145 51.43827
#
# Poissons Ratio (x) = -0.04942 -0.13307
# Poissons Ratio (y) = -0.08566 -0.22035
# Poissons Ratio (z) = -0.14062 -0.13434
#
# Static dielectric constant tensor:
#      x y z
#    x 1.612420 0.000000 0.020810 
#    y 0.000000 1.649590 0.000000 
#    z 0.020810 0.000000 1.611210 
# 
# From -- ./inp_files/66154.got.cif
#   From: 2010.05.17/outbox.cif.g08.bks.cpg/sg10_34_cif.got.tgz:66154.got - 2010.06.03 11:33:40.
