data_PCOD9144484
_publ_section_title
;
Structure prediction by ZEFSAII (Michael W. Deem and Ramdas Pophale) SiO2 
 PCOD9144484
Probable space group: P 2/M
;
_chemical_formula_sum "Si O2"
_cell_formula_units_Z 28
_cell_length_a 22.275185
_cell_length_b 12.959319
_cell_length_c 5.310897
_cell_angle_alpha 90.000000
_cell_angle_beta 103.779166
_cell_angle_gamma 90.000000
_cell_volume 1488.981910
_symmetry_space_group_name_H-M "P 2/M"
_symmetry_group_IT_number 10
_symmetry_cell_setting 'monoclinic'
loop_
_space_group_symop_operation_xyz
x,y,z
-x,y,-z
-x,-y,-z
x,-y,z
loop_
_atom_site_type_symbol
_atom_site_label
_atom_site_fract_x
_atom_site_fract_y
_atom_site_fract_z
Si Si1 0.655203 0.727075 0.927837
Si Si2 0.342863 0.500000 0.148935
Si Si3 0.021564 0.317906 0.271651
Si Si4 0.868690 0.822420 0.618048
Si Si5 0.261251 0.273450 0.488539
Si Si6 0.460039 0.122233 0.210757
Si Si7 0.265285 0.500000 0.571506
Si Si8 0.065700 0.887618 0.816194
O O1 0.627049 0.610786 0.876867
O O2 0.702401 0.736815 0.738981
O O3 0.601705 0.810715 0.855433
O O4 0.692042 0.737296 0.228367
O O5 0.321045 0.500000 0.418579
O O6 0.287216 0.500000 0.884770
O O7 0.982035 0.208284 0.232255
O O8 0.000000 0.372572 0.500000
O O9 0.092605 0.285246 0.343086
O O10 0.000000 0.372399 0.000000
O O11 0.796087 0.803377 0.550445
O O12 0.891855 0.876781 0.387595
O O13 0.892706 0.877353 0.893745
O O14 0.234625 0.390432 0.484700
O O15 0.500000 0.145293 0.500000
O O16 0.445434 0.000000 0.199798
O O17 0.500000 0.142896 0.000000
O O18 0.034840 0.000000 0.783982
#
# Coordination Sequence:
#
# PCOD9144484 Si02
#       8
#     4   2   4   4   4   4   2   4
#     4  10  19  35  56  78 105 133 163 203 252 294
#     4   8  16  30  52  79 104 129 158 198 246 296
#     4   8  16  27  42  61  83 118 158 198 236 277
#     4  10  19  30  45  68  93 122 159 199 238 285
#     4  10  19  33  52  75 101 127 158 198 249 300
#     4  10  21  38  58  77 100 137 181 210 231 279
#     4   8  16  30  50  71  94 129 162 188 230 300
#     4  10  19  31  45  62  89 127 166 201 240 287
#
# _framework density 18.804794000000001
#
# number of rings (size 3 to 8) (size 9 to 14) (size 15 to 20)
#    0.000    2.571    0.000    2.143    0.000    5.143 
#    0.000    5.000    0.000    0.000    0.000    9.000 
#    0.000    0.000    0.000    0.000    0.000    0.000 
#
# Total GULP energy -156008.816244 kJ/mol
# GULP energy per Si atom -5571.743437 kJ/mol
# Density = 1.876199 g / cm^3
# Si number density = 18.804794 Si / 1000 Ang^3
#
#
#
# Elastic Constant Matrix: (Units=GPa)
#
#
# Indices 1 2 3 4 5 6 
#
# 1 75.2991 40.2145 40.4733 0.0000 -0.7264 0.0000
# 2 40.2145 58.0794 24.4204 0.0000 6.3256 0.0000
# 3 40.4733 24.4204 148.2873 0.0000 -23.9292 0.0000
# 4 0.0000 0.0000 0.0000 -4.3413 0.0000 -36.9281
# 5 -0.7264 6.3256 -23.9292 0.0000 28.9430 0.0000
# 6 0.0000 0.0000 0.0000 -36.9281 0.0000 -95.7647
#
#
#
# Elastic Compliance Matrix: (Units=1/GPa)
#
#
# Indices 1 2 3 4 5 6 
#
# 1 0.023032 -0.014401 -0.003824 0.000000 0.000564 0.000000
# 2 -0.014401 0.029063 -0.002237 0.000000 -0.008563 0.000000
# 3 -0.003824 -0.002237 0.009485 0.000000 0.008235 0.000000
# 4 0.000000 0.000000 0.000000 0.101024 0.000000 -0.038956
# 5 0.000564 -0.008563 0.008235 0.000000 0.043244 0.000000
# 6 0.000000 0.000000 0.000000 -0.038956 0.000000 0.004580
#
#
# Mechanical properties :
#
#
# Convention : Reuss Voigt Hill
#
# Bulk Modulus (GPa) = 48.41466 54.65357 51.53411
# Shear Modulus (GPa) = 19.36205 -2.46208 8.44999
#
# Velocity S-wave (km/s) = 3.21227 -1.14548 2.12209
# Velocity P-wave (km/s) = 6.28968 5.23233 5.78521
#
# Compressibility (1/GPa) = 0.02065490
#
# Stress axis : x y z
#
# Youngs Moduli (GPa) = 43.41720 34.40834 105.43471
#
# Poissons Ratio (x) = 0.49553 0.40315
# Poissons Ratio (y) = 0.62527 0.23588
# Poissons Ratio (z) = 0.16601 0.07698
#
# Static dielectric constant tensor:
#      x y z
#    x 1.610950 0.000000 -0.033320 
#    y 0.000000 1.683160 0.000000 
#    z -0.033320 0.000000 1.695590 
# 
# From -- ./inp_files/12486.got.cif
#   From: 2010.05.17/outbox.cif.g08.bks.cpg/sg10_7_cif.got.tgz:12486.got - 2010.06.03 11:33:40.
