data_PCOD9144735
_publ_section_title
;
Structure prediction by ZEFSAII (Michael W. Deem and Ramdas Pophale) SiO2 
 PCOD9144735
Probable space group: P 2/M
;
_chemical_formula_sum "Si O2"
_cell_formula_units_Z 28
_cell_length_a 15.320918
_cell_length_b 8.245958
_cell_length_c 14.087221
_cell_angle_alpha 90.000000
_cell_angle_beta 50.712449
_cell_angle_gamma 90.000000
_cell_volume 1377.462372
_symmetry_space_group_name_H-M "P 2/M"
_symmetry_group_IT_number 10
_symmetry_cell_setting 'monoclinic'
loop_
_space_group_symop_operation_xyz
x,y,z
-x,y,-z
-x,-y,-z
x,-y,z
loop_
_atom_site_type_symbol
_atom_site_label
_atom_site_fract_x
_atom_site_fract_y
_atom_site_fract_z
Si Si1 0.374313 0.696135 0.115222
Si Si2 0.120081 0.194792 0.962652
Si Si3 0.427640 0.315490 0.466950
Si Si4 0.814720 0.680675 0.269328
Si Si5 0.694070 0.304508 0.627742
Si Si6 0.077464 0.812279 0.624960
Si Si7 0.157674 0.803389 0.151667
O O1 0.376321 0.500000 0.115152
O O2 0.336407 0.752280 0.246221
O O3 0.276897 0.750444 0.110645
O O4 0.500000 0.751518 0.000000
O O5 0.203380 0.258337 0.824471
O O6 0.122850 0.000000 0.962654
O O7 0.141916 0.253619 0.053757
O O8 0.000000 0.244456 0.000000
O O9 0.500000 0.233243 0.500000
O O10 0.474110 0.500000 0.420636
O O11 0.304399 0.328921 0.597274
O O12 0.398435 0.240901 0.384876
O O13 0.864980 0.500000 0.234630
O O14 0.888679 0.794635 0.286699
O O15 0.685166 0.500000 0.631021
O O16 0.821204 0.264988 0.505386
O O17 0.949637 0.745896 0.711063
O O18 0.075148 0.000000 0.599943
O O19 0.151957 0.000000 0.155142
#
# Coordination Sequence:
#
# PCOD9144735 Si02
#       7
#     4   4   4   4   4   4   4
#     4  10  23  42  61  82 113 152 191 238 291 342
#     4  10  19  35  54  76 113 154 184 221 280 339
#     4   8  15  29  50  76 106 140 177 220 271 327
#     4  10  19  30  50  82 114 146 184 230 278 333
#     4   9  19  36  57  82 112 146 185 234 288 337
#     4  10  19  35  57  82 113 148 185 229 288 346
#     4  10  22  38  58  83 112 152 196 238 284 340
#
# _framework density 20.327234000000001
#
# number of rings (size 3 to 8) (size 9 to 14) (size 15 to 20)
#    0.000    2.429    1.429    1.714    0.000    4.571 
#    0.000    5.714    0.000   12.429    0.000    0.000 
#    0.000    0.000    0.000    0.000    0.000    0.000 
#
# Total GULP energy -156012.849669 kJ/mol
# GULP energy per Si atom -5571.887488 kJ/mol
# Density = 2.028097 g / cm^3
# Si number density = 20.327234 Si / 1000 Ang^3
#
#
#
# Elastic Constant Matrix: (Units=GPa)
#
#
# Indices 1 2 3 4 5 6 
#
# 1 133.7701 8.1808 66.1683 0.0000 6.6642 0.0000
# 2 8.1808 10.2487 9.3347 0.0000 0.2473 0.0000
# 3 66.1683 9.3347 117.2927 0.0000 18.1800 0.0000
# 4 0.0000 0.0000 0.0000 23.0000 0.0000 -4.5840
# 5 6.6642 0.2473 18.1800 0.0000 30.6491 0.0000
# 6 0.0000 0.0000 0.0000 -4.5840 0.0000 23.2556
#
#
#
# Elastic Compliance Matrix: (Units=1/GPa)
#
#
# Indices 1 2 3 4 5 6 
#
# 1 0.010507 -0.003067 -0.005873 0.000000 0.001224 0.000000
# 2 -0.003067 0.106669 -0.007410 0.000000 0.004202 0.000000
# 3 -0.005873 -0.007410 0.013459 0.000000 -0.006646 0.000000
# 4 0.000000 0.000000 0.000000 0.045256 0.000000 0.008921
# 5 0.001224 0.004202 -0.006646 0.000000 0.036270 0.000000
# 6 0.000000 0.000000 0.000000 0.008921 0.000000 0.044759
#
#
# Mechanical properties :
#
#
# Convention : Reuss Voigt Hill
#
# Bulk Modulus (GPa) = 10.21092 47.63102 28.92097
# Shear Modulus (GPa) = 15.51516 27.22280 21.36898
#
# Velocity S-wave (km/s) = 2.76573 3.66352 3.24581
# Velocity P-wave (km/s) = 3.90297 6.43258 5.32031
#
# Compressibility (1/GPa) = 0.09793437
#
# Stress axis : x y z
#
# Youngs Moduli (GPa) = 95.17328 9.37476 74.30146
#
# Poissons Ratio (x) = 0.02876 0.43637
# Poissons Ratio (y) = 0.29194 0.55057
# Poissons Ratio (z) = 0.55895 0.06947
#
# Static dielectric constant tensor:
#      x y z
#    x 1.751810 0.000000 0.016000 
#    y 0.000000 1.732890 0.000000 
#    z 0.016000 0.000000 1.781940 
# 
# From -- ./inp_files/50051.got.cif
#   From: 2010.05.17/outbox.cif.g08.bks.cpg/sg10_26_cif.got.tgz:50051.got - 2010.06.03 11:33:40.
