data_PCOD9144916
_publ_section_title
;
Structure prediction by ZEFSAII (Michael W. Deem and Ramdas Pophale) SiO2 
 PCOD9144916
Probable space group: P 2/M
;
_chemical_formula_sum "Si O2"
_cell_formula_units_Z 32
_cell_length_a 12.266811
_cell_length_b 17.389624
_cell_length_c 16.995865
_cell_angle_alpha 90.000000
_cell_angle_beta 30.955450
_cell_angle_gamma 90.000000
_cell_volume 1864.841735
_symmetry_space_group_name_H-M "P 2/M"
_symmetry_group_IT_number 10
_symmetry_cell_setting 'monoclinic'
loop_
_space_group_symop_operation_xyz
x,y,z
-x,y,-z
-x,-y,-z
x,-y,z
loop_
_atom_site_type_symbol
_atom_site_label
_atom_site_fract_x
_atom_site_fract_y
_atom_site_fract_z
Si Si1 0.411275 0.912612 0.465849
Si Si2 0.248415 0.587033 0.994226
Si Si3 0.003434 0.409133 0.403493
Si Si4 0.484890 0.589072 0.326828
Si Si5 0.734068 0.299807 0.871417
Si Si6 0.920161 0.196615 0.264398
Si Si7 0.129340 0.091581 0.844818
Si Si8 0.869487 0.679267 0.159156
O O1 0.500000 0.919088 0.500000
O O2 0.245029 0.843690 0.573945
O O3 0.625502 0.888301 0.289762
O O4 0.341215 0.000000 0.486782
O O5 0.237329 0.500000 0.028786
O O6 0.288998 0.642890 0.040700
O O7 0.026199 0.611884 0.092284
O O8 0.429112 0.593154 0.816019
O O9 0.054139 0.500000 0.357763
O O10 0.765366 0.394421 0.517517
O O11 0.000000 0.398659 0.500000
O O12 0.163203 0.350868 0.261848
O O13 0.515383 0.500000 0.333589
O O14 0.641398 0.645421 0.276856
O O15 0.892738 0.233642 0.801823
O O16 0.500000 0.269487 0.000000
O O17 0.966367 0.128078 0.174469
O O18 0.845779 0.261384 0.246587
O O19 0.125253 0.000000 0.838472
O O20 0.000000 0.115125 0.000000
O O21 0.000000 0.708338 0.000000
#
# Coordination Sequence:
#
# PCOD9144916 Si02
#       8
#     4   4   4   4   4   4   4   4
#     4   8  15  29  49  73 100 129 158 185 220 271
#     4   9  17  31  51  70  90 123 163 204 250 297
#     4  10  21  36  52  69  89 121 170 221 262 297
#     4   9  17  30  48  69  94 124 160 203 248 297
#     4  11  23  36  49  68  93 124 167 214 256 296
#     4  10  19  31  48  72 104 134 161 197 242 294
#     4   9  17  31  54  83 110 134 161 190 221 271
#     4   9  17  28  45  72 103 131 158 191 240 302
#
# _framework density 17.159632999999999
#
# number of rings (size 3 to 8) (size 9 to 14) (size 15 to 20)
#    0.000    2.625    0.000    3.000    0.000    6.500 
#    0.000    3.125    0.000    8.250    0.000    0.000 
#    0.000    5.000    0.000    0.000    0.000    0.375 
#
# Total GULP energy -178202.546564 kJ/mol
# GULP energy per Si atom -5568.829580 kJ/mol
# Density = 1.712058 g / cm^3
# Si number density = 17.159633 Si / 1000 Ang^3
#
#
#
# Elastic Constant Matrix: (Units=GPa)
#
#
# Indices 1 2 3 4 5 6 
#
# 1 66.6819 34.6681 40.1188 0.0000 -13.2456 0.0000
# 2 34.6681 78.5874 56.4949 0.0000 -18.0218 0.0000
# 3 40.1188 56.4949 113.0310 0.0000 -9.8281 0.0000
# 4 0.0000 0.0000 0.0000 33.3020 0.0000 5.1605
# 5 -13.2456 -18.0218 -9.8281 0.0000 18.4034 0.0000
# 6 0.0000 0.0000 0.0000 5.1605 0.0000 13.8449
#
#
#
# Elastic Compliance Matrix: (Units=1/GPa)
#
#
# Indices 1 2 3 4 5 6 
#
# 1 0.021885 -0.003954 -0.004990 0.000000 0.009215 0.000000
# 2 -0.003954 0.025371 -0.009821 0.000000 0.016755 0.000000
# 3 -0.004990 -0.009821 0.015079 0.000000 -0.005156 0.000000
# 4 0.000000 0.000000 0.000000 0.031869 0.000000 -0.011879
# 5 0.009215 0.016755 -0.005156 0.000000 0.074624 0.000000
# 6 0.000000 0.000000 0.000000 -0.011879 0.000000 0.076656
#
#
# Mechanical properties :
#
#
# Convention : Reuss Voigt Hill
#
# Bulk Modulus (GPa) = 40.31467 57.87377 49.09422
# Shear Modulus (GPa) = 17.16554 21.57795 19.37175
#
# Velocity S-wave (km/s) = 3.16625 3.54995 3.36358
# Velocity P-wave (km/s) = 6.07551 7.11356 6.61493
#
# Compressibility (1/GPa) = 0.02480486
#
# Stress axis : x y z
#
# Youngs Moduli (GPa) = 45.69344 39.41516 66.31914
#
# Poissons Ratio (x) = 0.15584 0.33096
# Poissons Ratio (y) = 0.18066 0.65130
# Poissons Ratio (z) = 0.22803 0.38708
#
# Static dielectric constant tensor:
#      x y z
#    x 1.574590 0.000000 0.009060 
#    y 0.000000 1.596080 0.000000 
#    z 0.009060 0.000000 1.651470 
# 
# From -- ./inp_files/77129.got.cif
#   From: 2010.05.17/outbox.cif.g08.bks.cpg/sg10_39_cif.got.tgz:77129.got - 2010.06.03 11:33:40.
