data_PCOD9144150
_publ_section_title
;
Structure prediction by ZEFSAII (Michael W. Deem and Ramdas Pophale) SiO2 
 PCOD9144150
Probable space group: P 2/M
;
_chemical_formula_sum "Si O2"
_cell_formula_units_Z 24
_cell_length_a 14.170372
_cell_length_b 15.009121
_cell_length_c 10.516856
_cell_angle_alpha 90.000000
_cell_angle_beta 34.577289
_cell_angle_gamma 90.000000
_cell_volume 1269.409189
_symmetry_space_group_name_H-M "P 2/M"
_symmetry_group_IT_number 10
_symmetry_cell_setting 'monoclinic'
loop_
_space_group_symop_operation_xyz
x,y,z
-x,y,-z
-x,-y,-z
x,-y,z
loop_
_atom_site_type_symbol
_atom_site_label
_atom_site_fract_x
_atom_site_fract_y
_atom_site_fract_z
Si Si1 0.167182 0.254770 0.385941
Si Si2 0.642983 0.270615 0.080445
Si Si3 0.598246 0.855945 0.506371
Si Si4 0.133725 0.244163 0.946227
Si Si5 0.606480 0.600382 0.750633
Si Si6 0.094765 0.899201 0.665954
O O1 0.243085 0.330858 0.392464
O O2 0.132339 0.165316 0.504646
O O3 0.000000 0.283772 0.500000
O O4 0.296388 0.243623 0.127007
O O5 0.538187 0.188752 0.252498
O O6 0.797022 0.289740 0.003575
O O7 0.520282 0.354298 0.206686
O O8 0.500000 0.902546 0.500000
O O9 0.706363 0.779798 0.315300
O O10 0.737309 0.903327 0.436244
O O11 0.000000 0.288258 0.000000
O O12 0.043524 0.153724 0.097895
O O13 0.657514 0.500000 0.661912
O O14 0.500000 0.596275 0.000000
O O15 0.043748 0.000000 0.689950
#
# Coordination Sequence:
#
# PCOD9144150 Si02
#       6
#     4   4   4   4   4   4
#     4  11  21  36  59  83 120 150 184 235 289 344
#     4  10  18  36  60  83 116 146 187 234 292 336
#     4   9  19  35  58  80 107 154 194 238 277 324
#     4   9  19  35  57  81 107 156 197 231 272 328
#     4   9  19  35  61  89 113 144 185 232 290 347
#     4  11  22  37  56  83 117 156 193 231 284 335
#
# _framework density 18.906434000000001
#
# number of rings (size 3 to 8) (size 9 to 14) (size 15 to 20)
#    0.000    2.167    3.333    0.000    0.000    4.000 
#    0.000    4.167    0.000    5.000    0.000    0.000 
#    0.000    0.000    0.000    0.000    0.000    0.000 
#
# Total GULP energy -133683.544434 kJ/mol
# GULP energy per Si atom -5570.147685 kJ/mol
# Density = 1.886340 g / cm^3
# Si number density = 18.906434 Si / 1000 Ang^3
#
#
#
# Elastic Constant Matrix: (Units=GPa)
#
#
# Indices 1 2 3 4 5 6 
#
# 1 126.1580 48.3116 19.1753 0.0000 -25.1819 0.0000
# 2 48.3116 93.8560 19.7535 0.0000 -5.1697 0.0000
# 3 19.1753 19.7535 75.7820 0.0000 4.5291 0.0000
# 4 0.0000 0.0000 0.0000 5.8732 0.0000 -1.6264
# 5 -25.1819 -5.1697 4.5291 0.0000 40.5545 0.0000
# 6 0.0000 0.0000 0.0000 -1.6264 0.0000 39.1825
#
#
#
# Elastic Compliance Matrix: (Units=1/GPa)
#
#
# Indices 1 2 3 4 5 6 
#
# 1 0.011546 -0.005155 -0.001980 0.000000 0.006733 0.000000
# 2 -0.005155 0.013704 -0.002195 0.000000 -0.001209 0.000000
# 3 -0.001980 -0.002195 0.014456 0.000000 -0.003124 0.000000
# 4 0.000000 0.000000 0.000000 0.172244 0.000000 0.007149
# 5 0.006733 -0.001209 -0.003124 0.000000 0.029034 0.000000
# 6 0.000000 0.000000 0.000000 0.007149 0.000000 0.025818
#
#
# Mechanical properties :
#
#
# Convention : Reuss Voigt Hill
#
# Bulk Modulus (GPa) = 47.52028 52.25296 49.88662
# Shear Modulus (GPa) = 17.09532 31.02576 24.06054
#
# Velocity S-wave (km/s) = 3.01027 4.05534 3.57124
# Velocity P-wave (km/s) = 6.10502 7.04453 6.59153
#
# Compressibility (1/GPa) = 0.02104365
#
# Stress axis : x y z
#
# Youngs Moduli (GPa) = 86.61185 72.97255 69.17698
#
# Poissons Ratio (x) = 0.37621 0.13697
# Poissons Ratio (y) = 0.44653 0.15186
# Poissons Ratio (z) = 0.17149 0.16020
#
# Static dielectric constant tensor:
#      x y z
#    x 1.717250 0.000000 -0.008610 
#    y 0.000000 1.635520 0.000000 
#    z -0.008610 0.000000 1.670070 
# 
# From -- ./inp_files/51503.got.cif
#   From: 2010.05.17/outbox.cif.g08.bks.cpg/sg10_26_cif.got.tgz:51503.got - 2010.06.03 11:33:40.
