data_PCOD9144244
_publ_section_title
;
Structure prediction by ZEFSAII (Michael W. Deem and Ramdas Pophale) SiO2 
 PCOD9144244
Probable space group: P 2/M
;
_chemical_formula_sum "Si O2"
_cell_formula_units_Z 28
_cell_length_a 22.187418
_cell_length_b 7.636167
_cell_length_c 13.662664
_cell_angle_alpha 90.000000
_cell_angle_beta 137.983806
_cell_angle_gamma 90.000000
_cell_volume 1549.404287
_symmetry_space_group_name_H-M "P 2/M"
_symmetry_group_IT_number 10
_symmetry_cell_setting 'monoclinic'
loop_
_space_group_symop_operation_xyz
x,y,z
-x,y,-z
-x,-y,-z
x,-y,z
loop_
_atom_site_type_symbol
_atom_site_label
_atom_site_fract_x
_atom_site_fract_y
_atom_site_fract_z
Si Si1 0.612286 0.203837 0.050314
Si Si2 0.098055 0.713051 0.733021
Si Si3 0.103551 0.285666 0.512539
Si Si4 0.282403 0.699064 0.632934
Si Si5 0.549932 0.297215 0.653544
Si Si6 0.714060 0.286471 0.973493
Si Si7 0.452540 0.796921 0.730170
O O1 0.662045 0.298178 0.198327
O O2 0.604550 0.000000 0.070728
O O3 0.672671 0.222658 0.026106
O O4 0.514919 0.269238 0.895520
O O5 0.096953 0.500000 0.731316
O O6 0.115362 0.766000 0.640745
O O7 0.997176 0.768798 0.638895
O O8 0.181758 0.768032 0.900816
O O9 0.107109 0.500000 0.515984
O O10 0.185496 0.222293 0.544258
O O11 0.268259 0.500000 0.584091
O O12 0.348899 0.782685 0.634260
O O13 0.500000 0.216048 0.500000
O O14 0.568295 0.500000 0.650701
O O15 0.645595 0.223989 0.806817
O O16 0.484290 0.291553 0.668589
O O17 0.710591 0.500000 0.970980
O O18 0.477023 0.000000 0.748411
#
# Coordination Sequence:
#
# PCOD9144244 Si02
#       7
#     4   4   4   4   4   4   4
#     4  10  19  29  40  58  88 120 148 178 209 247
#     4   8  12  22  39  61  86 112 145 179 209 246
#     4   8  14  22  37  61  87 113 144 181 211 240
#     4  11  19  28  43  63  86 117 151 180 213 251
#     4   9  18  32  49  70  91 108 135 180 224 259
#     4   9  15  26  46  66  85 114 147 175 211 259
#     4  10  21  33  44  61  86 117 148 177 213 258
#
# _framework density 18.071460999999999
#
# number of rings (size 3 to 8) (size 9 to 14) (size 15 to 20)
#    0.000    2.714    1.429    2.571    0.000    3.714 
#    0.000    0.000    0.000    2.571    0.000    1.000 
#    0.000    8.000    0.000    0.000    0.000    0.000 
#
# Total GULP energy -156034.349775 kJ/mol
# GULP energy per Si atom -5572.655349 kJ/mol
# Density = 1.803033 g / cm^3
# Si number density = 18.071461 Si / 1000 Ang^3
#
#
#
# Elastic Constant Matrix: (Units=GPa)
#
#
# Indices 1 2 3 4 5 6 
#
# 1 88.1966 -2.6278 54.8402 0.0000 39.3357 0.0000
# 2 -2.6278 37.0736 1.1657 0.0000 2.0888 0.0000
# 3 54.8402 1.1657 120.0132 0.0000 25.0437 0.0000
# 4 0.0000 0.0000 0.0000 -5.4921 0.0000 -18.0645
# 5 39.3357 2.0888 25.0437 0.0000 31.2733 0.0000
# 6 0.0000 0.0000 0.0000 -18.0645 0.0000 29.2859
#
#
#
# Elastic Compliance Matrix: (Units=1/GPa)
#
#
# Indices 1 2 3 4 5 6 
#
# 1 0.030717 0.004272 -0.007151 0.000000 -0.033195 0.000000
# 2 0.004272 0.027671 -0.000857 0.000000 -0.006535 0.000000
# 3 -0.007151 -0.000857 0.011669 0.000000 -0.000294 0.000000
# 4 0.000000 0.000000 0.000000 -0.060115 0.000000 -0.037081
# 5 -0.033195 -0.006535 -0.000294 0.000000 0.074400 0.000000
# 6 0.000000 0.000000 0.000000 -0.037081 0.000000 0.011274
#
#
# Mechanical properties :
#
#
# Convention : Reuss Voigt Hill
#
# Bulk Modulus (GPa) = 15.97791 39.11548 27.54669
# Shear Modulus (GPa) = 40.33903 23.80712 32.07307
#
# Velocity S-wave (km/s) = 4.72974 3.63352 4.21740
# Velocity P-wave (km/s) = 6.21996 6.26859 6.24432
#
# Compressibility (1/GPa) = 0.06258643
#
# Stress axis : x y z
#
# Youngs Moduli (GPa) = 32.55565 36.13841 85.69349
#
# Poissons Ratio (x) = -0.15439 0.61276
# Poissons Ratio (y) = -0.13909 0.07346
# Poissons Ratio (z) = 0.23279 0.03098
#
# Static dielectric constant tensor:
#      x y z
#    x 1.629050 0.000000 0.045870 
#    y 0.000000 1.657190 0.000000 
#    z 0.045870 0.000000 1.640070 
# 
# From -- ./inp_files/54708.got.cif
#   From: 2010.05.17/outbox.cif.g08.bks.cpg/sg10_28_cif.got.tgz:54708.got - 2010.06.03 11:33:40.
