data_PCOD9144837
_publ_section_title
;
Structure prediction by ZEFSAII (Michael W. Deem and Ramdas Pophale) SiO2 
 PCOD9144837
Probable space group: P 2/M
;
_chemical_formula_sum "Si O2"
_cell_formula_units_Z 32
_cell_length_a 12.138705
_cell_length_b 16.695081
_cell_length_c 14.170251
_cell_angle_alpha 90.000000
_cell_angle_beta 34.053157
_cell_angle_gamma 90.000000
_cell_volume 1608.039982
_symmetry_space_group_name_H-M "P 2/M"
_symmetry_group_IT_number 10
_symmetry_cell_setting 'monoclinic'
loop_
_space_group_symop_operation_xyz
x,y,z
-x,y,-z
-x,-y,-z
x,-y,z
loop_
_atom_site_type_symbol
_atom_site_label
_atom_site_fract_x
_atom_site_fract_y
_atom_site_fract_z
Si Si1 0.772311 0.753475 0.086535
Si Si2 0.098771 0.090557 0.231280
Si Si3 0.107349 0.241585 0.720559
Si Si4 0.755234 0.088654 0.604708
Si Si5 0.655091 0.587358 0.254355
Si Si6 0.524252 0.853902 0.584531
Si Si7 0.795089 0.411764 0.372625
Si Si8 0.464662 0.811617 0.926382
O O1 0.733658 0.663836 0.146006
O O2 0.670782 0.818202 0.228116
O O3 0.653972 0.766245 0.071235
O O4 0.001399 0.759690 0.896754
O O5 0.992793 0.164610 0.255622
O O6 0.983858 0.092392 0.412324
O O7 0.067871 0.000000 0.216209
O O8 0.325483 0.114114 0.058375
O O9 0.336393 0.220895 0.545464
O O10 0.083236 0.330664 0.695174
O O11 0.636398 0.098715 0.588376
O O12 0.661972 0.155674 0.737481
O O13 0.711817 0.000000 0.672909
O O14 0.712724 0.500000 0.174566
O O15 0.417794 0.591568 0.426082
O O16 0.737296 0.591191 0.302778
O O17 0.500000 0.896944 0.500000
O O18 0.882822 0.500000 0.329764
O O19 0.500000 0.766358 0.000000
#
# Coordination Sequence:
#
# PCOD9144837 Si02
#       8
#     4   4   4   4   4   4   4   4
#     4  10  20  33  50  73 101 134 173 207 256 314
#     4   9  19  35  53  76 105 133 170 219 265 313
#     4  10  19  31  49  72 104 143 176 210 258 298
#     4   9  19  34  51  72  98 130 166 208 259 309
#     4   9  17  30  49  75 106 136 170 212 254 299
#     4  10  19  31  47  69 100 135 172 208 242 294
#     4   9  17  29  48  77 109 138 171 211 253 299
#     4  10  21  36  55  77 100 128 169 219 270 318
#
# _framework density 19.900003000000002
#
# number of rings (size 3 to 8) (size 9 to 14) (size 15 to 20)
#    0.000    2.500    1.250    1.875    0.000    4.250 
#    0.000    2.500    0.000    0.375    0.000   18.375 
#    0.000    4.500    0.000    0.000    0.000    0.000 
#
# Total GULP energy -178203.169786 kJ/mol
# GULP energy per Si atom -5568.849056 kJ/mol
# Density = 1.985471 g / cm^3
# Si number density = 19.900003 Si / 1000 Ang^3
#
#
#
# Elastic Constant Matrix: (Units=GPa)
#
#
# Indices 1 2 3 4 5 6 
#
# 1 55.6761 17.3613 6.0012 0.0000 8.2564 0.0000
# 2 17.3613 113.9336 21.3803 0.0000 -5.2805 0.0000
# 3 6.0012 21.3803 81.5914 0.0000 -0.4603 0.0000
# 4 0.0000 0.0000 0.0000 42.1525 0.0000 -17.3100
# 5 8.2564 -5.2805 -0.4603 0.0000 35.4076 0.0000
# 6 0.0000 0.0000 0.0000 -17.3100 0.0000 30.7220
#
#
#
# Elastic Compliance Matrix: (Units=1/GPa)
#
#
# Indices 1 2 3 4 5 6 
#
# 1 0.019760 -0.003122 -0.000664 0.000000 -0.005082 0.000000
# 2 -0.003122 0.009789 -0.002323 0.000000 0.002158 0.000000
# 3 -0.000664 -0.002323 0.012914 0.000000 -0.000024 0.000000
# 4 0.000000 0.000000 0.000000 0.030865 0.000000 0.017390
# 5 -0.005082 0.002158 -0.000024 0.000000 0.029749 0.000000
# 6 0.000000 0.000000 0.000000 0.017390 0.000000 0.042348
#
#
# Mechanical properties :
#
#
# Convention : Reuss Voigt Hill
#
# Bulk Modulus (GPa) = 33.06461 37.85409 35.45935
# Shear Modulus (GPa) = 29.81090 35.42031 32.61561
#
# Velocity S-wave (km/s) = 3.87464 4.22348 4.05282
# Velocity P-wave (km/s) = 6.05546 6.54577 6.30539
#
# Compressibility (1/GPa) = 0.03024382
#
# Stress axis : x y z
#
# Youngs Moduli (GPa) = 50.60812 102.15821 77.43725
#
# Poissons Ratio (x) = 0.31893 0.05141
# Poissons Ratio (y) = 0.15800 0.17991
# Poissons Ratio (z) = 0.03360 0.23734
#
# Static dielectric constant tensor:
#      x y z
#    x 1.827840 0.000000 -0.001940 
#    y 0.000000 1.700060 0.000000 
#    z -0.001940 0.000000 1.749690 
# 
# From -- ./inp_files/67725.got.cif
#   From: 2010.05.17/outbox.cif.g08.bks.cpg/sg10_34_cif.got.tgz:67725.got - 2010.06.03 11:33:40.
