data_PCOD9144301
_publ_section_title
;
Structure prediction by ZEFSAII (Michael W. Deem and Ramdas Pophale) SiO2 
 PCOD9144301
Probable space group: P 2/M
;
_chemical_formula_sum "Si O2"
_cell_formula_units_Z 32
_cell_length_a 13.136259
_cell_length_b 9.703611
_cell_length_c 26.731502
_cell_angle_alpha 90.000000
_cell_angle_beta 32.221723
_cell_angle_gamma 90.000000
_cell_volume 1816.837938
_symmetry_space_group_name_H-M "P 2/M"
_symmetry_group_IT_number 10
_symmetry_cell_setting 'monoclinic'
loop_
_space_group_symop_operation_xyz
x,y,z
-x,y,-z
-x,-y,-z
x,-y,z
loop_
_atom_site_type_symbol
_atom_site_label
_atom_site_fract_x
_atom_site_fract_y
_atom_site_fract_z
Si Si1 0.442453 0.336646 0.578965
Si Si2 0.536323 0.662869 0.750827
Si Si3 0.646452 0.339604 0.985002
Si Si4 0.989744 0.656313 0.771097
Si Si5 0.619489 0.666582 0.608811
Si Si6 0.096855 0.154675 0.284143
Si Si7 0.546048 0.157902 0.122067
Si Si8 0.017031 0.659688 0.406975
O O1 0.500000 0.280560 0.500000
O O2 0.492190 0.500000 0.556590
O O3 0.215912 0.326359 0.682141
O O4 0.543491 0.281001 0.587011
O O5 0.486681 0.500000 0.776254
O O6 0.513022 0.713168 0.703341
O O7 0.432937 0.754569 0.835628
O O8 0.765995 0.672067 0.664575
O O9 0.606319 0.500000 0.015317
O O10 0.860040 0.330878 0.874110
O O11 0.500000 0.305864 0.000000
O O12 0.622908 0.241303 0.042225
O O13 0.955489 0.500000 0.766046
O O14 0.918129 0.766848 0.761488
O O15 0.597116 0.500000 0.618799
O O16 0.846718 0.693310 0.515826
O O17 0.318156 0.150348 0.207675
O O18 0.992334 0.244456 0.369302
O O19 0.022302 0.000000 0.312177
O O20 0.616765 0.000000 0.095880
O O21 0.990283 0.500000 0.403345
#
# Coordination Sequence:
#
# PCOD9144301 Si02
#       8
#     4   4   4   4   4   4   4   4
#     4   9  17  29  48  75 102 127 159 199 239 281
#     4   9  17  29  48  72  98 127 161 201 243 288
#     4  10  19  31  49  73 100 127 159 201 246 289
#     4  10  19  31  49  71  96 129 165 198 238 287
#     4   9  16  28  48  73  97 124 163 207 244 281
#     4  10  19  29  43  67  99 130 159 194 238 290
#     4  10  20  32  47  70 100 130 158 192 243 300
#     4   9  16  27  46  70  96 126 161 198 240 287
#
# _framework density 17.613016999999999
#
# number of rings (size 3 to 8) (size 9 to 14) (size 15 to 20)
#    0.000    2.500    1.250    1.875    0.000    5.250 
#    0.000    0.625    0.000    7.875    0.000    5.250 
#    0.000    0.000    0.000    0.000    0.000    0.000 
#
# Total GULP energy -178225.122640 kJ/mol
# GULP energy per Si atom -5569.535083 kJ/mol
# Density = 1.757293 g / cm^3
# Si number density = 17.613017 Si / 1000 Ang^3
#
#
#
# Elastic Constant Matrix: (Units=GPa)
#
#
# Indices 1 2 3 4 5 6 
#
# 1 59.6413 31.1848 34.8167 0.0000 26.0855 0.0000
# 2 31.1848 73.9055 49.6776 0.0000 24.2620 0.0000
# 3 34.8167 49.6776 95.8995 0.0000 31.6649 0.0000
# 4 0.0000 0.0000 0.0000 -5.1195 0.0000 -9.0512
# 5 26.0855 24.2620 31.6649 0.0000 30.0570 0.0000
# 6 0.0000 0.0000 0.0000 -9.0512 0.0000 0.4315
#
#
#
# Elastic Compliance Matrix: (Units=1/GPa)
#
#
# Indices 1 2 3 4 5 6 
#
# 1 0.028605 -0.004638 -0.001567 0.000000 -0.019431 0.000000
# 2 -0.004638 0.022964 -0.008312 0.000000 -0.005755 0.000000
# 3 -0.001567 -0.008312 0.019379 0.000000 -0.012346 0.000000
# 4 0.000000 0.000000 0.000000 -0.005129 0.000000 -0.107581
# 5 -0.019431 -0.005755 -0.012346 0.000000 0.067786 0.000000
# 6 0.000000 0.000000 0.000000 -0.107581 0.000000 0.060850
#
#
# Mechanical properties :
#
#
# Convention : Reuss Voigt Hill
#
# Bulk Modulus (GPa) = 23.85774 51.20050 37.52912
# Shear Modulus (GPa) = 21.05618 12.65828 16.85723
#
# Velocity S-wave (km/s) = 3.46134 2.68375 3.09704
# Velocity P-wave (km/s) = 5.43593 6.22383 5.84318
#
# Compressibility (1/GPa) = 0.04191512
#
# Stress axis : x y z
#
# Youngs Moduli (GPa) = 34.95853 43.54639 51.60332
#
# Poissons Ratio (x) = 0.20197 0.08085
# Poissons Ratio (y) = 0.16214 0.42891
# Poissons Ratio (z) = 0.05477 0.36194
#
# Static dielectric constant tensor:
#      x y z
#    x 1.620820 0.000000 0.005170 
#    y 0.000000 1.592800 0.000000 
#    z 0.005170 0.000000 1.613860 
# 
# From -- ./inp_files/66602.got.cif
#   From: 2010.05.17/outbox.cif.g08.bks.cpg/sg10_34_cif.got.tgz:66602.got - 2010.06.03 11:33:40.
