data_PCOD9144101
_publ_section_title
;
Structure prediction by ZEFSAII (Michael W. Deem and Ramdas Pophale) SiO2 
 PCOD9144101
Probable space group: P 2/M
;
_chemical_formula_sum "Si O2"
_cell_formula_units_Z 30
_cell_length_a 13.770575
_cell_length_b 15.981468
_cell_length_c 22.235161
_cell_angle_alpha 90.000000
_cell_angle_beta 18.287742
_cell_angle_gamma 90.000000
_cell_volume 1535.490698
_symmetry_space_group_name_H-M "P 2/M"
_symmetry_group_IT_number 10
_symmetry_cell_setting 'monoclinic'
loop_
_space_group_symop_operation_xyz
x,y,z
-x,y,-z
-x,-y,-z
x,-y,z
loop_
_atom_site_type_symbol
_atom_site_label
_atom_site_fract_x
_atom_site_fract_y
_atom_site_fract_z
Si Si1 0.890797 0.094388 0.321903
Si Si2 0.633626 0.908657 0.200370
Si Si3 0.500000 0.228571 0.500000
Si Si4 0.701049 0.143841 0.031525
Si Si5 0.384909 0.730427 0.391694
Si Si6 0.744129 0.209557 0.807760
Si Si7 0.921633 0.696321 0.170140
Si Si8 0.701500 0.594141 0.130529
O O1 0.616263 0.162458 0.481454
O O2 0.121423 0.127302 0.237356
O O3 0.786338 0.000000 0.391564
O O4 0.068460 0.102062 0.153005
O O5 0.594807 0.908689 0.150904
O O6 0.470714 0.825537 0.321792
O O7 0.525719 0.000000 0.287327
O O8 0.000000 0.902886 0.000000
O O9 0.214131 0.287465 0.684250
O O10 0.430076 0.181758 0.150029
O O11 0.883107 0.220128 0.955780
O O12 0.620204 0.699817 0.305277
O O13 0.461628 0.664687 0.293326
O O14 0.033336 0.732422 0.620995
O O15 0.500000 0.245696 0.000000
O O16 0.142367 0.620229 0.024413
O O17 0.579616 0.500000 0.202897
O O18 0.000000 0.597731 0.000000
#
# Coordination Sequence:
#
# PCOD9144101 Si02
#       8
#     4   4   2   4   4   4   4   4
#     4  10  20  34  53  78 110 151 203 246 278 327
#     4  11  21  34  54  84 115 151 194 240 292 345
#     4  10  19  32  55  84 112 152 186 234 288 344
#     4  10  20  36  53  78 113 153 188 241 290 331
#     4  11  19  38  58  81 114 151 190 236 284 347
#     4  10  23  38  55  79 111 155 197 237 293 334
#     4  10  18  35  59  83 115 142 190 229 287 343
#     4   9  18  34  63  92 114 142 183 238 295 347
#
# _framework density 19.537728000000001
#
# number of rings (size 3 to 8) (size 9 to 14) (size 15 to 20)
#    0.000    1.867    4.000    1.000    0.000    4.000 
#    0.000    1.000    0.000    2.000    0.000    0.000 
#    0.000    0.000    0.000    0.000    0.000    0.000 
#
# Total GULP energy -167186.625489 kJ/mol
# GULP energy per Si atom -5572.887516 kJ/mol
# Density = 1.949326 g / cm^3
# Si number density = 19.537728 Si / 1000 Ang^3
#
#
#
# Elastic Constant Matrix: (Units=GPa)
#
#
# Indices 1 2 3 4 5 6 
#
# 1 57.0083 -2.1977 32.1897 0.0000 -6.0216 0.0000
# 2 -2.1977 100.4537 54.8747 0.0000 15.8483 0.0000
# 3 32.1897 54.8747 98.7644 0.0000 6.1038 0.0000
# 4 0.0000 0.0000 0.0000 11.3526 0.0000 3.4634
# 5 -6.0216 15.8483 6.1038 0.0000 26.5691 0.0000
# 6 0.0000 0.0000 0.0000 3.4634 0.0000 11.0611
#
#
#
# Elastic Compliance Matrix: (Units=1/GPa)
#
#
# Indices 1 2 3 4 5 6 
#
# 1 0.025043 0.006363 -0.011984 0.000000 0.004633 0.000000
# 2 0.006363 0.017232 -0.011262 0.000000 -0.006249 0.000000
# 3 -0.011984 -0.011262 0.020330 0.000000 -0.000669 0.000000
# 4 0.000000 0.000000 0.000000 0.097388 0.000000 -0.030493
# 5 0.004633 -0.006249 -0.000669 0.000000 0.042569 0.000000
# 6 0.000000 0.000000 0.000000 -0.030493 0.000000 0.099955
#
#
# Mechanical properties :
#
#
# Convention : Reuss Voigt Hill
#
# Bulk Modulus (GPa) = 34.67512 47.32886 41.00199
# Shear Modulus (GPa) = 14.45525 21.22053 17.83789
#
# Velocity S-wave (km/s) = 2.72299 3.29922 3.02486
# Velocity P-wave (km/s) = 5.26047 6.22817 5.76466
#
# Compressibility (1/GPa) = 0.02883912
#
# Stress axis : x y z
#
# Youngs Moduli (GPa) = 39.93178 58.03109 49.18920
#
# Poissons Ratio (x) = -0.36927 0.58948
# Poissons Ratio (y) = -0.25410 0.55398
# Poissons Ratio (z) = 0.47854 0.65355
#
# Static dielectric constant tensor:
#      x y z
#    x 1.746760 0.000000 0.030520 
#    y 0.000000 1.671520 0.000000 
#    z 0.030520 0.000000 1.732080 
# 
# From -- ./inp_files/89804.got.cif
#   From: 2010.05.17/outbox.cif.g08.bks.cpg/sg10_45_cif.got.tgz:89804.got - 2010.06.03 11:33:40.
