data_PCOD9144413
_publ_section_title
;
Structure prediction by ZEFSAII (Michael W. Deem and Ramdas Pophale) SiO2 
 PCOD9144413
Probable space group: P 2/M
;
_chemical_formula_sum "Si O2"
_cell_formula_units_Z 32
_cell_length_a 12.576857
_cell_length_b 8.709271
_cell_length_c 22.385473
_cell_angle_alpha 90.000000
_cell_angle_beta 46.600096
_cell_angle_gamma 90.000000
_cell_volume 1781.562837
_symmetry_space_group_name_H-M "P 2/M"
_symmetry_group_IT_number 10
_symmetry_cell_setting 'monoclinic'
loop_
_space_group_symop_operation_xyz
x,y,z
-x,y,-z
-x,-y,-z
x,-y,z
loop_
_atom_site_type_symbol
_atom_site_label
_atom_site_fract_x
_atom_site_fract_y
_atom_site_fract_z
Si Si1 0.940844 0.686172 0.280843
Si Si2 0.946664 0.683754 0.140761
Si Si3 0.673412 0.830509 0.927724
Si Si4 0.770672 0.320905 0.775539
Si Si5 0.215228 0.822365 0.980220
Si Si6 0.392015 0.684473 0.719835
Si Si7 0.380892 0.816358 0.594901
Si Si8 0.504233 0.685561 0.194401
O O1 0.939676 0.500000 0.281218
O O2 0.978462 0.733747 0.197531
O O3 0.778724 0.745628 0.356030
O O4 0.063533 0.740294 0.280857
O O5 0.962821 0.500000 0.132697
O O6 0.776195 0.722515 0.197753
O O7 0.053465 0.752326 0.049685
O O8 0.714779 0.701049 0.864794
O O9 0.721443 0.000000 0.886552
O O10 0.500000 0.832428 0.000000
O O11 0.731904 0.810519 0.971417
O O12 0.783124 0.500000 0.755127
O O13 0.641244 0.255670 0.783714
O O14 0.343538 0.742318 0.893225
O O15 0.207018 0.000000 0.965748
O O16 0.396969 0.500000 0.709689
O O17 0.425230 0.762606 0.644178
O O18 0.492492 0.727266 0.737023
O O19 0.500000 0.767573 0.500000
O O20 0.369294 0.000000 0.598334
O O21 0.505554 0.500000 0.189452
#
# Coordination Sequence:
#
# PCOD9144413 Si02
#       8
#     4   4   4   4   4   4   4   4
#     4   9  18  32  52  80 108 133 165 207 256 304
#     4   9  17  31  49  68  96 132 174 221 263 301
#     4  10  19  30  42  63  97 135 177 223 262 296
#     4  10  19  31  50  74 100 133 175 216 253 297
#     4  11  21  30  44  68  99 137 182 225 263 301
#     4   9  20  38  56  76 102 134 171 208 254 308
#     4  10  21  37  60  88 109 126 155 198 249 306
#     4  10  21  35  51  71 100 140 180 217 254 296
#
# _framework density 17.961759000000001
#
# number of rings (size 3 to 8) (size 9 to 14) (size 15 to 20)
#    0.000    2.250    2.500    1.500    0.000    5.250 
#    0.000    2.500    0.000    0.750    0.000    5.250 
#    0.000    0.000    0.000    0.000    0.000    0.000 
#
# Total GULP energy -178311.462597 kJ/mol
# GULP energy per Si atom -5572.233206 kJ/mol
# Density = 1.792088 g / cm^3
# Si number density = 17.961759 Si / 1000 Ang^3
#
#
#
# Elastic Constant Matrix: (Units=GPa)
#
#
# Indices 1 2 3 4 5 6 
#
# 1 94.5528 22.9374 60.0067 0.0000 5.9690 0.0000
# 2 22.9374 12.9700 24.0940 0.0000 0.6732 0.0000
# 3 60.0067 24.0940 99.9676 0.0000 -9.9573 0.0000
# 4 0.0000 0.0000 0.0000 27.4809 0.0000 -3.8271
# 5 5.9690 0.6732 -9.9573 0.0000 11.8839 0.0000
# 6 0.0000 0.0000 0.0000 -3.8271 0.0000 11.9357
#
#
#
# Elastic Compliance Matrix: (Units=1/GPa)
#
#
# Indices 1 2 3 4 5 6 
#
# 1 0.024217 -0.019633 -0.011898 0.000000 -0.021021 0.000000
# 2 -0.019633 0.174751 -0.033099 0.000000 -0.027771 0.000000
# 3 -0.011898 -0.033099 0.028264 0.000000 0.031533 0.000000
# 4 0.000000 0.000000 0.000000 0.038090 0.000000 0.012213
# 5 -0.021021 -0.027771 0.031533 0.000000 0.122701 0.000000
# 6 0.000000 0.000000 0.000000 0.012213 0.000000 0.087698
#
#
# Mechanical properties :
#
#
# Convention : Reuss Voigt Hill
#
# Bulk Modulus (GPa) = 10.20719 46.84074 28.52397
# Shear Modulus (GPa) = 7.84142 16.95694 12.39918
#
# Velocity S-wave (km/s) = 2.09167 3.07589 2.63023
# Velocity P-wave (km/s) = 3.39537 6.22490 5.01388
#
# Compressibility (1/GPa) = 0.09797016
#
# Stress axis : x y z
#
# Youngs Moduli (GPa) = 41.29311 5.72242 35.38088
#
# Poissons Ratio (x) = 0.11235 0.42098
# Poissons Ratio (y) = 0.81072 1.17108
# Poissons Ratio (z) = 0.49132 0.18941
#
# Static dielectric constant tensor:
#      x y z
#    x 1.680380 0.000000 -0.015670 
#    y 0.000000 1.641420 0.000000 
#    z -0.015670 0.000000 1.588010 
# 
# From -- ./inp_files/83583.got.cif
#   From: 2010.05.17/outbox.cif.g08.bks.cpg/sg10_42_cif.got.tgz:83583.got - 2010.06.03 11:33:40.
