data_PCOD9144217
_publ_section_title
;
Structure prediction by ZEFSAII (Michael W. Deem and Ramdas Pophale) SiO2 
 PCOD9144217
Probable space group: P 2/M
;
_chemical_formula_sum "Si O2"
_cell_formula_units_Z 32
_cell_length_a 14.598436
_cell_length_b 7.433705
_cell_length_c 15.434460
_cell_angle_alpha 90.000000
_cell_angle_beta 87.207946
_cell_angle_gamma 90.000000
_cell_volume 1672.966467
_symmetry_space_group_name_H-M "P 2/M"
_symmetry_group_IT_number 10
_symmetry_cell_setting 'monoclinic'
loop_
_space_group_symop_operation_xyz
x,y,z
-x,y,-z
-x,-y,-z
x,-y,z
loop_
_atom_site_type_symbol
_atom_site_label
_atom_site_fract_x
_atom_site_fract_y
_atom_site_fract_z
Si Si1 0.335717 0.214676 0.779639
Si Si2 0.001351 0.209761 0.401820
Si Si3 0.382837 0.279269 0.257290
Si Si4 0.487060 0.715340 0.903579
Si Si5 0.471493 0.704689 0.617952
Si Si6 0.301652 0.719000 0.529213
Si Si7 0.207399 0.283127 0.353685
Si Si8 0.167105 0.794202 0.693662
O O1 0.387149 0.248203 0.867186
O O2 0.400683 0.298822 0.702862
O O3 0.232198 0.280849 0.767004
O O4 0.336170 0.000000 0.764518
O O5 0.103451 0.218855 0.359815
O O6 0.000000 0.286885 0.500000
O O7 0.926276 0.289207 0.339298
O O8 0.974612 0.000000 0.413163
O O9 0.386616 0.500000 0.258390
O O10 0.437223 0.218699 0.169496
O O11 0.439637 0.215274 0.339547
O O12 0.277233 0.227474 0.274621
O O13 0.497715 0.500000 0.906060
O O14 0.500000 0.785026 0.000000
O O15 0.496330 0.500000 0.594241
O O16 0.406107 0.778927 0.545000
O O17 0.302654 0.500000 0.533333
O O18 0.256488 0.771782 0.441114
O O19 0.235396 0.788564 0.607864
O O20 0.203420 0.500000 0.354019
O O21 0.146187 0.000000 0.719790
#
# Coordination Sequence:
#
# PCOD9144217 Si02
#       8
#     4   4   4   4   4   4   4   4
#     4   9  16  26  43  67  91 111 137 178 220 256
#     4  10  19  31  45  59  80 117 159 192 220 255
#     4   8  15  28  43  61  87 114 140 173 214 259
#     4   9  17  31  51  71  91 116 142 167 205 266
#     4   8  14  26  41  56  81 117 150 174 202 252
#     4   9  16  24  38  60  82 110 148 184 214 247
#     4  10  19  28  40  61  87 113 145 187 226 253
#     4   9  17  29  43  59  83 116 150 184 221 254
#
# _framework density 19.127700999999998
#
# number of rings (size 3 to 8) (size 9 to 14) (size 15 to 20)
#    0.000    3.000    1.250    1.125    0.000    2.000 
#    0.000    5.000    0.000    0.000    0.000   13.125 
#    0.000    7.000    0.000    0.000    0.000    0.000 
#
# Total GULP energy -178308.955810 kJ/mol
# GULP energy per Si atom -5572.154869 kJ/mol
# Density = 1.908417 g / cm^3
# Si number density = 19.127701 Si / 1000 Ang^3
#
#
#
# Elastic Constant Matrix: (Units=GPa)
#
#
# Indices 1 2 3 4 5 6 
#
# 1 161.5973 -4.7875 58.0536 0.0000 18.7723 0.0000
# 2 -4.7875 63.0818 3.9103 0.0000 -0.2401 0.0000
# 3 58.0536 3.9103 103.3802 0.0000 21.9606 0.0000
# 4 0.0000 0.0000 0.0000 6.2695 0.0000 -4.1775
# 5 18.7723 -0.2401 21.9606 0.0000 23.7358 0.0000
# 6 0.0000 0.0000 0.0000 -4.1775 0.0000 12.7509
#
#
#
# Elastic Compliance Matrix: (Units=1/GPa)
#
#
# Indices 1 2 3 4 5 6 
#
# 1 0.007929 0.000835 -0.003925 0.000000 -0.002631 0.000000
# 2 0.000835 0.015993 -0.001205 0.000000 0.000616 0.000000
# 3 -0.003925 -0.001205 0.014022 0.000000 -0.009881 0.000000
# 4 0.000000 0.000000 0.000000 0.204046 0.000000 0.066851
# 5 -0.002631 0.000616 -0.009881 0.000000 0.053359 0.000000
# 6 0.000000 0.000000 0.000000 0.066851 0.000000 0.100328
#
#
# Mechanical properties :
#
#
# Convention : Reuss Voigt Hill
#
# Bulk Modulus (GPa) = 34.06734 49.15691 41.61212
# Shear Modulus (GPa) = 12.07584 26.61011 19.34297
#
# Velocity S-wave (km/s) = 2.51535 3.73390 3.18347
# Velocity P-wave (km/s) = 5.12690 6.65916 5.94263
#
# Compressibility (1/GPa) = 0.02935363
#
# Stress axis : x y z
#
# Youngs Moduli (GPa) = 126.12478 62.52803 71.31789
#
# Poissons Ratio (x) = -0.05221 0.27993
# Poissons Ratio (y) = -0.10532 0.08591
# Poissons Ratio (z) = 0.49506 0.07533
#
# Static dielectric constant tensor:
#      x y z
#    x 1.709220 0.000000 0.029730 
#    y 0.000000 0.762540 0.000000 
#    z 0.029730 0.000000 1.668470 
# 
# From -- ./inp_files/66119.got.cif
#   From: 2010.05.17/outbox.cif.g08.bks.cpg/sg10_34_cif.got.tgz:66119.got - 2010.06.03 11:33:40.
