data_PCOD9144705
_publ_section_title
;
Structure prediction by ZEFSAII (Michael W. Deem and Ramdas Pophale) SiO2 
 PCOD9144705
Probable space group: P 2/M
;
_chemical_formula_sum "Si O2"
_cell_formula_units_Z 24
_cell_length_a 12.803439
_cell_length_b 8.200329
_cell_length_c 24.446819
_cell_angle_alpha 90.000000
_cell_angle_beta 26.365269
_cell_angle_gamma 90.000000
_cell_volume 1139.864848
_symmetry_space_group_name_H-M "P 2/M"
_symmetry_group_IT_number 10
_symmetry_cell_setting 'monoclinic'
loop_
_space_group_symop_operation_xyz
x,y,z
-x,y,-z
-x,-y,-z
x,-y,z
loop_
_atom_site_type_symbol
_atom_site_label
_atom_site_fract_x
_atom_site_fract_y
_atom_site_fract_z
Si Si1 0.979029 0.699832 0.447583
Si Si2 0.151571 0.304103 0.696458
Si Si3 0.085707 0.807440 0.091376
Si Si4 0.484867 0.691173 0.181666
Si Si5 0.766844 0.812819 0.147827
Si Si6 0.651636 0.698880 0.508759
O O1 0.976327 0.500000 0.449897
O O2 0.217894 0.750733 0.304705
O O3 0.000000 0.755875 0.500000
O O4 0.753362 0.754208 0.518916
O O5 0.153720 0.500000 0.695603
O O6 0.173429 0.253628 0.623059
O O7 0.393272 0.245453 0.612186
O O8 0.941367 0.248426 0.833821
O O9 0.871105 0.736777 0.154553
O O10 0.054373 0.000000 0.103556
O O11 0.329696 0.768040 0.947076
O O12 0.486184 0.500000 0.170019
O O13 0.577457 0.719233 0.200345
O O14 0.687780 0.000000 0.192607
O O15 0.000000 0.818675 0.000000
O O16 0.644012 0.500000 0.513205
#
# Coordination Sequence:
#
# PCOD9144705 Si02
#       6
#     4   4   4   4   4   4
#     4   9  18  31  49  76 109 137 161 201 259 310
#     4   9  17  31  56  81 100 129 171 216 252 295
#     4  10  20  33  50  72 103 139 168 208 262 303
#     4  10  19  30  49  77 102 132 173 211 247 300
#     4   8  16  30  45  64  98 137 163 198 253 297
#     4   8  16  32  51  76 108 134 162 209 263 300
#
# _framework density 21.055126999999999
#
# number of rings (size 3 to 8) (size 9 to 14) (size 15 to 20)
#    0.000    3.000    0.000    3.000    2.333    3.667 
#    0.000    2.500    0.000   11.000    0.000    0.000 
#    0.000    0.000    0.000    0.000    0.000    0.000 
#
# Total GULP energy -133806.107043 kJ/mol
# GULP energy per Si atom -5575.254460 kJ/mol
# Density = 2.100720 g / cm^3
# Si number density = 21.055127 Si / 1000 Ang^3
#
#
#
# Elastic Constant Matrix: (Units=GPa)
#
#
# Indices 1 2 3 4 5 6 
#
# 1 87.6369 1.5651 21.5508 0.0000 12.1937 0.0000
# 2 1.5651 9.4357 0.9663 0.0000 2.1157 0.0000
# 3 21.5508 0.9663 54.6365 0.0000 17.0880 0.0000
# 4 0.0000 0.0000 0.0000 -34.9652 0.0000 -8.4922
# 5 12.1937 2.1157 17.0880 0.0000 35.1750 0.0000
# 6 0.0000 0.0000 0.0000 -8.4922 0.0000 6.0022
#
#
#
# Elastic Compliance Matrix: (Units=1/GPa)
#
#
# Indices 1 2 3 4 5 6 
#
# 1 0.012810 -0.001173 -0.004322 0.000000 -0.002271 0.000000
# 2 -0.001173 0.107538 0.000538 0.000000 -0.006323 0.000000
# 3 -0.004322 0.000538 0.023040 0.000000 -0.009727 0.000000
# 4 0.000000 0.000000 0.000000 -0.021285 0.000000 -0.030116
# 5 -0.002271 -0.006323 -0.009727 0.000000 0.034322 0.000000
# 6 0.000000 0.000000 0.000000 -0.030116 0.000000 0.123997
#
#
# Mechanical properties :
#
#
# Convention : Reuss Voigt Hill
#
# Bulk Modulus (GPa) = 7.49204 22.20816 14.85010
# Shear Modulus (GPa) = 14.93307 9.75085 12.34196
#
# Velocity S-wave (km/s) = 2.66604 2.15433 2.42373
# Velocity P-wave (km/s) = 3.61151 4.09374 3.86017
#
# Compressibility (1/GPa) = 0.13347508
#
# Stress axis : x y z
#
# Youngs Moduli (GPa) = 78.06135 9.29906 43.40230
#
# Poissons Ratio (x) = 0.01091 0.18759
# Poissons Ratio (y) = 0.09157 -0.02337
# Poissons Ratio (z) = 0.33738 -0.00501
#
# Static dielectric constant tensor:
#      x y z
#    x 1.797960 0.000000 0.010820 
#    y 0.000000 1.725250 0.000000 
#    z 0.010820 0.000000 1.778290 
# 
# From -- ./inp_files/88606.got.cif
#   From: 2010.05.17/outbox.cif.g08.bks.cpg/sg10_45_cif.got.tgz:88606.got - 2010.06.03 11:33:40.
