data_PCOD9144233
_publ_section_title
;
Structure prediction by ZEFSAII (Michael W. Deem and Ramdas Pophale) SiO2 
 PCOD9144233
Probable space group: P 2/M
;
_chemical_formula_sum "Si O2"
_cell_formula_units_Z 32
_cell_length_a 20.137299
_cell_length_b 7.320793
_cell_length_c 12.970265
_cell_angle_alpha 90.000000
_cell_angle_beta 131.172612
_cell_angle_gamma 90.000000
_cell_volume 1439.286453
_symmetry_space_group_name_H-M "P 2/M"
_symmetry_group_IT_number 10
_symmetry_cell_setting 'monoclinic'
loop_
_space_group_symop_operation_xyz
x,y,z
-x,y,-z
-x,-y,-z
x,-y,z
loop_
_atom_site_type_symbol
_atom_site_label
_atom_site_fract_x
_atom_site_fract_y
_atom_site_fract_z
Si Si1 0.249675 0.778823 0.636447
Si Si2 0.159610 0.209893 0.125885
Si Si3 0.137245 0.222492 0.333041
Si Si4 0.939139 0.777436 0.175694
Si Si5 0.476702 0.722487 0.643483
Si Si6 0.452793 0.710504 0.850921
Si Si7 0.902744 0.222535 0.362878
Si Si8 0.638395 0.720429 0.663669
O O1 0.214750 0.718765 0.488560
O O2 0.347825 0.714795 0.758862
O O3 0.176472 0.718957 0.644405
O O4 0.251662 0.000000 0.639456
O O5 0.144454 0.289834 0.223657
O O6 0.263989 0.213092 0.213813
O O7 0.128808 0.000000 0.101855
O O8 0.107614 0.288993 0.975869
O O9 0.041996 0.272845 0.280845
O O10 0.140670 0.000000 0.334784
O O11 0.893400 0.720051 0.234808
O O12 0.936188 0.000000 0.172066
O O13 0.473753 0.500000 0.642241
O O14 0.470672 0.788242 0.754696
O O15 0.566446 0.774639 0.675811
O O16 0.397810 0.779815 0.485699
O O17 0.483449 0.500000 0.876415
O O18 0.500000 0.791689 0.000000
O O19 0.000000 0.279089 0.500000
O O20 0.902831 0.000000 0.366466
O O21 0.640763 0.500000 0.665500
#
# Coordination Sequence:
#
# PCOD9144233 Si02
#       8
#     4   4   4   4   4   4   4   4
#     4  10  19  31  52  77  96 122 164 207 240 274
#     4  10  19  28  43  72 103 123 149 193 243 286
#     4   9  16  28  46  69  97 127 159 193 233 281
#     4   9  16  27  44  67  96 130 161 191 229 278
#     4   8  16  33  54  70  86 120 168 199 224 280
#     4  10  21  36  52  71  98 130 160 194 243 299
#     4   9  15  27  47  71  97 125 162 201 232 274
#     4   9  17  32  53  70  88 121 162 199 231 277
#
# _framework density 22.233238
#
# number of rings (size 3 to 8) (size 9 to 14) (size 15 to 20)
#    0.000    2.750    1.250    1.875    0.000    2.750 
#    0.000    1.875    0.000    2.625    0.000    0.000 
#    0.000    0.000    0.000    0.000    0.000    0.000 
#
# Total GULP energy -178753.802651 kJ/mol
# GULP energy per Si atom -5586.056333 kJ/mol
# Density = 2.218263 g / cm^3
# Si number density = 22.233238 Si / 1000 Ang^3
#
#
#
# Elastic Constant Matrix: (Units=GPa)
#
#
# Indices 1 2 3 4 5 6 
#
# 1 109.3035 -5.4496 71.1808 0.0000 -25.3667 0.0000
# 2 -5.4496 88.0757 1.0987 0.0000 -5.9055 0.0000
# 3 71.1808 1.0987 171.7694 0.0000 -30.9435 0.0000
# 4 0.0000 0.0000 0.0000 -5.0522 0.0000 20.0815
# 5 -25.3667 -5.9055 -30.9435 0.0000 15.8146 0.0000
# 6 0.0000 0.0000 0.0000 20.0815 0.0000 5.6488
#
#
#
# Elastic Compliance Matrix: (Units=1/GPa)
#
#
# Indices 1 2 3 4 5 6 
#
# 1 0.016005 0.002431 -0.002872 0.000000 0.020960 0.000000
# 2 0.002431 0.012150 0.000671 0.000000 0.009750 0.000000
# 3 -0.002872 0.000671 0.009610 0.000000 0.014448 0.000000
# 4 0.000000 0.000000 0.000000 -0.013082 0.000000 0.046506
# 5 0.020960 0.009750 0.014448 0.000000 0.128763 0.000000
# 6 0.000000 0.000000 0.000000 0.046506 0.000000 0.011700
#
#
# Mechanical properties :
#
#
# Convention : Reuss Voigt Hill
#
# Bulk Modulus (GPa) = 26.16018 55.86759 41.01388
# Shear Modulus (GPa) = 28.18062 23.43683 25.80872
#
# Velocity S-wave (km/s) = 3.56406 3.25027 3.41077
# Velocity P-wave (km/s) = 5.35989 6.26643 5.83081
#
# Compressibility (1/GPa) = 0.03822604
#
# Stress axis : x y z
#
# Youngs Moduli (GPa) = 62.48160 82.30653 104.05467
#
# Poissons Ratio (x) = -0.20013 0.29884
# Poissons Ratio (y) = -0.15192 -0.06984
# Poissons Ratio (z) = 0.17945 -0.05524
#
# Static dielectric constant tensor:
#      x y z
#    x 1.778000 0.000000 -0.033200 
#    y 0.000000 1.859660 0.000000 
#    z -0.033200 0.000000 1.786440 
# 
# From -- ./inp_files/53533.got.cif
#   From: 2010.05.17/outbox.cif.g08.bks.cpg/sg10_27_cif.got.tgz:53533.got - 2010.06.03 11:33:40.
