data_PCOD9144418
_publ_section_title
;
Structure prediction by ZEFSAII (Michael W. Deem and Ramdas Pophale) SiO2 
 PCOD9144418
Probable space group: P 2/M
;
_chemical_formula_sum "Si O2"
_cell_formula_units_Z 32
_cell_length_a 14.299148
_cell_length_b 9.783180
_cell_length_c 15.061941
_cell_angle_alpha 90.000000
_cell_angle_beta 91.032813
_cell_angle_gamma 90.000000
_cell_volume 2106.689762
_symmetry_space_group_name_H-M "P 2/M"
_symmetry_group_IT_number 10
_symmetry_cell_setting 'monoclinic'
loop_
_space_group_symop_operation_xyz
x,y,z
-x,y,-z
-x,-y,-z
x,-y,z
loop_
_atom_site_type_symbol
_atom_site_label
_atom_site_fract_x
_atom_site_fract_y
_atom_site_fract_z
Si Si1 0.326591 0.657584 0.198052
Si Si2 0.996126 0.836315 0.394015
Si Si3 0.468997 0.163488 0.098868
Si Si4 0.467482 0.342990 0.369643
Si Si5 0.396875 0.161858 0.736103
Si Si6 0.216072 0.162242 0.642176
Si Si7 0.300875 0.658426 0.488082
Si Si8 0.160618 0.659218 0.317995
O O1 0.321792 0.500000 0.167068
O O2 0.377002 0.755844 0.129128
O O3 0.395210 0.658242 0.285088
O O4 0.224947 0.698563 0.234510
O O5 0.893041 0.802129 0.354900
O O6 0.000000 0.802202 0.500000
O O7 0.074318 0.754941 0.341053
O O8 0.011095 0.000000 0.387606
O O9 0.552328 0.196095 0.170387
O O10 0.452775 0.000000 0.102770
O O11 0.500000 0.198843 0.000000
O O12 0.498523 0.500000 0.381415
O O13 0.550073 0.245315 0.339965
O O14 0.403329 0.303976 0.452314
O O15 0.286059 0.188675 0.725729
O O16 0.411141 0.000000 0.721948
O O17 0.260931 0.243852 0.561744
O O18 0.219271 0.000000 0.623691
O O19 0.303280 0.500000 0.517145
O O20 0.230127 0.665035 0.403688
O O21 0.132720 0.500000 0.306919
#
# Coordination Sequence:
#
# PCOD9144418 Si02
#       8
#     4   4   4   4   4   4   4   4
#     4   8  15  28  45  67  92 115 141 174 215 260
#     4  10  19  30  43  61  84 114 153 193 224 250
#     4   9  17  30  49  72  93 112 138 172 212 262
#     4   8  15  28  43  59  83 113 145 178 208 246
#     4   9  18  31  44  60  85 115 141 171 213 258
#     4  10  20  31  41  57  84 115 148 182 216 253
#     4   9  17  28  42  60  82 113 149 182 216 247
#     4   9  17  29  45  64  87 115 149 188 222 253
#
# _framework density 15.189707
#
# number of rings (size 3 to 8) (size 9 to 14) (size 15 to 20)
#    0.000    3.000    1.250    1.500    0.000    3.000 
#    0.000    5.000    0.000    0.000    0.000    0.875 
#    0.000    7.000    0.000    0.000    0.000    0.000 
#
# Total GULP energy -178179.413149 kJ/mol
# GULP energy per Si atom -5568.106661 kJ/mol
# Density = 1.515513 g / cm^3
# Si number density = 15.189707 Si / 1000 Ang^3
#
#
#
# Elastic Constant Matrix: (Units=GPa)
#
#
# Indices 1 2 3 4 5 6 
#
# 1 131.0674 54.9177 50.1939 0.0000 -19.1151 0.0000
# 2 54.9177 37.6814 42.1503 0.0000 -14.8324 0.0000
# 3 50.1939 42.1503 77.8041 0.0000 -20.4395 0.0000
# 4 0.0000 0.0000 0.0000 19.1280 0.0000 -8.5166
# 5 -19.1151 -14.8324 -20.4395 0.0000 18.7049 0.0000
# 6 0.0000 0.0000 0.0000 -8.5166 0.0000 25.3632
#
#
#
# Elastic Compliance Matrix: (Units=1/GPa)
#
#
# Indices 1 2 3 4 5 6 
#
# 1 0.021361 -0.040368 0.007594 0.000000 -0.001883 0.000000
# 2 -0.040368 0.148819 -0.048274 0.000000 0.024006 0.000000
# 3 0.007594 -0.048274 0.036593 0.000000 0.009467 0.000000
# 4 0.000000 0.000000 0.000000 0.061469 0.000000 0.020640
# 5 -0.001883 0.024006 0.009467 0.000000 0.080919 0.000000
# 6 0.000000 0.000000 0.000000 0.020640 0.000000 0.046358
#
#
# Mechanical properties :
#
#
# Convention : Reuss Voigt Hill
#
# Bulk Modulus (GPa) = 22.38223 60.11963 41.25093
# Shear Modulus (GPa) = 8.73349 19.25862 13.99606
#
# Velocity S-wave (km/s) = 2.40044 3.56458 3.03878
# Velocity P-wave (km/s) = 4.73813 7.52375 6.28716
#
# Compressibility (1/GPa) = 0.04467830
#
# Stress axis : x y z
#
# Youngs Moduli (GPa) = 46.81385 6.71955 27.32748
#
# Poissons Ratio (x) = 0.27125 -0.20752
# Poissons Ratio (y) = 1.88977 1.31920
# Poissons Ratio (z) = -0.35549 0.32438
#
# Static dielectric constant tensor:
#      x y z
#    x 1.530000 0.000000 0.023660 
#    y 0.000000 1.499820 0.000000 
#    z 0.023660 0.000000 1.492020 
# 
# From -- ./inp_files/66057.got.cif
#   From: 2010.05.17/outbox.cif.g08.bks.cpg/sg10_34_cif.got.tgz:66057.got - 2010.06.03 11:33:40.
