data_PCOD9144422
_publ_section_title
;
Structure prediction by ZEFSAII (Michael W. Deem and Ramdas Pophale) SiO2 
 PCOD9144422
Probable space group: P 2/M
;
_chemical_formula_sum "Si O2"
_cell_formula_units_Z 32
_cell_length_a 11.330552
_cell_length_b 14.456394
_cell_length_c 17.018122
_cell_angle_alpha 90.000000
_cell_angle_beta 49.589664
_cell_angle_gamma 90.000000
_cell_volume 2122.500211
_symmetry_space_group_name_H-M "P 2/M"
_symmetry_group_IT_number 10
_symmetry_cell_setting 'monoclinic'
loop_
_space_group_symop_operation_xyz
x,y,z
-x,y,-z
-x,-y,-z
x,-y,z
loop_
_atom_site_type_symbol
_atom_site_label
_atom_site_fract_x
_atom_site_fract_y
_atom_site_fract_z
Si Si1 0.589632 0.606525 0.837638
Si Si2 0.748226 0.889761 0.381840
Si Si3 0.615864 0.110575 0.881461
Si Si4 0.135869 0.245723 0.003748
Si Si5 0.933826 0.110980 0.829677
Si Si6 0.743729 0.606704 0.930264
Si Si7 0.460419 0.111026 0.387765
Si Si8 0.487350 0.775459 0.792302
O O1 0.620483 0.500000 0.802175
O O2 0.711177 0.634897 0.853757
O O3 0.568546 0.676670 0.774835
O O4 0.423678 0.608209 0.954160
O O5 0.683162 0.859438 0.494477
O O6 0.612482 0.877815 0.376623
O O7 0.908843 0.852892 0.278353
O O8 0.769005 0.000000 0.381775
O O9 0.788252 0.131206 0.836349
O O10 0.561365 0.159176 0.826708
O O11 0.600646 0.000000 0.880060
O O12 0.500000 0.142682 0.000000
O O13 0.096718 0.155646 0.072539
O O14 0.152095 0.326385 0.062243
O O15 0.302901 0.234163 0.889202
O O16 0.000000 0.263080 0.000000
O O17 0.943181 0.000000 0.834529
O O18 0.796821 0.500000 0.907411
O O19 0.479676 0.175351 0.304173
O O20 0.447969 0.000000 0.374544
#
# Coordination Sequence:
#
# PCOD9144422 Si02
#       8
#     4   4   4   4   4   4   4   4
#     4   8  15  27  45  65  84 112 149 184 220 264
#     4   8  16  32  49  63  86 121 160 194 220 254
#     4  10  19  30  43  62  91 125 150 177 222 272
#     4  11  21  28  40  66  94 118 147 183 223 272
#     4  10  19  31  45  62  89 124 155 183 220 264
#     4   8  15  29  45  60  84 117 149 180 217 265
#     4   9  17  30  48  68  89 119 156 190 224 262
#     4  11  19  28  46  67  93 117 147 187 230 267
#
# _framework density 15.076559
#
# number of rings (size 3 to 8) (size 9 to 14) (size 15 to 20)
#    0.000    2.625    1.250    3.375    1.750    1.000 
#    0.000    0.625    0.000    3.000    0.000    2.625 
#    0.000    3.000    0.000    0.000    0.000    0.000 
#
# Total GULP energy -178191.012035 kJ/mol
# GULP energy per Si atom -5568.469126 kJ/mol
# Density = 1.504224 g / cm^3
# Si number density = 15.076559 Si / 1000 Ang^3
#
#
#
# Elastic Constant Matrix: (Units=GPa)
#
#
# Indices 1 2 3 4 5 6 
#
# 1 95.4782 44.7793 40.3488 0.0000 8.6420 0.0000
# 2 44.7793 66.7858 40.6302 0.0000 14.4248 0.0000
# 3 40.3488 40.6302 69.3527 0.0000 19.5871 0.0000
# 4 0.0000 0.0000 0.0000 -12.8400 0.0000 -20.6802
# 5 8.6420 14.4248 19.5871 0.0000 20.2915 0.0000
# 6 0.0000 0.0000 0.0000 -20.6802 0.0000 -25.1797
#
#
#
# Elastic Compliance Matrix: (Units=1/GPa)
#
#
# Indices 1 2 3 4 5 6 
#
# 1 0.016559 -0.008473 -0.006021 0.000000 0.004782 0.000000
# 2 -0.008473 0.027924 -0.009407 0.000000 -0.007161 0.000000
# 3 -0.006021 -0.009407 0.028624 0.000000 -0.018378 0.000000
# 4 0.000000 0.000000 0.000000 0.241276 0.000000 -0.198160
# 5 0.004782 -0.007161 -0.018378 0.000000 0.070076 0.000000
# 6 0.000000 0.000000 0.000000 -0.198160 0.000000 0.123035
#
#
# Mechanical properties :
#
#
# Convention : Reuss Voigt Hill
#
# Bulk Modulus (GPa) = 39.51806 53.68147 46.59977
# Shear Modulus (GPa) = 8.86950 3.51158 6.19054
#
# Velocity S-wave (km/s) = 2.42812 1.52782 2.02854
# Velocity P-wave (km/s) = 5.84204 6.22860 6.03842
#
# Compressibility (1/GPa) = 0.02530489
#
# Stress axis : x y z
#
# Youngs Moduli (GPa) = 60.39115 35.81157 34.93612
#
# Poissons Ratio (x) = 0.30342 0.21034
# Poissons Ratio (y) = 0.51167 0.32866
# Poissons Ratio (z) = 0.36360 0.33689
#
# Static dielectric constant tensor:
#      x y z
#    x 1.509970 0.000000 -0.010110 
#    y 0.000000 1.524500 0.000000 
#    z -0.010110 0.000000 1.493860 
# 
# From -- ./inp_files/61844.got.cif
#   From: 2010.05.17/outbox.cif.g08.bks.cpg/sg10_31_cif.got.tgz:61844.got - 2010.06.03 11:33:40.
