data_PCOD9144512
_publ_section_title
;
Structure prediction by ZEFSAII (Michael W. Deem and Ramdas Pophale) SiO2 
 PCOD9144512
Probable space group: P 2/M
;
_chemical_formula_sum "Si O2"
_cell_formula_units_Z 32
_cell_length_a 11.463270
_cell_length_b 8.818557
_cell_length_c 21.877299
_cell_angle_alpha 90.000000
_cell_angle_beta 116.188360
_cell_angle_gamma 90.000000
_cell_volume 1984.543724
_symmetry_space_group_name_H-M "P 2/M"
_symmetry_group_IT_number 10
_symmetry_cell_setting 'monoclinic'
loop_
_space_group_symop_operation_xyz
x,y,z
-x,y,-z
-x,-y,-z
x,-y,z
loop_
_atom_site_type_symbol
_atom_site_label
_atom_site_fract_x
_atom_site_fract_y
_atom_site_fract_z
Si Si1 0.291655 0.818920 0.803892
Si Si2 0.802441 0.819144 0.968693
Si Si3 0.526061 0.680105 0.934463
Si Si4 0.074911 0.320060 0.375720
Si Si5 0.031590 0.681952 0.099255
Si Si6 0.795717 0.182566 0.345919
Si Si7 0.010804 0.317199 0.771740
Si Si8 0.149847 0.820977 0.512302
O O1 0.403550 0.736654 0.867246
O O2 0.299362 0.786126 0.732604
O O3 0.150011 0.761894 0.793194
O O4 0.300051 0.000000 0.814284
O O5 0.655665 0.766676 0.944264
O O6 0.859983 0.759658 0.917806
O O7 0.814839 0.000000 0.975198
O O8 0.894442 0.742146 0.041166
O O9 0.544363 0.500000 0.930684
O O10 0.500000 0.709248 0.000000
O O11 0.080942 0.500000 0.380816
O O12 0.165729 0.255077 0.450177
O O13 0.930137 0.263341 0.359236
O O14 0.084667 0.275185 0.306611
O O15 0.037117 0.500000 0.092845
O O16 0.041055 0.718867 0.172990
O O17 0.765529 0.226860 0.408993
O O18 0.818634 0.000000 0.351718
O O19 0.031109 0.500000 0.773628
O O20 0.000000 0.794979 0.500000
O O21 0.164898 0.000000 0.507072
#
# Coordination Sequence:
#
# PCOD9144512 Si02
#       8
#     4   4   4   4   4   4   4   4
#     4  10  19  30  46  67  90 118 153 192 227 261
#     4  11  22  35  51  72  93 113 146 190 228 261
#     4  11  23  37  51  67  91 122 151 180 220 270
#     4   9  15  22  34  56  83 110 145 184 216 250
#     4  10  19  34  53  69  90 121 152 181 222 272
#     4   8  15  26  37  52  79 114 147 178 217 262
#     4   9  18  30  44  64  92 124 153 183 222 268
#     4   8  13  22  34  49  75 112 147 176 212 259
#
# _framework density 16.124613
#
# number of rings (size 3 to 8) (size 9 to 14) (size 15 to 20)
#    0.000    2.500    0.000    4.875    0.000    8.250 
#    0.000    0.000    0.000    0.000    0.000    0.000 
#    0.000    1.000    0.000   11.500    0.000    4.750 
#
# Total GULP energy -178216.650479 kJ/mol
# GULP energy per Si atom -5569.270327 kJ/mol
# Density = 1.608791 g / cm^3
# Si number density = 16.124613 Si / 1000 Ang^3
#
#
#
# Elastic Constant Matrix: (Units=GPa)
#
#
# Indices 1 2 3 4 5 6 
#
# 1 27.4900 17.1549 29.9627 0.0000 -7.8262 0.0000
# 2 17.1549 45.8066 47.1625 0.0000 -8.4285 0.0000
# 3 29.9627 47.1625 149.4094 0.0000 -29.8830 0.0000
# 4 0.0000 0.0000 0.0000 25.7911 0.0000 19.2093
# 5 -7.8262 -8.4285 -29.8830 0.0000 20.3350 0.0000
# 6 0.0000 0.0000 0.0000 19.2093 0.0000 134.7606
#
#
#
# Elastic Compliance Matrix: (Units=1/GPa)
#
#
# Indices 1 2 3 4 5 6 
#
# 1 0.051915 -0.013169 -0.004744 0.000000 0.007550 0.000000
# 2 -0.013169 0.035756 -0.009483 0.000000 -0.004183 0.000000
# 3 -0.004744 -0.009483 0.013435 0.000000 0.013987 0.000000
# 4 0.000000 0.000000 0.000000 0.043378 0.000000 -0.006183
# 5 0.007550 -0.004183 0.013987 0.000000 0.070904 0.000000
# 6 0.000000 0.000000 0.000000 -0.006183 0.000000 0.008302
#
#
# Mechanical properties :
#
#
# Convention : Reuss Voigt Hill
#
# Bulk Modulus (GPa) = 21.59093 45.69626 33.64359
# Shear Modulus (GPa) = 17.01143 44.73906 30.87525
#
# Velocity S-wave (km/s) = 3.25160 5.27314 4.38058
# Velocity P-wave (km/s) = 5.24560 8.09171 6.81880
#
# Compressibility (1/GPa) = 0.04631575
#
# Stress axis : x y z
#
# Youngs Moduli (GPa) = 19.26225 27.96711 74.43093
#
# Poissons Ratio (x) = 0.36829 0.35311
# Poissons Ratio (y) = 0.25366 0.70579
# Poissons Ratio (z) = 0.09138 0.26520
#
# Static dielectric constant tensor:
#      x y z
#    x 1.509080 0.000000 -0.021910 
#    y 0.000000 1.539660 0.000000 
#    z -0.021910 0.000000 1.601820 
# 
# From -- ./inp_files/83381.got.cif
#   From: 2010.05.17/outbox.cif.g08.bks.cpg/sg10_42_cif.got.tgz:83381.got - 2010.06.03 11:33:40.
