data_PCOD9144428
_publ_section_title
;
Structure prediction by ZEFSAII (Michael W. Deem and Ramdas Pophale) SiO2 
 PCOD9144428
Probable space group: P 2/M
;
_chemical_formula_sum "Si O2"
_cell_formula_units_Z 28
_cell_length_a 8.214481
_cell_length_b 17.398531
_cell_length_c 19.491912
_cell_angle_alpha 90.000000
_cell_angle_beta 31.448114
_cell_angle_gamma 90.000000
_cell_volume 1453.415583
_symmetry_space_group_name_H-M "P 2/M"
_symmetry_group_IT_number 10
_symmetry_cell_setting 'monoclinic'
loop_
_space_group_symop_operation_xyz
x,y,z
-x,y,-z
-x,-y,-z
x,-y,z
loop_
_atom_site_type_symbol
_atom_site_label
_atom_site_fract_x
_atom_site_fract_y
_atom_site_fract_z
Si Si1 0.958182 0.849946 0.702179
Si Si2 0.726049 0.907195 0.545173
Si Si3 0.144164 0.589255 0.341364
Si Si4 0.170796 0.682824 0.659877
Si Si5 0.488553 0.590405 0.660861
Si Si6 0.315512 0.091340 0.929561
Si Si7 0.951223 0.911709 0.186943
O O1 0.609615 0.860102 0.798624
O O2 0.194305 0.869858 0.556337
O O3 0.042336 0.768914 0.705617
O O4 0.970635 0.908435 0.761261
O O5 0.396523 0.878400 0.692910
O O6 0.000000 0.890904 0.500000
O O7 0.709694 0.000000 0.541620
O O8 0.203293 0.500000 0.304953
O O9 0.413142 0.615665 0.297656
O O10 0.076081 0.634964 0.296751
O O11 0.816205 0.592648 0.501073
O O12 0.500000 0.683227 0.500000
O O13 0.249990 0.643039 0.704009
O O14 0.393816 0.500000 0.695913
O O15 0.397465 0.000000 0.897005
O O16 0.000000 0.101099 0.000000
O O17 0.218106 0.118364 0.041067
O O18 0.922381 0.000000 0.174237
#
# Coordination Sequence:
#
# PCOD9144428 Si02
#       7
#     4   4   4   4   4   4   4
#     4  12  22  34  50  79 112 141 173 217 282 335
#     4  10  20  35  53  75 103 139 182 224 267 320
#     4   8  14  27  47  69  97 142 188 217 252 308
#     4  10  19  30  43  73 113 147 174 213 271 331
#     4   8  14  27  47  69  98 141 186 220 252 308
#     4  10  21  39  60  78  97 134 189 237 274 318
#     4  10  20  35  56  76  98 136 182 226 267 315
#
# _framework density 19.264965
#
# number of rings (size 3 to 8) (size 9 to 14) (size 15 to 20)
#    0.000    2.286    0.000    5.143    0.000    6.286 
#   10.286    0.000    0.000    0.000    0.000    0.000 
#    0.000   11.429    0.000    1.143    0.000    0.143 
#
# Total GULP energy -156096.497752 kJ/mol
# GULP energy per Si atom -5574.874920 kJ/mol
# Density = 1.922112 g / cm^3
# Si number density = 19.264965 Si / 1000 Ang^3
#
#
#
# Elastic Constant Matrix: (Units=GPa)
#
#
# Indices 1 2 3 4 5 6 
#
# 1 120.7489 51.6449 9.7693 0.0000 -13.3034 0.0000
# 2 51.6449 61.0328 11.1759 0.0000 -8.5799 0.0000
# 3 9.7693 11.1759 40.2885 0.0000 -3.6030 0.0000
# 4 0.0000 0.0000 0.0000 4.5077 0.0000 -8.3920
# 5 -13.3034 -8.5799 -3.6030 0.0000 25.3322 0.0000
# 6 0.0000 0.0000 0.0000 -8.3920 0.0000 16.1908
#
#
#
# Elastic Compliance Matrix: (Units=1/GPa)
#
#
# Indices 1 2 3 4 5 6 
#
# 1 0.013239 -0.010748 0.000068 0.000000 0.003322 0.000000
# 2 -0.010748 0.026700 -0.004554 0.000000 0.002751 0.000000
# 3 0.000068 -0.004554 0.026267 0.000000 0.002229 0.000000
# 4 0.000000 0.000000 0.000000 6.329644 0.000000 3.280769
# 5 0.003322 0.002751 0.002229 0.000000 0.042469 0.000000
# 6 0.000000 0.000000 0.000000 3.280769 0.000000 1.762245
#
#
# Mechanical properties :
#
#
# Convention : Reuss Voigt Hill
#
# Bulk Modulus (GPa) = 27.98132 40.80562 34.39347
# Shear Modulus (GPa) = 0.60658 19.17148 9.88903
#
# Velocity S-wave (km/s) = 0.56173 3.15802 2.26811
# Velocity P-wave (km/s) = 3.86998 5.87577 4.97501
#
# Compressibility (1/GPa) = 0.03573813
#
# Stress axis : x y z
#
# Youngs Moduli (GPa) = 75.53309 37.45263 38.07044
#
# Poissons Ratio (x) = 0.40255 -0.00260
# Poissons Ratio (y) = 0.81185 0.17338
# Poissons Ratio (z) = -0.00516 0.17057
#
# Static dielectric constant tensor:
#      x y z
#    x 1.738360 0.000000 -0.017040 
#    y 0.000000 1.670100 0.000000 
#    z -0.017040 0.000000 1.669540 
# 
# From -- ./inp_files/82903.got.cif
#   From: 2010.05.17/outbox.cif.g08.bks.cpg/sg10_42_cif.got.tgz:82903.got - 2010.06.03 11:33:40.
