data_PCOD9144109
_publ_section_title
;
Structure prediction by ZEFSAII (Michael W. Deem and Ramdas Pophale) SiO2 
 PCOD9144109
Probable space group: P 2/M
;
_chemical_formula_sum "Si O2"
_cell_formula_units_Z 28
_cell_length_a 10.202844
_cell_length_b 7.643437
_cell_length_c 27.225418
_cell_angle_alpha 90.000000
_cell_angle_beta 141.522328
_cell_angle_gamma 90.000000
_cell_volume 1321.055936
_symmetry_space_group_name_H-M "P 2/M"
_symmetry_group_IT_number 10
_symmetry_cell_setting 'monoclinic'
loop_
_space_group_symop_operation_xyz
x,y,z
-x,y,-z
-x,-y,-z
x,-y,z
loop_
_atom_site_type_symbol
_atom_site_label
_atom_site_fract_x
_atom_site_fract_y
_atom_site_fract_z
Si Si1 0.455711 0.800006 0.244442
Si Si2 0.041706 0.214359 0.067589
Si Si3 0.145824 0.698890 0.695868
Si Si4 0.531998 0.213914 0.641673
Si Si5 0.009617 0.789072 0.763490
Si Si6 0.310077 0.211849 0.480305
Si Si7 0.740524 0.786341 0.066692
O O1 0.262903 0.724863 0.156167
O O2 0.494720 0.724066 0.310206
O O3 0.668976 0.803398 0.276030
O O4 0.387396 0.000000 0.234485
O O5 0.857758 0.266039 0.051288
O O6 0.045316 0.000000 0.066745
O O7 0.000000 0.274729 0.000000
O O8 0.206704 0.500000 0.705708
O O9 0.122948 0.734173 0.746920
O O10 0.916849 0.731324 0.605326
O O11 0.765916 0.266044 0.692853
O O12 0.365848 0.271244 0.551796
O O13 0.522290 0.000000 0.638340
O O14 0.126623 0.728726 0.846928
O O15 0.008503 0.000000 0.763776
O O16 0.500000 0.268681 0.500000
O O17 0.309414 0.000000 0.478984
O O18 0.740177 0.000000 0.067180
O O19 0.500000 0.728128 0.000000
#
# Coordination Sequence:
#
# PCOD9144109 Si02
#       7
#     4   4   4   4   4   4   4
#     4  10  20  37  59  83 114 152 191 230 278 334
#     4   9  17  29  50  86 122 145 174 225 284 333
#     4  12  26  39  53  81 118 152 192 235 280 335
#     4   9  17  33  60  87 109 140 187 236 277 334
#     4  10  18  35  60  85 113 149 191 233 281 332
#     4  10  19  36  62  87 111 141 185 236 288 341
#     4   9  17  28  50  89 124 142 172 230 288 333
#
# _framework density 21.195167000000001
#
# number of rings (size 3 to 8) (size 9 to 14) (size 15 to 20)
#    0.000    2.143    2.857    1.286    2.000    0.857 
#    0.000    4.286    0.000    0.857    0.000    0.000 
#    0.000    0.000    0.000    0.000    0.000    0.000 
#
# Total GULP energy -156377.758100 kJ/mol
# GULP energy per Si atom -5584.919932 kJ/mol
# Density = 2.114693 g / cm^3
# Si number density = 21.195167 Si / 1000 Ang^3
#
#
#
# Elastic Constant Matrix: (Units=GPa)
#
#
# Indices 1 2 3 4 5 6 
#
# 1 152.7263 -4.8811 76.3643 0.0000 -21.3077 0.0000
# 2 -4.8811 41.6433 1.3320 0.0000 -5.8916 0.0000
# 3 76.3643 1.3320 132.1041 0.0000 -23.2933 0.0000
# 4 0.0000 0.0000 0.0000 26.1431 0.0000 -50.2828
# 5 -21.3077 -5.8916 -23.2933 0.0000 44.6760 0.0000
# 6 0.0000 0.0000 0.0000 -50.2828 0.0000 6.0522
#
#
#
# Elastic Compliance Matrix: (Units=1/GPa)
#
#
# Indices 1 2 3 4 5 6 
#
# 1 0.009438 0.001559 -0.005112 0.000000 0.002042 0.000000
# 2 0.001559 0.024743 -0.000489 0.000000 0.003751 0.000000
# 3 -0.005112 -0.000489 0.011110 0.000000 0.003290 0.000000
# 4 0.000000 0.000000 0.000000 -0.002554 0.000000 -0.021215
# 5 0.002042 0.003751 0.003290 0.000000 0.025567 0.000000
# 6 0.000000 0.000000 0.000000 -0.021215 0.000000 -0.011030
#
#
# Mechanical properties :
#
#
# Convention : Reuss Voigt Hill
#
# Bulk Modulus (GPa) = 26.87704 52.45602 39.66653
# Shear Modulus (GPa) = 64.30060 32.28481 48.29271
#
# Velocity S-wave (km/s) = 5.51391 3.90707 4.77852
# Velocity P-wave (km/s) = 7.29698 6.71985 7.01435
#
# Compressibility (1/GPa) = 0.03720648
#
# Stress axis : x y z
#
# Youngs Moduli (GPa) = 105.95294 40.41626 90.01223
#
# Poissons Ratio (x) = -0.06299 0.46010
# Poissons Ratio (y) = -0.16514 0.04402
# Poissons Ratio (z) = 0.54158 0.01976
#
# Static dielectric constant tensor:
#      x y z
#    x 1.724790 0.000000 -0.018900 
#    y 0.000000 1.798330 0.000000 
#    z -0.018900 0.000000 1.739690 
# 
# From -- ./inp_files/37324.got.cif
#   From: 2010.05.17/outbox.cif.g08.bks.cpg/sg10_19_cif.got.tgz:37324.got - 2010.06.03 11:33:40.
