data_PCOD9144473
_publ_section_title
;
Structure prediction by ZEFSAII (Michael W. Deem and Ramdas Pophale) SiO2 
 PCOD9144473
Probable space group: P 2/M
;
_chemical_formula_sum "Si O2"
_cell_formula_units_Z 20
_cell_length_a 7.353409
_cell_length_b 7.982210
_cell_length_c 23.707923
_cell_angle_alpha 90.000000
_cell_angle_beta 40.063016
_cell_angle_gamma 90.000000
_cell_volume 895.656508
_symmetry_space_group_name_H-M "P 2/M"
_symmetry_group_IT_number 10
_symmetry_cell_setting 'monoclinic'
loop_
_space_group_symop_operation_xyz
x,y,z
-x,y,-z
-x,-y,-z
x,-y,z
loop_
_atom_site_type_symbol
_atom_site_label
_atom_site_fract_x
_atom_site_fract_y
_atom_site_fract_z
Si Si1 0.025339 0.000000 0.399566
Si Si2 0.764202 0.810435 0.903316
Si Si3 0.848145 0.698225 0.094947
Si Si4 0.529581 0.000000 0.600904
Si Si5 0.316434 0.688870 0.282087
Si Si6 0.242141 0.684392 0.716396
O O1 0.096396 0.833815 0.347440
O O2 0.248485 0.000000 0.399111
O O3 0.718950 0.000000 0.500326
O O4 0.000344 0.813462 0.895768
O O5 0.927259 0.714371 0.815327
O O6 0.689045 0.000000 0.903541
O O7 0.500000 0.732745 0.000000
O O8 0.892134 0.500000 0.098782
O O9 0.514371 0.725476 0.180955
O O10 0.000000 0.727596 0.000000
O O11 0.340604 0.164630 0.653826
O O12 0.201873 0.500000 0.305442
O O13 0.540861 0.687801 0.281448
O O14 0.264541 0.500000 0.685713
#
# Coordination Sequence:
#
# PCOD9144473 Si02
#       6
#     2   4   4   2   4   4
#     4   9  16  24  39  56  81 115 145 181 226 267
#     4  10  19  30  45  67  95 124 156 191 224 270
#     4   9  18  31  46  66  93 124 157 191 225 269
#     4   9  16  26  37  58  83 109 149 187 218 271
#     4   8  15  26  39  58  84 113 146 181 220 268
#     4   9  16  27  42  58  83 117 147 182 227 268
#
# _framework density 22.329989000000001
#
# number of rings (size 3 to 8) (size 9 to 14) (size 15 to 20)
#    0.000    3.000    1.000    1.800    4.200    2.800 
#    0.000    4.000    0.000    0.000    0.000    0.000 
#    0.000    3.200    0.000    9.000    0.000    7.400 
#
# Total GULP energy -111600.247841 kJ/mol
# GULP energy per Si atom -5580.012392 kJ/mol
# Density = 2.227917 g / cm^3
# Si number density = 22.329989 Si / 1000 Ang^3
#
#
#
# Elastic Constant Matrix: (Units=GPa)
#
#
# Indices 1 2 3 4 5 6 
#
# 1 60.6369 4.8902 1.3426 0.0000 -3.5483 0.0000
# 2 4.8902 158.8412 122.3568 0.0000 1.7647 0.0000
# 3 1.3426 122.3568 207.5089 0.0000 2.9734 0.0000
# 4 0.0000 0.0000 0.0000 26.1832 0.0000 18.0727
# 5 -3.5483 1.7647 2.9734 0.0000 9.5302 0.0000
# 6 0.0000 0.0000 0.0000 18.0727 0.0000 -1.8176
#
#
#
# Elastic Compliance Matrix: (Units=1/GPa)
#
#
# Indices 1 2 3 4 5 6 
#
# 1 0.016923 -0.000801 0.000272 0.000000 0.006364 0.000000
# 2 -0.000801 0.011573 -0.006814 0.000000 -0.000315 0.000000
# 3 0.000272 -0.006814 0.008855 0.000000 -0.001400 0.000000
# 4 0.000000 0.000000 0.000000 0.004857 0.000000 0.048295
# 5 0.006364 -0.000315 -0.001400 0.000000 0.107794 0.000000
# 6 0.000000 0.000000 0.000000 0.048295 0.000000 -0.069969
#
#
# Mechanical properties :
#
#
# Convention : Reuss Voigt Hill
#
# Bulk Modulus (GPa) = 44.12333 76.01848 60.07090
# Shear Modulus (GPa) = 48.88800 26.67233 37.78017
#
# Velocity S-wave (km/s) = 4.68412 3.45985 4.11774
# Velocity P-wave (km/s) = 7.00408 7.07657 7.04042
#
# Compressibility (1/GPa) = 0.02266375
#
# Stress axis : x y z
#
# Youngs Moduli (GPa) = 59.09250 86.41004 112.92686
#
# Poissons Ratio (x) = 0.06920 -0.03067
# Poissons Ratio (y) = 0.04733 0.76950
# Poissons Ratio (z) = -0.01605 0.58881
#
# Static dielectric constant tensor:
#      x y z
#    x 1.947530 0.000000 -0.013440 
#    y 0.000000 1.787320 0.000000 
#    z -0.013440 0.000000 1.823780 
# 
# From -- ./inp_files/26950.got.cif
#   From: 2010.05.17/outbox.cif.g08.bks.cpg/sg10_14_cif.got.tgz:26950.got - 2010.06.03 11:33:40.
