data_PCOD9144977
_publ_section_title
;
Structure prediction by ZEFSAII (Michael W. Deem and Ramdas Pophale) SiO2 
 PCOD9144977
Probable space group: P 2/M
;
_chemical_formula_sum "Si O2"
_cell_formula_units_Z 30
_cell_length_a 17.695837
_cell_length_b 17.641418
_cell_length_c 14.900809
_cell_angle_alpha 90.000000
_cell_angle_beta 16.309665
_cell_angle_gamma 90.000000
_cell_volume 1306.338718
_symmetry_space_group_name_H-M "P 2/M"
_symmetry_group_IT_number 10
_symmetry_cell_setting 'monoclinic'
loop_
_space_group_symop_operation_xyz
x,y,z
-x,y,-z
-x,-y,-z
x,-y,z
loop_
_atom_site_type_symbol
_atom_site_label
_atom_site_fract_x
_atom_site_fract_y
_atom_site_fract_z
Si Si1 0.515400 0.831239 0.621836
Si Si2 0.976146 0.912366 0.894663
Si Si3 0.138080 0.657730 0.249785
Si Si4 0.645713 0.587722 0.735891
Si Si5 0.319691 0.500000 0.614615
Si Si6 0.680310 0.665177 0.384396
Si Si7 0.743327 0.165670 0.888025
Si Si8 0.240850 0.913072 0.392353
O O1 0.589758 0.742677 0.534117
O O2 0.787847 0.880542 0.310747
O O3 0.286320 0.858822 0.813438
O O4 0.382832 0.844452 0.869555
O O5 0.108324 0.911064 0.643606
O O6 0.906581 0.000000 0.993335
O O7 0.191975 0.746366 0.197227
O O8 0.000000 0.630998 0.500000
O O9 0.917023 0.637207 0.427362
O O10 0.422351 0.616048 0.921134
O O11 0.714531 0.500000 0.644766
O O12 0.500000 0.595190 0.000000
O O13 0.500000 0.500000 0.500000
O O14 0.368672 0.582475 0.514896
O O15 0.000000 0.500000 0.000000
O O16 0.500000 0.664020 0.500000
O O17 0.000000 0.670903 0.000000
O O18 0.019374 0.119708 0.577778
O O19 0.511217 0.135638 0.088211
O O20 0.301545 0.000000 0.304169
#
# Coordination Sequence:
#
# PCOD9144977 Si02
#       8
#     4   4   4   4   2   4   4   4
#     4  10  19  31  51  75  97 128 159 205 246 284
#     4   9  17  30  49  73  98 127 166 200 236 285
#     4  10  19  31  49  72  98 129 162 201 242 289
#     4   9  17  30  49  70  91 122 165 202 230 274
#     4   8  16  30  50  72  90 118 157 196 231 270
#     4  10  19  33  53  75  97 125 163 202 239 287
#     4  10  19  31  49  74  98 127 158 202 249 288
#     4   9  17  30  49  71  94 124 167 206 237 283
#
# _framework density 22.964948
#
# number of rings (size 3 to 8) (size 9 to 14) (size 15 to 20)
#    0.000    2.533    0.000    2.800    0.000    4.800 
#    0.000    0.000    2.933   10.400    3.467    0.000 
#    0.000    0.000    0.000    0.000    0.000    0.000 
#
# Total GULP energy -167629.454390 kJ/mol
# GULP energy per Si atom -5587.648480 kJ/mol
# Density = 2.291268 g / cm^3
# Si number density = 22.964948 Si / 1000 Ang^3
#
#
#
# Elastic Constant Matrix: (Units=GPa)
#
#
# Indices 1 2 3 4 5 6 
#
# 1 53.6167 8.1164 52.2661 0.0000 -15.9757 0.0000
# 2 8.1164 168.9748 82.9387 0.0000 -31.2254 0.0000
# 3 52.2661 82.9387 175.5197 0.0000 -46.6011 0.0000
# 4 0.0000 0.0000 0.0000 28.3821 0.0000 -28.7423
# 5 -15.9757 -31.2254 -46.6011 0.0000 41.9870 0.0000
# 6 0.0000 0.0000 0.0000 -28.7423 0.0000 5.6610
#
#
#
# Elastic Compliance Matrix: (Units=1/GPa)
#
#
# Indices 1 2 3 4 5 6 
#
# 1 0.028118 0.003818 -0.009333 0.000000 0.003180 0.000000
# 2 0.003818 0.008397 -0.004340 0.000000 0.002881 0.000000
# 3 -0.009333 -0.004340 0.012374 0.000000 0.006955 0.000000
# 4 0.000000 0.000000 0.000000 -0.008507 0.000000 -0.043192
# 5 0.003180 0.002881 0.006955 0.000000 0.034888 0.000000
# 6 0.000000 0.000000 0.000000 -0.043192 0.000000 -0.042651
#
#
# Mechanical properties :
#
#
# Convention : Reuss Voigt Hill
#
# Bulk Modulus (GPa) = 34.27105 76.08375 55.17740
# Shear Modulus (GPa) = 80.57207 32.19199 56.38203
#
# Velocity S-wave (km/s) = 5.92967 3.74811 4.96031
# Velocity P-wave (km/s) = 7.86364 7.20648 7.54222
#
# Compressibility (1/GPa) = 0.02917915
#
# Stress axis : x y z
#
# Youngs Moduli (GPa) = 35.56419 119.08723 80.81541
#
# Poissons Ratio (x) = -0.45466 0.75424
# Poissons Ratio (y) = -0.13578 0.35074
# Poissons Ratio (z) = 0.33192 0.51684
#
# Static dielectric constant tensor:
#      x y z
#    x 2.039020 0.000000 0.061650 
#    y 0.000000 1.814060 0.000000 
#    z 0.061650 0.000000 1.857810 
# 
# From -- ./inp_files/91309.got.cif
#   From: 2010.05.17/outbox.cif.g08.bks.cpg/sg10_46_cif.got.tgz:91309.got - 2010.06.03 11:33:40.
