data_PCOD9144369
_publ_section_title
;
Structure prediction by ZEFSAII (Michael W. Deem and Ramdas Pophale) SiO2 
 PCOD9144369
Probable space group: P 2/M
;
_chemical_formula_sum "Si O2"
_cell_formula_units_Z 22
_cell_length_a 8.654732
_cell_length_b 11.977963
_cell_length_c 11.500501
_cell_angle_alpha 90.000000
_cell_angle_beta 91.343520
_cell_angle_gamma 90.000000
_cell_volume 1191.883870
_symmetry_space_group_name_H-M "P 2/M"
_symmetry_group_IT_number 10
_symmetry_cell_setting 'monoclinic'
loop_
_space_group_symop_operation_xyz
x,y,z
-x,y,-z
-x,-y,-z
x,-y,z
loop_
_atom_site_type_symbol
_atom_site_label
_atom_site_fract_x
_atom_site_fract_y
_atom_site_fract_z
Si Si1 0.893654 0.000000 0.219482
Si Si2 0.586559 0.628596 0.375264
Si Si3 0.107095 0.816269 0.115186
Si Si4 0.272910 0.367385 0.262969
Si Si5 0.184797 0.000000 0.520583
Si Si6 0.317686 0.000000 0.011742
Si Si7 0.182428 0.241930 0.491407
O O1 0.805694 0.000000 0.339662
O O2 0.004260 0.891505 0.202575
O O3 0.771556 0.000000 0.112823
O O4 0.500000 0.634498 0.500000
O O5 0.634548 0.500000 0.360062
O O6 0.457558 0.656863 0.276760
O O7 0.731569 0.709216 0.393803
O O8 0.177193 0.704465 0.169680
O O9 0.250254 0.893534 0.078842
O O10 0.000000 0.798007 0.000000
O O11 0.255291 0.500000 0.249374
O O12 0.211700 0.325754 0.386518
O O13 0.245749 0.883523 0.470857
O O14 0.000000 0.000000 0.500000
O O15 0.500000 0.000000 0.000000
O O16 0.000000 0.234025 0.500000
#
# Coordination Sequence:
#
# PCOD9144369 Si02
#       7
#     2   4   4   4   2   2   4
#     4   9  18  35  52  72 103 135 161 198 254 303
#     4   8  16  31  46  62  91 128 163 199 240 287
#     4   9  18  34  55  75  98 130 167 205 249 300
#     4  10  20  34  51  71 100 137 171 204 244 290
#     4  10  19  29  46  74 106 130 157 200 248 289
#     4   9  19  34  56  80  99 123 161 208 254 302
#     4  10  19  31  49  74 102 133 167 205 244 289
#
# _framework density 18.458174
#
# number of rings (size 3 to 8) (size 9 to 14) (size 15 to 20)
#    0.000    2.727    0.000    4.909    0.000    4.000 
#    0.000    5.000    0.000    0.545    0.000    0.000 
#    0.000    0.000    0.000    0.000    0.000    0.000 
#
# Total GULP energy -122557.987031 kJ/mol
# GULP energy per Si atom -5570.817592 kJ/mol
# Density = 1.841616 g / cm^3
# Si number density = 18.458174 Si / 1000 Ang^3
#
#
#
# Elastic Constant Matrix: (Units=GPa)
#
#
# Indices 1 2 3 4 5 6 
#
# 1 82.7910 51.9842 16.4961 0.0000 23.1941 0.0000
# 2 51.9842 123.1234 42.5835 0.0000 35.6412 0.0000
# 3 16.4961 42.5835 50.5484 0.0000 12.9948 0.0000
# 4 0.0000 0.0000 0.0000 46.7353 0.0000 28.2571
# 5 23.1941 35.6412 12.9948 0.0000 22.7990 0.0000
# 6 0.0000 0.0000 0.0000 28.2571 0.0000 40.0826
#
#
#
# Elastic Compliance Matrix: (Units=1/GPa)
#
#
# Indices 1 2 3 4 5 6 
#
# 1 0.018043 -0.004529 0.000968 0.000000 -0.011827 0.000000
# 2 -0.004529 0.019022 -0.009475 0.000000 -0.019729 0.000000
# 3 0.000968 -0.009475 0.027997 0.000000 -0.002130 0.000000
# 4 0.000000 0.000000 0.000000 0.037293 0.000000 -0.026290
# 5 -0.011827 -0.019729 -0.002130 0.000000 0.087950 0.000000
# 6 0.000000 0.000000 0.000000 -0.026290 0.000000 0.043482
#
#
# Mechanical properties :
#
#
# Convention : Reuss Voigt Hill
#
# Bulk Modulus (GPa) = 25.64811 53.17671 39.41241
# Shear Modulus (GPa) = 18.32468 31.61665 24.97066
#
# Velocity S-wave (km/s) = 3.15424 4.14319 3.68207
# Velocity P-wave (km/s) = 5.21451 7.19443 6.28295
#
# Compressibility (1/GPa) = 0.03898922
#
# Stress axis : x y z
#
# Youngs Moduli (GPa) = 55.42337 52.56995 35.71839
#
# Poissons Ratio (x) = 0.23809 -0.03456
# Poissons Ratio (y) = 0.25101 0.33843
# Poissons Ratio (z) = -0.05363 0.49810
#
# Static dielectric constant tensor:
#      x y z
#    x 1.654760 0.000000 0.019270 
#    y 0.000000 1.647390 0.000000 
#    z 0.019270 0.000000 1.678180 
# 
# From -- ./inp_files/42115.got.cif
#   From: 2010.05.17/outbox.cif.g08.bks.cpg/sg10_22_cif.got.tgz:42115.got - 2010.06.03 11:33:40.
