data_PCOD9144299
_publ_section_title
;
Structure prediction by ZEFSAII (Michael W. Deem and Ramdas Pophale) SiO2 
 PCOD9144299
Probable space group: P 2/M
;
_chemical_formula_sum "Si O2"
_cell_formula_units_Z 32
_cell_length_a 13.367471
_cell_length_b 7.385142
_cell_length_c 14.724387
_cell_angle_alpha 90.000000
_cell_angle_beta 77.784064
_cell_angle_gamma 90.000000
_cell_volume 1420.687592
_symmetry_space_group_name_H-M "P 2/M"
_symmetry_group_IT_number 10
_symmetry_cell_setting 'monoclinic'
loop_
_space_group_symop_operation_xyz
x,y,z
-x,y,-z
-x,-y,-z
x,-y,z
loop_
_atom_site_type_symbol
_atom_site_label
_atom_site_fract_x
_atom_site_fract_y
_atom_site_fract_z
Si Si1 0.398855 0.207081 0.068077
Si Si2 0.126025 0.789249 0.916746
Si Si3 0.197401 0.204453 0.607269
Si Si4 0.604983 0.213377 0.527589
Si Si5 0.542993 0.283188 0.741162
Si Si6 0.690637 0.717235 0.229631
Si Si7 0.169282 0.221847 0.103248
Si Si8 0.016835 0.221665 0.754376
O O1 0.415184 0.207276 0.173105
O O2 0.285735 0.287526 0.077091
O O3 0.392978 0.000000 0.035098
O O4 0.500000 0.287980 0.000000
O O5 0.246195 0.771812 0.870951
O O6 0.073025 0.714736 0.836459
O O7 0.097496 0.000000 0.923875
O O8 0.112870 0.719606 0.020875
O O9 0.286592 0.290179 0.528617
O O10 0.253807 0.199061 0.694217
O O11 0.086150 0.283772 0.656084
O O12 0.178877 0.000000 0.576575
O O13 0.500000 0.285637 0.500000
O O14 0.597206 0.233118 0.636915
O O15 0.607443 0.000000 0.503277
O O16 0.544552 0.500000 0.749176
O O17 0.425634 0.223716 0.753085
O O18 0.693691 0.500000 0.238702
O O19 0.100754 0.272595 0.203735
O O20 0.171382 0.000000 0.101973
O O21 0.021550 0.000000 0.750410
#
# Coordination Sequence:
#
# PCOD9144299 Si02
#       8
#     4   4   4   4   4   4   4   4
#     4  10  21  36  54  75 100 134 176 218 254 292
#     4   9  16  27  47  72  98 128 163 202 248 300
#     4   9  17  30  49  74 100 129 158 192 244 302
#     4  10  19  32  53  79 106 132 163 206 255 306
#     4  11  23  35  50  73 103 139 174 209 252 303
#     4  10  19  29  43  67 100 133 163 198 242 294
#     4   9  16  28  48  73  97 125 165 212 254 292
#     4   8  14  25  46  75 102 125 157 201 250 303
#
# _framework density 22.524304000000001
#
# number of rings (size 3 to 8) (size 9 to 14) (size 15 to 20)
#    0.000    2.500    1.250    2.625    0.000    5.000 
#    0.000    0.625    0.000    9.750    0.000    5.250 
#    0.000    0.000    0.000    0.000    0.000    0.000 
#
# Total GULP energy -178445.337819 kJ/mol
# GULP energy per Si atom -5576.416807 kJ/mol
# Density = 2.247304 g / cm^3
# Si number density = 22.524304 Si / 1000 Ang^3
#
#
#
# Elastic Constant Matrix: (Units=GPa)
#
#
# Indices 1 2 3 4 5 6 
#
# 1 110.3294 2.2773 46.6532 0.0000 -48.6501 0.0000
# 2 2.2773 85.9438 -8.6605 0.0000 -4.8578 0.0000
# 3 46.6532 -8.6605 120.5391 0.0000 -46.4606 0.0000
# 4 0.0000 0.0000 0.0000 25.1600 0.0000 6.8003
# 5 -48.6501 -4.8578 -46.4606 0.0000 53.5453 0.0000
# 6 0.0000 0.0000 0.0000 6.8003 0.0000 -19.5962
#
#
#
# Elastic Compliance Matrix: (Units=1/GPa)
#
#
# Indices 1 2 3 4 5 6 
#
# 1 0.015184 0.000259 -0.000799 0.000000 0.013127 0.000000
# 2 0.000259 0.011990 0.001910 0.000000 0.002980 0.000000
# 3 -0.000799 0.001910 0.012816 0.000000 0.010567 0.000000
# 4 0.000000 0.000000 0.000000 0.036337 0.000000 0.012610
# 5 0.013127 0.002980 0.010567 0.000000 0.040042 0.000000
# 6 0.000000 0.000000 0.000000 0.012610 0.000000 -0.046654
#
#
# Mechanical properties :
#
#
# Convention : Reuss Voigt Hill
#
# Bulk Modulus (GPa) = 23.40275 44.15024 33.77649
# Shear Modulus (GPa) = 61.56310 30.25797 45.91054
#
# Velocity S-wave (km/s) = 5.23366 3.66915 4.51961
# Velocity P-wave (km/s) = 6.85085 6.13139 6.50108
#
# Compressibility (1/GPa) = 0.04273002
#
# Stress axis : x y z
#
# Youngs Moduli (GPa) = 65.85684 83.40588 78.03020
#
# Poissons Ratio (x) = -0.02161 0.06233
# Poissons Ratio (y) = -0.01707 -0.14903
# Poissons Ratio (z) = 0.05261 -0.15930
#
# Static dielectric constant tensor:
#      x y z
#    x 1.891630 0.000000 -0.058270 
#    y 0.000000 1.878130 0.000000 
#    z -0.058270 0.000000 1.825870 
# 
# From -- ./inp_files/65989.got.cif
#   From: 2010.05.17/outbox.cif.g08.bks.cpg/sg10_33_cif.got.tgz:65989.got - 2010.06.03 11:33:40.
