data_PCOD9144746
_publ_section_title
;
Structure prediction by ZEFSAII (Michael W. Deem and Ramdas Pophale) SiO2 
 PCOD9144746
Probable space group: P 2/M
;
_chemical_formula_sum "Si O2"
_cell_formula_units_Z 20
_cell_length_a 13.194565
_cell_length_b 11.181715
_cell_length_c 6.409615
_cell_angle_alpha 90.000000
_cell_angle_beta 86.059512
_cell_angle_gamma 90.000000
_cell_volume 943.425341
_symmetry_space_group_name_H-M "P 2/M"
_symmetry_group_IT_number 10
_symmetry_cell_setting 'monoclinic'
loop_
_space_group_symop_operation_xyz
x,y,z
-x,y,-z
-x,-y,-z
x,-y,z
loop_
_atom_site_type_symbol
_atom_site_label
_atom_site_fract_x
_atom_site_fract_y
_atom_site_fract_z
Si Si1 0.886541 0.175039 0.531619
Si Si2 0.316557 0.131665 0.192526
Si Si3 0.384231 0.363892 0.440583
Si Si4 0.088708 0.362238 0.135082
Si Si5 0.752104 0.744089 0.183127
O O1 0.798147 0.124347 0.694895
O O2 0.904265 0.301689 0.642692
O O3 0.834647 0.188721 0.315134
O O4 0.000000 0.123296 0.500000
O O5 0.365980 0.249734 0.291401
O O6 0.363461 0.000000 0.223604
O O7 0.308953 0.161264 0.948413
O O8 0.500000 0.363764 0.500000
O O9 0.360776 0.500000 0.365164
O O10 0.314725 0.333427 0.650151
O O11 0.068025 0.500000 0.166746
O O12 0.190737 0.338870 0.991514
O O13 0.000000 0.309984 0.000000
#
# Coordination Sequence:
#
# PCOD9144746 Si02
#       5
#     4   4   4   4   4
#     4  10  20  36  56  83 122 166 213 257 305 358
#     4  10  24  42  63  93 128 166 211 258 311 374
#     4  10  23  44  70  97 124 159 206 260 319 378
#     4  10  19  30  51  84 121 162 207 252 306 368
#     4  10  21  37  59  86 130 164 206 255 312 366
#
# _framework density 21.199345999999998
#
# number of rings (size 3 to 8) (size 9 to 14) (size 15 to 20)
#    0.000    2.000    2.000    0.600    0.000   14.000 
#    0.000    4.000    0.000    0.000    0.000    0.000 
#    0.000    0.000    0.000    0.000    0.000    0.000 
#
# Total GULP energy -111479.344454 kJ/mol
# GULP energy per Si atom -5573.967223 kJ/mol
# Density = 2.115110 g / cm^3
# Si number density = 21.199346 Si / 1000 Ang^3
#
#
#
# Elastic Constant Matrix: (Units=GPa)
#
#
# Indices 1 2 3 4 5 6 
#
# 1 63.7950 26.3393 5.8746 0.0000 13.6482 0.0000
# 2 26.3393 161.2559 53.8380 0.0000 19.6764 0.0000
# 3 5.8746 53.8380 101.8098 0.0000 15.7931 0.0000
# 4 0.0000 0.0000 0.0000 188.2049 0.0000 61.7051
# 5 13.6482 19.6764 15.7931 0.0000 13.4232 0.0000
# 6 0.0000 0.0000 0.0000 61.7051 0.0000 8.4923
#
#
#
# Elastic Compliance Matrix: (Units=1/GPa)
#
#
# Indices 1 2 3 4 5 6 
#
# 1 0.020907 -0.001742 0.003200 0.000000 -0.022469 0.000000
# 2 -0.001742 0.008403 -0.003311 0.000000 -0.006651 0.000000
# 3 0.003200 -0.003311 0.013628 0.000000 -0.014433 0.000000
# 4 0.000000 0.000000 0.000000 -0.003844 0.000000 0.027931
# 5 -0.022469 -0.006651 -0.014433 0.000000 0.124074 0.000000
# 6 0.000000 0.000000 0.000000 0.027931 0.000000 -0.085191
#
#
# Mechanical properties :
#
#
# Convention : Reuss Voigt Hill
#
# Bulk Modulus (GPa) = 25.48975 55.44050 40.46512
# Shear Modulus (GPa) = 52.76568 58.07802 55.42185
#
# Velocity S-wave (km/s) = 4.99442 5.23981 5.11859
# Velocity P-wave (km/s) = 6.73119 7.92567 7.35273
#
# Compressibility (1/GPa) = 0.03923145
#
# Stress axis : x y z
#
# Youngs Moduli (GPa) = 47.83175 119.00745 73.38035
#
# Poissons Ratio (x) = 0.20726 -0.23483
# Poissons Ratio (y) = 0.08330 0.24299
# Poissons Ratio (z) = -0.15307 0.39408
#
# Static dielectric constant tensor:
#      x y z
#    x 1.802100 0.000000 0.017080 
#    y 0.000000 1.805840 0.000000 
#    z 0.017080 0.000000 1.752600 
# 
# From -- ./inp_files/8968.got.cif
#   From: 2010.05.17/outbox.cif.g08.bks.cpg/sg10_5_cif.got.tgz:8968.got - 2010.06.03 11:33:40.
