data_PCOD9144401
_publ_section_title
;
Structure prediction by ZEFSAII (Michael W. Deem and Ramdas Pophale) SiO2 
 PCOD9144401
Probable space group: P 2/M
;
_chemical_formula_sum "Si O2"
_cell_formula_units_Z 28
_cell_length_a 16.233758
_cell_length_b 7.384666
_cell_length_c 12.266029
_cell_angle_alpha 90.000000
_cell_angle_beta 58.691593
_cell_angle_gamma 90.000000
_cell_volume 1256.337442
_symmetry_space_group_name_H-M "P 2/M"
_symmetry_group_IT_number 10
_symmetry_cell_setting 'monoclinic'
loop_
_space_group_symop_operation_xyz
x,y,z
-x,y,-z
-x,-y,-z
x,-y,z
loop_
_atom_site_type_symbol
_atom_site_label
_atom_site_fract_x
_atom_site_fract_y
_atom_site_fract_z
Si Si1 0.846697 0.782183 0.087261
Si Si2 0.706050 0.278512 0.621773
Si Si3 0.075889 0.290952 0.532527
Si Si4 0.470382 0.278458 0.399298
Si Si5 0.018615 0.780934 0.813266
Si Si6 0.356756 0.711551 0.870526
Si Si7 0.387607 0.280199 0.086114
O O1 0.892891 0.722501 0.169818
O O2 0.738992 0.726039 0.135038
O O3 0.848525 0.000000 0.086706
O O4 0.920852 0.723105 0.941546
O O5 0.705831 0.500000 0.619595
O O6 0.815993 0.214689 0.536541
O O7 0.633985 0.222693 0.574274
O O8 0.661651 0.219314 0.768375
O O9 0.089282 0.500000 0.488661
O O10 0.030868 0.285789 0.683323
O O11 0.000000 0.208395 0.500000
O O12 0.500000 0.219878 0.500000
O O13 0.471520 0.500000 0.399821
O O14 0.551362 0.215209 0.257531
O O15 0.018441 0.000000 0.810502
O O16 0.378977 0.500000 0.870434
O O17 0.341267 0.782528 0.003753
O O18 0.383100 0.500000 0.094954
O O19 0.500000 0.230734 0.000000
#
# Coordination Sequence:
#
# PCOD9144401 Si02
#       7
#     4   4   4   4   4   4   4
#     4   9  20  38  57  76 102 137 173 219 274 315
#     4   9  17  30  46  68 107 147 166 202 263 309
#     4  10  22  35  52  82 114 139 170 220 275 309
#     4   9  17  28  44  73 109 139 172 209 252 312
#     4   9  20  40  59  73  98 141 185 214 254 325
#     4  10  19  29  52  83 102 129 176 220 257 309
#     4   9  15  27  46  71 102 135 174 209 244 302
#
# _framework density 22.287006999999999
#
# number of rings (size 3 to 8) (size 9 to 14) (size 15 to 20)
#    0.000    2.714    1.429    0.857    4.000    1.429 
#    0.000    1.429    0.000    1.714    0.000    0.000 
#    0.000    0.000    0.000    0.000    0.000    0.000 
#
# Total GULP energy -156363.181894 kJ/mol
# GULP energy per Si atom -5584.399353 kJ/mol
# Density = 2.223628 g / cm^3
# Si number density = 22.287007 Si / 1000 Ang^3
#
#
#
# Elastic Constant Matrix: (Units=GPa)
#
#
# Indices 1 2 3 4 5 6 
#
# 1 181.2475 0.4452 73.7040 0.0000 12.2925 0.0000
# 2 0.4452 73.9050 -0.4646 0.0000 0.8184 0.0000
# 3 73.7040 -0.4646 111.0769 0.0000 27.1259 0.0000
# 4 0.0000 0.0000 0.0000 14.8683 0.0000 -13.2012
# 5 12.2925 0.8184 27.1259 0.0000 29.0861 0.0000
# 6 0.0000 0.0000 0.0000 -13.2012 0.0000 18.9656
#
#
#
# Elastic Compliance Matrix: (Units=1/GPa)
#
#
# Indices 1 2 3 4 5 6 
#
# 1 0.007641 -0.000102 -0.005545 0.000000 0.001945 0.000000
# 2 -0.000102 0.013540 0.000268 0.000000 -0.000588 0.000000
# 3 -0.005545 0.000268 0.015685 0.000000 -0.012292 0.000000
# 4 0.000000 0.000000 0.000000 0.176074 0.000000 0.122558
# 5 0.001945 -0.000588 -0.012292 0.000000 0.045039 0.000000
# 6 0.000000 0.000000 0.000000 0.122558 0.000000 0.138035
#
#
# Mechanical properties :
#
#
# Convention : Reuss Voigt Hill
#
# Bulk Modulus (GPa) = 38.30495 57.06652 47.68573
# Shear Modulus (GPa) = 12.03443 32.08700 22.06071
#
# Velocity S-wave (km/s) = 2.32626 3.79848 3.14960
# Velocity P-wave (km/s) = 4.94366 6.70066 5.88806
#
# Compressibility (1/GPa) = 0.02610629
#
# Stress axis : x y z
#
# Youngs Moduli (GPa) = 130.87878 73.85688 63.75374
#
# Poissons Ratio (x) = 0.00757 0.35354
# Poissons Ratio (y) = 0.01341 -0.01709
# Poissons Ratio (z) = 0.72578 -0.01980
#
# Static dielectric constant tensor:
#      x y z
#    x 1.796920 0.000000 0.014770 
#    y 0.000000 1.861310 0.000000 
#    z 0.014770 0.000000 1.775400 
# 
# From -- ./inp_files/49069.got.cif
#   From: 2010.05.17/outbox.cif.g08.bks.cpg/sg10_25_cif.got.tgz:49069.got - 2010.06.03 11:33:40.
