data_PCOD9144127
_publ_section_title
;
Structure prediction by ZEFSAII (Michael W. Deem and Ramdas Pophale) SiO2 
 PCOD9144127
Probable space group: P 2/M
;
_chemical_formula_sum "Si O2"
_cell_formula_units_Z 18
_cell_length_a 5.695832
_cell_length_b 12.924215
_cell_length_c 10.884397
_cell_angle_alpha 90.000000
_cell_angle_beta 100.136538
_cell_angle_gamma 90.000000
_cell_volume 788.739187
_symmetry_space_group_name_H-M "P 2/M"
_symmetry_group_IT_number 10
_symmetry_cell_setting 'monoclinic'
loop_
_space_group_symop_operation_xyz
x,y,z
-x,y,-z
-x,-y,-z
x,-y,z
loop_
_atom_site_type_symbol
_atom_site_label
_atom_site_fract_x
_atom_site_fract_y
_atom_site_fract_z
Si Si1 0.163284 0.500000 0.387645
Si Si2 0.644805 0.116326 0.257214
Si Si3 0.159876 0.500000 0.888258
Si Si4 0.856453 0.726437 0.111876
Si Si5 0.287997 0.280779 0.343871
Si Si6 0.000000 0.839743 0.500000
O O1 0.328819 0.399866 0.379993
O O2 0.000000 0.500000 0.500000
O O3 0.984054 0.500000 0.253590
O O4 0.471729 0.203424 0.297719
O O5 0.716035 0.170470 0.135796
O O6 0.870290 0.107408 0.372343
O O7 0.544917 0.000000 0.236931
O O8 0.278449 0.614684 0.900119
O O9 0.000000 0.500000 0.000000
O O10 0.056334 0.717652 0.235437
O O11 0.000000 0.737647 0.000000
O O12 0.206191 0.229593 0.462320
#
# Coordination Sequence:
#
# PCOD9144127 Si02
#       6
#     2   4   2   4   4   2
#     4  10  18  35  63  92 127 158 197 254 314 371
#     4  11  24  39  59  87 118 159 209 251 297 362
#     4   8  16  35  62  86 115 156 199 245 301 372
#     4   9  20  39  62  87 119 157 199 251 307 358
#     4  10  21  37  61  89 120 154 200 247 306 363
#     4  10  21  41  60  80 116 157 201 250 304 358
#
# _framework density 22.821235000000001
#
# number of rings (size 3 to 8) (size 9 to 14) (size 15 to 20)
#    0.000    2.222    1.111    1.000    0.000    7.556 
#    0.000    4.444    0.000    8.000    0.000    0.000 
#    0.000    0.000    0.000    0.000    0.000    0.000 
#
# Total GULP energy -100230.304588 kJ/mol
# GULP energy per Si atom -5568.350255 kJ/mol
# Density = 2.276929 g / cm^3
# Si number density = 22.821235 Si / 1000 Ang^3
#
#
#
# Elastic Constant Matrix: (Units=GPa)
#
#
# Indices 1 2 3 4 5 6 
#
# 1 42.5829 46.1007 1.3681 0.0000 4.2173 0.0000
# 2 46.1007 238.2674 45.1502 0.0000 -32.6755 0.0000
# 3 1.3681 45.1502 109.6780 0.0000 -8.4821 0.0000
# 4 0.0000 0.0000 0.0000 145.9514 0.0000 -38.0609
# 5 4.2173 -32.6755 -8.4821 0.0000 40.0842 0.0000
# 6 0.0000 0.0000 0.0000 -38.0609 0.0000 33.2875
#
#
#
# Elastic Compliance Matrix: (Units=1/GPa)
#
#
# Indices 1 2 3 4 5 6 
#
# 1 0.033222 -0.008174 0.002201 0.000000 -0.009693 0.000000
# 2 -0.008174 0.007060 -0.002331 0.000000 0.006122 0.000000
# 3 0.002201 -0.002331 0.010049 0.000000 -0.000005 0.000000
# 4 0.000000 0.000000 0.000000 0.009763 0.000000 0.011162
# 5 -0.009693 0.006122 -0.000005 0.000000 0.030956 0.000000
# 6 0.000000 0.000000 0.000000 0.011162 0.000000 0.042805
#
#
# Mechanical properties :
#
#
# Convention : Reuss Voigt Hill
#
# Bulk Modulus (GPa) = 29.65321 63.97403 46.81362
# Shear Modulus (GPa) = 30.92062 63.72524 47.32293
#
# Velocity S-wave (km/s) = 3.68490 5.29002 4.55866
# Velocity P-wave (km/s) = 5.57912 8.08739 6.94739
#
# Compressibility (1/GPa) = 0.03372316
#
# Stress axis : x y z
#
# Youngs Moduli (GPa) = 30.10010 141.64796 99.50982
#
# Poissons Ratio (x) = 1.15788 -0.21902
# Poissons Ratio (y) = 0.24605 0.23194
# Poissons Ratio (z) = -0.06625 0.33016
#
# Static dielectric constant tensor:
#      x y z
#    x 1.996530 0.000000 -0.146800 
#    y 0.000000 1.921410 0.000000 
#    z -0.146800 0.000000 1.501700 
# 
# From -- ./inp_files/38715.got.cif
#   From: 2010.05.17/outbox.cif.g08.bks.cpg/sg10_20_cif.got.tgz:38715.got - 2010.06.03 11:33:40.
