data_PCOD9144754
_publ_section_title
;
Structure prediction by ZEFSAII (Michael W. Deem and Ramdas Pophale) SiO2 
 PCOD9144754
Probable space group: P 2/M
;
_chemical_formula_sum "Si O2"
_cell_formula_units_Z 28
_cell_length_a 11.929846
_cell_length_b 16.031954
_cell_length_c 9.202047
_cell_angle_alpha 90.000000
_cell_angle_beta 40.335632
_cell_angle_gamma 90.000000
_cell_volume 1139.166395
_symmetry_space_group_name_H-M "P 2/M"
_symmetry_group_IT_number 10
_symmetry_cell_setting 'monoclinic'
loop_
_space_group_symop_operation_xyz
x,y,z
-x,y,-z
-x,-y,-z
x,-y,z
loop_
_atom_site_type_symbol
_atom_site_label
_atom_site_fract_x
_atom_site_fract_y
_atom_site_fract_z
Si Si1 0.599960 0.679135 0.135123
Si Si2 0.770328 0.500000 0.368259
Si Si3 0.740096 0.207323 0.251555
Si Si4 0.185881 0.321977 0.569943
Si Si5 0.324176 0.905796 0.432587
Si Si6 0.092347 0.905773 0.159793
Si Si7 0.762444 0.792838 0.730226
Si Si8 0.651655 0.500000 0.161475
O O1 0.652500 0.725152 0.232264
O O2 0.393459 0.674010 0.341610
O O3 0.680987 0.586941 0.052068
O O4 0.666632 0.731026 0.933917
O O5 0.857130 0.417302 0.350598
O O6 0.762565 0.500000 0.200630
O O7 0.559503 0.500000 0.604165
O O8 0.849318 0.264373 0.255853
O O9 0.631427 0.149397 0.471356
O O10 0.835665 0.144074 0.049190
O O11 0.128728 0.267484 0.487807
O O12 0.355791 0.849843 0.259787
O O13 0.114819 0.910983 0.643926
O O14 0.393458 0.000000 0.361976
O O15 0.146473 0.858867 0.252907
O O16 0.160826 0.000000 0.092321
#
# Coordination Sequence:
#
# PCOD9144754 Si02
#       8
#     4   2   4   4   4   4   4   2
#     4  10  19  33  52  78 111 140 170 208 246 298
#     4   9  16  29  53  79 102 134 175 214 249 283
#     4  10  19  30  53  83 105 132 166 213 267 310
#     4  10  19  33  52  78 111 140 170 208 246 298
#     4  10  20  36  57  78  99 126 171 229 270 298
#     4  10  20  36  57  78  99 126 171 229 270 298
#     4  10  21  32  51  79 105 138 168 207 263 312
#     4   9  16  29  53  79 102 134 175 214 249 283
#
# _framework density 24.579377000000001
#
# number of rings (size 3 to 8) (size 9 to 14) (size 15 to 20)
#    0.000    2.143    1.429    2.571    0.000    2.857 
#    0.000    2.143    0.000   60.000    0.000   70.000 
#    0.000    0.000    0.000    0.000    0.000    0.000 
#
# Total GULP energy -156660.092765 kJ/mol
# GULP energy per Si atom -5595.003313 kJ/mol
# Density = 2.452343 g / cm^3
# Si number density = 24.579377 Si / 1000 Ang^3
#
#
#
# Elastic Constant Matrix: (Units=GPa)
#
#
# Indices 1 2 3 4 5 6 
#
# 1 101.8984 54.9217 34.4958 0.0000 36.9372 0.0000
# 2 54.9217 264.5153 55.1690 0.0000 33.3999 0.0000
# 3 34.4958 55.1690 109.3064 0.0000 38.6286 0.0000
# 4 0.0000 0.0000 0.0000 20.1503 0.0000 -2.4034
# 5 36.9372 33.3999 38.6286 0.0000 43.4155 0.0000
# 6 0.0000 0.0000 0.0000 -2.4034 0.0000 22.7580
#
#
#
# Elastic Compliance Matrix: (Units=1/GPa)
#
#
# Indices 1 2 3 4 5 6 
#
# 1 0.014812 -0.001670 0.000245 0.000000 -0.011535 0.000000
# 2 -0.001670 0.004533 -0.001503 0.000000 -0.000729 0.000000
# 3 0.000245 -0.001503 0.013850 0.000000 -0.011375 0.000000
# 4 0.000000 0.000000 0.000000 0.050260 0.000000 0.005308
# 5 -0.011535 -0.000729 -0.011375 0.000000 0.043528 0.000000
# 6 0.000000 0.000000 0.000000 0.005308 0.000000 0.044501
#
#
# Mechanical properties :
#
#
# Convention : Reuss Voigt Hill
#
# Bulk Modulus (GPa) = 36.57911 84.98813 60.78362
# Shear Modulus (GPa) = 26.81628 39.34033 33.07830
#
# Velocity S-wave (km/s) = 3.30662 4.00502 3.67246
# Velocity P-wave (km/s) = 5.43072 7.48592 6.53956
#
# Compressibility (1/GPa) = 0.02733800
#
# Stress axis : x y z
#
# Youngs Moduli (GPa) = 67.51133 220.61458 72.20345
#
# Poissons Ratio (x) = 0.36843 -0.01767
# Poissons Ratio (y) = 0.11275 0.10853
# Poissons Ratio (z) = -0.01652 0.33162
#
# Static dielectric constant tensor:
#      x y z
#    x 1.985240 0.000000 -0.064340 
#    y 0.000000 1.940620 0.000000 
#    z -0.064340 0.000000 1.945850 
# 
# From -- ./inp_files/29450.got.cif
#   From: 2010.05.17/outbox.cif.g08.bks.cpg/sg10_15_cif.got.tgz:29450.got - 2010.06.03 11:33:40.
