data_PCOD9144074
_publ_section_title
;
Structure prediction by ZEFSAII (Michael W. Deem and Ramdas Pophale) SiO2 
 PCOD9144074
Probable space group: P 2/M
;
_chemical_formula_sum "Si O2"
_cell_formula_units_Z 26
_cell_length_a 16.292181
_cell_length_b 12.709420
_cell_length_c 5.586430
_cell_angle_alpha 90.000000
_cell_angle_beta 76.544754
_cell_angle_gamma 90.000000
_cell_volume 1124.999001
_symmetry_space_group_name_H-M "P 2/M"
_symmetry_group_IT_number 10
_symmetry_cell_setting 'monoclinic'
loop_
_space_group_symop_operation_xyz
x,y,z
-x,y,-z
-x,-y,-z
x,-y,z
loop_
_atom_site_type_symbol
_atom_site_label
_atom_site_fract_x
_atom_site_fract_y
_atom_site_fract_z
Si Si1 0.551231 0.728686 0.719626
Si Si2 0.074457 0.276710 0.757642
Si Si3 0.408721 0.500000 0.432700
Si Si4 0.745415 0.500000 0.088475
Si Si5 0.673568 0.881611 0.398003
Si Si6 0.236355 0.269815 0.984255
Si Si7 0.843280 0.884295 0.578575
Si Si8 0.076081 0.500000 0.754443
O O1 0.500000 0.730922 0.500000
O O2 0.591731 0.611508 0.703857
O O3 0.617399 0.823021 0.634244
O O4 0.500000 0.743714 0.000000
O O5 0.164300 0.281484 0.831306
O O6 0.078637 0.172478 0.599231
O O7 0.070425 0.388778 0.624487
O O8 0.000000 0.271712 0.000000
O O9 0.500000 0.500000 0.500000
O O10 0.331873 0.500000 0.672066
O O11 0.741680 0.388593 0.954435
O O12 0.835188 0.500000 0.164824
O O13 0.685810 0.796963 0.176410
O O14 0.767102 0.894884 0.441069
O O15 0.643310 0.000000 0.354093
O O16 0.192503 0.198375 0.209692
O O17 0.860869 0.000000 0.666855
O O18 0.000000 0.500000 0.000000
#
# Coordination Sequence:
#
# PCOD9144074 Si02
#       8
#     4   4   2   2   4   4   4   2
#     4  11  25  43  65  94 131 170 215 269 329 389
#     4   9  19  36  57  83 118 154 197 253 314 378
#     4  10  21  39  62  93 131 169 212 268 327 389
#     4  10  18  34  62  89 118 160 207 249 317 395
#     4  10  22  40  62  85 118 160 205 260 314 376
#     4  10  20  37  59  86 119 154 202 255 312 379
#     4  10  22  37  57  85 116 159 209 253 309 375
#     4   8  16  33  57  85 117 151 191 252 314 372
#
# _framework density 23.111132999999999
#
# number of rings (size 3 to 8) (size 9 to 14) (size 15 to 20)
#    0.000    2.154    1.538    0.692    2.154    2.769 
#    0.000    2.308    0.000    5.538    0.000    0.000 
#    0.000    0.000    0.000    0.000    0.000    0.000 
#
# Total GULP energy -145083.874174 kJ/mol
# GULP energy per Si atom -5580.149007 kJ/mol
# Density = 2.305853 g / cm^3
# Si number density = 23.111133 Si / 1000 Ang^3
#
#
#
# Elastic Constant Matrix: (Units=GPa)
#
#
# Indices 1 2 3 4 5 6 
#
# 1 93.5505 21.9928 14.9709 0.0000 -2.6040 0.0000
# 2 21.9928 263.9432 76.8099 0.0000 -30.5555 0.0000
# 3 14.9709 76.8099 89.0795 0.0000 -27.8946 0.0000
# 4 0.0000 0.0000 0.0000 29.4879 0.0000 -17.8351
# 5 -2.6040 -30.5555 -27.8946 0.0000 42.0183 0.0000
# 6 0.0000 0.0000 0.0000 -17.8351 0.0000 22.8441
#
#
#
# Elastic Compliance Matrix: (Units=1/GPa)
#
#
# Indices 1 2 3 4 5 6 
#
# 1 0.011056 -0.000534 -0.001647 0.000000 -0.000797 0.000000
# 2 -0.000534 0.005116 -0.003998 0.000000 0.001033 0.000000
# 3 -0.001647 -0.003998 0.017684 0.000000 0.008730 0.000000
# 4 0.000000 0.000000 0.000000 0.064253 0.000000 0.050164
# 5 -0.000797 0.001033 0.008730 0.000000 0.030297 0.000000
# 6 0.000000 0.000000 0.000000 0.050164 0.000000 0.082940
#
#
# Mechanical properties :
#
#
# Convention : Reuss Voigt Hill
#
# Bulk Modulus (GPa) = 46.51640 74.90228 60.70934
# Shear Modulus (GPa) = 21.65710 41.05671 31.35690
#
# Velocity S-wave (km/s) = 3.06451 4.21942 3.68746
# Velocity P-wave (km/s) = 5.71774 7.49786 6.66748
#
# Compressibility (1/GPa) = 0.02149779
#
# Stress axis : x y z
#
# Youngs Moduli (GPa) = 90.44539 195.45138 56.54774
#
# Poissons Ratio (x) = 0.10441 0.09314
# Poissons Ratio (y) = 0.04832 0.22610
# Poissons Ratio (z) = 0.14897 0.78148
#
# Static dielectric constant tensor:
#      x y z
#    x 1.898990 0.000000 0.057390 
#    y 0.000000 1.931700 0.000000 
#    z 0.057390 0.000000 1.893750 
# 
# From -- ./inp_files/12384.got.cif
#   From: 2010.05.17/outbox.cif.g08.bks.cpg/sg10_7_cif.got.tgz:12384.got - 2010.06.03 11:33:40.
