data_PCOD9144895
_publ_section_title
;
Structure prediction by ZEFSAII (Michael W. Deem and Ramdas Pophale) SiO2 
 PCOD9144895
Probable space group: P 2/M
;
_chemical_formula_sum "Si O2"
_cell_formula_units_Z 32
_cell_length_a 21.708067
_cell_length_b 8.763238
_cell_length_c 12.457088
_cell_angle_alpha 90.000000
_cell_angle_beta 47.364078
_cell_angle_gamma 90.000000
_cell_volume 1743.359112
_symmetry_space_group_name_H-M "P 2/M"
_symmetry_group_IT_number 10
_symmetry_cell_setting 'monoclinic'
loop_
_space_group_symop_operation_xyz
x,y,z
-x,y,-z
-x,-y,-z
x,-y,z
loop_
_atom_site_type_symbol
_atom_site_label
_atom_site_fract_x
_atom_site_fract_y
_atom_site_fract_z
Si Si1 0.279157 0.680324 0.445585
Si Si2 0.058795 0.167486 0.828306
Si Si3 0.265240 0.182088 0.117891
Si Si4 0.403564 0.817929 0.131905
Si Si5 0.139985 0.817587 0.450495
Si Si6 0.796222 0.681900 0.018228
Si Si7 0.755728 0.175200 0.295726
Si Si8 0.981647 0.676412 0.729398
O O1 0.265492 0.500000 0.460238
O O2 0.358748 0.728435 0.280531
O O3 0.199739 0.758115 0.477256
O O4 0.291615 0.736619 0.553117
O O5 0.150895 0.175922 0.765765
O O6 0.032353 0.300654 0.780556
O O7 0.047796 0.000000 0.786965
O O8 0.000000 0.171393 0.000000
O O9 0.347574 0.209119 0.092068
O O10 0.186921 0.231163 0.285850
O O11 0.258203 0.000000 0.106820
O O12 0.263329 0.270525 0.009034
O O13 0.397852 0.000000 0.161678
O O14 0.500000 0.778138 0.000000
O O15 0.044929 0.759946 0.573393
O O16 0.142399 0.000000 0.450537
O O17 0.801758 0.500000 0.024649
O O18 0.765058 0.752564 0.166969
O O19 0.889044 0.737082 0.869110
O O20 0.726965 0.000000 0.321345
O O21 0.974064 0.500000 0.707783
#
# Coordination Sequence:
#
# PCOD9144895 Si02
#       8
#     4   4   4   4   4   4   4   4
#     4  11  21  33  54  86 119 144 174 221 277 328
#     4  10  19  31  48  70  97 136 187 239 279 315
#     4   9  20  38  58  80 106 141 182 221 267 325
#     4   9  19  39  67  94 116 139 172 215 264 324
#     4  10  20  35  54  75 103 142 190 238 280 322
#     4  11  24  37  50  74 110 151 190 229 276 326
#     4  11  21  34  54  77 106 146 191 232 272 321
#     4  11  22  32  47  72 104 143 187 236 284 325
#
# _framework density 18.355369
#
# number of rings (size 3 to 8) (size 9 to 14) (size 15 to 20)
#    0.000    1.750    2.500    3.375    0.000    5.500 
#    0.000    2.500    0.000    0.750    0.000    5.250 
#    0.000    0.000    0.000    0.000    0.000    0.000 
#
# Total GULP energy -178526.576549 kJ/mol
# GULP energy per Si atom -5578.955517 kJ/mol
# Density = 1.831359 g / cm^3
# Si number density = 18.355369 Si / 1000 Ang^3
#
#
#
# Elastic Constant Matrix: (Units=GPa)
#
#
# Indices 1 2 3 4 5 6 
#
# 1 46.9128 26.5209 46.2304 0.0000 14.9908 0.0000
# 2 26.5209 67.8245 38.5708 0.0000 6.7075 0.0000
# 3 46.2304 38.5708 93.5799 0.0000 11.7109 0.0000
# 4 0.0000 0.0000 0.0000 25.3042 0.0000 4.8718
# 5 14.9908 6.7075 11.7109 0.0000 27.2713 0.0000
# 6 0.0000 0.0000 0.0000 4.8718 0.0000 27.4124
#
#
#
# Elastic Compliance Matrix: (Units=1/GPa)
#
#
# Indices 1 2 3 4 5 6 
#
# 1 0.050255 -0.006594 -0.019926 0.000000 -0.017446 0.000000
# 2 -0.006594 0.020174 -0.005168 0.000000 0.000882 0.000000
# 3 -0.019926 -0.005168 0.022330 0.000000 0.002635 0.000000
# 4 0.000000 0.000000 0.000000 0.040919 0.000000 -0.007272
# 5 -0.017446 0.000882 0.002635 0.000000 0.044910 0.000000
# 6 0.000000 0.000000 0.000000 -0.007272 0.000000 0.037772
#
#
# Mechanical properties :
#
#
# Convention : Reuss Voigt Hill
#
# Bulk Modulus (GPa) = 34.03262 47.88458 40.95860
# Shear Modulus (GPa) = 17.26938 22.46394 19.86666
#
# Velocity S-wave (km/s) = 3.07063 3.50213 3.29346
# Velocity P-wave (km/s) = 5.58148 6.51900 6.06837
#
# Compressibility (1/GPa) = 0.02938358
#
# Stress axis : x y z
#
# Youngs Moduli (GPa) = 19.89869 49.56869 44.78258
#
# Poissons Ratio (x) = 0.32685 0.89233
# Poissons Ratio (y) = 0.13121 0.23144
# Poissons Ratio (z) = 0.39650 0.25617
#
# Static dielectric constant tensor:
#      x y z
#    x 1.617580 0.000000 0.003770 
#    y 0.000000 1.669320 0.000000 
#    z 0.003770 0.000000 1.665960 
# 
# From -- ./inp_files/55269.got.cif
#   From: 2010.05.17/outbox.cif.g08.bks.cpg/sg10_28_cif.got.tgz:55269.got - 2010.06.03 11:33:40.
