data_PCOD9144642
_publ_section_title
;
Structure prediction by ZEFSAII (Michael W. Deem and Ramdas Pophale) SiO2 
 PCOD9144642
Probable space group: P 2/M
;
_chemical_formula_sum "Si O2"
_cell_formula_units_Z 32
_cell_length_a 8.179665
_cell_length_b 7.274538
_cell_length_c 27.160901
_cell_angle_alpha 90.000000
_cell_angle_beta 116.854623
_cell_angle_gamma 90.000000
_cell_volume 1441.868643
_symmetry_space_group_name_H-M "P 2/M"
_symmetry_group_IT_number 10
_symmetry_cell_setting 'monoclinic'
loop_
_space_group_symop_operation_xyz
x,y,z
-x,y,-z
-x,-y,-z
x,-y,z
loop_
_atom_site_type_symbol
_atom_site_label
_atom_site_fract_x
_atom_site_fract_y
_atom_site_fract_z
Si Si1 0.220884 0.723563 0.435901
Si Si2 0.390533 0.782732 0.760352
Si Si3 0.193652 0.224194 0.176270
Si Si4 0.151605 0.776501 0.059589
Si Si5 0.586839 0.276437 0.435905
Si Si6 0.472842 0.776501 0.940412
Si Si7 0.164849 0.775806 0.823730
Si Si8 0.195475 0.720088 0.630320
O O1 0.219060 0.500000 0.434594
O O2 0.293541 0.775664 0.499998
O O3 0.377811 0.781698 0.418535
O O4 0.014329 0.787343 0.398992
O O5 0.598571 0.711613 0.787928
O O6 0.265223 0.711613 0.787929
O O7 0.292577 0.758273 0.695049
O O8 0.408519 0.000000 0.772343
O O9 0.127330 0.279015 0.112666
O O10 0.043300 0.283275 0.195536
O O11 0.195951 0.000000 0.177463
O O12 0.352044 0.722560 0.068030
O O13 0.145830 0.000000 0.058539
O O14 0.000000 0.714259 0.000000
O O15 0.584743 0.500000 0.434598
O O16 0.682675 0.212657 0.398998
O O17 0.289336 0.720985 0.887334
O O18 0.470218 0.000000 0.941462
O O19 0.500000 0.714258 0.000000
O O20 0.163569 0.000000 0.822537
O O21 0.185003 0.500000 0.623339
#
# Coordination Sequence:
#
# PCOD9144642 Si02
#       8
#     4   4   4   4   4   4   4   4
#     4   8  14  26  46  72  98 120 145 184 232 273
#     4  10  20  33  45  61  90 126 158 186 220 270
#     4   9  16  27  41  56  79 115 152 183 221 270
#     4   9  14  20  32  53  80 108 139 178 225 275
#     4   8  14  26  46  72  98 120 145 184 232 273
#     4   9  14  20  32  53  80 108 139 178 225 275
#     4   9  16  27  41  56  79 115 152 183 221 270
#     4  10  19  30  48  72  94 118 154 192 224 260
#
# _framework density 22.193424
#
# number of rings (size 3 to 8) (size 9 to 14) (size 15 to 20)
#    0.000    3.000    1.250    1.875    0.000    5.500 
#    0.000    0.000    0.000    1.500    0.000    1.750 
#    0.000    1.000    0.000    0.000    0.000    0.000 
#
# Total GULP energy -178734.377998 kJ/mol
# GULP energy per Si atom -5585.449312 kJ/mol
# Density = 2.214291 g / cm^3
# Si number density = 22.193424 Si / 1000 Ang^3
#
#
#
# Elastic Constant Matrix: (Units=GPa)
#
#
# Indices 1 2 3 4 5 6 
#
# 1 250.2149 9.0156 125.9482 0.0000 -2.7695 0.0000
# 2 9.0156 96.1893 -3.6585 0.0000 -0.4009 0.0000
# 3 125.9482 -3.6585 140.9433 0.0000 -0.6528 0.0000
# 4 0.0000 0.0000 0.0000 3.3068 0.0000 0.7741
# 5 -2.7695 -0.4009 -0.6528 0.0000 18.1421 0.0000
# 6 0.0000 0.0000 0.0000 0.7741 0.0000 -21.1246
#
#
#
# Elastic Compliance Matrix: (Units=1/GPa)
#
#
# Indices 1 2 3 4 5 6 
#
# 1 0.007361 -0.000937 -0.006598 0.000000 0.000866 0.000000
# 2 -0.000937 0.010527 0.001111 0.000000 0.000130 0.000000
# 3 -0.006598 0.001111 0.013018 0.000000 -0.000514 0.000000
# 4 0.000000 0.000000 0.000000 0.299839 0.000000 0.010987
# 5 0.000866 0.000130 -0.000514 0.000000 0.055237 0.000000
# 6 0.000000 0.000000 0.000000 0.010987 0.000000 -0.046936
#
#
# Mechanical properties :
#
#
# Convention : Reuss Voigt Hill
#
# Bulk Modulus (GPa) = 55.37885 83.32869 69.35377
# Shear Modulus (GPa) = 13.96981 23.80099 18.88540
#
# Velocity S-wave (km/s) = 2.51162 3.27836 2.92026
# Velocity P-wave (km/s) = 5.78083 7.20821 6.53361
#
# Compressibility (1/GPa) = 0.01805743
#
# Stress axis : x y z
#
# Youngs Moduli (GPa) = 135.84524 94.99534 76.81698
#
# Poissons Ratio (x) = 0.08904 0.50687
# Poissons Ratio (y) = 0.12733 -0.08538
# Poissons Ratio (z) = 0.89637 -0.10558
#
# Static dielectric constant tensor:
#      x y z
#    x 1.799060 0.000000 -0.001650 
#    y 0.000000 1.910660 0.000000 
#    z -0.001650 0.000000 1.746880 
# 
# From -- ./inp_files/87954.got.cif
#   From: 2010.05.17/outbox.cif.g08.bks.cpg/sg10_44_cif.got.tgz:87954.got - 2010.06.03 11:33:40.
