data_PCOD9144869
_publ_section_title
;
Structure prediction by ZEFSAII (Michael W. Deem and Ramdas Pophale) SiO2 
 PCOD9144869
Probable space group: P 2/M
;
_chemical_formula_sum "Si O2"
_cell_formula_units_Z 32
_cell_length_a 21.907650
_cell_length_b 7.574228
_cell_length_c 24.258769
_cell_angle_alpha 90.000000
_cell_angle_beta 156.082900
_cell_angle_gamma 90.000000
_cell_volume 1631.932264
_symmetry_space_group_name_H-M "P 2/M"
_symmetry_group_IT_number 10
_symmetry_cell_setting 'monoclinic'
loop_
_space_group_symop_operation_xyz
x,y,z
-x,y,-z
-x,-y,-z
x,-y,z
loop_
_atom_site_type_symbol
_atom_site_label
_atom_site_fract_x
_atom_site_fract_y
_atom_site_fract_z
Si Si1 0.907871 0.214075 0.048869
Si Si2 0.520740 0.705158 0.083673
Si Si3 0.333640 0.792102 0.235610
Si Si4 0.851253 0.283872 0.344063
Si Si5 0.333675 0.709274 0.473031
Si Si6 0.809284 0.717067 0.182334
Si Si7 0.981536 0.707225 0.742185
Si Si8 0.770764 0.788094 0.732284
O O1 0.918721 0.277052 0.120385
O O2 0.060679 0.271713 0.143754
O O3 0.909149 0.000000 0.052125
O O4 0.766731 0.278420 0.897042
O O5 0.525392 0.500000 0.104887
O O6 0.688240 0.777721 0.232950
O O7 0.500000 0.707652 0.000000
O O8 0.361053 0.779147 0.972338
O O9 0.510774 0.774225 0.373910
O O10 0.287850 0.717830 0.257833
O O11 0.298185 0.000000 0.208707
O O12 0.848387 0.500000 0.343046
O O13 0.852798 0.233213 0.280745
O O14 0.000000 0.227490 0.500000
O O15 0.330102 0.500000 0.475921
O O16 0.328170 0.747599 0.403118
O O17 0.181732 0.783091 0.375649
O O18 0.804377 0.500000 0.177565
O O19 0.929768 0.779423 0.237022
O O20 0.958344 0.500000 0.711651
O O21 0.774887 0.000000 0.739551
#
# Coordination Sequence:
#
# PCOD9144869 Si02
#       8
#     4   4   4   4   4   4   4   4
#     4   9  18  32  49  67  86 109 142 186 226 259
#     4   7  10  17  30  49  72  99 132 167 202 239
#     4  10  19  31  48  68  87 109 141 183 229 269
#     4   8  12  18  31  54  82 107 133 170 212 248
#     4  10  20  31  43  63  92 121 147 176 212 260
#     4   8  13  23  38  53  76 112 145 171 204 249
#     4   9  18  32  46  61  86 121 154 179 210 257
#     4   9  17  31  50  68  85 109 143 181 223 269
#
# _framework density 19.608657000000001
#
# number of rings (size 3 to 8) (size 9 to 14) (size 15 to 20)
#    0.000    3.250    0.000    2.625    0.000    4.500 
#    0.000    1.250    0.000    8.250    0.000    0.000 
#    0.000    5.000    0.000    0.000    0.000    3.125 
#
# Total GULP energy -178287.776925 kJ/mol
# GULP energy per Si atom -5571.493029 kJ/mol
# Density = 1.956403 g / cm^3
# Si number density = 19.608657 Si / 1000 Ang^3
#
#
#
# Elastic Constant Matrix: (Units=GPa)
#
#
# Indices 1 2 3 4 5 6 
#
# 1 105.8354 -0.6931 56.4577 0.0000 12.0875 0.0000
# 2 -0.6931 40.1733 -6.9932 0.0000 -0.2150 0.0000
# 3 56.4577 -6.9932 160.4493 0.0000 -7.0179 0.0000
# 4 0.0000 0.0000 0.0000 5.1361 0.0000 3.0026
# 5 12.0875 -0.2150 -7.0179 0.0000 10.9176 0.0000
# 6 0.0000 0.0000 0.0000 3.0026 0.0000 5.7180
#
#
#
# Elastic Compliance Matrix: (Units=1/GPa)
#
#
# Indices 1 2 3 4 5 6 
#
# 1 0.015187 -0.000946 -0.006299 0.000000 -0.020882 0.000000
# 2 -0.000946 0.025157 0.001540 0.000000 0.002533 0.000000
# 3 -0.006299 0.001540 0.009078 0.000000 0.012839 0.000000
# 4 0.000000 0.000000 0.000000 0.280946 0.000000 -0.147529
# 5 -0.020882 0.002533 0.012839 0.000000 0.123019 0.000000
# 6 0.000000 0.000000 0.000000 -0.147529 0.000000 0.252356
#
#
# Mechanical properties :
#
#
# Convention : Reuss Voigt Hill
#
# Bulk Modulus (GPa) = 26.30665 44.88899 35.59782
# Shear Modulus (GPa) = 6.85097 21.53345 14.19221
#
# Velocity S-wave (km/s) = 1.87121 3.31745 2.69322
# Velocity P-wave (km/s) = 4.25600 6.13319 5.27871
#
# Compressibility (1/GPa) = 0.03801320
#
# Stress axis : x y z
#
# Youngs Moduli (GPa) = 65.84395 39.74960 110.16226
#
# Poissons Ratio (x) = 0.03761 0.69387
# Poissons Ratio (y) = 0.06230 -0.16967
# Poissons Ratio (z) = 0.41473 -0.06122
#
# Static dielectric constant tensor:
#      x y z
#    x 1.674780 0.000000 0.031130 
#    y 0.000000 1.746350 0.000000 
#    z 0.031130 0.000000 1.707350 
# 
# From -- ./inp_files/93873.got.cif
#   From: 2010.05.17/outbox.cif.g08.bks.cpg/sg10_47_cif.got.tgz:93873.got - 2010.06.03 11:33:40.
