data_PCOD9144548
_publ_section_title
;
Structure prediction by ZEFSAII (Michael W. Deem and Ramdas Pophale) SiO2 
 PCOD9144548
Probable space group: P 2/M
;
_chemical_formula_sum "Si O2"
_cell_formula_units_Z 32
_cell_length_a 12.675639
_cell_length_b 7.644264
_cell_length_c 21.933180
_cell_angle_alpha 90.000000
_cell_angle_beta 51.370032
_cell_angle_gamma 90.000000
_cell_volume 1660.221638
_symmetry_space_group_name_H-M "P 2/M"
_symmetry_group_IT_number 10
_symmetry_cell_setting 'monoclinic'
loop_
_space_group_symop_operation_xyz
x,y,z
-x,y,-z
-x,-y,-z
x,-y,z
loop_
_atom_site_type_symbol
_atom_site_label
_atom_site_fract_x
_atom_site_fract_y
_atom_site_fract_z
Si Si1 0.527089 0.213276 0.893160
Si Si2 0.669559 0.784398 0.718796
Si Si3 0.982595 0.294328 0.786734
Si Si4 0.259859 0.213436 0.549697
Si Si5 0.283461 0.704567 0.681183
Si Si6 0.956013 0.798034 0.659538
Si Si7 0.566818 0.796476 0.626098
Si Si8 0.713211 0.789171 0.939843
O O1 0.577246 0.271321 0.809159
O O2 0.633031 0.267269 0.907548
O O3 0.527638 0.000000 0.892883
O O4 0.379333 0.268676 0.970105
O O5 0.823027 0.723827 0.675831
O O6 0.613380 0.723694 0.674197
O O7 0.670119 0.000000 0.719845
O O8 0.996793 0.500000 0.768321
O O9 0.936440 0.208531 0.739759
O O10 0.866814 0.269971 0.878311
O O11 0.132115 0.226889 0.748937
O O12 0.303446 0.271354 0.601327
O O13 0.356492 0.276590 0.460872
O O14 0.105638 0.275483 0.594461
O O15 0.260179 0.000000 0.551673
O O16 0.286060 0.500000 0.694745
O O17 0.407476 0.786655 0.672221
O O18 0.963272 0.000000 0.637543
O O19 0.606335 0.000000 0.613502
O O20 0.713978 0.000000 0.939567
#
# Coordination Sequence:
#
# PCOD9144548 Si02
#       8
#     4   4   4   4   4   4   4   4
#     4   8  14  25  45  73  99 123 153 185 220 275
#     4   9  16  28  48  71  98 128 155 185 226 279
#     4  10  19  30  46  70  97 120 152 200 240 273
#     4   9  18  31  49  74  97 117 152 201 241 274
#     4  10  21  35  50  67  90 124 163 200 237 277
#     4   9  16  29  49  69  94 128 156 182 229 287
#     4  10  20  32  48  71  96 123 157 198 236 272
#     4   9  15  26  48  73  96 123 154 186 227 278
#
# _framework density 19.274536000000001
#
# number of rings (size 3 to 8) (size 9 to 14) (size 15 to 20)
#    0.000    2.750    1.250    1.875    0.000    4.000 
#    0.000    4.375    0.000    0.750    0.000    9.625 
#    0.000    0.000    0.000    0.000    0.000    0.000 
#
# Total GULP energy -178421.368202 kJ/mol
# GULP energy per Si atom -5575.667756 kJ/mol
# Density = 1.923067 g / cm^3
# Si number density = 19.274536 Si / 1000 Ang^3
#
#
#
# Elastic Constant Matrix: (Units=GPa)
#
#
# Indices 1 2 3 4 5 6 
#
# 1 112.2533 -6.9494 37.6703 0.0000 -12.5154 0.0000
# 2 -6.9494 33.0135 -2.6257 0.0000 0.8965 0.0000
# 3 37.6703 -2.6257 51.6847 0.0000 -19.5751 0.0000
# 4 0.0000 0.0000 0.0000 50.4339 0.0000 118.2056
# 5 -12.5154 0.8965 -19.5751 0.0000 19.0145 0.0000
# 6 0.0000 0.0000 0.0000 118.2056 0.0000 252.0350
#
#
#
# Elastic Compliance Matrix: (Units=1/GPa)
#
#
# Indices 1 2 3 4 5 6 
#
# 1 0.011938 0.001823 -0.009285 0.000000 -0.001787 0.000000
# 2 0.001823 0.030693 0.000225 0.000000 -0.000016 0.000000
# 3 -0.009285 0.000225 0.039024 0.000000 0.034052 0.000000
# 4 0.000000 0.000000 0.000000 -0.199796 0.000000 0.093705
# 5 -0.001787 -0.000016 0.034052 0.000000 0.086472 0.000000
# 6 0.000000 0.000000 0.000000 0.093705 0.000000 -0.039981
#
#
# Mechanical properties :
#
#
# Convention : Reuss Voigt Hill
#
# Bulk Modulus (GPa) = 14.88559 28.12688 21.50623
# Shear Modulus (GPa) = -143.75635 75.55376 -34.10130
#
# Velocity S-wave (km/s) = -8.64555 6.26768 -4.21080
# Velocity P-wave (km/s) = 9.58754 8.18553 3.52973
#
# Compressibility (1/GPa) = 0.06717907
#
# Stress axis : x y z
#
# Youngs Moduli (GPa) = 83.76614 32.58110 25.62520
#
# Poissons Ratio (x) = -0.05939 0.23794
# Poissons Ratio (y) = -0.15270 -0.00575
# Poissons Ratio (z) = 0.77780 -0.00732
#
# Static dielectric constant tensor:
#      x y z
#    x 1.652330 0.000000 -0.030940 
#    y 0.000000 1.664330 0.000000 
#    z -0.030940 0.000000 1.685950 
# 
# From -- ./inp_files/52703.got.cif
#   From: 2010.05.17/outbox.cif.g08.bks.cpg/sg10_27_cif.got.tgz:52703.got - 2010.06.03 11:33:40.
