data_PCOD9144399
_publ_section_title
;
Structure prediction by ZEFSAII (Michael W. Deem and Ramdas Pophale) SiO2 
 PCOD9144399
Probable space group: P 2/M
;
_chemical_formula_sum "Si O2"
_cell_formula_units_Z 18
_cell_length_a 21.894919
_cell_length_b 7.385533
_cell_length_c 5.337127
_cell_angle_alpha 90.000000
_cell_angle_beta 83.084250
_cell_angle_gamma 90.000000
_cell_volume 856.764310
_symmetry_space_group_name_H-M "P 2/M"
_symmetry_group_IT_number 10
_symmetry_cell_setting 'monoclinic'
loop_
_space_group_symop_operation_xyz
x,y,z
-x,y,-z
-x,-y,-z
x,-y,z
loop_
_atom_site_type_symbol
_atom_site_label
_atom_site_fract_x
_atom_site_fract_y
_atom_site_fract_z
Si Si1 0.040904 0.500000 0.229864
Si Si2 0.570355 0.721528 0.916452
Si Si3 0.365861 0.712164 0.615966
Si Si4 0.149298 0.219255 0.162381
Si Si5 0.777484 0.782905 0.374280
O O1 0.085326 0.324956 0.206748
O O2 0.000000 0.500000 0.500000
O O3 0.000000 0.500000 0.000000
O O4 0.572015 0.500000 0.907915
O O5 0.597249 0.787258 0.639677
O O6 0.500000 0.773233 0.000000
O O7 0.612331 0.784566 0.127139
O O8 0.381342 0.500000 0.616895
O O9 0.293265 0.727253 0.609515
O O10 0.189861 0.273179 0.384226
O O11 0.141589 0.000000 0.167738
O O12 0.184587 0.273272 0.890257
O O13 0.777831 0.000000 0.374171
#
# Coordination Sequence:
#
# PCOD9144399 Si02
#       5
#     2   4   4   4   4
#     4  12  26  42  66  96 122 158 195 234 279 330
#     4   9  17  30  46  71 107 142 183 235 289 342
#     4  10  19  29  51  80 101 139 189 237 286 337
#     4  10  23  41  62  88 121 159 192 235 289 339
#     4  10  21  38  58  83 116 152 188 236 294 341
#
# _framework density 21.009277000000001
#
# number of rings (size 3 to 8) (size 9 to 14) (size 15 to 20)
#    0.000    2.000    0.000    3.333    3.111    3.556 
#    0.000    0.000    0.000    4.000    0.000    0.000 
#    0.000    0.000    0.000    0.000    0.000    0.000 
#
# Total GULP energy -100625.523904 kJ/mol
# GULP energy per Si atom -5590.306884 kJ/mol
# Density = 2.096146 g / cm^3
# Si number density = 21.009277 Si / 1000 Ang^3
#
#
#
# Elastic Constant Matrix: (Units=GPa)
#
#
# Indices 1 2 3 4 5 6 
#
# 1 46.6483 -2.0860 -19.0565 0.0000 3.1086 0.0000
# 2 -2.0860 73.5754 2.2840 0.0000 -1.1887 0.0000
# 3 -19.0565 2.2840 84.3023 0.0000 -4.0805 0.0000
# 4 0.0000 0.0000 0.0000 -7.9078 0.0000 -22.5493
# 5 3.1086 -1.1887 -4.0805 0.0000 51.7942 0.0000
# 6 0.0000 0.0000 0.0000 -22.5493 0.0000 121.6813
#
#
#
# Elastic Compliance Matrix: (Units=1/GPa)
#
#
# Indices 1 2 3 4 5 6 
#
# 1 0.023688 0.000491 0.005293 0.000000 -0.000993 0.000000
# 2 0.000491 0.013617 -0.000245 0.000000 0.000264 0.000000
# 3 0.005293 -0.000245 0.013100 0.000000 0.000709 0.000000
# 4 0.000000 0.000000 0.000000 -0.082737 0.000000 -0.015332
# 5 -0.000993 0.000264 0.000709 0.000000 0.019429 0.000000
# 6 0.000000 0.000000 0.000000 -0.015332 0.000000 0.005377
#
#
# Mechanical properties :
#
#
# Convention : Reuss Voigt Hill
#
# Bulk Modulus (GPa) = 16.26468 18.53431 17.39949
# Shear Modulus (GPa) = 2646.89483 48.00585 1347.45034
#
# Velocity S-wave (km/s) = 35.53315 4.78534 25.35255
# Velocity P-wave (km/s) = 41.12458 6.27485 29.41602
#
# Compressibility (1/GPa) = 0.06148293
#
# Stress axis : x y z
#
# Youngs Moduli (GPa) = 42.21630 73.43599 76.33850
#
# Poissons Ratio (x) = -0.03607 -0.40407
# Poissons Ratio (y) = -0.02074 0.01871
# Poissons Ratio (z) = -0.22346 0.01800
#
# Static dielectric constant tensor:
#      x y z
#    x 1.692550 0.000000 0.016740 
#    y 0.000000 1.788400 0.000000 
#    z 0.016740 0.000000 1.744720 
# 
# From -- ./inp_files/10408.got.cif
#   From: 2010.05.17/outbox.cif.g08.bks.cpg/sg10_6_cif.got.tgz:10408.got - 2010.06.03 11:33:40.
