data_PCOD9144698
_publ_section_title
;
Structure prediction by ZEFSAII (Michael W. Deem and Ramdas Pophale) SiO2 
 PCOD9144698
Probable space group: P 2/M
;
_chemical_formula_sum "Si O2"
_cell_formula_units_Z 32
_cell_length_a 10.126639
_cell_length_b 9.292202
_cell_length_c 21.846334
_cell_angle_alpha 90.000000
_cell_angle_beta 111.424022
_cell_angle_gamma 90.000000
_cell_volume 1913.669147
_symmetry_space_group_name_H-M "P 2/M"
_symmetry_group_IT_number 10
_symmetry_cell_setting 'monoclinic'
loop_
_space_group_symop_operation_xyz
x,y,z
-x,y,-z
-x,-y,-z
x,-y,z
loop_
_atom_site_type_symbol
_atom_site_label
_atom_site_fract_x
_atom_site_fract_y
_atom_site_fract_z
Si Si1 0.259259 0.664969 0.806735
Si Si2 0.158029 0.830087 0.675045
Si Si3 0.045707 0.827702 0.938811
Si Si4 0.643193 0.171953 0.060420
Si Si5 0.665660 0.330063 0.541173
Si Si6 0.161763 0.170417 0.327690
Si Si7 0.062886 0.334467 0.195024
Si Si8 0.162199 0.332100 0.549369
O O1 0.303263 0.500000 0.805543
O O2 0.251542 0.751144 0.742207
O O3 0.347850 0.744852 0.874028
O O4 0.097483 0.664629 0.804939
O O5 0.182382 0.761318 0.613114
O O6 0.992677 0.808218 0.666278
O O7 0.184788 0.000000 0.679749
O O8 0.211864 0.795559 0.952728
O O9 0.952639 0.745308 0.872404
O O10 0.027643 0.000000 0.927867
O O11 0.000000 0.790395 0.000000
O O12 0.643580 0.000000 0.071731
O O13 0.500000 0.208463 0.000000
O O14 0.500000 0.314913 0.500000
O O15 0.697931 0.500000 0.556835
O O16 0.723087 0.241150 0.608260
O O17 0.745644 0.284468 0.492872
O O18 0.153578 0.248385 0.260612
O O19 0.183101 0.000000 0.324065
O O20 0.108990 0.500000 0.196647
O O21 0.194790 0.500000 0.568354
O O22 0.000000 0.324109 0.500000
#
# Coordination Sequence:
#
# PCOD9144698 Si02
#       8
#     4   4   4   4   4   4   4   4
#     4   9  17  29  47  72 100 129 163 203 245 288
#     4  10  19  30  49  76 103 128 161 208 252 289
#     4   9  17  30  49  73 100 128 159 198 243 288
#     4   9  17  30  49  72  99 130 162 196 238 290
#     4  10  21  36  53  73 100 133 165 200 245 297
#     4  10  19  31  50  75 101 129 164 206 248 292
#     4   9  17  29  48  73  99 127 163 205 245 287
#     4  10  19  32  52  76 100 128 163 202 245 292
#
# _framework density 16.721805
#
# number of rings (size 3 to 8) (size 9 to 14) (size 15 to 20)
#    0.000    2.500    1.250    1.500    0.000    5.500 
#    0.000    0.000    2.750    0.000    0.000    0.000 
#    0.000    0.000    0.000    0.000    0.000    0.000 
#
# Total GULP energy -178427.390863 kJ/mol
# GULP energy per Si atom -5575.855964 kJ/mol
# Density = 1.668375 g / cm^3
# Si number density = 16.721805 Si / 1000 Ang^3
#
#
#
# Elastic Constant Matrix: (Units=GPa)
#
#
# Indices 1 2 3 4 5 6 
#
# 1 34.7189 24.1073 38.6976 0.0000 -7.3433 0.0000
# 2 24.1073 85.2969 93.6378 0.0000 -1.4991 0.0000
# 3 38.6976 93.6378 176.8817 0.0000 -7.7982 0.0000
# 4 0.0000 0.0000 0.0000 65.1939 0.0000 12.9693
# 5 -7.3433 -1.4991 -7.7982 0.0000 22.7843 0.0000
# 6 0.0000 0.0000 0.0000 12.9693 0.0000 25.6296
#
#
#
# Elastic Compliance Matrix: (Units=1/GPa)
#
#
# Indices 1 2 3 4 5 6 
#
# 1 0.041120 -0.004971 -0.005883 0.000000 0.010912 0.000000
# 2 -0.004971 0.028835 -0.014381 0.000000 -0.004627 0.000000
# 3 -0.005883 -0.014381 0.014649 0.000000 0.002172 0.000000
# 4 0.000000 0.000000 0.000000 0.017056 0.000000 -0.008631
# 5 0.010912 -0.004627 0.002172 0.000000 0.047846 0.000000
# 6 0.000000 0.000000 0.000000 -0.008631 0.000000 0.043385
#
#
# Mechanical properties :
#
#
# Convention : Reuss Voigt Hill
#
# Bulk Modulus (GPa) = 29.29711 67.75366 48.52539
# Shear Modulus (GPa) = 19.62794 32.08523 25.85658
#
# Velocity S-wave (km/s) = 3.42978 4.38512 3.93654
# Velocity P-wave (km/s) = 5.76566 8.13912 7.05295
#
# Compressibility (1/GPa) = 0.03413306
#
# Stress axis : x y z
#
# Youngs Moduli (GPa) = 24.31899 34.68054 68.26240
#
# Poissons Ratio (x) = 0.17241 0.40161
# Poissons Ratio (y) = 0.12090 0.98167
# Poissons Ratio (z) = 0.14308 0.49874
#
# Static dielectric constant tensor:
#      x y z
#    x 1.538610 0.000000 -0.006220 
#    y 0.000000 1.562800 0.000000 
#    z -0.006220 0.000000 1.534930 
# 
# From -- ./inp_files/52720.got.cif
#   From: 2010.05.17/outbox.cif.g08.bks.cpg/sg10_27_cif.got.tgz:52720.got - 2010.06.03 11:33:40.
