data_PCOD9144812
_publ_section_title
;
Structure prediction by ZEFSAII (Michael W. Deem and Ramdas Pophale) SiO2 
 PCOD9144812
Probable space group: P 2/M
;
_chemical_formula_sum "Si O2"
_cell_formula_units_Z 32
_cell_length_a 20.664625
_cell_length_b 7.367255
_cell_length_c 12.864210
_cell_angle_alpha 90.000000
_cell_angle_beta 127.083685
_cell_angle_gamma 90.000000
_cell_volume 1562.378472
_symmetry_space_group_name_H-M "P 2/M"
_symmetry_group_IT_number 10
_symmetry_cell_setting 'monoclinic'
loop_
_space_group_symop_operation_xyz
x,y,z
-x,y,-z
-x,-y,-z
x,-y,z
loop_
_atom_site_type_symbol
_atom_site_label
_atom_site_fract_x
_atom_site_fract_y
_atom_site_fract_z
Si Si1 0.031665 0.721131 0.144225
Si Si2 0.124270 0.279314 0.889996
Si Si3 0.722710 0.292657 0.366885
Si Si4 0.384362 0.281003 0.112655
Si Si5 0.458755 0.209123 0.855569
Si Si6 0.782561 0.277796 0.645387
Si Si7 0.270796 0.720873 0.183772
Si Si8 0.238294 0.721818 0.819605
O O1 0.032264 0.500000 0.144585
O O2 0.123529 0.777348 0.253454
O O3 0.965096 0.780204 0.164139
O O4 0.000000 0.776821 0.000000
O O5 0.123679 0.500000 0.888637
O O6 0.162523 0.221978 0.817397
O O7 0.189195 0.227077 0.041961
O O8 0.752742 0.500000 0.399038
O O9 0.625904 0.295435 0.257879
O O10 0.746104 0.213664 0.500951
O O11 0.758934 0.212493 0.295716
O O12 0.385729 0.500000 0.113966
O O13 0.473285 0.218611 0.167494
O O14 0.346388 0.221299 0.185696
O O15 0.319789 0.224710 0.961089
O O16 0.439215 0.000000 0.859238
O O17 0.500000 0.287457 0.000000
O O18 0.780033 0.500000 0.644502
O O19 0.735310 0.218705 0.703492
O O20 0.271712 0.500000 0.184807
O O21 0.239407 0.500000 0.818863
#
# Coordination Sequence:
#
# PCOD9144812 Si02
#       8
#     4   4   4   4   4   4   4   4
#     4   9  13  19  34  58  92 128 155 182 223 267
#     4   8  12  19  34  57  87 122 154 183 217 262
#     4  10  19  31  47  66  94 126 153 186 227 276
#     4   9  16  28  49  70  89 117 152 188 225 269
#     4  11  22  34  49  70  92 113 148 196 235 273
#     4   9  16  25  39  64  95 126 158 187 220 266
#     4   8  13  23  40  64  90 118 154 189 219 259
#     4   8  14  24  39  61  87 118 152 182 221 268
#
# _framework density 20.481594000000001
#
# number of rings (size 3 to 8) (size 9 to 14) (size 15 to 20)
#    0.000    3.000    2.500    1.875    0.000    0.500 
#    0.000    1.250    0.000    8.250    0.000    0.000 
#    0.000    6.500    0.000    0.500    0.000    0.000 
#
# Total GULP energy -178519.385696 kJ/mol
# GULP energy per Si atom -5578.730803 kJ/mol
# Density = 2.043498 g / cm^3
# Si number density = 20.481594 Si / 1000 Ang^3
#
#
#
# Elastic Constant Matrix: (Units=GPa)
#
#
# Indices 1 2 3 4 5 6 
#
# 1 170.2474 -3.4282 81.5522 0.0000 -34.3707 0.0000
# 2 -3.4282 72.6297 2.9177 0.0000 -4.4805 0.0000
# 3 81.5522 2.9177 135.5214 0.0000 -31.9139 0.0000
# 4 0.0000 0.0000 0.0000 -22.4250 0.0000 -29.6196
# 5 -34.3707 -4.4805 -31.9139 0.0000 34.1481 0.0000
# 6 0.0000 0.0000 0.0000 -29.6196 0.0000 -485.2041
#
#
#
# Elastic Compliance Matrix: (Units=1/GPa)
#
#
# Indices 1 2 3 4 5 6 
#
# 1 0.008946 0.000912 -0.004173 0.000000 0.005224 0.000000
# 2 0.000912 0.013977 -0.000259 0.000000 0.002510 0.000000
# 3 -0.004173 -0.000259 0.011409 0.000000 0.006429 0.000000
# 4 0.000000 0.000000 0.000000 -0.048504 0.000000 0.002961
# 5 0.005224 0.002510 0.006429 0.000000 0.040880 0.000000
# 6 0.000000 0.000000 0.000000 0.002961 0.000000 -0.002242
#
#
# Mechanical properties :
#
#
# Convention : Reuss Voigt Hill
#
# Bulk Modulus (GPa) = 36.63877 60.05355 48.34616
# Shear Modulus (GPa) = 123.14558 -74.87243 24.13658
#
# Velocity S-wave (km/s) = 7.76244 -6.05271 3.43658
# Velocity P-wave (km/s) = 9.91303 4.41165 6.27716
#
# Compressibility (1/GPa) = 0.02729350
#
# Stress axis : x y z
#
# Youngs Moduli (GPa) = 111.78693 71.54727 87.64685
#
# Poissons Ratio (x) = -0.06526 0.36572
# Poissons Ratio (y) = -0.10196 0.02267
# Poissons Ratio (z) = 0.46644 0.01851
#
# Static dielectric constant tensor:
#      x y z
#    x 1.730070 0.000000 -0.031270 
#    y 0.000000 1.789820 0.000000 
#    z -0.031270 0.000000 1.689700 
# 
# From -- ./inp_files/55369.got.cif
#   From: 2010.05.17/outbox.cif.g08.bks.cpg/sg10_28_cif.got.tgz:55369.got - 2010.06.03 11:33:40.
