data_PCOD9144295
_publ_section_title
;
Structure prediction by ZEFSAII (Michael W. Deem and Ramdas Pophale) SiO2 
 PCOD9144295
Probable space group: P 2/M
;
_chemical_formula_sum "Si O2"
_cell_formula_units_Z 32
_cell_length_a 7.482886
_cell_length_b 12.952068
_cell_length_c 21.638661
_cell_angle_alpha 90.000000
_cell_angle_beta 111.137599
_cell_angle_gamma 90.000000
_cell_volume 1956.088791
_symmetry_space_group_name_H-M "P 2/M"
_symmetry_group_IT_number 10
_symmetry_cell_setting 'monoclinic'
loop_
_space_group_symop_operation_xyz
x,y,z
-x,y,-z
-x,-y,-z
x,-y,z
loop_
_atom_site_type_symbol
_atom_site_label
_atom_site_fract_x
_atom_site_fract_y
_atom_site_fract_z
Si Si1 0.413687 0.625429 0.084375
Si Si2 0.236332 0.728350 0.311517
Si Si3 0.804061 0.624767 0.825585
Si Si4 0.202330 0.374589 0.936814
Si Si5 0.589273 0.879655 0.370764
Si Si6 0.980152 0.116263 0.341871
Si Si7 0.815466 0.830702 0.515324
Si Si8 0.717047 0.383493 0.552885
O O1 0.412427 0.500000 0.084150
O O2 0.360346 0.657876 0.146553
O O3 0.619931 0.657226 0.084304
O O4 0.256161 0.657293 0.013342
O O5 0.216713 0.669707 0.244842
O O6 0.417091 0.805461 0.330961
O O7 0.271528 0.651779 0.374125
O O8 0.047161 0.796531 0.302785
O O9 0.803567 0.500000 0.821694
O O10 0.002360 0.657895 0.882970
O O11 0.198836 0.500000 0.937551
O O12 0.782503 0.859428 0.354022
O O13 0.640472 0.858789 0.449318
O O14 0.542015 0.000000 0.357243
O O15 0.153086 0.119191 0.414148
O O16 0.965418 0.000000 0.315190
O O17 0.819940 0.708019 0.528256
O O18 0.000000 0.865284 0.500000
O O19 0.500000 0.382646 0.500000
O O20 0.207607 0.500000 0.445082
#
# Coordination Sequence:
#
# PCOD9144295 Si02
#       8
#     4   4   4   4   4   4   4   4
#     4   8  14  26  45  68  91 121 159 190 222 262
#     4  11  21  32  46  67  93 126 160 190 229 277
#     4  10  19  29  43  65  98 133 162 187 217 260
#     4   8  14  26  45  67  92 122 156 192 224 259
#     4  10  19  33  51  69  88 110 143 195 254 299
#     4   9  19  33  50  70  89 109 142 195 253 299
#     4   9  17  31  50  71  87 105 146 199 246 290
#     4  10  19  32  46  60  88 126 163 197 224 257
#
# _framework density 16.359176000000001
#
# number of rings (size 3 to 8) (size 9 to 14) (size 15 to 20)
#    0.000    2.625    1.250    2.250    0.000    4.250 
#    0.000    1.875    0.000    1.500    0.000    0.000 
#    0.000    8.000    0.000   22.000    0.000    1.000 
#
# Total GULP energy -178220.195385 kJ/mol
# GULP energy per Si atom -5569.381106 kJ/mol
# Density = 1.632194 g / cm^3
# Si number density = 16.359176 Si / 1000 Ang^3
#
#
#
# Elastic Constant Matrix: (Units=GPa)
#
#
# Indices 1 2 3 4 5 6 
#
# 1 41.3739 10.6218 16.8291 0.0000 -9.0885 0.0000
# 2 10.6218 55.2883 6.5977 0.0000 -3.1330 0.0000
# 3 16.8291 6.5977 53.5850 0.0000 -19.7868 0.0000
# 4 0.0000 0.0000 0.0000 -0.5085 0.0000 1.7867
# 5 -9.0885 -3.1330 -19.7868 0.0000 23.2494 0.0000
# 6 0.0000 0.0000 0.0000 1.7867 0.0000 17.0951
#
#
#
# Elastic Compliance Matrix: (Units=1/GPa)
#
#
# Indices 1 2 3 4 5 6 
#
# 1 0.029183 -0.004515 -0.006740 0.000000 0.005064 0.000000
# 2 -0.004515 0.019066 -0.000922 0.000000 0.000019 0.000000
# 3 -0.006740 -0.000922 0.028981 0.000000 0.021906 0.000000
# 4 0.000000 0.000000 0.000000 -1.438333 0.000000 0.150327
# 5 0.005064 0.000019 0.021906 0.000000 0.063637 0.000000
# 6 0.000000 0.000000 0.000000 0.150327 0.000000 0.042785
#
#
# Mechanical properties :
#
#
# Convention : Reuss Voigt Hill
#
# Bulk Modulus (GPa) = 18.91242 24.26050 21.58646
# Shear Modulus (GPa) = -4.12302 15.71376 5.79537
#
# Velocity S-wave (km/s) = -1.58927 3.10263 1.88422
# Velocity P-wave (km/s) = 2.86673 5.26281 4.23765
#
# Compressibility (1/GPa) = 0.05287532
#
# Stress axis : x y z
#
# Youngs Moduli (GPa) = 34.26688 52.45043 34.50517
#
# Poissons Ratio (x) = 0.23683 0.23255
# Poissons Ratio (y) = 0.15473 0.03182
# Poissons Ratio (z) = 0.23094 0.04837
#
# Static dielectric constant tensor:
#      x y z
#    x 1.584020 0.000000 -0.004500 
#    y 0.000000 1.545590 0.000000 
#    z -0.004500 0.000000 1.543990 
# 
# From -- ./inp_files/80353.got.cif
#   From: 2010.05.17/outbox.cif.g08.bks.cpg/sg10_41_cif.got.tgz:80353.got - 2010.06.03 11:33:40.
