data_PCOD9144731
_publ_section_title
;
Structure prediction by ZEFSAII (Michael W. Deem and Ramdas Pophale) SiO2 
 PCOD9144731
Probable space group: P 2/M
;
_chemical_formula_sum "Si O2"
_cell_formula_units_Z 28
_cell_length_a 26.078670
_cell_length_b 11.621444
_cell_length_c 26.607272
_cell_angle_alpha 90.000000
_cell_angle_beta 11.034374
_cell_angle_gamma 90.000000
_cell_volume 1543.416008
_symmetry_space_group_name_H-M "P 2/M"
_symmetry_group_IT_number 10
_symmetry_cell_setting 'monoclinic'
loop_
_space_group_symop_operation_xyz
x,y,z
-x,y,-z
-x,-y,-z
x,-y,z
loop_
_atom_site_type_symbol
_atom_site_label
_atom_site_fract_x
_atom_site_fract_y
_atom_site_fract_z
Si Si1 0.701187 0.500000 0.615341
Si Si2 0.565500 0.364026 0.382175
Si Si3 0.372772 0.639497 0.067345
Si Si4 0.824050 0.720973 0.556891
Si Si5 0.147525 0.500000 0.119578
Si Si6 0.243403 0.136967 0.476624
Si Si7 0.797711 0.749124 0.976654
Si Si8 0.014429 0.361005 0.104030
O O1 0.832744 0.611850 0.511669
O O2 0.830090 0.500000 0.435740
O O3 0.387657 0.500000 0.929652
O O4 0.500000 0.312974 0.500000
O O5 0.612925 0.500000 0.344780
O O6 0.301368 0.351949 0.602155
O O7 0.823253 0.327584 0.102476
O O8 0.341613 0.500000 0.090288
O O9 0.093248 0.707099 0.330219
O O10 0.500000 0.653515 0.000000
O O11 0.572795 0.696389 0.834486
O O12 0.793378 0.824234 0.546511
O O13 0.221533 0.617157 0.021849
O O14 0.007961 0.188254 0.737806
O O15 0.247707 0.000000 0.475368
O O16 0.515740 0.190241 0.237436
O O17 0.895074 0.727829 0.939833
O O18 0.068133 0.500000 0.062906
#
# Coordination Sequence:
#
# PCOD9144731 Si02
#       8
#     2   4   4   4   2   4   4   4
#     4  12  20  32  55  88 116 144 189 216 286 336
#     4   9  17  29  45  71 114 160 190 216 263 341
#     4  11  22  35  56  89 120 141 171 224 289 341
#     4  12  21  36  59  79 114 150 183 227 269 339
#     4  12  20  34  54  88 114 146 174 240 294 328
#     4  12  27  42  59  81 113 158 197 234 274 336
#     4  12  22  38  58  84 119 145 190 239 287 343
#     4  10  19  30  50  80 113 149 187 228 282 337
#
# _framework density 18.141577000000002
#
# number of rings (size 3 to 8) (size 9 to 14) (size 15 to 20)
#    0.000    0.857    5.000    3.857    0.000    2.857 
#    0.000    0.000    0.000    2.571    0.000    0.000 
#    0.000   40.000    0.000    0.000    0.000    0.000 
#
# Total GULP energy -156034.404774 kJ/mol
# GULP energy per Si atom -5572.657313 kJ/mol
# Density = 1.810029 g / cm^3
# Si number density = 18.141577 Si / 1000 Ang^3
#
#
#
# Elastic Constant Matrix: (Units=GPa)
#
#
# Indices 1 2 3 4 5 6 
#
# 1 51.7566 14.6504 -12.8002 0.0000 8.0144 0.0000
# 2 14.6504 91.0683 8.4693 0.0000 -1.7964 0.0000
# 3 -12.8002 8.4693 87.5986 0.0000 13.5422 0.0000
# 4 0.0000 0.0000 0.0000 24.2082 0.0000 -5.2234
# 5 8.0144 -1.7964 13.5422 0.0000 24.8734 0.0000
# 6 0.0000 0.0000 0.0000 -5.2234 0.0000 4.3137
#
#
#
# Elastic Compliance Matrix: (Units=1/GPa)
#
#
# Indices 1 2 3 4 5 6 
#
# 1 0.023703 -0.004552 0.005607 0.000000 -0.011019 0.000000
# 2 -0.004552 0.012007 -0.002388 0.000000 0.003634 0.000000
# 3 0.005607 -0.002388 0.013946 0.000000 -0.009572 0.000000
# 4 0.000000 0.000000 0.000000 0.055918 0.000000 0.067710
# 5 -0.011019 0.003634 -0.009572 0.000000 0.049227 0.000000
# 6 0.000000 0.000000 0.000000 0.067710 0.000000 0.313806
#
#
# Mechanical properties :
#
#
# Convention : Reuss Voigt Hill
#
# Bulk Modulus (GPa) = 21.28129 27.89583 24.58856
# Shear Modulus (GPa) = 10.26831 25.35267 17.81049
#
# Velocity S-wave (km/s) = 2.38168 3.74236 3.13669
# Velocity P-wave (km/s) = 4.39538 5.83813 5.16735
#
# Compressibility (1/GPa) = 0.04698962
#
# Stress axis : x y z
#
# Youngs Moduli (GPa) = 42.18947 83.28620 71.70727
#
# Poissons Ratio (x) = 0.37911 -0.40206
# Poissons Ratio (y) = 0.19204 0.17122
# Poissons Ratio (z) = -0.23656 0.19887
#
# Static dielectric constant tensor:
#      x y z
#    x 1.680540 0.000000 0.003400 
#    y 0.000000 1.630360 0.000000 
#    z 0.003400 0.000000 1.651060 
# 
# From -- ./inp_files/94032.got.cif
#   From: 2010.05.17/outbox.cif.g08.bks.cpg/sg10_48_cif.got.tgz:94032.got - 2010.06.03 11:33:40.
