data_PCOD9144997
_publ_section_title
;
Structure prediction by ZEFSAII (Michael W. Deem and Ramdas Pophale) SiO2 
 PCOD9144997
Probable space group: P 2/M
;
_chemical_formula_sum "Si O2"
_cell_formula_units_Z 24
_cell_length_a 11.537977
_cell_length_b 8.665286
_cell_length_c 26.981262
_cell_angle_alpha 90.000000
_cell_angle_beta 30.743762
_cell_angle_gamma 90.000000
_cell_volume 1379.003167
_symmetry_space_group_name_H-M "P 2/M"
_symmetry_group_IT_number 10
_symmetry_cell_setting 'monoclinic'
loop_
_space_group_symop_operation_xyz
x,y,z
-x,y,-z
-x,-y,-z
x,-y,z
loop_
_atom_site_type_symbol
_atom_site_label
_atom_site_fract_x
_atom_site_fract_y
_atom_site_fract_z
Si Si1 0.950342 0.183088 0.594598
Si Si2 0.661299 0.317249 0.610620
Si Si3 0.209226 0.177382 0.743807
Si Si4 0.180416 0.674343 0.253740
Si Si5 0.682070 0.328833 0.391412
Si Si6 0.718283 0.186239 0.887600
O O1 0.781854 0.232692 0.612303
O O2 0.839607 0.236043 0.687128
O O3 0.190242 0.264393 0.492073
O O4 0.985280 0.000000 0.581688
O O5 0.685950 0.500000 0.606952
O O6 0.397281 0.269915 0.705407
O O7 0.309473 0.195458 0.651724
O O8 0.951536 0.237156 0.829864
O O9 0.201330 0.000000 0.762955
O O10 0.265588 0.500000 0.230711
O O11 0.298718 0.750829 0.162290
O O12 0.922521 0.665329 0.329624
O O13 0.500000 0.303513 0.500000
O O14 0.642280 0.500000 0.382565
O O15 0.732348 0.000000 0.879567
O O16 0.500000 0.229676 0.000000
#
# Coordination Sequence:
#
# PCOD9144997 Si02
#       6
#     4   4   4   4   4   4
#     4  11  21  34  52  75 104 138 176 210 244 292
#     4  11  21  34  51  73 105 141 174 207 248 295
#     4  10  19  31  49  73  99 129 168 209 250 299
#     4  10  19  31  49  75 104 133 167 207 254 304
#     4   9  17  28  43  65  96 131 162 196 242 296
#     4   9  19  36  56  77 102 133 169 212 262 310
#
# _framework density 17.403877000000001
#
# number of rings (size 3 to 8) (size 9 to 14) (size 15 to 20)
#    0.000    2.000    0.000    6.000    0.000    3.333 
#    0.000    0.000    0.000    1.000    0.000    7.000 
#    0.000    0.000    0.000    0.000    0.000    0.000 
#
# Total GULP energy -133735.829851 kJ/mol
# GULP energy per Si atom -5572.326244 kJ/mol
# Density = 1.736426 g / cm^3
# Si number density = 17.403877 Si / 1000 Ang^3
#
#
#
# Elastic Constant Matrix: (Units=GPa)
#
#
# Indices 1 2 3 4 5 6 
#
# 1 53.3703 10.6241 32.0856 0.0000 1.1698 0.0000
# 2 10.6241 66.5135 22.9602 0.0000 3.2928 0.0000
# 3 32.0856 22.9602 109.9308 0.0000 6.9859 0.0000
# 4 0.0000 0.0000 0.0000 73.1718 0.0000 78.1219
# 5 1.1698 3.2928 6.9859 0.0000 25.5027 0.0000
# 6 0.0000 0.0000 0.0000 78.1219 0.0000 129.5671
#
#
#
# Elastic Compliance Matrix: (Units=1/GPa)
#
#
# Indices 1 2 3 4 5 6 
#
# 1 0.022874 -0.001481 -0.006424 0.000000 0.000902 0.000000
# 2 -0.001481 0.016334 -0.002900 0.000000 -0.001247 0.000000
# 3 -0.006424 -0.002900 0.011739 0.000000 -0.002547 0.000000
# 4 0.000000 0.000000 0.000000 0.038360 0.000000 -0.023129
# 5 0.000902 -0.001247 -0.002547 0.000000 0.040029 0.000000
# 6 0.000000 0.000000 0.000000 -0.023129 0.000000 0.021664
#
#
# Mechanical properties :
#
#
# Convention : Reuss Voigt Hill
#
# Bulk Modulus (GPa) = 34.08655 40.12827 37.10741
# Shear Modulus (GPa) = 27.41385 56.59130 42.00257
#
# Velocity S-wave (km/s) = 3.97313 5.70851 4.91797
# Velocity P-wave (km/s) = 6.37776 8.15822 7.32231
#
# Compressibility (1/GPa) = 0.02933709
#
# Stress axis : x y z
#
# Youngs Moduli (GPa) = 43.71727 61.22247 85.18416
#
# Poissons Ratio (x) = 0.09065 0.54726
# Poissons Ratio (y) = 0.06473 0.24704
# Poissons Ratio (z) = 0.28086 0.17755
#
# Static dielectric constant tensor:
#      x y z
#    x 1.626980 0.000000 0.000310 
#    y 0.000000 1.638520 0.000000 
#    z 0.000310 0.000000 1.607220 
# 
# From -- ./inp_files/52867.got.cif
#   From: 2010.05.17/outbox.cif.g08.bks.cpg/sg10_27_cif.got.tgz:52867.got - 2010.06.03 11:33:40.
