data_PCOD9144598
_publ_section_title
;
Structure prediction by ZEFSAII (Michael W. Deem and Ramdas Pophale) SiO2 
 PCOD9144598
Probable space group: P 2/M
;
_chemical_formula_sum "Si O2"
_cell_formula_units_Z 20
_cell_length_a 8.114807
_cell_length_b 14.718462
_cell_length_c 9.905690
_cell_angle_alpha 90.000000
_cell_angle_beta 136.238726
_cell_angle_gamma 90.000000
_cell_volume 818.304601
_symmetry_space_group_name_H-M "P 2/M"
_symmetry_group_IT_number 10
_symmetry_cell_setting 'monoclinic'
loop_
_space_group_symop_operation_xyz
x,y,z
-x,y,-z
-x,-y,-z
x,-y,z
loop_
_atom_site_type_symbol
_atom_site_label
_atom_site_fract_x
_atom_site_fract_y
_atom_site_fract_z
Si Si1 0.738208 0.903380 0.233103
Si Si2 0.730706 0.295009 0.235537
Si Si3 0.339027 0.700556 0.207945
Si Si4 0.415319 0.900642 0.296207
Si Si5 0.972366 0.393302 0.783205
O O1 0.849119 0.804350 0.280961
O O2 0.639252 0.903878 0.326790
O O3 0.862935 0.000000 0.278417
O O4 0.500000 0.903510 0.000000
O O5 0.606404 0.306144 0.307266
O O6 0.916733 0.368698 0.295644
O O7 0.500000 0.296478 0.000000
O O8 0.282557 0.808412 0.175906
O O9 0.260636 0.659807 0.304520
O O10 0.175666 0.644479 0.006236
O O11 0.500000 0.891171 0.500000
O O12 0.295216 0.000000 0.210302
O O13 0.938272 0.500000 0.778119
#
# Coordination Sequence:
#
# PCOD9144598 Si02
#       5
#     4   4   4   4   4
#     4   8  13  24  44  69  96 124 157 199 244 291
#     4   8  15  26  42  67  95 123 156 196 247 298
#     4   9  17  30  47  70  98 129 166 207 251 300
#     4   9  17  30  50  75 104 138 169 200 247 308
#     4  10  19  30  47  72 100 129 168 218 262 298
#
# _framework density 24.440776
#
# number of rings (size 3 to 8) (size 9 to 14) (size 15 to 20)
#    0.000    3.200    0.000    2.400    0.000    4.400 
#    0.000    3.000    0.000    7.200    0.000   18.200 
#    0.000    0.000    0.000    0.000    0.000    0.000 
#
# Total GULP energy -111551.334797 kJ/mol
# GULP energy per Si atom -5577.566740 kJ/mol
# Density = 2.438515 g / cm^3
# Si number density = 24.440776 Si / 1000 Ang^3
#
#
#
# Elastic Constant Matrix: (Units=GPa)
#
#
# Indices 1 2 3 4 5 6 
#
# 1 131.2426 62.1701 16.8479 0.0000 -17.0798 0.0000
# 2 62.1701 208.2275 -12.7777 0.0000 19.1091 0.0000
# 3 16.8479 -12.7777 74.3840 0.0000 4.0448 0.0000
# 4 0.0000 0.0000 0.0000 -29.3274 0.0000 -9.0519
# 5 -17.0798 19.1091 4.0448 0.0000 33.8621 0.0000
# 6 0.0000 0.0000 0.0000 -9.0519 0.0000 38.8066
#
#
#
# Elastic Compliance Matrix: (Units=1/GPa)
#
#
# Indices 1 2 3 4 5 6 
#
# 1 0.011318 -0.004406 -0.003791 0.000000 0.008648 0.000000
# 2 -0.004406 0.006860 0.002524 0.000000 -0.006395 0.000000
# 3 -0.003791 0.002524 0.015015 0.000000 -0.005130 0.000000
# 4 0.000000 0.000000 0.000000 -0.031808 0.000000 -0.007419
# 5 0.008648 -0.006395 -0.005130 0.000000 0.038115 0.000000
# 6 0.000000 0.000000 0.000000 -0.007419 0.000000 0.024038
#
#
# Mechanical properties :
#
#
# Convention : Reuss Voigt Hill
#
# Bulk Modulus (GPa) = 45.77042 60.70386 53.23714
# Shear Modulus (GPa) = 60.85289 31.84251 46.34770
#
# Velocity S-wave (km/s) = 4.99521 3.61341 4.35941
# Velocity P-wave (km/s) = 7.21369 6.50385 6.86794
#
# Compressibility (1/GPa) = 0.02184817
#
# Stress axis : x y z
#
# Youngs Moduli (GPa) = 88.35128 145.78296 66.60077
#
# Poissons Ratio (x) = 0.64226 0.25246
# Poissons Ratio (y) = 0.38924 -0.16809
# Poissons Ratio (z) = 0.33491 -0.36794
#
# Static dielectric constant tensor:
#      x y z
#    x 1.987490 0.000000 0.013120 
#    y 0.000000 1.912850 0.000000 
#    z 0.013120 0.000000 2.104340 
# 
# From -- ./inp_files/42542.got.cif
#   From: 2010.05.17/outbox.cif.g08.bks.cpg/sg10_22_cif.got.tgz:42542.got - 2010.06.03 11:33:40.
