data_PCOD9144386
_publ_section_title
;
Structure prediction by ZEFSAII (Michael W. Deem and Ramdas Pophale) SiO2 
 PCOD9144386
Probable space group: P 2/M
;
_chemical_formula_sum "Si O2"
_cell_formula_units_Z 32
_cell_length_a 12.378017
_cell_length_b 7.352725
_cell_length_c 15.477047
_cell_angle_alpha 90.000000
_cell_angle_beta 91.656231
_cell_angle_gamma 90.000000
_cell_volume 1408.010932
_symmetry_space_group_name_H-M "P 2/M"
_symmetry_group_IT_number 10
_symmetry_cell_setting 'monoclinic'
loop_
_space_group_symop_operation_xyz
x,y,z
-x,y,-z
-x,-y,-z
x,-y,z
loop_
_atom_site_type_symbol
_atom_site_label
_atom_site_fract_x
_atom_site_fract_y
_atom_site_fract_z
Si Si1 0.587210 0.287775 0.571171
Si Si2 0.476895 0.780452 0.234436
Si Si3 0.167438 0.721496 0.444752
Si Si4 0.076000 0.779552 0.082007
Si Si5 0.110366 0.211309 0.812162
Si Si6 0.335181 0.777533 0.886475
Si Si7 0.678513 0.221990 0.922322
Si Si8 0.939561 0.281487 0.377311
O O1 0.500000 0.211691 0.500000
O O2 0.598992 0.500000 0.548113
O O3 0.542665 0.277365 0.667833
O O4 0.710742 0.213903 0.571186
O O5 0.586528 0.720858 0.189129
O O6 0.385154 0.720224 0.164338
O O7 0.476636 0.000000 0.236581
O O8 0.169059 0.500000 0.440121
O O9 0.126735 0.774493 0.539483
O O10 0.065027 0.780977 0.383823
O O11 0.197818 0.715216 0.079522
O O12 0.006130 0.716481 0.162060
O O13 0.085971 0.000000 0.081853
O O14 0.000000 0.730168 0.000000
O O15 0.214193 0.287115 0.863081
O O16 0.119590 0.223829 0.710473
O O17 0.108983 0.000000 0.837807
O O18 0.336258 0.000000 0.885900
O O19 0.366773 0.723763 0.984554
O O20 0.675169 0.000000 0.921792
O O21 0.942150 0.500000 0.379335
#
# Coordination Sequence:
#
# PCOD9144386 Si02
#       8
#     4   4   4   4   4   4   4   4
#     4  10  22  39  57  75 100 136 173 208 252 311
#     4  10  21  34  53  80 104 131 172 218 258 293
#     4   8  17  36  56  73  95 129 171 206 246 303
#     4   9  15  26  44  70 102 133 165 200 240 289
#     4  10  19  29  48  77 106 132 163 206 252 296
#     4   9  17  31  49  74 108 140 171 208 251 299
#     4   9  16  29  50  74 102 138 174 206 245 302
#     4   9  18  34  56  75  96 129 167 207 248 301
#
# _framework density 22.727097000000001
#
# number of rings (size 3 to 8) (size 9 to 14) (size 15 to 20)
#    0.000    2.750    1.250    1.125    3.500    1.750 
#    0.000    1.875    0.000    2.625    0.000    0.000 
#    0.000    0.000    0.000    0.000    0.000    0.000 
#
# Total GULP energy -178582.028940 kJ/mol
# GULP energy per Si atom -5580.688404 kJ/mol
# Density = 2.267537 g / cm^3
# Si number density = 22.727097 Si / 1000 Ang^3
#
#
#
# Elastic Constant Matrix: (Units=GPa)
#
#
# Indices 1 2 3 4 5 6 
#
# 1 139.3189 4.2253 61.6651 0.0000 -10.4958 0.0000
# 2 4.2253 80.0641 -12.9107 0.0000 0.2263 0.0000
# 3 61.6651 -12.9107 133.3673 0.0000 6.6710 0.0000
# 4 0.0000 0.0000 0.0000 18.9443 0.0000 -5.6111
# 5 -10.4958 0.2263 6.6710 0.0000 30.0803 0.0000
# 6 0.0000 0.0000 0.0000 -5.6111 0.0000 -8.1944
#
#
#
# Elastic Compliance Matrix: (Units=1/GPa)
#
#
# Indices 1 2 3 4 5 6 
#
# 1 0.009692 -0.001303 -0.004830 0.000000 0.004463 0.000000
# 2 -0.001303 0.012867 0.001897 0.000000 -0.000972 0.000000
# 3 -0.004830 0.001897 0.010112 0.000000 -0.003942 0.000000
# 4 0.000000 0.000000 0.000000 0.043886 0.000000 -0.030051
# 5 0.004463 -0.000972 -0.003942 0.000000 0.035683 0.000000
# 6 0.000000 0.000000 0.000000 -0.030051 0.000000 -0.101457
#
#
# Mechanical properties :
#
#
# Convention : Reuss Voigt Hill
#
# Bulk Modulus (GPa) = 41.32604 50.96774 46.14689
# Shear Modulus (GPa) = 182.99961 28.15074 105.57518
#
# Velocity S-wave (km/s) = 8.98305 3.52325 6.82307
# Velocity P-wave (km/s) = 11.21681 6.24706 9.07861
#
# Compressibility (1/GPa) = 0.02419782
#
# Stress axis : x y z
#
# Youngs Moduli (GPa) = 103.18285 77.71606 98.88898
#
# Poissons Ratio (x) = 0.10126 0.47768
# Poissons Ratio (y) = 0.13445 -0.18757
# Poissons Ratio (z) = 0.49842 -0.14741
#
# Static dielectric constant tensor:
#      x y z
#    x 1.845890 0.000000 -0.009840 
#    y 0.000000 1.900720 0.000000 
#    z -0.009840 0.000000 1.810510 
# 
# From -- ./inp_files/46673.got.cif
#   From: 2010.05.17/outbox.cif.g08.bks.cpg/sg10_24_cif.got.tgz:46673.got - 2010.06.03 11:33:40.
