data_PCOD9144112
_publ_section_title
;
Structure prediction by ZEFSAII (Michael W. Deem and Ramdas Pophale) SiO2 
 PCOD9144112
Probable space group: P 2/M
;
_chemical_formula_sum "Si O2"
_cell_formula_units_Z 26
_cell_length_a 13.218941
_cell_length_b 12.361939
_cell_length_c 9.476593
_cell_angle_alpha 90.000000
_cell_angle_beta 121.449954
_cell_angle_gamma 90.000000
_cell_volume 1321.093359
_symmetry_space_group_name_H-M "P 2/M"
_symmetry_group_IT_number 10
_symmetry_cell_setting 'monoclinic'
loop_
_space_group_symop_operation_xyz
x,y,z
-x,y,-z
-x,-y,-z
x,-y,z
loop_
_atom_site_type_symbol
_atom_site_label
_atom_site_fract_x
_atom_site_fract_y
_atom_site_fract_z
Si Si1 0.201283 0.122826 0.997378
Si Si2 0.750387 0.500000 0.432491
Si Si3 0.639560 0.500000 0.052576
Si Si4 0.189520 0.744362 0.265333
Si Si5 0.415583 0.268693 0.074420
Si Si6 0.415748 0.681865 0.554753
Si Si7 0.969326 0.124776 0.638216
Si Si8 0.891004 0.500000 0.805095
O O1 0.092365 0.123825 0.811297
O O2 0.229992 0.000000 0.056113
O O3 0.162043 0.186698 0.107855
O O4 0.313526 0.181018 0.009930
O O5 0.733694 0.500000 0.250622
O O6 0.671825 0.601509 0.426849
O O7 0.872924 0.500000 0.614662
O O8 0.500000 0.500000 0.000000
O O9 0.646440 0.387661 0.973970
O O10 0.326987 0.758653 0.405532
O O11 0.114102 0.790265 0.341527
O O12 0.167836 0.617746 0.212855
O O13 0.500661 0.263457 0.270637
O O14 0.500000 0.258788 0.000000
O O15 0.500000 0.626828 0.500000
O O16 0.000000 0.154163 0.500000
O O17 0.921792 0.000000 0.606018
O O18 0.000000 0.500000 0.000000
#
# Coordination Sequence:
#
# PCOD9144112 Si02
#       8
#     4   2   2   4   4   4   4   2
#     4  11  24  42  63  88 118 163 211 253 306 362
#     4  10  19  33  58  89 124 166 206 240 296 375
#     4  10  18  35  60  90 124 165 204 242 303 370
#     4  11  23  41  66  89 126 161 200 254 308 365
#     4  11  22  38  62  89 131 161 200 250 309 367
#     4  11  20  36  58  95 123 160 200 246 302 364
#     4  10  23  43  67  90 114 157 214 258 300 360
#     4  10  22  36  60  95 126 158 201 250 312 362
#
# _framework density 19.680667
#
# number of rings (size 3 to 8) (size 9 to 14) (size 15 to 20)
#    0.000    1.385    4.615    2.077    2.154    2.154 
#    0.000    3.462    0.000    0.000    0.000    0.000 
#    0.000    0.000    0.000    0.000    0.000    0.000 
#
# Total GULP energy -144882.962115 kJ/mol
# GULP energy per Si atom -5572.421620 kJ/mol
# Density = 1.963587 g / cm^3
# Si number density = 19.680667 Si / 1000 Ang^3
#
#
#
# Elastic Constant Matrix: (Units=GPa)
#
#
# Indices 1 2 3 4 5 6 
#
# 1 74.1518 42.1295 35.6821 0.0000 -11.1475 0.0000
# 2 42.1295 119.0466 29.7505 0.0000 -10.2438 0.0000
# 3 35.6821 29.7505 137.2915 0.0000 6.9615 0.0000
# 4 0.0000 0.0000 0.0000 19.7512 0.0000 -1.0905
# 5 -11.1475 -10.2438 6.9615 0.0000 32.4127 0.0000
# 6 0.0000 0.0000 0.0000 -1.0905 0.0000 23.7017
#
#
#
# Elastic Compliance Matrix: (Units=1/GPa)
#
#
# Indices 1 2 3 4 5 6 
#
# 1 0.019408 -0.005313 -0.004192 0.000000 0.005896 0.000000
# 2 -0.005313 0.010689 -0.001025 0.000000 0.001771 0.000000
# 3 -0.004192 -0.001025 0.008780 0.000000 -0.003651 0.000000
# 4 0.000000 0.000000 0.000000 0.050759 0.000000 0.002335
# 5 0.005896 0.001771 -0.003651 0.000000 0.034224 0.000000
# 6 0.000000 0.000000 0.000000 0.002335 0.000000 0.042298
#
#
# Mechanical properties :
#
#
# Convention : Reuss Voigt Hill
#
# Bulk Modulus (GPa) = 56.12602 60.62377 58.37489
# Shear Modulus (GPa) = 25.88550 30.03498 27.96024
#
# Velocity S-wave (km/s) = 3.63061 3.91079 3.77330
# Velocity P-wave (km/s) = 6.79377 7.15982 6.97919
#
# Compressibility (1/GPa) = 0.01781705
#
# Stress axis : x y z
#
# Youngs Moduli (GPa) = 51.52477 93.55387 113.88893
#
# Poissons Ratio (x) = 0.49710 0.47739
# Poissons Ratio (y) = 0.27378 0.11675
# Poissons Ratio (z) = 0.21598 0.09590
#
# Static dielectric constant tensor:
#      x y z
#    x 1.698130 0.000000 -0.001190 
#    y 0.000000 1.703360 0.000000 
#    z -0.001190 0.000000 1.748580 
# 
# From -- ./inp_files/28443.got.cif
#   From: 2010.05.17/outbox.cif.g08.bks.cpg/sg10_15_cif.got.tgz:28443.got - 2010.06.03 11:33:40.
