data_PCOD9144756
_publ_section_title
;
Structure prediction by ZEFSAII (Michael W. Deem and Ramdas Pophale) SiO2 
 PCOD9144756
Probable space group: P 2/M
;
_chemical_formula_sum "Si O2"
_cell_formula_units_Z 30
_cell_length_a 26.125553
_cell_length_b 14.194462
_cell_length_c 10.167652
_cell_angle_alpha 90.000000
_cell_angle_beta 152.318366
_cell_angle_gamma 90.000000
_cell_volume 1751.641569
_symmetry_space_group_name_H-M "P 2/M"
_symmetry_group_IT_number 10
_symmetry_cell_setting 'monoclinic'
loop_
_space_group_symop_operation_xyz
x,y,z
-x,y,-z
-x,-y,-z
x,-y,z
loop_
_atom_site_type_symbol
_atom_site_label
_atom_site_fract_x
_atom_site_fract_y
_atom_site_fract_z
Si Si1 0.623438 0.609010 0.120181
Si Si2 0.000000 0.826119 0.000000
Si Si3 0.628548 0.888178 0.307634
Si Si4 0.955938 0.105097 0.187560
Si Si5 0.748354 0.791748 0.815551
Si Si6 0.364807 0.609344 0.537378
Si Si7 0.789377 0.110057 0.175353
Si Si8 0.761420 0.782203 0.381036
O O1 0.645276 0.500000 0.137033
O O2 0.644026 0.620312 0.324247
O O3 0.700208 0.683499 0.222932
O O4 0.493920 0.627385 0.800832
O O5 0.110553 0.769762 0.288152
O O6 0.971384 0.885746 0.065250
O O7 0.669683 0.852496 0.541729
O O8 0.699689 0.835875 0.358818
O O9 0.643184 0.000000 0.328425
O O10 0.500000 0.864915 0.000000
O O11 0.076959 0.114736 0.524786
O O12 0.912778 0.000000 0.120965
O O13 0.870994 0.183002 0.043720
O O14 0.712276 0.684410 0.709912
O O15 0.741436 0.828926 0.947702
O O16 0.340926 0.500000 0.452035
O O17 0.756553 0.153594 0.240585
O O18 0.758880 0.000000 0.096395
#
# Coordination Sequence:
#
# PCOD9144756 Si02
#       8
#     4   2   4   4   4   4   4   4
#     4   9  17  34  59  83 106 136 181 236 286 328
#     4  10  19  30  53  84 112 142 181 234 285 328
#     4  11  22  34  53  80 108 142 188 234 274 324
#     4  10  19  32  53  80 110 145 189 230 273 327
#     4  12  20  34  57  79 109 148 188 230 274 330
#     4   9  18  33  57  85 106 133 182 239 285 327
#     4  10  23  37  52  78 116 155 188 224 273 335
#     4  11  20  36  55  80 114 146 184 228 287 327
#
# _framework density 17.126791999999998
#
# number of rings (size 3 to 8) (size 9 to 14) (size 15 to 20)
#    0.000    1.733    2.667    3.800    0.000    2.133 
#    0.000    3.667    0.000   11.200    0.000    0.000 
#    0.000    0.000    0.000    0.000    0.000    0.000 
#
# Total GULP energy -167468.032516 kJ/mol
# GULP energy per Si atom -5582.267751 kJ/mol
# Density = 1.708781 g / cm^3
# Si number density = 17.126792 Si / 1000 Ang^3
#
#
#
# Elastic Constant Matrix: (Units=GPa)
#
#
# Indices 1 2 3 4 5 6 
#
# 1 56.0559 41.0656 39.6500 0.0000 -2.4444 0.0000
# 2 41.0656 129.2572 58.6045 0.0000 10.2705 0.0000
# 3 39.6500 58.6045 76.2564 0.0000 -6.4042 0.0000
# 4 0.0000 0.0000 0.0000 27.6013 0.0000 2.2966
# 5 -2.4444 10.2705 -6.4042 0.0000 28.6091 0.0000
# 6 0.0000 0.0000 0.0000 2.2966 0.0000 24.8799
#
#
#
# Elastic Compliance Matrix: (Units=1/GPa)
#
#
# Indices 1 2 3 4 5 6 
#
# 1 0.029355 -0.003907 -0.012161 0.000000 0.001189 0.000000
# 2 -0.003907 0.013678 -0.009092 0.000000 -0.007280 0.000000
# 3 -0.012161 -0.009092 0.027121 0.000000 0.008296 0.000000
# 4 0.000000 0.000000 0.000000 0.036511 0.000000 -0.003370
# 5 0.001189 -0.007280 0.008296 0.000000 0.039526 0.000000
# 6 0.000000 0.000000 0.000000 -0.003370 0.000000 0.040504
#
#
# Mechanical properties :
#
#
# Convention : Reuss Voigt Hill
#
# Bulk Modulus (GPa) = 50.41709 60.02329 55.22019
# Shear Modulus (GPa) = 20.52318 24.36803 22.44560
#
# Velocity S-wave (km/s) = 3.46541 3.77610 3.62409
# Velocity P-wave (km/s) = 6.74638 7.35761 7.05861
#
# Compressibility (1/GPa) = 0.01983454
#
# Stress axis : x y z
#
# Youngs Moduli (GPa) = 34.06553 73.10749 36.87179
#
# Poissons Ratio (x) = 0.28563 0.44840
# Poissons Ratio (y) = 0.13309 0.33524
# Poissons Ratio (z) = 0.41427 0.66470
#
# Static dielectric constant tensor:
#      x y z
#    x 1.579110 0.000000 0.003640 
#    y 0.000000 1.572940 0.000000 
#    z 0.003640 0.000000 1.583710 
# 
# From -- ./inp_files/36321.got.cif
#   From: 2010.05.17/outbox.cif.g08.bks.cpg/sg10_19_cif.got.tgz:36321.got - 2010.06.03 11:33:40.
