data_PCOD9144905
_publ_section_title
;
Structure prediction by ZEFSAII (Michael W. Deem and Ramdas Pophale) SiO2 
 PCOD9144905
Probable space group: P 2/M
;
_chemical_formula_sum "Si O2"
_cell_formula_units_Z 28
_cell_length_a 7.434857
_cell_length_b 9.539417
_cell_length_c 20.754836
_cell_angle_alpha 90.000000
_cell_angle_beta 65.117016
_cell_angle_gamma 90.000000
_cell_volume 1335.371085
_symmetry_space_group_name_H-M "P 2/M"
_symmetry_group_IT_number 10
_symmetry_cell_setting 'monoclinic'
loop_
_space_group_symop_operation_xyz
x,y,z
-x,y,-z
-x,-y,-z
x,-y,z
loop_
_atom_site_type_symbol
_atom_site_label
_atom_site_fract_x
_atom_site_fract_y
_atom_site_fract_z
Si Si1 0.494279 0.154793 0.706546
Si Si2 0.191247 0.336857 0.581018
Si Si3 0.821782 0.666820 0.853498
Si Si4 0.737114 0.157799 0.983419
Si Si5 0.553124 0.166465 0.137389
Si Si6 0.060311 0.158215 0.712933
Si Si7 0.635340 0.338935 0.576572
O O1 0.433810 0.192538 0.788567
O O2 0.288719 0.146442 0.699062
O O3 0.628916 0.257084 0.644333
O O4 0.584732 0.000000 0.694835
O O5 0.126470 0.500000 0.591699
O O6 0.058612 0.236539 0.644840
O O7 0.412236 0.336823 0.579880
O O8 0.223539 0.288332 0.502642
O O9 0.840363 0.500000 0.849405
O O10 0.842478 0.730524 0.922045
O O11 0.607735 0.722668 0.862830
O O12 0.963007 0.744035 0.781506
O O13 0.809386 0.000000 0.958424
O O14 0.500000 0.158903 0.000000
O O15 0.736564 0.182191 0.060350
O O16 0.495401 0.000000 0.138357
O O17 0.976623 0.000000 0.725147
O O18 0.685876 0.500000 0.580987
#
# Coordination Sequence:
#
# PCOD9144905 Si02
#       7
#     4   4   4   4   4   4   4
#     4   9  18  31  49  73  98 124 157 195 234 278
#     4   8  14  26  43  65  93 125 159 192 228 273
#     4  11  21  32  49  72  96 124 158 195 235 280
#     4   8  15  30  51  70  90 120 157 195 233 274
#     4   9  18  34  53  72  95 123 156 195 236 279
#     4  10  19  31  48  71  98 127 158 194 236 278
#     4   8  14  25  43  66  94 126 156 189 231 276
#
# _framework density 20.967953999999999
#
# number of rings (size 3 to 8) (size 9 to 14) (size 15 to 20)
#    0.000    3.000    0.000    3.429    0.000    4.286 
#    0.000    3.571    0.000    5.143    0.000    6.000 
#    0.000    0.000    0.000    0.000    0.000    0.000 
#
# Total GULP energy -156076.525169 kJ/mol
# GULP energy per Si atom -5574.161613 kJ/mol
# Density = 2.092023 g / cm^3
# Si number density = 20.967954 Si / 1000 Ang^3
#
#
#
# Elastic Constant Matrix: (Units=GPa)
#
#
# Indices 1 2 3 4 5 6 
#
# 1 41.6385 14.5264 8.2176 0.0000 10.4417 0.0000
# 2 14.5264 150.5125 117.7751 0.0000 -3.9231 0.0000
# 3 8.2176 117.7751 221.1088 0.0000 21.4216 0.0000
# 4 0.0000 0.0000 0.0000 6.1447 0.0000 -40.8608
# 5 10.4417 -3.9231 21.4216 0.0000 31.4746 0.0000
# 6 0.0000 0.0000 0.0000 -40.8608 0.0000 -34.2434
#
#
#
# Elastic Compliance Matrix: (Units=1/GPa)
#
#
# Indices 1 2 3 4 5 6 
#
# 1 0.028344 -0.005393 0.002993 0.000000 -0.012112 0.000000
# 2 -0.005393 0.013560 -0.007879 0.000000 0.008842 0.000000
# 3 0.002993 -0.007879 0.009421 0.000000 -0.008387 0.000000
# 4 0.000000 0.000000 0.000000 0.018214 0.000000 -0.021734
# 5 -0.012112 0.008842 -0.008387 0.000000 0.042600 0.000000
# 6 0.000000 0.000000 0.000000 -0.021734 0.000000 -0.003268
#
#
# Mechanical properties :
#
#
# Convention : Reuss Voigt Hill
#
# Bulk Modulus (GPa) = 32.50285 77.14423 54.82354
# Shear Modulus (GPa) = 35.79441 18.85788 27.32614
#
# Velocity S-wave (km/s) = 4.13619 3.00220 3.61395
# Velocity P-wave (km/s) = 6.19238 6.99206 6.60434
#
# Compressibility (1/GPa) = 0.03076654
#
# Stress axis : x y z
#
# Youngs Moduli (GPa) = 35.28022 73.74411 106.14687
#
# Poissons Ratio (x) = 0.39771 -0.31767
# Poissons Ratio (y) = 0.19027 0.83636
# Poissons Ratio (z) = -0.10558 0.58105
#
# Static dielectric constant tensor:
#      x y z
#    x 1.849940 0.000000 -0.001320 
#    y 0.000000 1.743870 0.000000 
#    z -0.001320 0.000000 1.791560 
# 
# From -- ./inp_files/79313.got.cif
#   From: 2010.05.17/outbox.cif.g08.bks.cpg/sg10_40_cif.got.tgz:79313.got - 2010.06.03 11:33:40.
