data_PCOD9144931
_publ_section_title
;
Structure prediction by ZEFSAII (Michael W. Deem and Ramdas Pophale) SiO2 
 PCOD9144931
Probable space group: P 2/M
;
_chemical_formula_sum "Si O2"
_cell_formula_units_Z 32
_cell_length_a 15.391390
_cell_length_b 8.820935
_cell_length_c 15.476181
_cell_angle_alpha 90.000000
_cell_angle_beta 79.025427
_cell_angle_gamma 90.000000
_cell_volume 2062.719911
_symmetry_space_group_name_H-M "P 2/M"
_symmetry_group_IT_number 10
_symmetry_cell_setting 'monoclinic'
loop_
_space_group_symop_operation_xyz
x,y,z
-x,y,-z
-x,-y,-z
x,-y,z
loop_
_atom_site_type_symbol
_atom_site_label
_atom_site_fract_x
_atom_site_fract_y
_atom_site_fract_z
Si Si1 0.617722 0.817045 0.615510
Si Si2 0.432774 0.317094 0.887832
Si Si3 0.106472 0.318347 0.559523
Si Si4 0.746625 0.182195 0.748785
Si Si5 0.582800 0.181388 0.294172
Si Si6 0.628944 0.317749 0.914409
Si Si7 0.696158 0.318846 0.425474
Si Si8 0.075723 0.182298 0.375767
O O1 0.683002 0.770457 0.681075
O O2 0.517185 0.775505 0.658081
O O3 0.648750 0.744349 0.520291
O O4 0.622535 0.000000 0.606513
O O5 0.429940 0.500000 0.881428
O O6 0.402574 0.243605 0.804747
O O7 0.535025 0.273913 0.888289
O O8 0.377946 0.272553 0.983794
O O9 0.098957 0.500000 0.552173
O O10 0.199685 0.281819 0.586125
O O11 0.104287 0.244017 0.464650
O O12 0.020133 0.253487 0.623683
O O13 0.707647 0.249751 0.843653
O O14 0.846767 0.224619 0.705372
O O15 0.742193 0.000000 0.754203
O O16 0.650723 0.248211 0.350323
O O17 0.587686 0.000000 0.293329
O O18 0.633303 0.500000 0.911096
O O19 0.687164 0.500000 0.425161
O O20 0.069339 0.000000 0.381183
#
# Coordination Sequence:
#
# PCOD9144931 Si02
#       8
#     4   4   4   4   4   4   4   4
#     4  10  20  34  47  67 100 133 167 202 234 278
#     4   9  18  33  49  70  98 127 163 203 240 283
#     4  10  20  33  48  69  95 124 161 203 243 285
#     4  10  19  31  48  73 102 130 161 197 238 288
#     4  11  22  34  50  70  95 132 170 204 241 280
#     4   9  18  31  50  72  97 129 161 198 243 286
#     4  11  23  35  49  69  95 131 169 205 243 283
#     4  10  19  31  50  71  95 127 159 196 244 288
#
# _framework density 15.513496999999999
#
# number of rings (size 3 to 8) (size 9 to 14) (size 15 to 20)
#    0.000    2.000    2.500    3.375    0.000    6.000 
#    0.000    1.250    0.000    0.000    0.000    0.875 
#    0.000    7.000    0.000    0.000    0.000    0.000 
#
# Total GULP energy -178569.455089 kJ/mol
# GULP energy per Si atom -5580.295472 kJ/mol
# Density = 1.547819 g / cm^3
# Si number density = 15.513497 Si / 1000 Ang^3
#
#
#
# Elastic Constant Matrix: (Units=GPa)
#
#
# Indices 1 2 3 4 5 6 
#
# 1 98.9222 37.3955 77.9158 0.0000 -9.8580 0.0000
# 2 37.3955 32.3872 39.2051 0.0000 -3.6151 0.0000
# 3 77.9158 39.2051 136.3990 0.0000 -12.2620 0.0000
# 4 0.0000 0.0000 0.0000 30.1820 0.0000 -0.6998
# 5 -9.8580 -3.6151 -12.2620 0.0000 25.5294 0.0000
# 6 0.0000 0.0000 0.0000 -0.6998 0.0000 26.2514
#
#
#
# Elastic Compliance Matrix: (Units=1/GPa)
#
#
# Indices 1 2 3 4 5 6 
#
# 1 0.023020 -0.016339 -0.008217 0.000000 0.002628 0.000000
# 2 -0.016339 0.058950 -0.007762 0.000000 -0.001690 0.000000
# 3 -0.008217 -0.007762 0.014498 0.000000 0.002692 0.000000
# 4 0.000000 0.000000 0.000000 0.033153 0.000000 0.000884
# 5 0.002628 -0.001690 0.002692 0.000000 0.041239 0.000000
# 6 0.000000 0.000000 0.000000 0.000884 0.000000 0.038117
#
#
# Mechanical properties :
#
#
# Convention : Reuss Voigt Hill
#
# Bulk Modulus (GPa) = 31.41601 64.08236 47.74918
# Shear Modulus (GPa) = 17.59177 23.93871 20.76524
#
# Velocity S-wave (km/s) = 3.37109 3.93248 3.66256
# Velocity P-wave (km/s) = 5.95375 7.87505 6.98081
#
# Compressibility (1/GPa) = 0.03183091
#
# Stress axis : x y z
#
# Youngs Moduli (GPa) = 43.44114 16.96353 68.97352
#
# Poissons Ratio (x) = 0.27717 0.56675
# Poissons Ratio (y) = 0.70980 0.53540
# Poissons Ratio (z) = 0.35695 0.13168
#
# Static dielectric constant tensor:
#      x y z
#    x 1.514730 0.000000 -0.012690 
#    y 0.000000 1.520680 0.000000 
#    z -0.012690 0.000000 1.495500 
# 
# From -- ./inp_files/66088.got.cif
#   From: 2010.05.17/outbox.cif.g08.bks.cpg/sg10_34_cif.got.tgz:66088.got - 2010.06.03 11:33:40.
