data_PCOD9144193
_publ_section_title
;
Structure prediction by ZEFSAII (Michael W. Deem and Ramdas Pophale) SiO2 
 PCOD9144193
Probable space group: P 2/M
;
_chemical_formula_sum "Si O2"
_cell_formula_units_Z 16
_cell_length_a 9.602842
_cell_length_b 10.428257
_cell_length_c 10.388598
_cell_angle_alpha 90.000000
_cell_angle_beta 128.994904
_cell_angle_gamma 90.000000
_cell_volume 808.541510
_symmetry_space_group_name_H-M "P 2/M"
_symmetry_group_IT_number 10
_symmetry_cell_setting 'monoclinic'
loop_
_space_group_symop_operation_xyz
x,y,z
-x,y,-z
-x,-y,-z
x,-y,z
loop_
_atom_site_type_symbol
_atom_site_label
_atom_site_fract_x
_atom_site_fract_y
_atom_site_fract_z
Si Si1 0.870279 0.500000 0.798054
Si Si2 0.293509 0.755668 0.890678
Si Si3 0.958251 0.000000 0.322297
Si Si4 0.788389 0.253622 0.865373
Si Si5 0.875027 0.500000 0.302256
Si Si6 0.302794 0.000000 0.330427
O O1 0.759079 0.370717 0.750619
O O2 0.991147 0.500000 0.742630
O O3 0.000000 0.500000 0.000000
O O4 0.241939 0.630121 0.777014
O O5 0.158932 0.873183 0.780855
O O6 0.500000 0.795895 0.000000
O O7 0.272843 0.714618 0.027253
O O8 0.000000 0.000000 0.500000
O O9 0.140660 0.000000 0.341768
O O10 0.710420 0.124447 0.765687
O O11 0.000000 0.230286 0.000000
O O12 0.000000 0.500000 0.500000
O O13 0.500000 0.000000 0.500000
#
# Coordination Sequence:
#
# PCOD9144193 Si02
#       6
#     2   4   2   4   2   2
#     4  10  18  40  72  92 120 174 218 262 323 393
#     4  12  25  42  69  97 130 177 226 266 324 409
#     4  12  26  44  62  94 139 172 207 281 346 381
#     4  11  20  43  71  89 124 172 228 266 321 391
#     4  12  23  42  68 100 138 170 217 282 341 381
#     4  12  26  41  66  98 129 169 224 278 328 387
#
# _framework density 19.788719
#
# number of rings (size 3 to 8) (size 9 to 14) (size 15 to 20)
#    0.000    0.500    7.500    2.625    3.500    0.000 
#    0.000    0.625    0.000    0.000    0.000    0.000 
#    0.000    0.000    0.000    0.000    0.000    0.000 
#
# Total GULP energy -89371.962792 kJ/mol
# GULP energy per Si atom -5585.747675 kJ/mol
# Density = 1.974368 g / cm^3
# Si number density = 19.788719 Si / 1000 Ang^3
#
#
#
# Elastic Constant Matrix: (Units=GPa)
#
#
# Indices 1 2 3 4 5 6 
#
# 1 70.2139 -13.8159 37.7394 0.0000 12.0142 0.0000
# 2 -13.8159 154.0056 44.1870 0.0000 23.1776 0.0000
# 3 37.7394 44.1870 94.0951 0.0000 4.9825 0.0000
# 4 0.0000 0.0000 0.0000 11.6261 0.0000 -1.5110
# 5 12.0142 23.1776 4.9825 0.0000 35.4693 0.0000
# 6 0.0000 0.0000 0.0000 -1.5110 0.0000 25.7735
#
#
#
# Elastic Compliance Matrix: (Units=1/GPa)
#
#
# Indices 1 2 3 4 5 6 
#
# 1 0.024619 0.007628 -0.012846 0.000000 -0.011519 0.000000
# 2 0.007628 0.010633 -0.007605 0.000000 -0.008464 0.000000
# 3 -0.012846 -0.007605 0.018999 0.000000 0.006652 0.000000
# 4 0.000000 0.000000 0.000000 0.086673 0.000000 0.005081
# 5 -0.011519 -0.008464 0.006652 0.000000 0.036691 0.000000
# 6 0.000000 0.000000 0.000000 0.005081 0.000000 0.039097
#
#
# Mechanical properties :
#
#
# Convention : Reuss Voigt Hill
#
# Bulk Modulus (GPa) = 34.95875 50.50398 42.73136
# Shear Modulus (GPa) = 19.84964 31.25407 25.55185
#
# Velocity S-wave (km/s) = 3.17058 3.97846 3.59727
# Velocity P-wave (km/s) = 5.57743 6.83237 6.23655
#
# Compressibility (1/GPa) = 0.02860514
#
# Stress axis : x y z
#
# Youngs Moduli (GPa) = 40.61939 94.04448 52.63509
#
# Poissons Ratio (x) = -0.71736 0.67616
# Poissons Ratio (y) = -0.30984 0.40027
# Poissons Ratio (z) = 0.52180 0.71517
#
# Static dielectric constant tensor:
#      x y z
#    x 1.575360 0.000000 0.091010 
#    y 0.000000 1.556230 0.000000 
#    z 0.091010 0.000000 1.603900 
# 
# From -- ./inp_files/18132.got.cif
#   From: 2010.05.17/outbox.cif.g08.bks.cpg/sg10_10_cif.got.tgz:18132.got - 2010.06.03 11:33:40.
