data_PCOD9144372
_publ_section_title
;
Structure prediction by ZEFSAII (Michael W. Deem and Ramdas Pophale) SiO2 
 PCOD9144372
Probable space group: P 2/M
;
_chemical_formula_sum "Si O2"
_cell_formula_units_Z 28
_cell_length_a 12.885548
_cell_length_b 7.472545
_cell_length_c 16.086707
_cell_angle_alpha 90.000000
_cell_angle_beta 132.783654
_cell_angle_gamma 90.000000
_cell_volume 1136.814176
_symmetry_space_group_name_H-M "P 2/M"
_symmetry_group_IT_number 10
_symmetry_cell_setting 'monoclinic'
loop_
_space_group_symop_operation_xyz
x,y,z
-x,y,-z
-x,-y,-z
x,-y,z
loop_
_atom_site_type_symbol
_atom_site_label
_atom_site_fract_x
_atom_site_fract_y
_atom_site_fract_z
Si Si1 0.612138 0.218114 0.630167
Si Si2 0.842389 0.703524 0.415863
Si Si3 0.373564 0.799163 0.043859
Si Si4 0.537220 0.211885 0.283466
Si Si5 0.185041 0.783452 0.786034
Si Si6 0.078378 0.217189 0.258780
Si Si7 0.108449 0.297989 0.995432
O O1 0.500000 0.270443 0.500000
O O2 0.557785 0.280319 0.691212
O O3 0.763516 0.274347 0.676148
O O4 0.615028 0.000000 0.636301
O O5 0.861026 0.500000 0.453491
O O6 0.705535 0.772462 0.391555
O O7 0.791059 0.714818 0.292648
O O8 0.000000 0.788906 0.500000
O O9 0.491643 0.712611 0.167746
O O10 0.420164 0.000000 0.046409
O O11 0.297700 0.722611 0.919101
O O12 0.246279 0.804247 0.042050
O O13 0.510262 0.000000 0.262574
O O14 0.019842 0.738611 0.715851
O O15 0.195332 0.000000 0.792226
O O16 0.984349 0.303727 0.136788
O O17 0.075223 0.000000 0.250509
O O18 0.144746 0.500000 0.043382
O O19 0.000000 0.210598 0.000000
#
# Coordination Sequence:
#
# PCOD9144372 Si02
#       7
#     4   4   4   4   4   4   4
#     4   9  18  32  55  88 119 148 189 240 290 341
#     4  11  26  44  60  81 115 156 198 242 288 345
#     4   9  19  36  58  87 117 147 188 239 296 351
#     4  10  21  38  63  90 117 152 192 240 294 346
#     4   9  19  36  61  90 117 150 194 241 288 343
#     4   9  18  33  55  83 114 148 186 235 288 339
#     4  10  19  29  46  76 113 155 195 230 272 332
#
# _framework density 24.630236
#
# number of rings (size 3 to 8) (size 9 to 14) (size 15 to 20)
#    0.000    2.429    0.000    2.571    2.000    6.857 
#    0.000    3.571    0.000    0.857    0.000    0.000 
#    0.000    0.000    0.000    0.000    0.000    0.000 
#
# Total GULP energy -156080.537947 kJ/mol
# GULP energy per Si atom -5574.304927 kJ/mol
# Density = 2.457418 g / cm^3
# Si number density = 24.630236 Si / 1000 Ang^3
#
#
#
# Elastic Constant Matrix: (Units=GPa)
#
#
# Indices 1 2 3 4 5 6 
#
# 1 115.1977 9.3346 38.2840 0.0000 20.6835 0.0000
# 2 9.3346 63.0764 2.6576 0.0000 5.6156 0.0000
# 3 38.2840 2.6576 110.9427 0.0000 28.2953 0.0000
# 4 0.0000 0.0000 0.0000 9.0711 0.0000 -33.6399
# 5 20.6835 5.6156 28.2953 0.0000 46.2849 0.0000
# 6 0.0000 0.0000 0.0000 -33.6399 0.0000 -12.0152
#
#
#
# Elastic Compliance Matrix: (Units=1/GPa)
#
#
# Indices 1 2 3 4 5 6 
#
# 1 0.010189 -0.001149 -0.002799 0.000000 -0.002703 0.000000
# 2 -0.001149 0.016158 0.000448 0.000000 -0.001721 0.000000
# 3 -0.002799 0.000448 0.011449 0.000000 -0.005802 0.000000
# 4 0.000000 0.000000 0.000000 0.009685 0.000000 -0.027115
# 5 -0.002703 -0.001721 -0.005802 0.000000 0.026569 0.000000
# 6 0.000000 0.000000 0.000000 -0.027115 0.000000 -0.007312
#
#
# Mechanical properties :
#
#
# Convention : Reuss Voigt Hill
#
# Bulk Modulus (GPa) = 32.47174 43.30768 37.88971
# Shear Modulus (GPa) = 59.52076 24.59753 42.05915
#
# Velocity S-wave (km/s) = 4.92120 3.16361 4.13682
# Velocity P-wave (km/s) = 6.74561 5.56470 6.18341
#
# Compressibility (1/GPa) = 0.03079601
#
# Stress axis : x y z
#
# Youngs Moduli (GPa) = 98.14100 61.88804 87.34555
#
# Poissons Ratio (x) = 0.07113 0.24451
# Poissons Ratio (y) = 0.11280 -0.03917
# Poissons Ratio (z) = 0.27473 -0.02776
#
# Static dielectric constant tensor:
#      x y z
#    x 2.336350 0.000000 -0.030340 
#    y 0.000000 1.928020 0.000000 
#    z -0.030340 0.000000 1.991780 
# 
# From -- ./inp_files/77784.got.cif
#   From: 2010.05.17/outbox.cif.g08.bks.cpg/sg10_39_cif.got.tgz:77784.got - 2010.06.03 11:33:40.
