data_PCOD9144092
_publ_section_title
;
Structure prediction by ZEFSAII (Michael W. Deem and Ramdas Pophale) SiO2 
 PCOD9144092
Probable space group: P 2/M
;
_chemical_formula_sum "Si O2"
_cell_formula_units_Z 20
_cell_length_a 11.485114
_cell_length_b 16.037781
_cell_length_c 6.024588
_cell_angle_alpha 90.000000
_cell_angle_beta 91.548490
_cell_angle_gamma 90.000000
_cell_volume 1109.298214
_symmetry_space_group_name_H-M "P 2/M"
_symmetry_group_IT_number 10
_symmetry_cell_setting 'monoclinic'
loop_
_space_group_symop_operation_xyz
x,y,z
-x,y,-z
-x,-y,-z
x,-y,z
loop_
_atom_site_type_symbol
_atom_site_label
_atom_site_fract_x
_atom_site_fract_y
_atom_site_fract_z
Si Si1 0.197779 0.302563 0.320724
Si Si2 0.372132 0.253803 0.950127
Si Si3 0.938499 0.000000 0.249070
Si Si4 0.164527 0.818739 0.701829
Si Si5 0.622974 0.402606 0.376973
Si Si6 0.000000 0.294561 0.000000
O O1 0.149929 0.224363 0.461289
O O2 0.266305 0.368165 0.478170
O O3 0.296553 0.265570 0.165633
O O4 0.090657 0.339418 0.170986
O O5 0.297412 0.198083 0.778900
O O6 0.383124 0.344754 0.838788
O O7 0.500000 0.220393 0.000000
O O8 0.867990 0.913866 0.262466
O O9 0.000000 0.000000 0.500000
O O10 0.000000 0.000000 0.000000
O O11 0.083887 0.763383 0.858231
O O12 0.500000 0.391405 0.500000
O O13 0.636366 0.500000 0.328651
#
# Coordination Sequence:
#
# PCOD9144092 Si02
#       6
#     4   4   2   4   4   2
#     4  10  20  35  57  82 117 155 196 245 297 365
#     4  10  20  36  58  84 116 158 201 236 301 364
#     4  12  24  40  65  95 131 157 206 263 316 361
#     4  10  22  36  60  88 119 154 196 249 301 364
#     4  10  20  34  55  86 117 148 198 255 303 353
#     4  10  18  35  57  84 110 152 200 236 295 367
#
# _framework density 18.029416999999999
#
# number of rings (size 3 to 8) (size 9 to 14) (size 15 to 20)
#    0.000    1.800    3.000    1.800    2.800    1.200 
#    0.000    1.000    0.000   16.800    0.000    0.000 
#    0.000    0.000    0.000    0.000    0.000    0.000 
#
# Total GULP energy -111411.921486 kJ/mol
# GULP energy per Si atom -5570.596074 kJ/mol
# Density = 1.798838 g / cm^3
# Si number density = 18.029417 Si / 1000 Ang^3
#
#
#
# Elastic Constant Matrix: (Units=GPa)
#
#
# Indices 1 2 3 4 5 6 
#
# 1 115.1388 24.0253 35.5354 0.0000 22.7323 0.0000
# 2 24.0253 94.4376 28.1576 0.0000 -4.4062 0.0000
# 3 35.5354 28.1576 89.3517 0.0000 -4.9170 0.0000
# 4 0.0000 0.0000 0.0000 4.8560 0.0000 -7.2744
# 5 22.7323 -4.4062 -4.9170 0.0000 43.8090 0.0000
# 6 0.0000 0.0000 0.0000 -7.2744 0.0000 15.8638
#
#
#
# Elastic Compliance Matrix: (Units=1/GPa)
#
#
# Indices 1 2 3 4 5 6 
#
# 1 0.011826 -0.002001 -0.004449 0.000000 -0.006837 0.000000
# 2 -0.002001 0.012051 -0.002896 0.000000 0.001925 0.000000
# 3 -0.004449 -0.002896 0.014072 0.000000 0.003597 0.000000
# 4 0.000000 0.000000 0.000000 0.657780 0.000000 0.301627
# 5 -0.006837 0.001925 0.003597 0.000000 0.026971 0.000000
# 6 0.000000 0.000000 0.000000 0.301627 0.000000 0.201349
#
#
# Mechanical properties :
#
#
# Convention : Reuss Voigt Hill
#
# Bulk Modulus (GPa) = 51.92920 52.70720 52.31820
# Shear Modulus (GPa) = 5.26782 26.98639 16.12711
#
# Velocity S-wave (km/s) = 1.71118 3.87304 2.99404
# Velocity P-wave (km/s) = 5.72444 7.02126 6.40575
#
# Compressibility (1/GPa) = 0.01925699
#
# Stress axis : x y z
#
# Youngs Moduli (GPa) = 84.56280 82.97806 71.06552
#
# Poissons Ratio (x) = 0.16604 0.31615
# Poissons Ratio (y) = 0.16921 0.20581
# Poissons Ratio (z) = 0.37619 0.24030
#
# Static dielectric constant tensor:
#      x y z
#    x 1.653270 0.000000 0.031960 
#    y 0.000000 1.568710 0.000000 
#    z 0.031960 0.000000 1.709060 
# 
# From -- ./inp_files/6591.got.cif
#   From: 2010.05.17/outbox.cif.g08.bks.cpg/sg10_4_cif.got.tgz:6591.got - 2010.06.03 11:33:40.
