data_PCOD9144635
_publ_section_title
;
Structure prediction by ZEFSAII (Michael W. Deem and Ramdas Pophale) SiO2 
 PCOD9144635
Probable space group: P 2/M
;
_chemical_formula_sum "Si O2"
_cell_formula_units_Z 32
_cell_length_a 22.587476
_cell_length_b 7.866058
_cell_length_c 12.244537
_cell_angle_alpha 90.000000
_cell_angle_beta 129.071264
_cell_angle_gamma 90.000000
_cell_volume 1689.008487
_symmetry_space_group_name_H-M "P 2/M"
_symmetry_group_IT_number 10
_symmetry_cell_setting 'monoclinic'
loop_
_space_group_symop_operation_xyz
x,y,z
-x,y,-z
-x,-y,-z
x,-y,z
loop_
_atom_site_type_symbol
_atom_site_label
_atom_site_fract_x
_atom_site_fract_y
_atom_site_fract_z
Si Si1 0.769287 0.200962 0.148015
Si Si2 0.165730 0.194993 0.442824
Si Si3 0.539714 0.707683 0.660295
Si Si4 0.588773 0.707218 0.329021
Si Si5 0.736990 0.700876 0.637701
Si Si6 0.918704 0.208800 0.451457
Si Si7 0.714568 0.705520 0.852438
Si Si8 0.312849 0.299459 0.747175
O O1 0.848588 0.264788 0.292780
O O2 0.698809 0.272005 0.138138
O O3 0.767799 0.000000 0.161541
O O4 0.761483 0.240219 0.012293
O O5 0.191338 0.274292 0.358542
O O6 0.101016 0.266837 0.448046
O O7 0.241819 0.206692 0.606584
O O8 0.147503 0.000000 0.399429
O O9 0.500000 0.757850 0.500000
O O10 0.540348 0.500000 0.661502
O O11 0.488276 0.765952 0.702462
O O12 0.626996 0.763618 0.764319
O O13 0.586082 0.500000 0.329014
O O14 0.660660 0.764967 0.487373
O O15 0.611565 0.753705 0.231317
O O16 0.724259 0.500000 0.632479
O O17 0.743649 0.767764 0.768228
O O18 0.000000 0.263304 0.500000
O O19 0.918247 0.000000 0.452742
O O20 0.714563 0.500000 0.851828
O O21 0.302272 0.500000 0.713138
#
# Coordination Sequence:
#
# PCOD9144635 Si02
#       8
#     4   4   4   4   4   4   4   4
#     4  10  20  33  49  69  95 123 152 189 235 286
#     4   9  16  26  45  73  98 119 147 188 234 275
#     4   9  14  24  44  69  93 116 156 207 238 259
#     4   8  13  23  42  68  90 112 151 203 240 259
#     4   9  16  27  44  67  94 125 159 193 228 268
#     4   8  15  30  52  74  92 114 149 191 230 270
#     4  10  19  30  48  70  94 127 161 196 235 273
#     4   9  16  28  47  67  91 121 155 194 233 277
#
# _framework density 18.946026
#
# number of rings (size 3 to 8) (size 9 to 14) (size 15 to 20)
#    0.000    3.000    1.250    2.625    0.000    0.500 
#    0.000    0.625    0.000   22.125    0.000    5.250 
#    0.000    0.000    0.000    0.000    0.000    0.000 
#
# Total GULP energy -178186.841725 kJ/mol
# GULP energy per Si atom -5568.338804 kJ/mol
# Density = 1.890290 g / cm^3
# Si number density = 18.946026 Si / 1000 Ang^3
#
#
#
# Elastic Constant Matrix: (Units=GPa)
#
#
# Indices 1 2 3 4 5 6 
#
# 1 162.0691 2.9324 46.4303 0.0000 -17.7108 0.0000
# 2 2.9324 20.6542 2.4265 0.0000 0.3084 0.0000
# 3 46.4303 2.4265 60.1554 0.0000 -16.3107 0.0000
# 4 0.0000 0.0000 0.0000 12.5032 0.0000 -3.0176
# 5 -17.7108 0.3084 -16.3107 0.0000 24.5250 0.0000
# 6 0.0000 0.0000 0.0000 -3.0176 0.0000 15.9003
#
#
#
# Elastic Compliance Matrix: (Units=1/GPa)
#
#
# Indices 1 2 3 4 5 6 
#
# 1 0.008010 -0.000510 -0.005602 0.000000 0.002065 0.000000
# 2 -0.000510 0.048789 -0.002246 0.000000 -0.002475 0.000000
# 3 -0.005602 -0.002246 0.024337 0.000000 0.012169 0.000000
# 4 0.000000 0.000000 0.000000 0.083818 0.000000 0.015907
# 5 0.002065 -0.002475 0.012169 0.000000 0.050390 0.000000
# 6 0.000000 0.000000 0.000000 0.015907 0.000000 0.065911
#
#
# Mechanical properties :
#
#
# Convention : Reuss Voigt Hill
#
# Bulk Modulus (GPa) = 15.52264 38.49523 27.00893
# Shear Modulus (GPa) = 15.65215 23.32501 19.48858
#
# Velocity S-wave (km/s) = 2.87739 3.51255 3.21072
# Velocity P-wave (km/s) = 4.38749 6.06739 5.29449
#
# Compressibility (1/GPa) = 0.06442204
#
# Stress axis : x y z
#
# Youngs Moduli (GPa) = 124.84441 20.49625 41.08904
#
# Poissons Ratio (x) = 0.01045 0.23018
# Poissons Ratio (y) = 0.06366 0.09227
# Poissons Ratio (z) = 0.69936 0.04603
#
# Static dielectric constant tensor:
#      x y z
#    x 1.705370 0.000000 -0.028160 
#    y 0.000000 1.700730 0.000000 
#    z -0.028160 0.000000 1.639050 
# 
# From -- ./inp_files/55382.got.cif
#   From: 2010.05.17/outbox.cif.g08.bks.cpg/sg10_28_cif.got.tgz:55382.got - 2010.06.03 11:33:40.
