data_PCOD9144852
_publ_section_title
;
Structure prediction by ZEFSAII (Michael W. Deem and Ramdas Pophale) SiO2 
 PCOD9144852
Probable space group: P 2/M
;
_chemical_formula_sum "Si O2"
_cell_formula_units_Z 26
_cell_length_a 12.026505
_cell_length_b 25.715738
_cell_length_c 14.230029
_cell_angle_alpha 90.000000
_cell_angle_beta 20.345494
_cell_angle_gamma 90.000000
_cell_volume 1530.115549
_symmetry_space_group_name_H-M "P 2/M"
_symmetry_group_IT_number 10
_symmetry_cell_setting 'monoclinic'
loop_
_space_group_symop_operation_xyz
x,y,z
-x,y,-z
-x,-y,-z
x,-y,z
loop_
_atom_site_type_symbol
_atom_site_label
_atom_site_fract_x
_atom_site_fract_y
_atom_site_fract_z
Si Si1 0.474865 0.616399 0.407064
Si Si2 0.116255 0.774199 0.800248
Si Si3 0.116639 0.111766 0.800025
Si Si4 0.167150 0.331161 0.041567
Si Si5 0.884928 0.000000 0.199162
Si Si6 0.382312 0.500000 0.482878
Si Si7 0.637939 0.500000 0.000765
Si Si8 0.375772 0.390200 0.203689
O O1 0.500000 0.622535 0.500000
O O2 0.728553 0.648005 0.144310
O O3 0.513603 0.556106 0.348825
O O4 0.110068 0.636143 0.685068
O O5 0.500000 0.768054 0.500000
O O6 0.028726 0.831570 0.829847
O O7 0.000000 0.771877 0.000000
O O8 0.958591 0.727008 0.869368
O O9 0.500000 0.111546 0.500000
O O10 0.012917 0.055967 0.839546
O O11 0.000000 0.111848 0.000000
O O12 0.484554 0.342576 0.848494
O O13 0.500000 0.000000 0.500000
O O14 0.000000 0.000000 0.000000
O O15 0.500000 0.500000 0.500000
O O16 0.011857 0.500000 0.737907
O O17 0.500000 0.500000 0.000000
O O18 0.496512 0.445583 0.148911
O O19 0.000000 0.391310 0.500000
O O20 0.500000 0.386288 0.000000
#
# Coordination Sequence:
#
# PCOD9144852 Si02
#       8
#     4   4   4   4   2   2   2   4
#     4  11  23  37  54  76 102 130 158 192 245 309
#     4  10  19  31  47  71  97 128 164 196 231 286
#     4   8  14  23  37  58  88 121 160 195 224 266
#     4  12  22  36  56  71 100 127 164 197 252 291
#     4   8  12  20  34  54  82 122 158 192 228 258
#     4  10  22  40  57  83 110 130 160 209 261 311
#     4  10  21  40  62  79 100 130 166 207 257 311
#     4  11  24  40  57  78  95 121 161 209 251 306
#
# _framework density 16.992179
#
# number of rings (size 3 to 8) (size 9 to 14) (size 15 to 20)
#    0.000    1.846    1.538    3.923    2.154    1.231 
#    0.000    2.308    0.000    0.000    0.000    0.000 
#    0.000    0.000    0.000    1.385    0.000    0.462 
#
# Total GULP energy -144749.083528 kJ/mol
# GULP energy per Si atom -5567.272443 kJ/mol
# Density = 1.695350 g / cm^3
# Si number density = 16.992179 Si / 1000 Ang^3
#
#
#
# Elastic Constant Matrix: (Units=GPa)
#
#
# Indices 1 2 3 4 5 6 
#
# 1 65.4533 20.9799 21.4926 0.0000 -0.4550 0.0000
# 2 20.9799 180.0764 21.2256 0.0000 -7.1581 0.0000
# 3 21.4926 21.2256 94.0399 0.0000 11.0987 0.0000
# 4 0.0000 0.0000 0.0000 13.8505 0.0000 -23.7584
# 5 -0.4550 -7.1581 11.0987 0.0000 30.1431 0.0000
# 6 0.0000 0.0000 0.0000 -23.7584 0.0000 -51.0582
#
#
#
# Elastic Compliance Matrix: (Units=1/GPa)
#
#
# Indices 1 2 3 4 5 6 
#
# 1 0.016978 -0.001493 -0.003692 0.000000 0.001261 0.000000
# 2 -0.001493 0.005944 -0.001217 0.000000 0.001837 0.000000
# 3 -0.003692 -0.001217 0.012329 0.000000 -0.004884 0.000000
# 4 0.000000 0.000000 0.000000 0.040151 0.000000 -0.018683
# 5 0.001261 0.001837 -0.004884 0.000000 0.035429 0.000000
# 6 0.000000 0.000000 0.000000 -0.018683 0.000000 -0.010892
#
#
# Mechanical properties :
#
#
# Convention : Reuss Voigt Hill
#
# Bulk Modulus (GPa) = 44.55129 51.88509 48.21819
# Shear Modulus (GPa) = 41.58887 16.97849 29.28368
#
# Velocity S-wave (km/s) = 4.95262 3.16443 4.15584
# Velocity P-wave (km/s) = 7.67986 6.62967 7.17400
#
# Compressibility (1/GPa) = 0.02244604
#
# Stress axis : x y z
#
# Youngs Moduli (GPa) = 58.90088 168.24831 81.11086
#
# Poissons Ratio (x) = 0.25114 0.29947
# Poissons Ratio (y) = 0.08792 0.09873
# Poissons Ratio (z) = 0.21747 0.20479
#
# Static dielectric constant tensor:
#      x y z
#    x 1.615990 0.000000 -0.000460 
#    y 0.000000 1.649520 0.000000 
#    z -0.000460 0.000000 1.616100 
# 
# From -- ./inp_files/65530.got.cif
#   From: 2010.05.17/outbox.cif.g08.bks.cpg/sg10_33_cif.got.tgz:65530.got - 2010.06.03 11:33:40.
