data_PCOD9144725
_publ_section_title
;
Structure prediction by ZEFSAII (Michael W. Deem and Ramdas Pophale) SiO2 
 PCOD9144725
Probable space group: P 2/M
;
_chemical_formula_sum "Si O2"
_cell_formula_units_Z 28
_cell_length_a 14.992843
_cell_length_b 14.118705
_cell_length_c 9.134226
_cell_angle_alpha 90.000000
_cell_angle_beta 135.455301
_cell_angle_gamma 90.000000
_cell_volume 1356.303616
_symmetry_space_group_name_H-M "P 2/M"
_symmetry_group_IT_number 10
_symmetry_cell_setting 'monoclinic'
loop_
_space_group_symop_operation_xyz
x,y,z
-x,y,-z
-x,-y,-z
x,-y,z
loop_
_atom_site_type_symbol
_atom_site_label
_atom_site_fract_x
_atom_site_fract_y
_atom_site_fract_z
Si Si1 0.182130 0.106310 0.698432
Si Si2 0.395677 0.190045 0.752945
Si Si3 0.872580 0.609812 0.264416
Si Si4 0.814936 0.775331 0.005430
Si Si5 0.683767 0.109771 0.617224
Si Si6 0.050327 0.107080 0.249453
Si Si7 0.644164 0.395358 0.232020
O O1 0.300408 0.122100 0.728986
O O2 0.197569 0.176813 0.849505
O O3 0.071729 0.118821 0.449030
O O4 0.178727 0.000000 0.751648
O O5 0.419981 0.142389 0.624460
O O6 0.500000 0.202494 0.000000
O O7 0.344514 0.297276 0.664985
O O8 0.897154 0.500000 0.259030
O O9 0.836987 0.667244 0.076515
O O10 0.000000 0.645620 0.500000
O O11 0.750906 0.614379 0.230384
O O12 0.944402 0.817118 0.088696
O O13 0.704144 0.815806 0.772228
O O14 0.816940 0.114291 0.680612
O O15 0.665852 0.000000 0.641884
O O16 0.001888 0.000000 0.168557
O O17 0.665354 0.500000 0.326497
O O18 0.500000 0.398475 0.000000
#
# Coordination Sequence:
#
# PCOD9144725 Si02
#       7
#     4   4   4   4   4   4   4
#     4  10  19  30  50  79 104 136 191 235 272 338
#     4  10  20  37  58  79 104 147 195 243 292 345
#     4  10  21  36  58  91 124 152 191 246 303 350
#     4  12  20  32  53  78 113 152 182 231 300 347
#     4  10  22  36  52  80 115 152 195 239 291 351
#     4   9  18  32  50  74 106 148 193 230 270 335
#     4   9  18  36  63  88 109 144 200 251 286 337
#
# _framework density 20.644347
#
# number of rings (size 3 to 8) (size 9 to 14) (size 15 to 20)
#    0.000    2.000    1.429    4.286    2.000    3.429 
#    0.000    1.429    0.000    3.429    0.000    5.000 
#    0.000    0.000    0.000    0.000    0.000    0.000 
#
# Total GULP energy -155994.467698 kJ/mol
# GULP energy per Si atom -5571.230989 kJ/mol
# Density = 2.059736 g / cm^3
# Si number density = 20.644347 Si / 1000 Ang^3
#
#
#
# Elastic Constant Matrix: (Units=GPa)
#
#
# Indices 1 2 3 4 5 6 
#
# 1 46.7307 -0.7245 16.9684 0.0000 3.0513 0.0000
# 2 -0.7245 91.1619 46.0652 0.0000 -12.1322 0.0000
# 3 16.9684 46.0652 94.8878 0.0000 -18.3264 0.0000
# 4 0.0000 0.0000 0.0000 24.5433 0.0000 -3.8137
# 5 3.0513 -12.1322 -18.3264 0.0000 27.3538 0.0000
# 6 0.0000 0.0000 0.0000 -3.8137 0.0000 31.7472
#
#
#
# Elastic Compliance Matrix: (Units=1/GPa)
#
#
# Indices 1 2 3 4 5 6 
#
# 1 0.024358 0.002887 -0.006932 0.000000 -0.006081 0.000000
# 2 0.002887 0.014971 -0.007540 0.000000 0.001267 0.000000
# 3 -0.006932 -0.007540 0.017163 0.000000 0.008928 0.000000
# 4 0.000000 0.000000 0.000000 0.041519 0.000000 0.004988
# 5 -0.006081 0.001267 0.008928 0.000000 0.043780 0.000000
# 6 0.000000 0.000000 0.000000 0.004988 0.000000 0.032098
#
#
# Mechanical properties :
#
#
# Convention : Reuss Voigt Hill
#
# Bulk Modulus (GPa) = 30.00918 39.71095 34.86006
# Shear Modulus (GPa) = 24.01937 28.09361 26.05649
#
# Velocity S-wave (km/s) = 3.41469 3.69296 3.55654
# Velocity P-wave (km/s) = 5.48768 6.12057 5.81275
#
# Compressibility (1/GPa) = 0.03332314
#
# Stress axis : x y z
#
# Youngs Moduli (GPa) = 41.05410 66.79656 58.26507
#
# Poissons Ratio (x) = -0.19285 0.40389
# Poissons Ratio (y) = -0.11853 0.43929
# Poissons Ratio (z) = 0.28458 0.50362
#
# Static dielectric constant tensor:
#      x y z
#    x 1.776710 0.000000 0.048110 
#    y 0.000000 1.775280 0.000000 
#    z 0.048110 0.000000 1.915220 
# 
# From -- ./inp_files/32828.got.cif
#   From: 2010.05.17/outbox.cif.g08.bks.cpg/sg10_17_cif.got.tgz:32828.got - 2010.06.03 11:33:40.
