data_PCOD9144648
_publ_section_title
;
Structure prediction by ZEFSAII (Michael W. Deem and Ramdas Pophale) SiO2 
 PCOD9144648
Probable space group: P 2/M
;
_chemical_formula_sum "Si O2"
_cell_formula_units_Z 32
_cell_length_a 26.090193
_cell_length_b 9.588398
_cell_length_c 17.052577
_cell_angle_alpha 90.000000
_cell_angle_beta 153.975129
_cell_angle_gamma 90.000000
_cell_volume 1871.723243
_symmetry_space_group_name_H-M "P 2/M"
_symmetry_group_IT_number 10
_symmetry_cell_setting 'monoclinic'
loop_
_space_group_symop_operation_xyz
x,y,z
-x,y,-z
-x,-y,-z
x,-y,z
loop_
_atom_site_type_symbol
_atom_site_label
_atom_site_fract_x
_atom_site_fract_y
_atom_site_fract_z
Si Si1 0.451190 0.341389 0.021615
Si Si2 0.457223 0.835213 0.567720
Si Si3 0.996897 0.840750 0.406018
Si Si4 0.171687 0.666044 0.437892
Si Si5 0.741673 0.843300 0.298978
Si Si6 0.638238 0.336003 0.417358
Si Si7 0.914671 0.666812 0.147315
Si Si8 0.313046 0.165637 0.209017
O O1 0.407295 0.500000 0.971009
O O2 0.348060 0.230414 0.882603
O O3 0.500000 0.330794 0.000000
O O4 0.549417 0.318046 0.222010
O O5 0.407171 0.751120 0.571919
O O6 0.588765 0.797026 0.721163
O O7 0.375831 0.815322 0.379278
O O8 0.458003 0.000000 0.586494
O O9 0.934665 0.737711 0.259814
O O10 0.000000 0.793618 0.500000
O O11 0.130884 0.848717 0.563484
O O12 0.948287 0.000000 0.335463
O O13 0.190077 0.500000 0.475718
O O14 0.240136 0.750472 0.598763
O O15 0.233348 0.701083 0.440219
O O16 0.033971 0.693598 0.261275
O O17 0.703044 0.000000 0.265501
O O18 0.638945 0.500000 0.438565
O O19 0.900541 0.500000 0.133662
O O20 0.801942 0.741638 0.956354
O O21 0.286440 0.000000 0.164144
#
# Coordination Sequence:
#
# PCOD9144648 Si02
#       8
#     4   4   4   4   4   4   4   4
#     4  10  19  33  50  68  99 143 177 204 254 316
#     4   9  20  38  59  81 104 137 173 214 267 319
#     4   9  19  35  51  70 103 143 176 211 262 313
#     4   9  18  35  52  71 106 145 173 205 259 318
#     4  10  19  30  48  73  98 131 178 223 255 293
#     4  10  20  34  54  78 106 141 178 217 264 314
#     4  10  20  33  56  83 104 135 180 222 258 306
#     4   9  19  39  61  78 105 140 173 210 267 329
#
# _framework density 17.096544000000002
#
# number of rings (size 3 to 8) (size 9 to 14) (size 15 to 20)
#    0.000    2.500    1.250    1.500    0.000    4.500 
#    0.000    5.625    0.000    3.750    0.000    0.000 
#    0.000    0.000    0.000    0.000    0.000    0.000 
#
# Total GULP energy -178337.754769 kJ/mol
# GULP energy per Si atom -5573.054837 kJ/mol
# Density = 1.705763 g / cm^3
# Si number density = 17.096544 Si / 1000 Ang^3
#
#
#
# Elastic Constant Matrix: (Units=GPa)
#
#
# Indices 1 2 3 4 5 6 
#
# 1 120.7015 55.8390 37.3843 0.0000 -4.0626 0.0000
# 2 55.8390 71.4497 58.5059 0.0000 9.6975 0.0000
# 3 37.3843 58.5059 78.4061 0.0000 15.4752 0.0000
# 4 0.0000 0.0000 0.0000 35.0227 0.0000 1.7409
# 5 -4.0626 9.6975 15.4752 0.0000 15.3368 0.0000
# 6 0.0000 0.0000 0.0000 1.7409 0.0000 27.0876
#
#
#
# Elastic Compliance Matrix: (Units=1/GPa)
#
#
# Indices 1 2 3 4 5 6 
#
# 1 0.014874 -0.014174 0.001171 0.000000 0.011720 0.000000
# 2 -0.014174 0.049851 -0.029317 0.000000 -0.005695 0.000000
# 3 0.001171 -0.029317 0.037899 0.000000 -0.019394 0.000000
# 4 0.000000 0.000000 0.000000 0.028644 0.000000 -0.001841
# 5 0.011720 -0.005695 -0.019394 0.000000 0.091477 0.000000
# 6 0.000000 0.000000 0.000000 -0.001841 0.000000 0.037036
#
#
# Mechanical properties :
#
#
# Convention : Reuss Voigt Hill
#
# Bulk Modulus (GPa) = 55.59835 63.77952 59.68893
# Shear Modulus (GPa) = 14.26881 23.41130 18.84006
#
# Velocity S-wave (km/s) = 2.89208 3.70450 3.32321
# Velocity P-wave (km/s) = 6.61385 7.46219 7.05079
#
# Compressibility (1/GPa) = 0.01798615
#
# Stress axis : x y z
#
# Youngs Moduli (GPa) = 67.23265 20.05962 26.38579
#
# Poissons Ratio (x) = 0.28432 -0.03091
# Poissons Ratio (y) = 0.95295 0.77354
# Poissons Ratio (z) = -0.07875 0.58808
#
# Static dielectric constant tensor:
#      x y z
#    x 1.584560 0.000000 0.024210 
#    y 0.000000 1.583590 0.000000 
#    z 0.024210 0.000000 1.573570 
# 
# From -- ./inp_files/71659.got.cif
#   From: 2010.05.17/outbox.cif.g08.bks.cpg/sg10_36_cif.got.tgz:71659.got - 2010.06.03 11:33:40.
