data_PCOD9144578
_publ_section_title
;
Structure prediction by ZEFSAII (Michael W. Deem and Ramdas Pophale) SiO2 
 PCOD9144578
Probable space group: P 2/M
;
_chemical_formula_sum "Si O2"
_cell_formula_units_Z 32
_cell_length_a 11.554136
_cell_length_b 9.195446
_cell_length_c 14.667673
_cell_angle_alpha 90.000000
_cell_angle_beta 72.031651
_cell_angle_gamma 90.000000
_cell_volume 1482.366858
_symmetry_space_group_name_H-M "P 2/M"
_symmetry_group_IT_number 10
_symmetry_cell_setting 'monoclinic'
loop_
_space_group_symop_operation_xyz
x,y,z
-x,y,-z
-x,-y,-z
x,-y,z
loop_
_atom_site_type_symbol
_atom_site_label
_atom_site_fract_x
_atom_site_fract_y
_atom_site_fract_z
Si Si1 0.636883 0.167755 0.857240
Si Si2 0.866369 0.337524 0.023829
Si Si3 0.114885 0.169838 0.705343
Si Si4 0.871927 0.665156 0.481370
Si Si5 0.127825 0.339493 0.193409
Si Si6 0.618055 0.825478 0.371741
Si Si7 0.630841 0.832576 0.081185
Si Si8 0.387121 0.328171 0.427574
O O1 0.755636 0.253991 0.797183
O O2 0.503468 0.227378 0.863596
O O3 0.644709 0.000000 0.825804
O O4 0.637224 0.165299 0.968503
O O5 0.873337 0.500000 0.063496
O O6 0.848028 0.352461 0.920164
O O7 0.749018 0.252118 0.086086
O O8 0.000000 0.266823 0.000000
O O9 0.121715 0.213322 0.597504
O O10 0.251754 0.202817 0.706397
O O11 0.000978 0.259673 0.768627
O O12 0.092087 0.000000 0.724418
O O13 0.855325 0.500000 0.446253
O O14 0.751815 0.689051 0.571987
O O15 0.000000 0.666745 0.500000
O O16 0.118710 0.500000 0.236962
O O17 0.622118 0.738393 0.467224
O O18 0.495998 0.762729 0.355826
O O19 0.608425 0.000000 0.388472
O O20 0.636271 0.000000 0.110841
O O21 0.416556 0.500000 0.421425
#
# Coordination Sequence:
#
# PCOD9144578 Si02
#       8
#     4   4   4   4   4   4   4   4
#     4   8  14  26  43  64  91 117 146 187 229 268
#     4   9  18  31  46  67  95 123 152 189 231 273
#     4  10  20  32  47  68  94 123 153 188 229 271
#     4   9  18  32  49  70  96 123 152 187 225 269
#     4  10  19  30  47  69  92 121 154 188 228 273
#     4   9  16  26  41  62  88 116 147 185 225 262
#     4   8  14  25  43  66  89 116 149 186 227 269
#     4   9  15  24  42  66  89 114 145 183 224 262
#
# _framework density 21.587098000000001
#
# number of rings (size 3 to 8) (size 9 to 14) (size 15 to 20)
#    0.000    3.000    0.000    3.000    0.000    3.500 
#    0.000    2.500    0.000    1.500    0.000    5.250 
#    0.000    0.000    0.000    0.000    0.000    0.000 
#
# Total GULP energy -178295.374749 kJ/mol
# GULP energy per Si atom -5571.730461 kJ/mol
# Density = 2.153796 g / cm^3
# Si number density = 21.587098 Si / 1000 Ang^3
#
#
#
# Elastic Constant Matrix: (Units=GPa)
#
#
# Indices 1 2 3 4 5 6 
#
# 1 150.1516 66.2476 41.7777 0.0000 -66.1582 0.0000
# 2 66.2476 96.3779 37.1538 0.0000 -43.1734 0.0000
# 3 41.7777 37.1538 54.9823 0.0000 -23.9653 0.0000
# 4 0.0000 0.0000 0.0000 -10.8578 0.0000 -11.0689
# 5 -66.1582 -43.1734 -23.9653 0.0000 51.2107 0.0000
# 6 0.0000 0.0000 0.0000 -11.0689 0.0000 28.9847
#
#
#
# Elastic Compliance Matrix: (Units=1/GPa)
#
#
# Indices 1 2 3 4 5 6 
#
# 1 0.016321 -0.001920 -0.003290 0.000000 0.017927 0.000000
# 2 -0.001920 0.018947 -0.006863 0.000000 0.010281 0.000000
# 3 -0.003290 -0.006863 0.026319 0.000000 0.002280 0.000000
# 4 0.000000 0.000000 0.000000 -0.066291 0.000000 -0.025316
# 5 0.017927 0.010281 0.002280 0.000000 0.052421 0.000000
# 6 0.000000 0.000000 0.000000 -0.025316 0.000000 0.024833
#
#
# Mechanical properties :
#
#
# Convention : Reuss Voigt Hill
#
# Bulk Modulus (GPa) = 26.70893 65.76334 46.23613
# Shear Modulus (GPa) = 45.79746 24.28969 35.04357
#
# Velocity S-wave (km/s) = 4.61099 3.35803 4.03346
# Velocity P-wave (km/s) = 6.38340 6.75022 6.56937
#
# Compressibility (1/GPa) = 0.03744067
#
# Stress axis : x y z
#
# Youngs Moduli (GPa) = 61.27021 52.77957 37.99499
#
# Poissons Ratio (x) = 0.10133 0.12502
# Poissons Ratio (y) = 0.11763 0.26076
# Poissons Ratio (z) = 0.20160 0.36223
#
# Static dielectric constant tensor:
#      x y z
#    x 1.860350 0.000000 0.008300 
#    y 0.000000 1.766050 0.000000 
#    z 0.008300 0.000000 1.845130 
# 
# From -- ./inp_files/83360.got.cif
#   From: 2010.05.17/outbox.cif.g08.bks.cpg/sg10_42_cif.got.tgz:83360.got - 2010.06.03 11:33:40.
