data_PCOD9144778
_publ_section_title
;
Structure prediction by ZEFSAII (Michael W. Deem and Ramdas Pophale) SiO2 
 PCOD9144778
Probable space group: P 2/M
;
_chemical_formula_sum "Si O2"
_cell_formula_units_Z 32
_cell_length_a 15.234802
_cell_length_b 8.453932
_cell_length_c 21.247622
_cell_angle_alpha 90.000000
_cell_angle_beta 42.681947
_cell_angle_gamma 90.000000
_cell_volume 1855.194792
_symmetry_space_group_name_H-M "P 2/M"
_symmetry_group_IT_number 10
_symmetry_cell_setting 'monoclinic'
loop_
_space_group_symop_operation_xyz
x,y,z
-x,y,-z
-x,-y,-z
x,-y,z
loop_
_atom_site_type_symbol
_atom_site_label
_atom_site_fract_x
_atom_site_fract_y
_atom_site_fract_z
Si Si1 0.339982 0.314959 0.035336
Si Si2 0.028547 0.315871 0.181162
Si Si3 0.707104 0.687115 0.802822
Si Si4 0.987686 0.184247 0.679874
Si Si5 0.890546 0.312396 0.506154
Si Si6 0.638754 0.813759 0.704660
Si Si7 0.924657 0.808717 0.977339
Si Si8 0.630509 0.189478 0.115045
O O1 0.373964 0.500000 0.014317
O O2 0.184158 0.301301 0.108917
O O3 0.361980 0.261816 0.095612
O O4 0.394566 0.232158 0.944843
O O5 0.994744 0.500000 0.201300
O O6 0.967589 0.227649 0.273170
O O7 0.007598 0.247749 0.122668
O O8 0.682316 0.500000 0.805727
O O9 0.860256 0.711547 0.732870
O O10 0.672615 0.786272 0.760034
O O11 0.084935 0.224280 0.572374
O O12 0.951678 0.000000 0.697110
O O13 0.906102 0.500000 0.488595
O O14 0.748963 0.275082 0.607808
O O15 0.000000 0.262716 0.500000
O O16 0.490083 0.754714 0.779183
O O17 0.644780 0.000000 0.686629
O O18 0.922071 0.000000 0.977601
O O19 0.774521 0.752243 0.056389
O O20 0.000000 0.757107 0.000000
O O21 0.632075 0.000000 0.118903
#
# Coordination Sequence:
#
# PCOD9144778 Si02
#       8
#     4   4   4   4   4   4   4   4
#     4   8  16  29  45  63  88 125 164 198 235 282
#     4   9  17  30  48  73 104 132 162 200 244 293
#     4  10  19  31  45  65  92 126 168 208 245 285
#     4  11  20  31  50  72  97 128 166 210 252 292
#     4  11  22  35  51  69  93 127 170 216 254 291
#     4  11  22  33  46  66  93 127 167 208 249 291
#     4   9  17  32  55  80 105 133 164 198 241 295
#     4   9  19  33  47  68  98 127 159 201 244 289
#
# _framework density 17.248863
#
# number of rings (size 3 to 8) (size 9 to 14) (size 15 to 20)
#    0.000    2.250    1.250    3.375    0.000    5.750 
#    0.000    2.500    0.000    0.000    0.000    0.875 
#    0.000    7.000    0.000    0.000    0.000    0.000 
#
# Total GULP energy -178460.189439 kJ/mol
# GULP energy per Si atom -5576.880920 kJ/mol
# Density = 1.720960 g / cm^3
# Si number density = 17.248863 Si / 1000 Ang^3
#
#
#
# Elastic Constant Matrix: (Units=GPa)
#
#
# Indices 1 2 3 4 5 6 
#
# 1 75.0206 4.0378 36.9462 0.0000 17.3020 0.0000
# 2 4.0378 22.0084 12.6792 0.0000 9.1321 0.0000
# 3 36.9462 12.6792 117.3088 0.0000 11.1944 0.0000
# 4 0.0000 0.0000 0.0000 10.1632 0.0000 0.1833
# 5 17.3020 9.1321 11.1944 0.0000 19.5429 0.0000
# 6 0.0000 0.0000 0.0000 0.1833 0.0000 7.3886
#
#
#
# Elastic Compliance Matrix: (Units=1/GPa)
#
#
# Indices 1 2 3 4 5 6 
#
# 1 0.019563 0.006652 -0.005216 0.000000 -0.017440 0.000000
# 2 0.006652 0.060264 -0.005669 0.000000 -0.030802 0.000000
# 3 -0.005216 -0.005669 0.010670 0.000000 0.001155 0.000000
# 4 0.000000 0.000000 0.000000 0.098438 0.000000 -0.002442
# 5 -0.017440 -0.030802 0.001155 0.000000 0.080342 0.000000
# 6 0.000000 0.000000 0.000000 -0.002442 0.000000 0.135404
#
#
# Mechanical properties :
#
#
# Convention : Reuss Voigt Hill
#
# Bulk Modulus (GPa) = 12.19058 35.74045 23.96552
# Shear Modulus (GPa) = 11.35102 18.13060 14.74081
#
# Velocity S-wave (km/s) = 2.56808 3.24561 2.92652
# Velocity P-wave (km/s) = 3.98449 5.90007 5.03423
#
# Compressibility (1/GPa) = 0.08203055
#
# Stress axis : x y z
#
# Youngs Moduli (GPa) = 51.11781 16.59372 93.72262
#
# Poissons Ratio (x) = -0.11039 0.48885
# Poissons Ratio (y) = -0.34006 0.53135
# Poissons Ratio (z) = 0.26663 0.09408
#
# Static dielectric constant tensor:
#      x y z
#    x 1.597750 0.000000 -0.014420 
#    y 0.000000 1.579460 0.000000 
#    z -0.014420 0.000000 1.619500 
# 
# From -- ./inp_files/84722.got.cif
#   From: 2010.05.17/outbox.cif.g08.bks.cpg/sg10_43_cif.got.tgz:84722.got - 2010.06.03 11:33:40.
