data_PCOD9144243
_publ_section_title
;
Structure prediction by ZEFSAII (Michael W. Deem and Ramdas Pophale) SiO2 
 PCOD9144243
Probable space group: P 2/M
;
_chemical_formula_sum "Si O2"
_cell_formula_units_Z 32
_cell_length_a 34.948011
_cell_length_b 7.596636
_cell_length_c 24.199159
_cell_angle_alpha 90.000000
_cell_angle_beta 16.642686
_cell_angle_gamma 90.000000
_cell_volume 1840.011250
_symmetry_space_group_name_H-M "P 2/M"
_symmetry_group_IT_number 10
_symmetry_cell_setting 'monoclinic'
loop_
_space_group_symop_operation_xyz
x,y,z
-x,y,-z
-x,-y,-z
x,-y,z
loop_
_atom_site_type_symbol
_atom_site_label
_atom_site_fract_x
_atom_site_fract_y
_atom_site_fract_z
Si Si1 0.931694 0.214488 0.889549
Si Si2 0.410850 0.216484 0.255740
Si Si3 0.027667 0.704246 0.879243
Si Si4 0.616960 0.794678 0.884688
Si Si5 0.324204 0.800503 0.493152
Si Si6 0.260987 0.703997 0.698793
Si Si7 0.356367 0.203471 0.685374
Si Si8 0.187678 0.215163 0.474694
O O1 0.992216 0.279442 0.863736
O O2 0.036674 0.267580 0.697271
O O3 0.930241 0.000000 0.894111
O O4 0.778428 0.277091 0.099958
O O5 0.391896 0.278031 0.344654
O O6 0.285145 0.266905 0.390773
O O7 0.410523 0.000000 0.256765
O O8 0.545121 0.277455 0.038657
O O9 0.049727 0.500000 0.864338
O O10 0.166040 0.799072 0.698712
O O11 0.891933 0.771223 0.096094
O O12 0.745038 0.720407 0.675328
O O13 0.645518 0.000000 0.856810
O O14 0.500000 0.790634 0.000000
O O15 0.336598 0.717481 0.536360
O O16 0.371723 0.000000 0.432764
O O17 0.246772 0.500000 0.733788
O O18 0.328993 0.791983 0.657460
O O19 0.500000 0.285311 0.500000
O O20 0.362833 0.000000 0.694657
O O21 0.191878 0.000000 0.467489
#
# Coordination Sequence:
#
# PCOD9144243 Si02
#       8
#     4   4   4   4   4   4   4   4
#     4   9  15  25  42  62  81 103 135 168 197 235
#     4   8  13  20  31  52  79 106 134 162 194 228
#     4  10  19  29  39  54  80 110 138 168 199 231
#     4   7  10  16  28  48  76 104 129 161 195 225
#     4  11  19  27  41  59  81 108 139 170 198 232
#     4  10  21  33  43  58  79 105 137 168 201 239
#     4   9  18  32  48  64  82 103 128 163 207 247
#     4   8  11  18  33  54  78 103 133 165 193 225
#
# _framework density 17.391199
#
# number of rings (size 3 to 8) (size 9 to 14) (size 15 to 20)
#    0.000    3.000    1.250    3.000    0.000    3.250 
#    0.000    0.000    0.000    0.000    0.000    2.625 
#    0.000    1.000    0.000   12.750    0.000    1.250 
#
# Total GULP energy -178183.766389 kJ/mol
# GULP energy per Si atom -5568.242700 kJ/mol
# Density = 1.735162 g / cm^3
# Si number density = 17.391199 Si / 1000 Ang^3
#
#
#
# Elastic Constant Matrix: (Units=GPa)
#
#
# Indices 1 2 3 4 5 6 
#
# 1 44.5082 -1.7938 57.2028 0.0000 22.4966 0.0000
# 2 -1.7938 38.1876 3.4459 0.0000 1.5208 0.0000
# 3 57.2028 3.4459 147.0834 0.0000 31.4390 0.0000
# 4 0.0000 0.0000 0.0000 -21.4149 0.0000 -17.8636
# 5 22.4966 1.5208 31.4390 0.0000 34.8694 0.0000
# 6 0.0000 0.0000 0.0000 -17.8636 0.0000 7.2638
#
#
#
# Elastic Compliance Matrix: (Units=1/GPa)
#
#
# Indices 1 2 3 4 5 6 
#
# 1 0.054922 0.004932 -0.017163 0.000000 -0.020174 0.000000
# 2 0.004932 0.026700 -0.002000 0.000000 -0.002543 0.000000
# 3 -0.017163 -0.002000 0.013794 0.000000 -0.001276 0.000000
# 4 0.000000 0.000000 0.000000 -0.015303 0.000000 -0.037634
# 5 -0.020174 -0.002543 -0.001276 0.000000 0.042956 0.000000
# 6 0.000000 0.000000 0.000000 -0.037634 0.000000 0.045116
#
#
# Mechanical properties :
#
#
# Convention : Reuss Voigt Hill
#
# Bulk Modulus (GPa) = 14.93582 38.60988 26.77285
# Shear Modulus (GPa) = 22.83470 15.53862 19.18666
#
# Velocity S-wave (km/s) = 3.62747 2.99235 3.32511
# Velocity P-wave (km/s) = 5.11385 5.84704 5.49270
#
# Compressibility (1/GPa) = 0.06695315
#
# Stress axis : x y z
#
# Youngs Moduli (GPa) = 18.20754 37.45322 72.49763
#
# Poissons Ratio (x) = -0.18472 1.24430
# Poissons Ratio (y) = -0.08980 0.14500
# Poissons Ratio (z) = 0.31250 0.07491
#
# Static dielectric constant tensor:
#      x y z
#    x 1.573880 0.000000 0.045140 
#    y 0.000000 1.632660 0.000000 
#    z 0.045140 0.000000 1.647330 
# 
# From -- ./inp_files/83338.got.cif
#   From: 2010.05.17/outbox.cif.g08.bks.cpg/sg10_42_cif.got.tgz:83338.got - 2010.06.03 11:33:40.
