data_PCOD9144099
_publ_section_title
;
Structure prediction by ZEFSAII (Michael W. Deem and Ramdas Pophale) SiO2 
 PCOD9144099
Probable space group: P 2/M
;
_chemical_formula_sum "Si O2"
_cell_formula_units_Z 32
_cell_length_a 32.260939
_cell_length_b 8.683307
_cell_length_c 12.402639
_cell_angle_alpha 90.000000
_cell_angle_beta 29.891771
_cell_angle_gamma 90.000000
_cell_volume 1731.499032
_symmetry_space_group_name_H-M "P 2/M"
_symmetry_group_IT_number 10
_symmetry_cell_setting 'monoclinic'
loop_
_space_group_symop_operation_xyz
x,y,z
-x,y,-z
-x,-y,-z
x,-y,z
loop_
_atom_site_type_symbol
_atom_site_label
_atom_site_fract_x
_atom_site_fract_y
_atom_site_fract_z
Si Si1 0.632228 0.318130 0.951892
Si Si2 0.919290 0.685754 0.322784
Si Si3 0.252647 0.185654 0.684546
Si Si4 0.890859 0.314552 0.142783
Si Si5 0.774923 0.184586 0.784853
Si Si6 0.286273 0.187653 0.844110
Si Si7 0.478402 0.180924 0.422183
Si Si8 0.594964 0.185896 0.804304
O O1 0.644620 0.500000 0.919552
O O2 0.544383 0.275503 0.204875
O O3 0.703794 0.245257 0.864728
O O4 0.630559 0.250383 0.835629
O O5 0.914562 0.500000 0.339449
O O6 0.885005 0.732104 0.281688
O O7 0.862791 0.758294 0.541874
O O8 0.016504 0.729147 0.105796
O O9 0.180773 0.246969 0.769503
O O10 0.245044 0.238687 0.825348
O O11 0.342424 0.229999 0.432867
O O12 0.249441 0.000000 0.691251
O O13 0.886310 0.500000 0.150779
O O14 0.772048 0.000000 0.790780
O O15 0.754963 0.239483 0.951328
O O16 0.383421 0.231110 0.622283
O O17 0.285002 0.000000 0.848740
O O18 0.500000 0.190931 0.500000
O O19 0.485356 0.000000 0.374716
O O20 0.593737 0.000000 0.813520
O O21 0.500000 0.238075 0.000000
#
# Coordination Sequence:
#
# PCOD9144099 Si02
#       8
#     4   4   4   4   4   4   4   4
#     4  12  24  35  52  81 117 147 180 228 281 336
#     4   9  19  37  59  83 110 140 175 223 278 328
#     4  10  20  35  57  82 108 141 185 230 269 321
#     4   9  19  37  59  81 110 145 177 214 274 340
#     4  11  21  36  57  82 109 142 184 227 274 326
#     4   9  19  36  56  79 108 143 183 229 277 321
#     4  10  18  35  59  77 101 145 194 234 271 318
#     4  10  21  38  59  81 108 145 190 234 276 326
#
# _framework density 18.481096000000001
#
# number of rings (size 3 to 8) (size 9 to 14) (size 15 to 20)
#    0.000    2.000    1.250    3.750    0.000    6.000 
#    0.000    5.000    0.000    3.750    0.000    0.000 
#    0.000    0.000    0.000    0.000    0.000    0.000 
#
# Total GULP energy -178716.070394 kJ/mol
# GULP energy per Si atom -5584.877200 kJ/mol
# Density = 1.843903 g / cm^3
# Si number density = 18.481096 Si / 1000 Ang^3
#
#
#
# Elastic Constant Matrix: (Units=GPa)
#
#
# Indices 1 2 3 4 5 6 
#
# 1 116.1359 23.7946 59.1268 0.0000 1.1538 0.0000
# 2 23.7946 19.4294 25.2917 0.0000 4.2539 0.0000
# 3 59.1268 25.2917 112.3966 0.0000 10.7854 0.0000
# 4 0.0000 0.0000 0.0000 60.9282 0.0000 -52.8934
# 5 1.1538 4.2539 10.7854 0.0000 28.8082 0.0000
# 6 0.0000 0.0000 0.0000 -52.8934 0.0000 70.2540
#
#
#
# Elastic Compliance Matrix: (Units=1/GPa)
#
#
# Indices 1 2 3 4 5 6 
#
# 1 0.013201 -0.010457 -0.004864 0.000000 0.002836 0.000000
# 2 -0.010457 0.081715 -0.012208 0.000000 -0.007077 0.000000
# 3 -0.004864 -0.012208 0.014533 0.000000 -0.003444 0.000000
# 4 0.000000 0.000000 0.000000 0.047381 0.000000 0.035673
# 5 0.002836 -0.007077 -0.003444 0.000000 0.036933 0.000000
# 6 0.000000 0.000000 0.000000 0.035673 0.000000 0.041092
#
#
# Mechanical properties :
#
#
# Convention : Reuss Voigt Hill
#
# Bulk Modulus (GPa) = 18.38472 51.59867 34.99169
# Shear Modulus (GPa) = 16.23151 41.31464 28.77307
#
# Velocity S-wave (km/s) = 2.96679 4.73325 3.95003
# Velocity P-wave (km/s) = 4.65889 7.60604 6.30702
#
# Compressibility (1/GPa) = 0.05439299
#
# Stress axis : x y z
#
# Youngs Moduli (GPa) = 75.75168 12.23760 68.80864
#
# Poissons Ratio (x) = 0.12797 0.33466
# Poissons Ratio (y) = 0.79212 0.84000
# Poissons Ratio (z) = 0.36843 0.14939
#
# Static dielectric constant tensor:
#      x y z
#    x 1.622960 0.000000 0.010090 
#    y 0.000000 1.626470 0.000000 
#    z 0.010090 0.000000 1.635090 
# 
# From -- ./inp_files/58090.got.cif
#   From: 2010.05.17/outbox.cif.g08.bks.cpg/sg10_30_cif.got.tgz:58090.got - 2010.06.03 11:33:40.
