data_PCOD9144951
_publ_section_title
;
Structure prediction by ZEFSAII (Michael W. Deem and Ramdas Pophale) SiO2 
 PCOD9144951
Probable space group: P 2/M
;
_chemical_formula_sum "Si O2"
_cell_formula_units_Z 28
_cell_length_a 16.809839
_cell_length_b 7.735598
_cell_length_c 19.563859
_cell_angle_alpha 90.000000
_cell_angle_beta 29.756029
_cell_angle_gamma 90.000000
_cell_volume 1262.592258
_symmetry_space_group_name_H-M "P 2/M"
_symmetry_group_IT_number 10
_symmetry_cell_setting 'monoclinic'
loop_
_space_group_symop_operation_xyz
x,y,z
-x,y,-z
-x,-y,-z
x,-y,z
loop_
_atom_site_type_symbol
_atom_site_label
_atom_site_fract_x
_atom_site_fract_y
_atom_site_fract_z
Si Si1 0.825267 0.288015 0.921232
Si Si2 0.126649 0.798929 0.460416
Si Si3 0.493538 0.199930 0.329384
Si Si4 0.997785 0.288612 0.079819
Si Si5 0.138512 0.301208 0.606561
Si Si6 0.649972 0.703617 0.349147
Si Si7 0.478582 0.301751 0.185497
O O1 0.819806 0.500000 0.923602
O O2 0.866927 0.234653 0.967911
O O3 0.976797 0.233432 0.762495
O O4 0.647780 0.228845 0.032570
O O5 0.117871 0.706917 0.540066
O O6 0.309292 0.787165 0.297424
O O7 0.000000 0.731073 0.500000
O O8 0.089882 0.000000 0.500917
O O9 0.309597 0.213779 0.493221
O O10 0.612086 0.276587 0.297233
O O11 0.496675 0.295405 0.254590
O O12 0.530528 0.000000 0.290224
O O13 0.000933 0.500000 0.075929
O O14 0.824882 0.230087 0.236811
O O15 0.000000 0.229521 0.000000
O O16 0.157226 0.500000 0.615023
O O17 0.500000 0.784263 0.500000
O O18 0.654316 0.500000 0.362107
O O19 0.462779 0.500000 0.175179
#
# Coordination Sequence:
#
# PCOD9144951 Si02
#       7
#     4   4   4   4   4   4   4
#     4   9  18  32  52  81 109 133 171 224 272 310
#     4  10  21  38  58  81 110 140 171 208 253 311
#     4  11  21  33  49  72 105 141 178 218 263 316
#     4   9  16  27  46  71  99 131 169 215 264 308
#     4  10  19  34  57  81 106 137 176 220 263 311
#     4  10  19  31  49  70  93 129 178 227 270 310
#     4  10  19  34  58  82 104 133 172 214 256 307
#
# _framework density 22.176597000000001
#
# number of rings (size 3 to 8) (size 9 to 14) (size 15 to 20)
#    0.000    2.143    0.000    6.000    0.000    6.000 
#    0.000    3.571    0.000    9.000    0.000    0.000 
#    0.000    0.000    0.000    0.000    0.000    0.000 
#
# Total GULP energy -156386.976478 kJ/mol
# GULP energy per Si atom -5585.249160 kJ/mol
# Density = 2.212612 g / cm^3
# Si number density = 22.176597 Si / 1000 Ang^3
#
#
#
# Elastic Constant Matrix: (Units=GPa)
#
#
# Indices 1 2 3 4 5 6 
#
# 1 80.2885 -11.5030 25.6372 0.0000 -30.0764 0.0000
# 2 -11.5030 39.1156 5.1325 0.0000 2.9290 0.0000
# 3 25.6372 5.1325 107.1267 0.0000 -25.0082 0.0000
# 4 0.0000 0.0000 0.0000 -11.1928 0.0000 -33.1084
# 5 -30.0764 2.9290 -25.0082 0.0000 30.2040 0.0000
# 6 0.0000 0.0000 0.0000 -33.1084 0.0000 0.6844
#
#
#
# Elastic Compliance Matrix: (Units=1/GPa)
#
#
# Indices 1 2 3 4 5 6 
#
# 1 0.020673 0.004685 -0.000585 0.000000 0.019646 0.000000
# 2 0.004685 0.027260 -0.002424 0.000000 0.000015 0.000000
# 3 -0.000585 -0.002424 0.011788 0.000000 0.009412 0.000000
# 4 0.000000 0.000000 0.000000 -0.000620 0.000000 -0.029994
# 5 0.019646 0.000015 0.009412 0.000000 0.060463 0.000000
# 6 0.000000 0.000000 0.000000 -0.029994 0.000000 0.010140
#
#
# Mechanical properties :
#
#
# Convention : Reuss Voigt Hill
#
# Bulk Modulus (GPa) = 15.85468 29.45157 22.65312
# Shear Modulus (GPa) = 33.92659 17.75674 25.84166
#
# Velocity S-wave (km/s) = 3.91556 2.83273 3.41730
# Velocity P-wave (km/s) = 5.25423 4.89984 5.08013
#
# Compressibility (1/GPa) = 0.06307285
#
# Stress axis : x y z
#
# Youngs Moduli (GPa) = 48.37247 36.68392 84.83010
#
# Poissons Ratio (x) = -0.17187 0.04966
# Poissons Ratio (y) = -0.22663 0.20561
# Poissons Ratio (z) = 0.02832 0.08891
#
# Static dielectric constant tensor:
#      x y z
#    x 1.783180 0.000000 0.003630 
#    y 0.000000 1.793220 0.000000 
#    z 0.003630 0.000000 1.879550 
# 
# From -- ./inp_files/85599.got.cif
#   From: 2010.05.17/outbox.cif.g08.bks.cpg/sg10_43_cif.got.tgz:85599.got - 2010.06.03 11:33:40.
