data_PCOD9144938
_publ_section_title
;
Structure prediction by ZEFSAII (Michael W. Deem and Ramdas Pophale) SiO2 
 PCOD9144938
Probable space group: P 2/M
;
_chemical_formula_sum "Si O2"
_cell_formula_units_Z 28
_cell_length_a 10.961942
_cell_length_b 13.369389
_cell_length_c 20.591622
_cell_angle_alpha 90.000000
_cell_angle_beta 149.724144
_cell_angle_gamma 90.000000
_cell_volume 1521.462434
_symmetry_space_group_name_H-M "P 2/M"
_symmetry_group_IT_number 10
_symmetry_cell_setting 'monoclinic'
loop_
_space_group_symop_operation_xyz
x,y,z
-x,y,-z
-x,-y,-z
x,-y,z
loop_
_atom_site_type_symbol
_atom_site_label
_atom_site_fract_x
_atom_site_fract_y
_atom_site_fract_z
Si Si1 0.887621 0.385609 0.590708
Si Si2 0.372771 0.727196 0.784647
Si Si3 0.655222 0.611793 0.008043
Si Si4 0.751194 0.219883 0.632269
Si Si5 0.433532 0.612797 0.687165
Si Si6 0.219406 0.389867 0.260907
Si Si7 0.269036 0.119086 0.845483
O O1 0.881126 0.500000 0.609756
O O2 0.778936 0.309048 0.592322
O O3 0.749341 0.378780 0.458118
O O4 0.159858 0.348516 0.707408
O O5 0.610249 0.686820 0.929184
O O6 0.397262 0.703990 0.719916
O O7 0.312873 0.829841 0.794764
O O8 0.575898 0.500000 0.953496
O O9 0.500000 0.640006 0.000000
O O10 0.938805 0.607800 0.150165
O O11 0.500000 0.162887 0.500000
O O12 0.703833 0.283613 0.675195
O O13 0.008392 0.162052 0.750642
O O14 0.394351 0.500000 0.697691
O O15 0.698855 0.613162 0.776392
O O16 0.320078 0.500000 0.329652
O O17 0.251286 0.000000 0.831655
O O18 0.500000 0.139633 0.000000
#
# Coordination Sequence:
#
# PCOD9144938 Si02
#       7
#     4   4   4   4   4   4   4
#     4  10  19  31  50  79 116 154 188 217 254 312
#     4  11  20  33  54  76 102 140 187 226 270 324
#     4  10  19  31  48  74 107 141 181 224 264 313
#     4  11  20  33  58  86 112 145 185 229 280 325
#     4  10  20  32  48  77 118 158 186 209 248 315
#     4  10  20  32  49  80 121 155 182 213 258 318
#     4  10  23  43  64  83 102 131 181 245 302 343
#
# _framework density 18.403345999999999
#
# number of rings (size 3 to 8) (size 9 to 14) (size 15 to 20)
#    0.000    1.714    1.429    5.143    0.000    3.714 
#    0.000    2.143    0.000    8.143    0.000    3.000 
#    0.000    0.000    0.000    0.000    0.000    0.000 
#
# Total GULP energy -155874.379724 kJ/mol
# GULP energy per Si atom -5566.942133 kJ/mol
# Density = 1.836146 g / cm^3
# Si number density = 18.403346 Si / 1000 Ang^3
#
#
#
# Elastic Constant Matrix: (Units=GPa)
#
#
# Indices 1 2 3 4 5 6 
#
# 1 56.5014 30.8368 18.2403 0.0000 3.7613 0.0000
# 2 30.8368 108.5747 35.2443 0.0000 0.3000 0.0000
# 3 18.2403 35.2443 71.2068 0.0000 16.0026 0.0000
# 4 0.0000 0.0000 0.0000 20.7672 0.0000 -4.1038
# 5 3.7613 0.3000 16.0026 0.0000 31.5662 0.0000
# 6 0.0000 0.0000 0.0000 -4.1038 0.0000 18.3415
#
#
#
# Elastic Compliance Matrix: (Units=1/GPa)
#
#
# Indices 1 2 3 4 5 6 
#
# 1 0.021492 -0.005241 -0.002649 0.000000 -0.001168 0.000000
# 2 -0.005241 0.012507 -0.005600 0.000000 0.003344 0.000000
# 3 -0.002649 -0.005600 0.019649 0.000000 -0.009592 0.000000
# 4 0.000000 0.000000 0.000000 0.050380 0.000000 0.011272
# 5 -0.001168 0.003344 -0.009592 0.000000 0.036650 0.000000
# 6 0.000000 0.000000 0.000000 0.011272 0.000000 0.057043
#
#
# Mechanical properties :
#
#
# Convention : Reuss Voigt Hill
#
# Bulk Modulus (GPa) = 37.49546 44.99174 41.24360
# Shear Modulus (GPa) = 21.40497 24.26575 22.83536
#
# Velocity S-wave (km/s) = 3.41413 3.63513 3.52636
# Velocity P-wave (km/s) = 5.99668 6.48995 6.24819
#
# Compressibility (1/GPa) = 0.02666990
#
# Stress axis : x y z
#
# Youngs Moduli (GPa) = 46.52912 79.95396 50.89213
#
# Poissons Ratio (x) = 0.41904 0.13480
# Poissons Ratio (y) = 0.24386 0.28497
# Poissons Ratio (z) = 0.12324 0.44771
#
# Static dielectric constant tensor:
#      x y z
#    x 1.687760 0.000000 0.009980 
#    y 0.000000 1.628600 0.000000 
#    z 0.009980 0.000000 1.722900 
# 
# From -- ./inp_files/83999.got.cif
#   From: 2010.05.17/outbox.cif.g08.bks.cpg/sg10_42_cif.got.tgz:83999.got - 2010.06.03 11:33:40.
