data_PCOD9144251
_publ_section_title
;
Structure prediction by ZEFSAII (Michael W. Deem and Ramdas Pophale) SiO2 
 PCOD9144251
Probable space group: P 2/M
;
_chemical_formula_sum "Si O2"
_cell_formula_units_Z 32
_cell_length_a 17.148851
_cell_length_b 7.873803
_cell_length_c 24.908197
_cell_angle_alpha 90.000000
_cell_angle_beta 28.459310
_cell_angle_gamma 90.000000
_cell_volume 1602.714757
_symmetry_space_group_name_H-M "P 2/M"
_symmetry_group_IT_number 10
_symmetry_cell_setting 'monoclinic'
loop_
_space_group_symop_operation_xyz
x,y,z
-x,y,-z
-x,-y,-z
x,-y,z
loop_
_atom_site_type_symbol
_atom_site_label
_atom_site_fract_x
_atom_site_fract_y
_atom_site_fract_z
Si Si1 0.989577 0.292944 0.787159
Si Si2 0.713076 0.692505 0.319145
Si Si3 0.438769 0.799788 0.409829
Si Si4 0.930376 0.697144 0.374694
Si Si5 0.230687 0.302119 0.984470
Si Si6 0.487421 0.199655 0.260712
Si Si7 0.055654 0.807104 0.910350
Si Si8 0.890517 0.293231 0.516159
O O1 0.004731 0.500000 0.776452
O O2 0.156729 0.232956 0.716608
O O3 0.986648 0.227042 0.728371
O O4 0.826493 0.257058 0.920486
O O5 0.677090 0.500000 0.356745
O O6 0.545729 0.774175 0.398860
O O7 0.819851 0.700808 0.199986
O O8 0.264677 0.707739 0.518135
O O9 0.520008 0.743766 0.303263
O O10 0.406795 0.000000 0.423275
O O11 0.979562 0.500000 0.347658
O O12 0.956454 0.769149 0.418386
O O13 0.183839 0.500000 0.006236
O O14 0.110650 0.188251 0.022134
O O15 0.406895 0.281768 0.850865
O O16 0.296108 0.233193 0.366908
O O17 0.521773 0.000000 0.238069
O O18 0.120807 0.000000 0.878576
O O19 0.000000 0.732032 0.000000
O O20 0.887853 0.500000 0.516665
O O21 0.000000 0.239083 0.500000
#
# Coordination Sequence:
#
# PCOD9144251 Si02
#       8
#     4   4   4   4   4   4   4   4
#     4   8  17  32  48  68  93 127 168 203 236 278
#     4  10  19  30  44  63  89 125 170 209 240 278
#     4  10  20  32  45  67  98 127 162 207 249 286
#     4   9  17  33  54  71  94 127 158 192 240 293
#     4  10  19  31  48  69  94 125 164 204 236 276
#     4  10  20  33  50  73 101 131 160 193 240 292
#     4  10  19  29  41  60  89 124 162 205 250 289
#     4   9  18  33  56  84 104 119 148 192 239 289
#
# _framework density 19.966121999999999
#
# number of rings (size 3 to 8) (size 9 to 14) (size 15 to 20)
#    0.000    2.500    0.000    3.375    0.000    6.250 
#    0.000    6.250    0.000    0.750    0.000    5.250 
#    0.000    0.000    0.000    0.000    0.000    0.000 
#
# Total GULP energy -178269.934315 kJ/mol
# GULP energy per Si atom -5570.935447 kJ/mol
# Density = 1.992068 g / cm^3
# Si number density = 19.966122 Si / 1000 Ang^3
#
#
#
# Elastic Constant Matrix: (Units=GPa)
#
#
# Indices 1 2 3 4 5 6 
#
# 1 91.6112 0.3502 38.7598 0.0000 19.8324 0.0000
# 2 0.3502 34.8850 1.7316 0.0000 3.1283 0.0000
# 3 38.7598 1.7316 88.7552 0.0000 32.2734 0.0000
# 4 0.0000 0.0000 0.0000 -152.3699 0.0000 1.3457
# 5 19.8324 3.1283 32.2734 0.0000 30.0266 0.0000
# 6 0.0000 0.0000 0.0000 1.3457 0.0000 10.3650
#
#
#
# Elastic Compliance Matrix: (Units=1/GPa)
#
#
# Indices 1 2 3 4 5 6 
#
# 1 0.013728 0.000473 -0.004415 0.000000 -0.004372 0.000000
# 2 0.000473 0.028994 0.000722 0.000000 -0.004109 0.000000
# 3 -0.004415 0.000722 0.019942 0.000000 -0.018593 0.000000
# 4 0.000000 0.000000 0.000000 -0.006555 0.000000 0.000851
# 5 -0.004372 -0.004109 -0.018593 0.000000 0.056604 0.000000
# 6 0.000000 0.000000 0.000000 0.000851 0.000000 0.096368
#
#
# Mechanical properties :
#
#
# Convention : Reuss Voigt Hill
#
# Bulk Modulus (GPa) = 17.78599 32.99274 25.38936
# Shear Modulus (GPa) = 21.34379 -10.76835 5.28772
#
# Velocity S-wave (km/s) = 3.27310 -2.32487 1.62914
# Velocity P-wave (km/s) = 4.81785 3.05836 4.03517
#
# Compressibility (1/GPa) = 0.05622403
#
# Stress axis : x y z
#
# Youngs Moduli (GPa) = 72.84329 34.49043 50.14624
#
# Poissons Ratio (x) = -0.01633 0.22138
# Poissons Ratio (y) = -0.03448 -0.03620
# Poissons Ratio (z) = 0.32159 -0.02490
#
# Static dielectric constant tensor:
#      x y z
#    x 1.718470 0.000000 0.056030 
#    y 0.000000 1.725290 0.000000 
#    z 0.056030 0.000000 1.786880 
# 
# From -- ./inp_files/89925.got.cif
#   From: 2010.05.17/outbox.cif.g08.bks.cpg/sg10_45_cif.got.tgz:89925.got - 2010.06.03 11:33:40.
