data_PCOD9144991
_publ_section_title
;
Structure prediction by ZEFSAII (Michael W. Deem and Ramdas Pophale) SiO2 
 PCOD9144991
Probable space group: P 2/M
;
_chemical_formula_sum "Si O2"
_cell_formula_units_Z 32
_cell_length_a 16.513536
_cell_length_b 9.382645
_cell_length_c 22.055873
_cell_angle_alpha 90.000000
_cell_angle_beta 25.332152
_cell_angle_gamma 90.000000
_cell_volume 1462.165418
_symmetry_space_group_name_H-M "P 2/M"
_symmetry_group_IT_number 10
_symmetry_cell_setting 'monoclinic'
loop_
_space_group_symop_operation_xyz
x,y,z
-x,y,-z
-x,-y,-z
x,-y,z
loop_
_atom_site_type_symbol
_atom_site_label
_atom_site_fract_x
_atom_site_fract_y
_atom_site_fract_z
Si Si1 0.392539 0.663345 0.756535
Si Si2 0.643705 0.335672 0.711069
Si Si3 0.725148 0.168006 0.340403
Si Si4 0.283403 0.167577 0.521754
Si Si5 0.277579 0.326947 0.023115
Si Si6 0.726334 0.667884 0.841096
Si Si7 0.034242 0.328504 0.069688
Si Si8 0.034529 0.832624 0.568604
O O1 0.380904 0.500000 0.743325
O O2 0.514238 0.661603 0.737277
O O3 0.520187 0.755805 0.626285
O O4 0.181204 0.712470 0.917110
O O5 0.697376 0.500000 0.687780
O O6 0.493096 0.281911 0.862519
O O7 0.826518 0.241188 0.573863
O O8 0.500000 0.186758 0.500000
O O9 0.795261 0.215274 0.360104
O O10 0.832616 0.256131 0.216113
O O11 0.763183 0.000000 0.305215
O O12 0.147391 0.185994 0.556270
O O13 0.321614 0.000000 0.502125
O O14 0.284465 0.500000 0.019638
O O15 0.210284 0.281439 0.134679
O O16 0.147709 0.287831 0.054491
O O17 0.770449 0.500000 0.803242
O O18 0.837046 0.754290 0.715061
O O19 0.500000 0.680465 0.000000
O O20 0.016700 0.500000 0.078889
O O21 0.012020 0.000000 0.571853
#
# Coordination Sequence:
#
# PCOD9144991 Si02
#       8
#     4   4   4   4   4   4   4   4
#     4   8  15  28  48  74  97 117 148 193 240 280
#     4   8  14  28  50  72  94 120 152 192 235 278
#     4  10  21  35  48  66  96 130 161 193 230 276
#     4   9  18  32  50  72  95 122 158 194 230 278
#     4   8  15  30  52  75  96 120 155 198 237 274
#     4  10  20  33  49  70  96 127 162 195 230 278
#     4   9  17  31  52  75  96 120 155 197 238 280
#     4  10  19  31  49  73  98 122 153 195 238 279
#
# _framework density 21.885348
#
# number of rings (size 3 to 8) (size 9 to 14) (size 15 to 20)
#    0.000    3.000    0.000    2.625    0.000    2.000 
#    0.000    3.750    0.000    7.500    0.000    0.000 
#    0.000    0.000    0.000    0.000    0.000    0.000 
#
# Total GULP energy -178650.665197 kJ/mol
# GULP energy per Si atom -5582.833287 kJ/mol
# Density = 2.183554 g / cm^3
# Si number density = 21.885348 Si / 1000 Ang^3
#
#
#
# Elastic Constant Matrix: (Units=GPa)
#
#
# Indices 1 2 3 4 5 6 
#
# 1 54.7495 6.0446 16.8720 0.0000 -0.5910 0.0000
# 2 6.0446 39.1523 70.6594 0.0000 4.9734 0.0000
# 3 16.8720 70.6594 181.0151 0.0000 18.7322 0.0000
# 4 0.0000 0.0000 0.0000 -269.0683 0.0000 -40.2248
# 5 -0.5910 4.9734 18.7322 0.0000 36.1347 0.0000
# 6 0.0000 0.0000 0.0000 -40.2248 0.0000 2.2621
#
#
#
# Elastic Compliance Matrix: (Units=1/GPa)
#
#
# Indices 1 2 3 4 5 6 
#
# 1 0.018877 0.001160 -0.002354 0.000000 0.001369 0.000000
# 2 0.001160 0.087710 -0.034975 0.000000 0.006078 0.000000
# 3 -0.002354 -0.034975 0.019974 0.000000 -0.005579 0.000000
# 4 0.000000 0.000000 0.000000 -0.001016 0.000000 -0.018065
# 5 0.001369 0.006078 -0.005579 0.000000 0.029752 0.000000
# 6 0.000000 0.000000 0.000000 -0.018065 0.000000 0.120837
#
#
# Mechanical properties :
#
#
# Convention : Reuss Voigt Hill
#
# Bulk Modulus (GPa) = 18.44221 51.34098 34.89160
# Shear Modulus (GPa) = 13.64083 -34.04488 -10.20203
#
# Velocity S-wave (km/s) = 2.49928 -3.94839 -2.16141
# Velocity P-wave (km/s) = 4.09555 1.65034 3.12227
#
# Compressibility (1/GPa) = 0.05422344
#
# Stress axis : x y z
#
# Youngs Moduli (GPa) = 52.97412 11.40117 50.06604
#
# Poissons Ratio (x) = -0.01323 0.11786
# Poissons Ratio (y) = -0.06146 1.75105
# Poissons Ratio (z) = 0.12470 0.39875
#
# Static dielectric constant tensor:
#      x y z
#    x 1.928290 0.000000 -0.043440 
#    y 0.000000 1.724650 0.000000 
#    z -0.043440 0.000000 1.773530 
# 
# From -- ./inp_files/86942.got.cif
#   From: 2010.05.17/outbox.cif.g08.bks.cpg/sg10_44_cif.got.tgz:86942.got - 2010.06.03 11:33:40.
