data_PCOD9144934
_publ_section_title
;
Structure prediction by ZEFSAII (Michael W. Deem and Ramdas Pophale) SiO2 
 PCOD9144934
Probable space group: P 2/M
;
_chemical_formula_sum "Si O2"
_cell_formula_units_Z 28
_cell_length_a 13.883900
_cell_length_b 17.514825
_cell_length_c 8.639945
_cell_angle_alpha 90.000000
_cell_angle_beta 134.979287
_cell_angle_gamma 90.000000
_cell_volume 1486.175866
_symmetry_space_group_name_H-M "P 2/M"
_symmetry_group_IT_number 10
_symmetry_cell_setting 'monoclinic'
loop_
_space_group_symop_operation_xyz
x,y,z
-x,y,-z
-x,-y,-z
x,-y,z
loop_
_atom_site_type_symbol
_atom_site_label
_atom_site_fract_x
_atom_site_fract_y
_atom_site_fract_z
Si Si1 0.037271 0.411270 0.715351
Si Si2 0.401143 0.224492 0.116214
Si Si3 0.694681 0.253320 0.328085
Si Si4 0.150616 0.188785 0.231839
Si Si5 0.344243 0.913727 0.266264
Si Si6 0.740403 0.414102 0.518476
Si Si7 0.733598 0.334273 0.821815
O O1 0.078273 0.500000 0.744848
O O2 0.903352 0.409507 0.671806
O O3 0.000000 0.383249 0.500000
O O4 0.157601 0.366151 0.933191
O O5 0.558466 0.216757 0.248039
O O6 0.343274 0.148354 0.128703
O O7 0.387575 0.294822 0.220752
O O8 0.315562 0.242024 0.865498
O O9 0.821982 0.213930 0.559667
O O10 0.685513 0.343422 0.356290
O O11 0.247013 0.119469 0.289255
O O12 0.200276 0.264111 0.196863
O O13 0.000000 0.172817 0.000000
O O14 0.500000 0.913879 0.500000
O O15 0.306593 0.000000 0.179799
O O16 0.697516 0.500000 0.426250
O O17 0.705667 0.396608 0.657882
#
# Coordination Sequence:
#
# PCOD9144934 Si02
#       7
#     4   4   4   4   4   4   4
#     4  10  19  31  48  73 107 144 186 237 290 339
#     4  10  21  37  59  82 109 151 187 235 281 346
#     4  10  20  38  57  81 114 147 195 236 285 335
#     4  10  20  34  58  86 114 149 190 233 279 337
#     4  10  20  38  62  88 117 148 185 228 279 345
#     4  10  20  33  51  74 107 147 190 240 285 334
#     4  10  19  31  51  76 105 144 193 234 283 331
#
# _framework density 18.840299999999999
#
# number of rings (size 3 to 8) (size 9 to 14) (size 15 to 20)
#    0.000    2.000    1.429    3.429    0.000    1.429 
#    0.000    8.571    0.000    0.857    0.000    0.000 
#    0.000    0.000    0.000    0.000    0.000    0.000 
#
# Total GULP energy -156198.775243 kJ/mol
# GULP energy per Si atom -5578.527687 kJ/mol
# Density = 1.879742 g / cm^3
# Si number density = 18.840300 Si / 1000 Ang^3
#
#
#
# Elastic Constant Matrix: (Units=GPa)
#
#
# Indices 1 2 3 4 5 6 
#
# 1 45.7082 15.8593 12.4839 0.0000 -14.0581 0.0000
# 2 15.8593 107.6711 29.2035 0.0000 -17.3954 0.0000
# 3 12.4839 29.2035 88.6118 0.0000 -21.1557 0.0000
# 4 0.0000 0.0000 0.0000 16.0869 0.0000 -1.0771
# 5 -14.0581 -17.3954 -21.1557 0.0000 30.5563 0.0000
# 6 0.0000 0.0000 0.0000 -1.0771 0.0000 3.4673
#
#
#
# Elastic Compliance Matrix: (Units=1/GPa)
#
#
# Indices 1 2 3 4 5 6 
#
# 1 0.025918 -0.001995 -0.000501 0.000000 0.010442 0.000000
# 2 -0.001995 0.010816 -0.002435 0.000000 0.003554 0.000000
# 3 -0.000501 -0.002435 0.014104 0.000000 0.008148 0.000000
# 4 0.000000 0.000000 0.000000 0.063483 0.000000 0.019721
# 5 0.010442 0.003554 0.008148 0.000000 0.045195 0.000000
# 6 0.000000 0.000000 0.000000 0.019721 0.000000 0.294535
#
#
# Mechanical properties :
#
#
# Convention : Reuss Voigt Hill
#
# Bulk Modulus (GPa) = 24.40457 39.67606 32.04031
# Shear Modulus (GPa) = 10.46964 22.31839 16.39402
#
# Velocity S-wave (km/s) = 2.35990 3.44555 2.95304
# Velocity P-wave (km/s) = 4.51741 6.07733 5.35448
#
# Compressibility (1/GPa) = 0.04097594
#
# Stress axis : x y z
#
# Youngs Moduli (GPa) = 38.58268 92.45587 70.90408
#
# Poissons Ratio (x) = 0.18442 0.03553
# Poissons Ratio (y) = 0.07696 0.17266
# Poissons Ratio (z) = 0.01934 0.22514
#
# Static dielectric constant tensor:
#      x y z
#    x 1.687360 0.000000 -0.004580 
#    y 0.000000 1.652370 0.000000 
#    z -0.004580 0.000000 1.668700 
# 
# From -- ./inp_files/30192.got.cif
#   From: 2010.05.17/outbox.cif.g08.bks.cpg/sg10_16_cif.got.tgz:30192.got - 2010.06.03 11:33:40.
