data_PCOD9144021
_publ_section_title
;
Structure prediction by ZEFSAII (Michael W. Deem and Ramdas Pophale) SiO2 
 PCOD9144021
Probable space group: P 2/M
;
_chemical_formula_sum "Si O2"
_cell_formula_units_Z 26
_cell_length_a 7.343818
_cell_length_b 10.364912
_cell_length_c 21.594989
_cell_angle_alpha 90.000000
_cell_angle_beta 47.745182
_cell_angle_gamma 90.000000
_cell_volume 1216.653901
_symmetry_space_group_name_H-M "P 2/M"
_symmetry_group_IT_number 10
_symmetry_cell_setting 'monoclinic'
loop_
_space_group_symop_operation_xyz
x,y,z
-x,y,-z
-x,-y,-z
x,-y,z
loop_
_atom_site_type_symbol
_atom_site_label
_atom_site_fract_x
_atom_site_fract_y
_atom_site_fract_z
Si Si1 0.766258 0.353259 0.968838
Si Si2 0.000000 0.694194 0.500000
Si Si3 0.888454 0.144911 0.712300
Si Si4 0.600223 0.145294 0.105087
Si Si5 0.104419 0.852738 0.833082
Si Si6 0.218972 0.642542 0.580761
Si Si7 0.582686 0.855550 0.653019
O O1 0.860932 0.500000 0.959288
O O2 0.924067 0.265849 0.885786
O O3 0.500000 0.367266 0.000000
O O4 0.719043 0.259489 0.038325
O O5 0.064847 0.633378 0.551631
O O6 0.251022 0.771368 0.429296
O O7 0.091267 0.252384 0.653463
O O8 0.686301 0.168786 0.812128
O O9 0.729116 0.143441 0.685048
O O10 0.988641 0.000000 0.697371
O O11 0.744559 0.140216 0.136882
O O12 0.623039 0.000000 0.071571
O O13 0.304034 0.821734 0.734466
O O14 0.006598 0.000000 0.845729
O O15 0.500000 0.675683 0.500000
O O16 0.219703 0.500000 0.609690
O O17 0.581412 0.000000 0.628398
#
# Coordination Sequence:
#
# PCOD9144021 Si02
#       7
#     4   2   4   4   4   4   4
#     4  11  24  38  50  73 111 148 183 221 268 325
#     4  10  18  34  58  80 111 150 187 224 275 330
#     4   8  16  33  56  81 107 134 173 222 270 324
#     4   9  18  35  60  84 104 133 176 226 277 328
#     4   9  18  35  58  83 107 135 179 228 275 329
#     4  10  21  36  53  78 112 148 186 227 273 326
#     4   8  15  30  55  84 110 137 172 222 276 323
#
# _framework density 21.370087999999999
#
# number of rings (size 3 to 8) (size 9 to 14) (size 15 to 20)
#    0.000    2.769    0.000    3.231    0.000    5.231 
#    2.769    6.923    0.000    0.000    0.000    0.000 
#    0.000    0.000    0.000    0.000    0.000    0.000 
#
# Total GULP energy -144981.344866 kJ/mol
# GULP energy per Si atom -5576.205572 kJ/mol
# Density = 2.132145 g / cm^3
# Si number density = 21.370088 Si / 1000 Ang^3
#
#
#
# Elastic Constant Matrix: (Units=GPa)
#
#
# Indices 1 2 3 4 5 6 
#
# 1 58.4907 27.8913 11.5595 0.0000 2.6371 0.0000
# 2 27.8913 177.2163 112.9468 0.0000 -20.8617 0.0000
# 3 11.5595 112.9468 114.0981 0.0000 -21.1993 0.0000
# 4 0.0000 0.0000 0.0000 -16.1339 0.0000 -2.9814
# 5 2.6371 -20.8617 -21.1993 0.0000 38.2075 0.0000
# 6 0.0000 0.0000 0.0000 -2.9814 0.0000 3.7510
#
#
#
# Elastic Compliance Matrix: (Units=1/GPa)
#
#
# Indices 1 2 3 4 5 6 
#
# 1 0.019039 -0.004783 0.002315 0.000000 -0.002641 0.000000
# 2 -0.004783 0.016490 -0.015726 0.000000 0.000608 0.000000
# 3 0.002315 -0.015726 0.025055 0.000000 0.005155 0.000000
# 4 0.000000 0.000000 0.000000 -0.054044 0.000000 -0.042955
# 5 -0.002641 0.000608 0.005155 0.000000 0.029548 0.000000
# 6 0.000000 0.000000 0.000000 -0.042955 0.000000 0.232451
#
#
# Mechanical properties :
#
#
# Convention : Reuss Voigt Hill
#
# Bulk Modulus (GPa) = 41.32870 72.73336 57.03103
# Shear Modulus (GPa) = 15.97484 18.32544 17.15014
#
# Velocity S-wave (km/s) = 2.73707 2.93153 2.83597
# Velocity P-wave (km/s) = 5.41943 6.75037 6.12118
#
# Compressibility (1/GPa) = 0.02419626
#
# Stress axis : x y z
#
# Youngs Moduli (GPa) = 52.52389 60.64311 39.91218
#
# Poissons Ratio (x) = 0.29004 -0.09239
# Poissons Ratio (y) = 0.25121 0.62766
# Poissons Ratio (z) = -0.12159 0.95367
#
# Static dielectric constant tensor:
#      x y z
#    x 1.839200 0.000000 0.011210 
#    y 0.000000 1.765940 0.000000 
#    z 0.011210 0.000000 1.780380 
# 
# From -- ./inp_files/91806.got.cif
#   From: 2010.05.17/outbox.cif.g08.bks.cpg/sg10_46_cif.got.tgz:91806.got - 2010.06.03 11:33:40.
