data_PCOD9144786
_publ_section_title
;
Structure prediction by ZEFSAII (Michael W. Deem and Ramdas Pophale) SiO2 
 PCOD9144786
Probable space group: P 2/M
;
_chemical_formula_sum "Si O2"
_cell_formula_units_Z 24
_cell_length_a 11.587688
_cell_length_b 26.488135
_cell_length_c 7.860155
_cell_angle_alpha 90.000000
_cell_angle_beta 156.084357
_cell_angle_gamma 90.000000
_cell_volume 978.033169
_symmetry_space_group_name_H-M "P 2/M"
_symmetry_group_IT_number 10
_symmetry_cell_setting 'monoclinic'
loop_
_space_group_symop_operation_xyz
x,y,z
-x,y,-z
-x,-y,-z
x,-y,z
loop_
_atom_site_type_symbol
_atom_site_label
_atom_site_fract_x
_atom_site_fract_y
_atom_site_fract_z
Si Si1 0.300585 0.902690 0.081551
Si Si2 0.789307 0.942053 0.554720
Si Si3 0.174179 0.213157 0.912511
Si Si4 0.826079 0.558108 0.085920
Si Si5 0.674351 0.385591 0.414517
Si Si6 0.674215 0.269239 0.414161
O O1 0.500000 0.924862 0.500000
O O2 0.513415 0.907376 0.209617
O O3 0.226667 0.845042 0.025764
O O4 0.001281 0.930899 0.685753
O O5 0.694555 0.000000 0.426536
O O6 0.000000 0.933937 0.000000
O O7 0.000000 0.213143 0.500000
O O8 0.972288 0.242528 0.771948
O O9 0.472855 0.239651 0.273082
O O10 0.799666 0.500000 0.996781
O O11 0.000000 0.558093 0.500000
O O12 0.024149 0.589398 0.224557
O O13 0.524453 0.583165 0.725012
O O14 0.704907 0.327432 0.507497
O O15 0.500000 0.385686 0.000000
O O16 0.500000 0.269399 0.000000
#
# Coordination Sequence:
#
# PCOD9144786 Si02
#       6
#     4   4   4   4   4   4
#     4  10  19  31  49  71  92 115 145 179 217 258
#     4   9  17  30  49  71  92 115 145 179 212 253
#     4  10  19  31  46  64  88 116 148 183 217 254
#     4   9  15  21  30  46  69  98 133 174 216 253
#     4   9  15  23  34  48  69  98 137 178 208 245
#     4   9  17  28  42  59  79 110 150 185 214 251
#
# _framework density 24.539045000000002
#
# number of rings (size 3 to 8) (size 9 to 14) (size 15 to 20)
#    0.000    2.667    0.000    3.000    0.000    8.000 
#    0.000    0.000    0.000    3.000    0.000    0.000 
#    0.000    0.000    0.000    0.000    0.000   58.333 
#
# Total GULP energy -134356.028959 kJ/mol
# GULP energy per Si atom -5598.167873 kJ/mol
# Density = 2.448319 g / cm^3
# Si number density = 24.539045 Si / 1000 Ang^3
#
#
#
# Elastic Constant Matrix: (Units=GPa)
#
#
# Indices 1 2 3 4 5 6 
#
# 1 84.5339 -4.5401 30.0219 0.0000 19.2792 0.0000
# 2 -4.5401 127.3328 31.4419 0.0000 45.2352 0.0000
# 3 30.0219 31.4419 159.5313 0.0000 33.5924 0.0000
# 4 0.0000 0.0000 0.0000 30.2708 0.0000 24.0893
# 5 19.2792 45.2352 33.5924 0.0000 64.9096 0.0000
# 6 0.0000 0.0000 0.0000 24.0893 0.0000 27.9926
#
#
#
# Elastic Compliance Matrix: (Units=1/GPa)
#
#
# Indices 1 2 3 4 5 6 
#
# 1 0.013860 0.002777 -0.002111 0.000000 -0.004959 0.000000
# 2 0.002777 0.011044 -0.001016 0.000000 -0.007996 0.000000
# 3 -0.002111 -0.001016 0.007390 0.000000 -0.002490 0.000000
# 4 0.000000 0.000000 0.000000 0.104816 0.000000 -0.090201
# 5 -0.004959 -0.007996 -0.002490 0.000000 0.023740 0.000000
# 6 0.000000 0.000000 0.000000 -0.090201 0.000000 0.113347
#
#
# Mechanical properties :
#
#
# Convention : Reuss Voigt Hill
#
# Bulk Modulus (GPa) = 31.65128 53.91615 42.78372
# Shear Modulus (GPa) = 17.51760 45.59955 31.55857
#
# Velocity S-wave (km/s) = 2.67473 4.31541 3.59005
# Velocity P-wave (km/s) = 4.73975 6.84468 5.88706
#
# Compressibility (1/GPa) = 0.03159430
#
# Stress axis : x y z
#
# Youngs Moduli (GPa) = 72.15195 90.54922 135.31602
#
# Poissons Ratio (x) = -0.25149 0.28569
# Poissons Ratio (y) = -0.20039 0.13743
# Poissons Ratio (z) = 0.15234 0.09196
#
# Static dielectric constant tensor:
#      x y z
#    x 1.974340 0.000000 -0.065850 
#    y 0.000000 1.835230 0.000000 
#    z -0.065850 0.000000 1.975170 
# 
# From -- ./inp_files/7478.got.cif
#   From: 2010.05.17/outbox.cif.g08.bks.cpg/sg10_4_cif.got.tgz:7478.got - 2010.06.03 11:33:40.
