data_PCOD9144828
_publ_section_title
;
Structure prediction by ZEFSAII (Michael W. Deem and Ramdas Pophale) SiO2 
 PCOD9144828
Probable space group: P 2/M
;
_chemical_formula_sum "Si O2"
_cell_formula_units_Z 28
_cell_length_a 19.310313
_cell_length_b 8.965615
_cell_length_c 14.779075
_cell_angle_alpha 90.000000
_cell_angle_beta 40.617139
_cell_angle_gamma 90.000000
_cell_volume 1665.706631
_symmetry_space_group_name_H-M "P 2/M"
_symmetry_group_IT_number 10
_symmetry_cell_setting 'monoclinic'
loop_
_space_group_symop_operation_xyz
x,y,z
-x,y,-z
-x,-y,-z
x,-y,z
loop_
_atom_site_type_symbol
_atom_site_label
_atom_site_fract_x
_atom_site_fract_y
_atom_site_fract_z
Si Si1 0.119221 0.678790 0.196710
Si Si2 0.497263 0.820278 0.897528
Si Si3 0.492073 0.679714 0.403503
Si Si4 0.875416 0.322161 0.433359
Si Si5 0.128054 0.832769 0.375384
Si Si6 0.339017 0.321508 0.912482
Si Si7 0.668348 0.178223 0.576306
O O1 0.115515 0.500000 0.213965
O O2 0.154659 0.755526 0.254956
O O3 0.998296 0.724184 0.293240
O O4 0.214038 0.714958 0.033994
O O5 0.399388 0.754356 0.936913
O O6 0.601733 0.780278 0.733937
O O7 0.489056 0.000000 0.905658
O O8 0.500000 0.771215 0.000000
O O9 0.500000 0.724614 0.500000
O O10 0.478174 0.500000 0.414025
O O11 0.597761 0.717741 0.241232
O O12 0.397342 0.756600 0.442456
O O13 0.868700 0.500000 0.433118
O O14 0.848541 0.268339 0.561718
O O15 0.786070 0.245089 0.461952
O O16 0.000000 0.845279 0.500000
O O17 0.173528 0.000000 0.339434
O O18 0.348048 0.500000 0.915822
O O19 0.672154 0.000000 0.568875
#
# Coordination Sequence:
#
# PCOD9144828 Si02
#       7
#     4   4   4   4   4   4   4
#     4   9  18  31  46  68  98 132 166 203 242 283
#     4   9  19  33  46  65  96 131 162 198 243 287
#     4   9  18  35  58  79  98 122 156 202 254 304
#     4  10  19  31  47  67  98 134 168 203 240 283
#     4   9  17  28  42  62  90 129 173 206 233 271
#     4   9  18  32  50  74  98 123 162 202 242 294
#     4  10  20  33  50  74 101 128 164 204 245 293
#
# _framework density 16.809681999999999
#
# number of rings (size 3 to 8) (size 9 to 14) (size 15 to 20)
#    0.000    2.714    0.000    1.286    2.000    4.000 
#    0.000    0.000    0.000    0.857    0.000    6.000 
#    0.000    0.000    0.000    0.000    0.000    0.000 
#
# Total GULP energy -156016.395373 kJ/mol
# GULP energy per Si atom -5572.014120 kJ/mol
# Density = 1.677142 g / cm^3
# Si number density = 16.809682 Si / 1000 Ang^3
#
#
#
# Elastic Constant Matrix: (Units=GPa)
#
#
# Indices 1 2 3 4 5 6 
#
# 1 110.6885 35.7916 82.6887 0.0000 1.9312 0.0000
# 2 35.7916 28.0981 34.8742 0.0000 -3.6004 0.0000
# 3 82.6887 34.8742 112.9052 0.0000 -9.9169 0.0000
# 4 0.0000 0.0000 0.0000 12.7267 0.0000 3.1453
# 5 1.9312 -3.6004 -9.9169 0.0000 28.5920 0.0000
# 6 0.0000 0.0000 0.0000 3.1453 0.0000 10.0964
#
#
#
# Elastic Compliance Matrix: (Units=1/GPa)
#
#
# Indices 1 2 3 4 5 6 
#
# 1 0.024510 -0.014762 -0.014130 0.000000 -0.008415 0.000000
# 2 -0.014762 0.066642 -0.009230 0.000000 0.006188 0.000000
# 3 -0.014130 -0.009230 0.022731 0.000000 0.007676 0.000000
# 4 0.000000 0.000000 0.000000 0.085129 0.000000 -0.026520
# 5 -0.008415 0.006188 0.007676 0.000000 0.038985 0.000000
# 6 0.000000 0.000000 0.000000 -0.026520 0.000000 0.107306
#
#
# Mechanical properties :
#
#
# Convention : Reuss Voigt Hill
#
# Bulk Modulus (GPa) = 26.56807 62.04455 44.30631
# Shear Modulus (GPa) = 11.51827 16.83884 14.17856
#
# Velocity S-wave (km/s) = 2.62050 3.16845 2.90742
# Velocity P-wave (km/s) = 4.99956 7.09758 6.13886
#
# Compressibility (1/GPa) = 0.03763917
#
# Stress axis : x y z
#
# Youngs Moduli (GPa) = 40.79916 15.00563 43.99366
#
# Poissons Ratio (x) = 0.22151 0.62164
# Poissons Ratio (y) = 0.60228 0.40604
# Poissons Ratio (z) = 0.57650 0.13849
#
# Static dielectric constant tensor:
#      x y z
#    x 1.546670 0.000000 -0.022820 
#    y 0.000000 1.564980 0.000000 
#    z -0.022820 0.000000 1.598090 
# 
# From -- ./inp_files/54992.got.cif
#   From: 2010.05.17/outbox.cif.g08.bks.cpg/sg10_28_cif.got.tgz:54992.got - 2010.06.03 11:33:40.
