data_PCOD9144259
_publ_section_title
;
Structure prediction by ZEFSAII (Michael W. Deem and Ramdas Pophale) SiO2 
 PCOD9144259
Probable space group: P 2/M
;
_chemical_formula_sum "Si O2"
_cell_formula_units_Z 24
_cell_length_a 23.913659
_cell_length_b 8.628699
_cell_length_c 6.804557
_cell_angle_alpha 90.000000
_cell_angle_beta 144.673544
_cell_angle_gamma 90.000000
_cell_volume 811.886164
_symmetry_space_group_name_H-M "P 2/M"
_symmetry_group_IT_number 10
_symmetry_cell_setting 'monoclinic'
loop_
_space_group_symop_operation_xyz
x,y,z
-x,y,-z
-x,-y,-z
x,-y,z
loop_
_atom_site_type_symbol
_atom_site_label
_atom_site_fract_x
_atom_site_fract_y
_atom_site_fract_z
Si Si1 0.693914 0.000000 0.749509
Si Si2 0.467245 0.666245 0.175967
Si Si3 0.965594 0.000000 0.623560
Si Si4 0.685283 0.665453 0.750457
Si Si5 0.813052 0.000000 0.677084
Si Si6 0.525662 0.000000 0.807817
Si Si7 0.186072 0.667678 0.268520
Si Si8 0.968320 0.668517 0.681502
O O1 0.703065 0.163698 0.887955
O O2 0.766755 0.000000 0.769488
O O3 0.577470 0.000000 0.373807
O O4 0.500000 0.666798 0.500000
O O5 0.417236 0.500000 0.000503
O O6 0.571552 0.663888 0.369906
O O7 0.422959 0.835129 0.011006
O O8 0.916367 0.833515 0.511171
O O9 0.000000 0.000000 0.500000
O O10 0.070366 0.000000 0.029686
O O11 0.700746 0.500000 0.901020
O O12 0.748394 0.662953 0.735545
O O13 0.789516 0.824469 0.546051
O O14 0.500000 0.000000 0.500000
O O15 0.192098 0.500000 0.387183
O O16 0.073416 0.681390 0.877918
O O17 0.924452 0.500000 0.508389
O O18 0.000000 0.662311 0.000000
#
# Coordination Sequence:
#
# PCOD9144259 Si02
#       8
#     2   4   2   4   2   2   4   4
#     4   8  12  18  27  37  52  75 102 133 164 197
#     4   8  12  16  21  30  46  69  96 126 157 189
#     4  10  19  29  42  60  81 103 128 163 203 238
#     4   8  12  17  25  37  53  73  99 133 166 195
#     4   8  14  23  33  46  64  87 114 143 176 214
#     4   8  12  16  22  33  48  67  94 129 162 189
#     4   8  13  21  33  48  64  83 110 145 179 210
#     4   9  17  29  44  60  78 101 129 162 198 236
#
# _framework density 29.560793
#
# number of rings (size 3 to 8) (size 9 to 14) (size 15 to 20)
#    0.000    3.667    0.000    0.250    0.000    0.333 
#    0.000    0.000    0.000    0.000    0.000    0.000 
#    0.000    0.000    0.000    0.000    0.000    0.000 
#
# Total GULP energy -134037.408947 kJ/mol
# GULP energy per Si atom -5584.892039 kJ/mol
# Density = 2.949351 g / cm^3
# Si number density = 29.560793 Si / 1000 Ang^3
#
#
#
# Elastic Constant Matrix: (Units=GPa)
#
#
# Indices 1 2 3 4 5 6 
#
# 1 103.7391 10.0893 35.2206 0.0000 24.5170 0.0000
# 2 10.0893 491.0410 30.1085 0.0000 -24.6791 0.0000
# 3 35.2206 30.1085 108.4269 0.0000 31.3976 0.0000
# 4 0.0000 0.0000 0.0000 -11.6253 0.0000 1.0842
# 5 24.5170 -24.6791 31.3976 0.0000 57.5878 0.0000
# 6 0.0000 0.0000 0.0000 1.0842 0.0000 23.9715
#
#
#
# Elastic Compliance Matrix: (Units=1/GPa)
#
#
# Indices 1 2 3 4 5 6 
#
# 1 0.011384 -0.000252 -0.002604 0.000000 -0.003534 0.000000
# 2 -0.000252 0.002181 -0.000980 0.000000 0.001576 0.000000
# 3 -0.002604 -0.000980 0.012043 0.000000 -0.005877 0.000000
# 4 0.000000 0.000000 0.000000 -0.085658 0.000000 0.003874
# 5 -0.003534 0.001576 -0.005877 0.000000 0.022749 0.000000
# 6 0.000000 0.000000 0.000000 0.003874 0.000000 0.041541
#
#
# Mechanical properties :
#
#
# Convention : Reuss Voigt Hill
#
# Bulk Modulus (GPa) = 55.75856 94.89375 75.32616
# Shear Modulus (GPa) = 279.46774 55.83938 167.65356
#
# Velocity S-wave (km/s) = 9.73372 4.35094 7.53910
# Velocity P-wave (km/s) = 12.05115 7.57706 10.06584
#
# Compressibility (1/GPa) = 0.01793447
#
# Stress axis : x y z
#
# Youngs Moduli (GPa) = 87.84607 458.50602 83.03643
#
# Poissons Ratio (x) = 0.11547 0.21626
# Poissons Ratio (y) = 0.02212 0.08140
# Poissons Ratio (z) = 0.22878 0.44947
#
# Static dielectric constant tensor:
#      x y z
#    x 2.387240 0.000000 -0.115680 
#    y 0.000000 2.277130 0.000000 
#    z -0.115680 0.000000 2.293790 
# 
# From -- ./inp_files/35672.got.cif
#   From: 2010.05.17/outbox.cif.g08.bks.cpg/sg10_18_cif.got.tgz:35672.got - 2010.06.03 11:33:40.
