data_PCOD9144270
_publ_section_title
;
Structure prediction by ZEFSAII (Michael W. Deem and Ramdas Pophale) SiO2 
 PCOD9144270
Probable space group: P 2/M
;
_chemical_formula_sum "Si O2"
_cell_formula_units_Z 32
_cell_length_a 19.925698
_cell_length_b 7.303309
_cell_length_c 19.543334
_cell_angle_alpha 90.000000
_cell_angle_beta 31.449402
_cell_angle_gamma 90.000000
_cell_volume 1483.851694
_symmetry_space_group_name_H-M "P 2/M"
_symmetry_group_IT_number 10
_symmetry_cell_setting 'monoclinic'
loop_
_space_group_symop_operation_xyz
x,y,z
-x,y,-z
-x,-y,-z
x,-y,z
loop_
_atom_site_type_symbol
_atom_site_label
_atom_site_fract_x
_atom_site_fract_y
_atom_site_fract_z
Si Si1 0.802044 0.276701 0.803740
Si Si2 0.939412 0.714519 0.476062
Si Si3 0.570791 0.717162 0.088995
Si Si4 0.415566 0.781553 0.766623
Si Si5 0.315705 0.276007 0.240186
Si Si6 0.858711 0.777705 0.204863
Si Si7 0.584416 0.776619 0.492775
Si Si8 0.142097 0.222450 0.954915
O O1 0.810117 0.500000 0.796938
O O2 0.727632 0.225354 0.798441
O O3 0.949063 0.210408 0.669904
O O4 0.711312 0.214660 0.944224
O O5 0.925086 0.500000 0.471939
O O6 0.795824 0.787317 0.610367
O O7 0.000000 0.725335 0.500000
O O8 0.574406 0.500000 0.073893
O O9 0.542306 0.746213 0.192977
O O10 0.455073 0.787265 0.142531
O O11 0.512503 0.714265 0.623856
O O12 0.269908 0.712904 0.881733
O O13 0.409783 0.000000 0.762484
O O14 0.315126 0.500000 0.241305
O O15 0.731891 0.716137 0.355109
O O16 0.845393 0.728787 0.136210
O O17 0.858560 0.000000 0.207398
O O18 0.001445 0.717021 0.102938
O O19 0.500000 0.723978 0.500000
O O20 0.586223 0.000000 0.491649
O O21 0.140717 0.000000 0.958659
#
# Coordination Sequence:
#
# PCOD9144270 Si02
#       8
#     4   4   4   4   4   4   4   4
#     4   8  13  23  41  63  83 106 142 182 214 243
#     4   7  10  18  35  60  84 101 126 173 221 246
#     4  10  19  29  42  62  88 116 142 171 210 254
#     4  10  19  30  43  61  88 116 140 170 212 256
#     4   8  13  23  41  63  84 107 140 182 216 242
#     4   8  12  20  38  64  85  99 129 176 216 241
#     4   9  14  23  41  64  84 104 135 175 212 245
#     4   8  13  22  38  61  85 104 127 170 216 247
#
# _framework density 21.565498000000002
#
# number of rings (size 3 to 8) (size 9 to 14) (size 15 to 20)
#    0.000    3.500    1.250    2.625    0.000    1.500 
#    0.000    1.250    0.000    1.875    0.000    1.750 
#    0.000    3.000    0.000    0.000    0.000    0.000 
#
# Total GULP energy -178395.175378 kJ/mol
# GULP energy per Si atom -5574.849231 kJ/mol
# Density = 2.151641 g / cm^3
# Si number density = 21.565498 Si / 1000 Ang^3
#
#
#
# Elastic Constant Matrix: (Units=GPa)
#
#
# Indices 1 2 3 4 5 6 
#
# 1 11.7466 -6.6988 15.4633 0.0000 6.4724 0.0000
# 2 -6.6988 86.7900 4.8308 0.0000 -3.1611 0.0000
# 3 15.4633 4.8308 169.4959 0.0000 4.6433 0.0000
# 4 0.0000 0.0000 0.0000 -19.2459 0.0000 7.0896
# 5 6.4724 -3.1611 4.6433 0.0000 27.5024 0.0000
# 6 0.0000 0.0000 0.0000 7.0896 0.0000 -5.7801
#
#
#
# Elastic Compliance Matrix: (Units=1/GPa)
#
#
# Indices 1 2 3 4 5 6 
#
# 1 0.117334 0.008722 -0.010272 0.000000 -0.024876 0.000000
# 2 0.008722 0.012242 -0.001132 0.000000 -0.000454 0.000000
# 3 -0.010272 -0.001132 0.006838 0.000000 0.001133 0.000000
# 4 0.000000 0.000000 0.000000 -0.094786 0.000000 -0.116260
# 5 -0.024876 -0.000454 0.001133 0.000000 0.041971 0.000000
# 6 0.000000 0.000000 0.000000 -0.116260 0.000000 -0.315608
#
#
# Mechanical properties :
#
#
# Convention : Reuss Voigt Hill
#
# Bulk Modulus (GPa) = 7.63068 32.80257 20.21662
# Shear Modulus (GPa) = -27.32799 17.45777 -4.93511
#
# Velocity S-wave (km/s) = -3.56365 2.84830 -1.51440
# Velocity P-wave (km/s) = 3.65879 5.10497 2.51734
#
# Compressibility (1/GPa) = 0.13104987
#
# Stress axis : x y z
#
# Youngs Moduli (GPa) = 8.52271 81.68779 146.23786
#
# Poissons Ratio (x) = -0.71248 1.50209
# Poissons Ratio (y) = -0.07433 0.16557
# Poissons Ratio (z) = 0.08754 0.09248
#
# Static dielectric constant tensor:
#      x y z
#    x 1.725070 0.000000 -0.012310 
#    y 0.000000 1.854860 0.000000 
#    z -0.012310 0.000000 1.826600 
# 
# From -- ./inp_files/55556.got.cif
#   From: 2010.05.17/outbox.cif.g08.bks.cpg/sg10_28_cif.got.tgz:55556.got - 2010.06.03 11:33:40.
