data_PCOD9144908
_publ_section_title
;
Structure prediction by ZEFSAII (Michael W. Deem and Ramdas Pophale) SiO2 
 PCOD9144908
Probable space group: P 2/M
;
_chemical_formula_sum "Si O2"
_cell_formula_units_Z 30
_cell_length_a 5.229257
_cell_length_b 20.224663
_cell_length_c 12.711593
_cell_angle_alpha 90.000000
_cell_angle_beta 74.747259
_cell_angle_gamma 90.000000
_cell_volume 1297.021524
_symmetry_space_group_name_H-M "P 2/M"
_symmetry_group_IT_number 10
_symmetry_cell_setting 'monoclinic'
loop_
_space_group_symop_operation_xyz
x,y,z
-x,y,-z
-x,-y,-z
x,-y,z
loop_
_atom_site_type_symbol
_atom_site_label
_atom_site_fract_x
_atom_site_fract_y
_atom_site_fract_z
Si Si1 0.296026 0.209590 0.332338
Si Si2 0.002223 0.070588 0.201939
Si Si3 0.405062 0.927770 0.352495
Si Si4 0.297560 0.644253 0.425405
Si Si5 0.701630 0.500000 0.576064
Si Si6 0.575986 0.576950 0.865611
Si Si7 0.929573 0.647770 0.126589
Si Si8 0.882483 0.794566 0.196029
O O1 0.317791 0.144444 0.405752
O O2 0.323683 0.283638 0.371465
O O3 0.564315 0.201989 0.233737
O O4 0.022972 0.206515 0.296180
O O5 0.720405 0.072702 0.295749
O O6 0.997632 0.137730 0.136226
O O7 0.241808 0.071747 0.259881
O O8 0.011146 0.000000 0.144754
O O9 0.341935 0.000000 0.410046
O O10 0.500000 0.644406 0.500000
O O11 0.334715 0.571937 0.367048
O O12 0.000000 0.643126 0.500000
O O13 0.500000 0.500000 0.500000
O O14 0.000000 0.500000 0.500000
O O15 0.552190 0.500000 0.841442
O O16 0.369080 0.624273 0.829701
O O17 0.870176 0.606229 0.824313
O O18 0.500000 0.580478 0.000000
O O19 0.964011 0.725372 0.138061
O O20 0.000000 0.631122 0.000000
#
# Coordination Sequence:
#
# PCOD9144908 Si02
#       8
#     4   4   4   4   2   4   4   4
#     4  10  19  31  50  72  98 126 154 199 242 282
#     4   8  14  25  42  64  88 118 159 195 224 272
#     4   8  14  25  42  65  90 120 157 189 223 272
#     4  10  19  33  53  74  93 121 159 195 232 281
#     4   8  16  30  50  70  86 114 153 188 221 268
#     4   9  17  30  49  68  86 117 162 201 228 269
#     4  10  19  31  49  71  95 126 163 201 237 284
#     4  10  19  31  48  71  99 128 155 196 247 283
#
# _framework density 23.129916999999999
#
# number of rings (size 3 to 8) (size 9 to 14) (size 15 to 20)
#    0.000    2.800    0.000    2.000    0.000    1.600 
#    0.000    0.000    8.800    1.200    0.000    0.000 
#    0.000   13.867    0.000    0.000    0.000    2.133 
#
# Total GULP energy -167181.364793 kJ/mol
# GULP energy per Si atom -5572.712160 kJ/mol
# Density = 2.307727 g / cm^3
# Si number density = 23.129917 Si / 1000 Ang^3
#
#
#
# Elastic Constant Matrix: (Units=GPa)
#
#
# Indices 1 2 3 4 5 6 
#
# 1 131.5039 11.6265 19.4834 0.0000 30.2873 0.0000
# 2 11.6265 171.7466 13.8301 0.0000 36.2523 0.0000
# 3 19.4834 13.8301 25.4507 0.0000 8.8360 0.0000
# 4 0.0000 0.0000 0.0000 32.9432 0.0000 0.7038
# 5 30.2873 36.2523 8.8360 0.0000 11.0247 0.0000
# 6 0.0000 0.0000 0.0000 0.7038 0.0000 33.6806
#
#
#
# Elastic Compliance Matrix: (Units=1/GPa)
#
#
# Indices 1 2 3 4 5 6 
#
# 1 -0.006072 -0.013984 -0.013175 0.000000 0.073225 0.000000
# 2 -0.013984 -0.007156 -0.009579 0.000000 0.069628 0.000000
# 3 -0.013175 -0.009579 0.043064 0.000000 0.033177 0.000000
# 4 0.000000 0.000000 0.000000 0.030369 0.000000 -0.000635
# 5 0.073225 0.069628 0.033177 0.000000 -0.366003 0.000000
# 6 0.000000 0.000000 0.000000 -0.000635 0.000000 0.029704
#
#
# Mechanical properties :
#
#
# Convention : Reuss Voigt Hill
#
# Bulk Modulus (GPa) = -22.91455 46.50901 11.79723
# Shear Modulus (GPa) = -23.02384 34.44714 5.71165
#
# Velocity S-wave (km/s) = -3.15844 3.86332 1.57313
# Velocity P-wave (km/s) = 4.81969 6.32864 2.90020
#
# Compressibility (1/GPa) = -0.04364040
#
# Stress axis : x y z
#
# Youngs Moduli (GPa) = -164.68912 -139.73438 23.22126
#
# Poissons Ratio (x) = -1.95409 0.30593
# Poissons Ratio (y) = -2.30306 0.22244
# Poissons Ratio (z) = -2.16972 -1.33852
#
# Static dielectric constant tensor:
#      x y z
#    x 1.818420 0.000000 -0.006170 
#    y 0.000000 1.950190 0.000000 
#    z -0.006170 0.000000 1.941260 
# 
# From -- ./inp_files/11622.got.cif
#   From: 2010.05.17/outbox.cif.g08.bks.cpg/sg10_6_cif.got.tgz:11622.got - 2010.06.03 11:33:40.
