data_PCOD9144845
_publ_section_title
;
Structure prediction by ZEFSAII (Michael W. Deem and Ramdas Pophale) SiO2 
 PCOD9144845
Probable space group: P 2/M
;
_chemical_formula_sum "Si O2"
_cell_formula_units_Z 32
_cell_length_a 17.191606
_cell_length_b 8.100617
_cell_length_c 12.301915
_cell_angle_alpha 90.000000
_cell_angle_beta 82.785241
_cell_angle_gamma 90.000000
_cell_volume 1699.632427
_symmetry_space_group_name_H-M "P 2/M"
_symmetry_group_IT_number 10
_symmetry_cell_setting 'monoclinic'
loop_
_space_group_symop_operation_xyz
x,y,z
-x,y,-z
-x,-y,-z
x,-y,z
loop_
_atom_site_type_symbol
_atom_site_label
_atom_site_fract_x
_atom_site_fract_y
_atom_site_fract_z
Si Si1 0.414743 0.698240 0.244845
Si Si2 0.256194 0.799225 0.397836
Si Si3 0.759593 0.804698 0.124763
Si Si4 0.547182 0.301449 0.379973
Si Si5 0.724054 0.194299 0.365172
Si Si6 0.681642 0.696300 0.933544
Si Si7 0.084110 0.305618 0.023332
Si Si8 0.837013 0.192033 0.785301
O O1 0.420321 0.500000 0.245965
O O2 0.339123 0.745751 0.330884
O O3 0.493046 0.759349 0.289834
O O4 0.393951 0.746248 0.124296
O O5 0.250494 0.737233 0.522144
O O6 0.186269 0.743746 0.329865
O O7 0.255920 0.000000 0.397003
O O8 0.758407 0.735730 0.247138
O O9 0.691778 0.731036 0.058906
O O10 0.843327 0.773079 0.054043
O O11 0.745831 0.000000 0.131337
O O12 0.500000 0.272895 0.500000
O O13 0.440677 0.500000 0.631314
O O14 0.630759 0.216218 0.372273
O O15 0.743697 0.000000 0.364650
O O16 0.693319 0.500000 0.915529
O O17 0.754651 0.788724 0.864489
O O18 0.087143 0.500000 0.000192
O O19 0.100286 0.278959 0.148545
O O20 0.000000 0.240383 0.000000
O O21 0.857838 0.000000 0.774706
#
# Coordination Sequence:
#
# PCOD9144845 Si02
#       8
#     4   4   4   4   4   4   4   4
#     4   9  17  29  45  68  94 121 160 208 251 287
#     4   9  17  29  46  69  96 126 161 199 239 281
#     4  10  20  34  51  72  99 128 162 198 234 285
#     4  10  19  31  47  69  96 126 166 211 248 287
#     4  10  21  34  48  69  98 132 165 200 243 288
#     4   9  16  28  47  67  92 125 159 199 245 288
#     4  10  20  34  54  79 103 125 152 190 235 283
#     4   9  16  27  47  74  99 123 155 194 233 278
#
# _framework density 18.827598999999999
#
# number of rings (size 3 to 8) (size 9 to 14) (size 15 to 20)
#    0.000    2.500    1.250    3.000    0.000    3.750 
#    0.000    0.625    0.000    4.500    0.000    5.250 
#    0.000    0.000    0.000    0.000    0.000    0.000 
#
# Total GULP energy -178287.539665 kJ/mol
# GULP energy per Si atom -5571.485615 kJ/mol
# Density = 1.878475 g / cm^3
# Si number density = 18.827599 Si / 1000 Ang^3
#
#
#
# Elastic Constant Matrix: (Units=GPa)
#
#
# Indices 1 2 3 4 5 6 
#
# 1 50.7312 -5.0297 42.0691 0.0000 29.4543 0.0000
# 2 -5.0297 6.6461 -4.1234 0.0000 -0.6598 0.0000
# 3 42.0691 -4.1234 137.2973 0.0000 30.2193 0.0000
# 4 0.0000 0.0000 0.0000 17.4510 0.0000 6.9002
# 5 29.4543 -0.6598 30.2193 0.0000 30.4461 0.0000
# 6 0.0000 0.0000 0.0000 6.9002 0.0000 14.3403
#
#
#
# Elastic Compliance Matrix: (Units=1/GPa)
#
#
# Indices 1 2 3 4 5 6 
#
# 1 0.054717 0.033373 -0.005466 0.000000 -0.046786 0.000000
# 2 0.033373 0.173738 0.001624 0.000000 -0.030133 0.000000
# 3 -0.005466 0.001624 0.010026 0.000000 -0.004628 0.000000
# 4 0.000000 0.000000 0.000000 0.070767 0.000000 -0.034052
# 5 -0.046786 -0.030133 -0.004628 0.000000 0.082047 0.000000
# 6 0.000000 0.000000 0.000000 -0.034052 0.000000 0.086119
#
#
# Mechanical properties :
#
#
# Convention : Reuss Voigt Hill
#
# Bulk Modulus (GPa) = 3.36085 28.94518 16.15301
# Shear Modulus (GPa) = 9.66127 23.23140 16.44633
#
# Velocity S-wave (km/s) = 2.26773 3.51650 2.95875
# Velocity P-wave (km/s) = 2.94036 5.64756 4.50226
#
# Compressibility (1/GPa) = 0.29754389
#
# Stress axis : x y z
#
# Youngs Moduli (GPa) = 18.27600 5.75580 99.74425
#
# Poissons Ratio (x) = -0.19209 0.54518
# Poissons Ratio (y) = -0.60993 -0.16201
# Poissons Ratio (z) = 0.09989 -0.00935
#
# Static dielectric constant tensor:
#      x y z
#    x 1.638430 0.000000 0.042180 
#    y 0.000000 1.656680 0.000000 
#    z 0.042180 0.000000 1.723200 
# 
# From -- ./inp_files/52802.got.cif
#   From: 2010.05.17/outbox.cif.g08.bks.cpg/sg10_27_cif.got.tgz:52802.got - 2010.06.03 11:33:40.
