data_PCOD9144854
_publ_section_title
;
Structure prediction by ZEFSAII (Michael W. Deem and Ramdas Pophale) SiO2 
 PCOD9144854
Probable space group: P 2/M
;
_chemical_formula_sum "Si O2"
_cell_formula_units_Z 32
_cell_length_a 12.821936
_cell_length_b 8.812441
_cell_length_c 24.390229
_cell_angle_alpha 90.000000
_cell_angle_beta 46.079763
_cell_angle_gamma 90.000000
_cell_volume 1985.102020
_symmetry_space_group_name_H-M "P 2/M"
_symmetry_group_IT_number 10
_symmetry_cell_setting 'monoclinic'
loop_
_space_group_symop_operation_xyz
x,y,z
-x,y,-z
-x,-y,-z
x,-y,z
loop_
_atom_site_type_symbol
_atom_site_label
_atom_site_fract_x
_atom_site_fract_y
_atom_site_fract_z
Si Si1 0.874530 0.824830 0.499123
Si Si2 0.767554 0.818769 0.816823
Si Si3 0.617127 0.182532 0.186867
Si Si4 0.663763 0.681057 0.659174
Si Si5 0.090743 0.318926 0.339099
Si Si6 0.453195 0.318664 0.906713
Si Si7 0.055990 0.184335 0.919810
Si Si8 0.196163 0.182794 0.070231
O O1 0.739401 0.742062 0.576561
O O2 0.000000 0.821128 0.500000
O O3 0.946949 0.743455 0.420868
O O4 0.841601 0.000000 0.499312
O O5 0.874836 0.756441 0.731396
O O6 0.611664 0.742843 0.863792
O O7 0.817341 0.785046 0.860520
O O8 0.752901 0.000000 0.816334
O O9 0.488605 0.242484 0.271872
O O10 0.592005 0.250045 0.135512
O O11 0.777274 0.229257 0.148266
O O12 0.611392 0.000000 0.185577
O O13 0.649425 0.500000 0.662287
O O14 0.774262 0.717252 0.669196
O O15 0.083785 0.500000 0.336778
O O16 0.455861 0.500000 0.902537
O O17 0.336889 0.261985 0.993468
O O18 0.943584 0.231559 0.914009
O O19 0.053995 0.000000 0.921233
O O20 0.000000 0.235258 0.000000
O O21 0.213490 0.000000 0.057465
#
# Coordination Sequence:
#
# PCOD9144854 Si02
#       8
#     4   4   4   4   4   4   4   4
#     4   9  17  29  47  71 100 134 171 204 239 295
#     4  11  22  34  52  74 100 134 174 211 246 300
#     4  11  20  32  54  76  99 133 172 210 252 302
#     4  10  19  31  47  72 105 135 165 205 251 298
#     4  10  19  31  48  71 104 138 166 201 249 299
#     4  12  23  34  49  72 103 135 168 209 256 303
#     4   9  17  33  56  76  95 125 168 217 261 298
#     4  10  21  38  55  73  96 130 174 216 255 299
#
# _framework density 16.120077999999999
#
# number of rings (size 3 to 8) (size 9 to 14) (size 15 to 20)
#    0.000    1.750    2.500    3.375    0.000    5.000 
#    0.000    1.875    0.000    0.000    0.000    0.875 
#    0.000    7.000    0.000    0.000    0.000    0.000 
#
# Total GULP energy -178635.932827 kJ/mol
# GULP energy per Si atom -5582.372901 kJ/mol
# Density = 1.608339 g / cm^3
# Si number density = 16.120078 Si / 1000 Ang^3
#
#
#
# Elastic Constant Matrix: (Units=GPa)
#
#
# Indices 1 2 3 4 5 6 
#
# 1 54.2000 30.2065 55.8925 0.0000 11.8159 0.0000
# 2 30.2065 62.2945 61.5473 0.0000 2.1577 0.0000
# 3 55.8925 61.5473 168.2335 0.0000 -1.0718 0.0000
# 4 0.0000 0.0000 0.0000 -27.0360 0.0000 22.5440
# 5 11.8159 2.1577 -1.0718 0.0000 14.6237 0.0000
# 6 0.0000 0.0000 0.0000 22.5440 0.0000 -6.1963
#
#
#
# Elastic Compliance Matrix: (Units=1/GPa)
#
#
# Indices 1 2 3 4 5 6 
#
# 1 0.041645 -0.008084 -0.011090 0.000000 -0.033269 0.000000
# 2 -0.008084 0.026993 -0.007177 0.000000 0.002023 0.000000
# 3 -0.011090 -0.007177 0.012324 0.000000 0.010923 0.000000
# 4 0.000000 0.000000 0.000000 0.018187 0.000000 0.066168
# 5 -0.033269 0.002023 0.010923 0.000000 0.095766 0.000000
# 6 0.000000 0.000000 0.000000 0.066168 0.000000 0.079352
#
#
# Mechanical properties :
#
#
# Convention : Reuss Voigt Hill
#
# Bulk Modulus (GPa) = 35.38557 64.44672 49.91614
# Shear Modulus (GPa) = 14.86380 5.41705 10.14042
#
# Velocity S-wave (km/s) = 3.03985 1.83514 2.51082
# Velocity P-wave (km/s) = 5.85831 6.67505 6.27997
#
# Compressibility (1/GPa) = 0.02826011
#
# Stress axis : x y z
#
# Youngs Moduli (GPa) = 24.01258 37.04634 81.14400
#
# Poissons Ratio (x) = 0.29948 0.89990
# Poissons Ratio (y) = 0.19412 0.58234
# Poissons Ratio (z) = 0.26630 0.26587
#
# Static dielectric constant tensor:
#      x y z
#    x 1.520530 0.000000 -0.000590 
#    y 0.000000 1.539130 0.000000 
#    z -0.000590 0.000000 1.531360 
# 
# From -- ./inp_files/55263.got.cif
#   From: 2010.05.17/outbox.cif.g08.bks.cpg/sg10_28_cif.got.tgz:55263.got - 2010.06.03 11:33:40.
