data_PCOD9144798
_publ_section_title
;
Structure prediction by ZEFSAII (Michael W. Deem and Ramdas Pophale) SiO2 
 PCOD9144798
Probable space group: P 2/M
;
_chemical_formula_sum "Si O2"
_cell_formula_units_Z 28
_cell_length_a 19.490759
_cell_length_b 8.872466
_cell_length_c 11.585380
_cell_angle_alpha 90.000000
_cell_angle_beta 54.785871
_cell_angle_gamma 90.000000
_cell_volume 1636.842469
_symmetry_space_group_name_H-M "P 2/M"
_symmetry_group_IT_number 10
_symmetry_cell_setting 'monoclinic'
loop_
_space_group_symop_operation_xyz
x,y,z
-x,y,-z
-x,-y,-z
x,-y,z
loop_
_atom_site_type_symbol
_atom_site_label
_atom_site_fract_x
_atom_site_fract_y
_atom_site_fract_z
Si Si1 0.401348 0.164221 0.609935
Si Si2 0.508503 0.680072 0.855516
Si Si3 0.342740 0.325068 0.877518
Si Si4 0.817989 0.178536 0.059657
Si Si5 0.178177 0.318704 0.685165
Si Si6 0.008977 0.671941 0.130526
Si Si7 0.669437 0.827432 0.578611
O O1 0.500000 0.167202 0.500000
O O2 0.374677 0.300401 0.715982
O O3 0.364237 0.169761 0.519623
O O4 0.377852 0.000000 0.685680
O O5 0.514900 0.500000 0.827635
O O6 0.421532 0.731329 0.878008
O O7 0.593496 0.755820 0.725474
O O8 0.500000 0.705271 0.000000
O O9 0.328310 0.500000 0.918750
O O10 0.254615 0.237621 0.955911
O O11 0.806634 0.248551 0.200830
O O12 0.815122 0.000000 0.074129
O O13 0.909136 0.230000 0.926009
O O14 0.181494 0.500000 0.694651
O O15 0.083060 0.276085 0.740678
O O16 0.244526 0.264002 0.524883
O O17 0.023540 0.500000 0.155254
O O18 0.000000 0.668215 0.000000
O O19 0.684927 0.000000 0.600596
#
# Coordination Sequence:
#
# PCOD9144798 Si02
#       7
#     4   4   4   4   4   4   4
#     4  10  19  31  46  69 102 131 159 201 250 297
#     4  10  23  41  56  72  97 131 173 217 256 299
#     4  11  21  32  51  73  97 132 171 208 250 300
#     4  11  20  29  45  71 104 137 168 205 248 297
#     4  10  19  31  48  71 102 138 172 205 243 293
#     4   8  16  30  45  65  98 137 172 203 238 289
#     4  11  21  32  51  77 104 134 167 207 252 301
#
# _framework density 17.106104999999999
#
# number of rings (size 3 to 8) (size 9 to 14) (size 15 to 20)
#    0.000    1.857    2.857    3.429    0.000    4.857 
#    0.000    0.000    0.000    0.000    0.000    1.000 
#    0.000    8.000    0.000    0.000    0.000    0.000 
#
# Total GULP energy -155963.005044 kJ/mol
# GULP energy per Si atom -5570.107323 kJ/mol
# Density = 1.706717 g / cm^3
# Si number density = 17.106105 Si / 1000 Ang^3
#
#
#
# Elastic Constant Matrix: (Units=GPa)
#
#
# Indices 1 2 3 4 5 6 
#
# 1 81.0391 45.8120 64.1707 0.0000 -39.9402 0.0000
# 2 45.8120 78.6716 43.0770 0.0000 -21.6920 0.0000
# 3 64.1707 43.0770 73.6539 0.0000 -31.5608 0.0000
# 4 0.0000 0.0000 0.0000 229.9114 0.0000 -118.8407
# 5 -39.9402 -21.6920 -31.5608 0.0000 35.8431 0.0000
# 6 0.0000 0.0000 0.0000 -118.8407 0.0000 74.6186
#
#
#
# Elastic Compliance Matrix: (Units=1/GPa)
#
#
# Indices 1 2 3 4 5 6 
#
# 1 0.057465 -0.007023 -0.032667 0.000000 0.031020 0.000000
# 2 -0.007023 0.019723 -0.005870 0.000000 -0.001058 0.000000
# 3 -0.032667 -0.005870 0.045529 0.000000 0.000136 0.000000
# 4 0.000000 0.000000 0.000000 0.024606 0.000000 0.039188
# 5 0.031020 -0.001058 0.000136 0.000000 0.061945 0.000000
# 6 0.000000 0.000000 0.000000 0.039188 0.000000 0.075815
#
#
# Mechanical properties :
#
#
# Convention : Reuss Voigt Hill
#
# Bulk Modulus (GPa) = 31.64749 59.94267 45.79508
# Shear Modulus (GPa) = 12.92873 73.42827 43.17850
#
# Velocity S-wave (km/s) = 2.75216 6.55884 5.02955
# Velocity P-wave (km/s) = 5.35164 9.61642 7.78189
#
# Compressibility (1/GPa) = 0.03159808
#
# Stress axis : x y z
#
# Youngs Moduli (GPa) = 17.40176 50.70224 21.96380
#
# Poissons Ratio (x) = 0.35609 0.71749
# Poissons Ratio (y) = 0.12222 0.12892
# Poissons Ratio (z) = 0.56846 0.29760
#
# Static dielectric constant tensor:
#      x y z
#    x 1.661440 0.000000 -0.048270 
#    y 0.000000 1.625880 0.000000 
#    z -0.048270 0.000000 1.577610 
# 
# From -- ./inp_files/54673.got.cif
#   From: 2010.05.17/outbox.cif.g08.bks.cpg/sg10_28_cif.got.tgz:54673.got - 2010.06.03 11:33:40.
