data_PCOD9144544
_publ_section_title
;
Structure prediction by ZEFSAII (Michael W. Deem and Ramdas Pophale) SiO2 
 PCOD9144544
Probable space group: P 2/M
;
_chemical_formula_sum "Si O2"
_cell_formula_units_Z 32
_cell_length_a 21.806412
_cell_length_b 16.440479
_cell_length_c 14.792195
_cell_angle_alpha 90.000000
_cell_angle_beta 159.191170
_cell_angle_gamma 90.000000
_cell_volume 1883.938168
_symmetry_space_group_name_H-M "P 2/M"
_symmetry_group_IT_number 10
_symmetry_cell_setting 'monoclinic'
loop_
_space_group_symop_operation_xyz
x,y,z
-x,y,-z
-x,-y,-z
x,-y,z
loop_
_atom_site_type_symbol
_atom_site_label
_atom_site_fract_x
_atom_site_fract_y
_atom_site_fract_z
Si Si1 0.501062 0.160237 0.854996
Si Si2 0.368255 0.598056 0.398415
Si Si3 0.122572 0.098176 0.924792
Si Si4 0.458895 0.905765 0.285375
Si Si5 0.251079 0.904555 0.657573
Si Si6 0.017878 0.408406 0.134297
Si Si7 0.845075 0.846762 0.839555
Si Si8 0.691445 0.297818 0.511355
O O1 0.554906 0.112918 0.839267
O O2 0.338518 0.118569 0.682010
O O3 0.439597 0.247080 0.731289
O O4 0.654425 0.151690 0.138537
O O5 0.500000 0.619288 0.500000
O O6 0.375513 0.500000 0.423966
O O7 0.394081 0.645610 0.528633
O O8 0.172310 0.616892 0.096403
O O9 0.298027 0.128911 0.119412
O O10 0.093923 0.152753 0.973738
O O11 0.133301 0.000000 0.963182
O O12 0.953715 0.105613 0.629997
O O13 0.652539 0.882879 0.579873
O O14 0.442114 0.000000 0.277621
O O15 0.288820 0.000000 0.728731
O O16 0.053570 0.500000 0.214950
O O17 0.177342 0.349394 0.368906
O O18 0.000000 0.411384 0.000000
O O19 0.807379 0.765985 0.729133
O O20 0.000000 0.891507 0.000000
#
# Coordination Sequence:
#
# PCOD9144544 Si02
#       8
#     4   4   4   4   4   4   4   4
#     4  10  20  33  50  71  92 122 163 210 255 293
#     4   9  17  29  47  73 104 136 166 192 225 283
#     4  10  21  34  48  67  92 127 167 208 253 299
#     4  10  20  33  48  67  94 124 158 202 252 306
#     4  10  20  36  55  70  89 123 173 222 258 297
#     4   8  14  27  46  67  95 129 158 184 223 279
#     4  11  21  31  46  70 100 131 161 196 243 299
#     4  10  19  30  46  70 101 131 157 193 243 291
#
# _framework density 16.985695
#
# number of rings (size 3 to 8) (size 9 to 14) (size 15 to 20)
#    0.000    2.250    0.000    6.000    0.000    5.500 
#    0.000    1.875    0.000    0.000    0.000    7.000 
#    0.000    4.000    0.000   56.500    0.000    0.875 
#
# Total GULP energy -178177.607475 kJ/mol
# GULP energy per Si atom -5568.050234 kJ/mol
# Density = 1.694703 g / cm^3
# Si number density = 16.985695 Si / 1000 Ang^3
#
#
#
# Elastic Constant Matrix: (Units=GPa)
#
#
# Indices 1 2 3 4 5 6 
#
# 1 -1805.1079 318.2315 939.4145 0.0000 -221.5708 0.0000
# 2 318.2315 11.3495 -101.6331 0.0000 36.3964 0.0000
# 3 939.4145 -101.6331 -311.7950 0.0000 126.5407 0.0000
# 4 0.0000 0.0000 0.0000 56.2392 0.0000 -11.5217
# 5 -221.5708 36.3964 126.5407 0.0000 1.7470 0.0000
# 6 0.0000 0.0000 0.0000 -11.5217 0.0000 14.4912
#
#
#
# Elastic Compliance Matrix: (Units=1/GPa)
#
#
# Indices 1 2 3 4 5 6 
#
# 1 0.001890 -0.001142 0.003718 0.000000 -0.005789 0.000000
# 2 -0.001142 0.023399 -0.008807 0.000000 0.005572 0.000000
# 3 0.003718 -0.008807 0.009104 0.000000 -0.004344 0.000000
# 4 0.000000 0.000000 0.000000 0.021241 0.000000 0.016888
# 5 -0.005789 0.005572 -0.004344 0.000000 0.036748 0.000000
# 6 0.000000 0.000000 0.000000 0.016888 0.000000 0.082435
#
#
# Mechanical properties :
#
#
# Convention : Reuss Voigt Hill
#
# Bulk Modulus (GPa) = 45.59555 22.94137 34.26846
# Shear Modulus (GPa) = 25.69507 -202.94226 -88.62359
#
# Velocity S-wave (km/s) = 3.89363 -10.94247 -7.23109
# Velocity P-wave (km/s) = 6.86408 12.08779 7.03559
#
# Compressibility (1/GPa) = 0.02193197
#
# Stress axis : x y z
#
# Youngs Moduli (GPa) = 529.00482 42.73620 109.84238
#
# Poissons Ratio (x) = 0.04881 -0.40844
# Poissons Ratio (y) = 0.60420 0.96739
# Poissons Ratio (z) = -1.96705 0.37638
#
# Static dielectric constant tensor:
#      x y z
#    x 1.587650 0.000000 0.025930 
#    y 0.000000 1.617830 0.000000 
#    z 0.025930 0.000000 1.611740 
# 
# From -- ./inp_files/70881.got.cif
#   From: 2010.05.17/outbox.cif.g08.bks.cpg/sg10_36_cif.got.tgz:70881.got - 2010.06.03 11:33:40.
