data_PCOD9144014
_publ_section_title
;
Structure prediction by ZEFSAII (Michael W. Deem and Ramdas Pophale) SiO2 
 PCOD9144014
Probable space group: P 2/M
;
_chemical_formula_sum "Si O2"
_cell_formula_units_Z 32
_cell_length_a 11.520550
_cell_length_b 8.035883
_cell_length_c 15.283536
_cell_angle_alpha 90.000000
_cell_angle_beta 84.994244
_cell_angle_gamma 90.000000
_cell_volume 1409.519437
_symmetry_space_group_name_H-M "P 2/M"
_symmetry_group_IT_number 10
_symmetry_cell_setting 'monoclinic'
loop_
_space_group_symop_operation_xyz
x,y,z
-x,y,-z
-x,-y,-z
x,-y,z
loop_
_atom_site_type_symbol
_atom_site_label
_atom_site_fract_x
_atom_site_fract_y
_atom_site_fract_z
Si Si1 0.609849 0.304753 0.049858
Si Si2 0.862657 0.191793 0.490568
Si Si3 0.868640 0.691169 0.989587
Si Si4 0.882231 0.796632 0.295529
Si Si5 0.657749 0.193707 0.227162
Si Si6 0.272220 0.685306 0.334915
Si Si7 0.475756 0.305357 0.599827
Si Si8 0.125719 0.809573 0.199982
O O1 0.618426 0.500000 0.026003
O O2 0.588670 0.286226 0.155308
O O3 0.500000 0.237227 0.000000
O O4 0.742614 0.234320 0.028452
O O5 0.848858 0.263483 0.394392
O O6 0.800528 0.287393 0.571944
O O7 0.000000 0.187664 0.500000
O O8 0.819864 0.000000 0.495599
O O9 0.872468 0.500000 0.021716
O O10 0.857060 0.700157 0.885907
O O11 0.000000 0.762736 0.000000
O O12 0.790640 0.744086 0.228064
O O13 0.012200 0.750884 0.260719
O O14 0.879297 0.000000 0.300700
O O15 0.610999 0.213957 0.329038
O O16 0.656110 0.000000 0.204472
O O17 0.251629 0.500000 0.302509
O O18 0.403832 0.702889 0.355819
O O19 0.230907 0.804870 0.261263
O O20 0.500000 0.240956 0.500000
O O21 0.440252 0.500000 0.593422
O O22 0.105528 0.000000 0.172557
#
# Coordination Sequence:
#
# PCOD9144014 Si02
#       8
#     4   4   4   4   4   4   4   4
#     4  10  23  43  65  88 122 166 204 247 313 376
#     4  10  18  34  57  80 116 161 198 238 295 360
#     4  10  22  41  64  91 122 156 202 255 305 362
#     4   9  19  36  57  86 122 158 194 241 301 360
#     4  11  23  39  64  94 123 155 203 257 300 356
#     4  11  23  37  56  85 119 154 201 252 299 355
#     4  10  23  43  63  85 121 166 207 249 303 365
#     4  11  22  38  61  88 121 159 197 241 305 369
#
# _framework density 22.702770999999998
#
# number of rings (size 3 to 8) (size 9 to 14) (size 15 to 20)
#    0.000    1.750    1.250    2.625    1.750    2.500 
#    0.000    2.500    0.000    0.000    0.000    0.000 
#    0.000    0.000    0.000    0.000    0.000    0.000 
#
# Total GULP energy -178629.834046 kJ/mol
# GULP energy per Si atom -5582.182314 kJ/mol
# Density = 2.265110 g / cm^3
# Si number density = 22.702771 Si / 1000 Ang^3
#
#
#
# Elastic Constant Matrix: (Units=GPa)
#
#
# Indices 1 2 3 4 5 6 
#
# 1 81.2812 21.8878 26.0254 0.0000 7.4308 0.0000
# 2 21.8878 24.9416 -0.8771 0.0000 6.0377 0.0000
# 3 26.0254 -0.8771 110.7347 0.0000 20.7197 0.0000
# 4 0.0000 0.0000 0.0000 28.1084 0.0000 0.8128
# 5 7.4308 6.0377 20.7197 0.0000 29.5044 0.0000
# 6 0.0000 0.0000 0.0000 0.8128 0.0000 14.2385
#
#
#
# Elastic Compliance Matrix: (Units=1/GPa)
#
#
# Indices 1 2 3 4 5 6 
#
# 1 0.018106 -0.016592 -0.004799 0.000000 0.002206 0.000000
# 2 -0.016592 0.057878 0.006668 0.000000 -0.012348 0.000000
# 3 -0.004799 0.006668 0.011790 0.000000 -0.008435 0.000000
# 4 0.000000 0.000000 0.000000 0.035635 0.000000 -0.002034
# 5 0.002206 -0.012348 -0.008435 0.000000 0.041788 0.000000
# 6 0.000000 0.000000 0.000000 -0.002034 0.000000 0.070348
#
#
# Mechanical properties :
#
#
# Convention : Reuss Voigt Hill
#
# Bulk Modulus (GPa) = 17.14458 34.55887 25.85172
# Shear Modulus (GPa) = 17.57880 25.69836 21.63858
#
# Velocity S-wave (km/s) = 2.78565 3.36809 3.09062
# Velocity P-wave (km/s) = 4.23256 5.51187 4.91403
#
# Compressibility (1/GPa) = 0.05832746
#
# Stress axis : x y z
#
# Youngs Moduli (GPa) = 55.23032 17.27783 84.81961
#
# Poissons Ratio (x) = 0.28667 0.40709
# Poissons Ratio (y) = 0.91637 -0.56561
# Poissons Ratio (z) = 0.26508 -0.11522
#
# Static dielectric constant tensor:
#      x y z
#    x 1.922270 0.000000 -0.028220 
#    y 0.000000 1.859570 0.000000 
#    z -0.028220 0.000000 1.833170 
# 
# From -- ./inp_files/63821.got.cif
#   From: 2010.05.17/outbox.cif.g08.bks.cpg/sg10_32_cif.got.tgz:63821.got - 2010.06.03 11:33:40.
