data_PCOD9144529
_publ_section_title
;
Structure prediction by ZEFSAII (Michael W. Deem and Ramdas Pophale) SiO2 
 PCOD9144529
Probable space group: P 2/M
;
_chemical_formula_sum "Si O2"
_cell_formula_units_Z 28
_cell_length_a 10.879576
_cell_length_b 7.972767
_cell_length_c 14.734410
_cell_angle_alpha 90.000000
_cell_angle_beta 87.863072
_cell_angle_gamma 90.000000
_cell_volume 1277.178697
_symmetry_space_group_name_H-M "P 2/M"
_symmetry_group_IT_number 10
_symmetry_cell_setting 'monoclinic'
loop_
_space_group_symop_operation_xyz
x,y,z
-x,y,-z
-x,-y,-z
x,-y,z
loop_
_atom_site_type_symbol
_atom_site_label
_atom_site_fract_x
_atom_site_fract_y
_atom_site_fract_z
Si Si1 0.101158 0.315509 0.271575
Si Si2 0.012845 0.000000 0.636307
Si Si3 0.256760 0.200903 0.881348
Si Si4 0.504323 0.697285 0.231694
Si Si5 0.221255 0.000000 0.496008
Si Si6 0.629478 0.190909 0.941220
Si Si7 0.661102 0.696410 0.605387
Si Si8 0.010628 0.798290 0.104674
O O1 0.049868 0.500000 0.289908
O O2 0.226246 0.304546 0.325233
O O3 0.113949 0.285508 0.163667
O O4 0.013808 0.166877 0.306932
O O5 0.150195 0.000000 0.593209
O O6 0.899669 0.000000 0.566830
O O7 0.366952 0.234960 0.809333
O O8 0.122919 0.255796 0.853623
O O9 0.250621 0.000000 0.893529
O O10 0.285951 0.268964 0.982146
O O11 0.516990 0.500000 0.241855
O O12 0.406303 0.728755 0.153302
O O13 0.453310 0.758417 0.329965
O O14 0.299238 0.832693 0.470759
O O15 0.670443 0.000000 0.920578
O O16 0.500000 0.181293 0.000000
O O17 0.645296 0.500000 0.576196
O O18 0.025500 0.000000 0.108895
O O19 0.000000 0.753866 0.000000
#
# Coordination Sequence:
#
# PCOD9144529 Si02
#       8
#     4   2   4   4   2   4   4   4
#     4  10  20  36  55  78 109 144 178 218 264 309
#     4   9  18  36  55  83 108 135 182 208 255 328
#     4   9  19  33  46  69  96 132 182 223 261 303
#     4  10  19  30  46  69 101 136 170 214 264 314
#     4   9  18  32  58  81 107 146 164 205 271 325
#     4   8  15  27  42  62  88 124 170 211 253 299
#     4   9  20  33  49  83 115 136 172 215 262 322
#     4  10  21  36  53  74 104 141 187 233 262 298
#
# _framework density 21.923324000000001
#
# number of rings (size 3 to 8) (size 9 to 14) (size 15 to 20)
#    0.000    2.714    0.714    1.286    4.000    4.000 
#    0.000    2.857    0.000    0.000    0.000    2.000 
#    0.000    3.429    0.000    0.000    0.000    0.000 
#
# Total GULP energy -156137.896205 kJ/mol
# GULP energy per Si atom -5576.353436 kJ/mol
# Density = 2.187343 g / cm^3
# Si number density = 21.923324 Si / 1000 Ang^3
#
#
#
# Elastic Constant Matrix: (Units=GPa)
#
#
# Indices 1 2 3 4 5 6 
#
# 1 57.6294 3.4792 -0.8370 0.0000 -16.9506 0.0000
# 2 3.4792 76.9394 24.6648 0.0000 -17.1339 0.0000
# 3 -0.8370 24.6648 46.5973 0.0000 -32.5808 0.0000
# 4 0.0000 0.0000 0.0000 -15.0812 0.0000 -1.6341
# 5 -16.9506 -17.1339 -32.5808 0.0000 32.2924 0.0000
# 6 0.0000 0.0000 0.0000 -1.6341 0.0000 -1.4384
#
#
#
# Elastic Compliance Matrix: (Units=1/GPa)
#
#
# Indices 1 2 3 4 5 6 
#
# 1 0.039969 -0.002583 0.053628 0.000000 0.073717 0.000000
# 2 -0.002583 0.015821 -0.011880 0.000000 -0.004948 0.000000
# 3 0.053628 -0.011880 0.149335 0.000000 0.172515 0.000000
# 4 0.000000 0.000000 0.000000 -0.075615 0.000000 0.085901
# 5 0.073717 -0.004948 0.172515 0.000000 0.241092 0.000000
# 6 0.000000 0.000000 0.000000 0.085901 0.000000 -0.792791
#
#
# Mechanical properties :
#
#
# Convention : Reuss Voigt Hill
#
# Bulk Modulus (GPa) = 3.52790 26.19778 14.86284
# Shear Modulus (GPa) = -12.31422 13.41184 0.54881
#
# Velocity S-wave (km/s) = -2.37258 2.47606 0.50087
# Velocity P-wave (km/s) = 2.42752 4.48890 2.66996
#
# Compressibility (1/GPa) = 0.28345470
#
# Stress axis : x y z
#
# Youngs Moduli (GPa) = 25.01909 63.20851 6.69637
#
# Poissons Ratio (x) = 0.16327 -0.35911
# Poissons Ratio (y) = 0.06462 0.07955
# Poissons Ratio (z) = -1.34173 0.75093
#
# Static dielectric constant tensor:
#      x y z
#    x 1.868950 0.000000 -0.021780 
#    y 0.000000 1.778180 0.000000 
#    z -0.021780 0.000000 1.849560 
# 
# From -- ./inp_files/63418.got.cif
#   From: 2010.05.17/outbox.cif.g08.bks.cpg/sg10_32_cif.got.tgz:63418.got - 2010.06.03 11:33:40.
