data_PCOD9144552
_publ_section_title
;
Structure prediction by ZEFSAII (Michael W. Deem and Ramdas Pophale) SiO2 
 PCOD9144552
Probable space group: P 2/M
;
_chemical_formula_sum "Si O2"
_cell_formula_units_Z 24
_cell_length_a 24.519962
_cell_length_b 8.996585
_cell_length_c 11.628018
_cell_angle_alpha 90.000000
_cell_angle_beta 34.659809
_cell_angle_gamma 90.000000
_cell_volume 1458.775460
_symmetry_space_group_name_H-M "P 2/M"
_symmetry_group_IT_number 10
_symmetry_cell_setting 'monoclinic'
loop_
_space_group_symop_operation_xyz
x,y,z
-x,y,-z
-x,-y,-z
x,-y,z
loop_
_atom_site_type_symbol
_atom_site_label
_atom_site_fract_x
_atom_site_fract_y
_atom_site_fract_z
Si Si1 0.350367 0.320180 0.198180
Si Si2 0.597224 0.679213 0.400636
Si Si3 0.784157 0.177265 0.965404
Si Si4 0.175267 0.177290 0.373129
Si Si5 0.020753 0.328728 0.326553
Si Si6 0.450203 0.319757 0.260153
O O1 0.341808 0.500000 0.208370
O O2 0.253996 0.246252 0.320654
O O3 0.381550 0.277094 0.273413
O O4 0.441078 0.275783 0.960753
O O5 0.500000 0.712858 0.500000
O O6 0.609681 0.500000 0.377491
O O7 0.583305 0.729583 0.556631
O O8 0.688336 0.753601 0.183567
O O9 0.792551 0.211492 0.814372
O O10 0.878282 0.246150 0.862208
O O11 0.784812 0.000000 0.976726
O O12 0.070116 0.247519 0.571711
O O13 0.170392 0.000000 0.393192
O O14 0.026995 0.500000 0.279244
O O15 0.000000 0.326511 0.500000
O O16 0.451250 0.500000 0.259579
#
# Coordination Sequence:
#
# PCOD9144552 Si02
#       6
#     4   4   4   4   4   4
#     4   9  16  30  51  70  92 124 161 198 236 278
#     4  10  19  31  49  72  97 126 161 196 230 276
#     4  10  20  32  46  68 100 131 155 189 238 283
#     4  10  19  30  46  71 100 125 154 194 238 281
#     4   9  17  30  49  71  93 121 158 195 233 280
#     4   8  16  30  48  71  96 123 158 200 238 272
#
# _framework density 16.452154
#
# number of rings (size 3 to 8) (size 9 to 14) (size 15 to 20)
#    0.000    2.667    0.000    3.500    0.000    5.667 
#    0.000    3.333    0.000    1.000    0.000    7.000 
#    0.000    0.000    0.000    0.000    0.000    0.000 
#
# Total GULP energy -133812.369782 kJ/mol
# GULP energy per Si atom -5575.515408 kJ/mol
# Density = 1.641471 g / cm^3
# Si number density = 16.452154 Si / 1000 Ang^3
#
#
#
# Elastic Constant Matrix: (Units=GPa)
#
#
# Indices 1 2 3 4 5 6 
#
# 1 102.8416 46.9759 67.8713 0.0000 -29.0672 0.0000
# 2 46.9759 45.7564 49.7284 0.0000 -12.9979 0.0000
# 3 67.8713 49.7284 122.5498 0.0000 -23.0624 0.0000
# 4 0.0000 0.0000 0.0000 5.1216 0.0000 21.8455
# 5 -29.0672 -12.9979 -23.0624 0.0000 32.8778 0.0000
# 6 0.0000 0.0000 0.0000 21.8455 0.0000 -16.9615
#
#
#
# Elastic Compliance Matrix: (Units=1/GPa)
#
#
# Indices 1 2 3 4 5 6 
#
# 1 0.022752 -0.015725 -0.004152 0.000000 0.010985 0.000000
# 2 -0.015725 0.050687 -0.012332 0.000000 -0.002514 0.000000
# 3 -0.004152 -0.012332 0.015963 0.000000 0.002651 0.000000
# 4 0.000000 0.000000 0.000000 0.030068 0.000000 0.038727
# 5 0.010985 -0.002514 0.002651 0.000000 0.040993 0.000000
# 6 0.000000 0.000000 0.000000 0.038727 0.000000 -0.009079
#
#
# Mechanical properties :
#
#
# Convention : Reuss Voigt Hill
#
# Bulk Modulus (GPa) = 40.02729 66.69989 53.36359
# Shear Modulus (GPa) = 22.30839 11.31239 16.81039
#
# Velocity S-wave (km/s) = 3.68633 2.62504 3.19999
# Velocity P-wave (km/s) = 6.51928 7.05816 6.79406
#
# Compressibility (1/GPa) = 0.02498295
#
# Stress axis : x y z
#
# Youngs Moduli (GPa) = 43.95257 19.72876 62.64603
#
# Poissons Ratio (x) = 0.31023 0.26013
# Poissons Ratio (y) = 0.69114 0.77257
# Poissons Ratio (z) = 0.18251 0.24330
#
# Static dielectric constant tensor:
#      x y z
#    x 1.545570 0.000000 0.007690 
#    y 0.000000 1.548370 0.000000 
#    z 0.007690 0.000000 1.532130 
# 
# From -- ./inp_files/45171.got.cif
#   From: 2010.05.17/outbox.cif.g08.bks.cpg/sg10_23_cif.got.tgz:45171.got - 2010.06.03 11:33:40.
