data_PCOD9144426
_publ_section_title
;
Structure prediction by ZEFSAII (Michael W. Deem and Ramdas Pophale) SiO2 
 PCOD9144426
Probable space group: P 2/M
;
_chemical_formula_sum "Si O2"
_cell_formula_units_Z 28
_cell_length_a 20.636430
_cell_length_b 7.375762
_cell_length_c 26.048192
_cell_angle_alpha 90.000000
_cell_angle_beta 20.478635
_cell_angle_gamma 90.000000
_cell_volume 1387.110177
_symmetry_space_group_name_H-M "P 2/M"
_symmetry_group_IT_number 10
_symmetry_cell_setting 'monoclinic'
loop_
_space_group_symop_operation_xyz
x,y,z
-x,y,-z
-x,-y,-z
x,-y,z
loop_
_atom_site_type_symbol
_atom_site_label
_atom_site_fract_x
_atom_site_fract_y
_atom_site_fract_z
Si Si1 0.829847 0.778466 0.662412
Si Si2 0.282780 0.788815 0.144963
Si Si3 0.212658 0.280894 0.687855
Si Si4 0.585149 0.718746 0.358524
Si Si5 0.157125 0.208823 0.920569
Si Si6 0.586406 0.222557 0.058881
Si Si7 0.799218 0.792191 0.999111
O O1 0.829264 0.716164 0.722646
O O2 0.628230 0.726571 0.789731
O O3 0.000000 0.720837 0.500000
O O4 0.832784 0.000000 0.661468
O O5 0.229459 0.000000 0.180269
O O6 0.500000 0.782827 0.000000
O O7 0.290883 0.714634 0.081116
O O8 0.205164 0.500000 0.693115
O O9 0.276658 0.225660 0.697783
O O10 0.379778 0.224054 0.526918
O O11 0.011976 0.210007 0.822984
O O12 0.587018 0.500000 0.356258
O O13 0.659248 0.787061 0.249802
O O14 0.190519 0.291610 0.951597
O O15 0.099226 0.000000 0.972634
O O16 0.000000 0.291821 0.000000
O O17 0.670974 0.285689 0.049818
O O18 0.591593 0.000000 0.053929
O O19 0.735765 0.000000 0.053021
#
# Coordination Sequence:
#
# PCOD9144426 Si02
#       7
#     4   4   4   4   4   4   4
#     4   8  12  19  34  55  78 107 140 173 209 248
#     4   7  10  18  32  49  71 100 134 168 201 242
#     4   9  18  32  48  66  85 108 145 191 231 266
#     4   9  18  32  49  66  83 107 147 195 231 262
#     4  10  19  30  43  64  92 120 150 183 219 267
#     4   8  14  24  36  53  81 114 143 172 209 256
#     4  10  19  30  44  64  92 122 149 181 224 267
#
# _framework density 20.185849999999999
#
# number of rings (size 3 to 8) (size 9 to 14) (size 15 to 20)
#    0.000    3.286    1.429    2.571    0.000    1.429 
#    0.000    2.857    0.000    5.143    0.000    0.000 
#    0.000    5.714    0.000    0.000    0.000    3.571 
#
# Total GULP energy -156010.487567 kJ/mol
# GULP energy per Si atom -5571.803127 kJ/mol
# Density = 2.013991 g / cm^3
# Si number density = 20.185850 Si / 1000 Ang^3
#
#
#
# Elastic Constant Matrix: (Units=GPa)
#
#
# Indices 1 2 3 4 5 6 
#
# 1 176.1868 9.6501 75.8966 0.0000 19.5359 0.0000
# 2 9.6501 72.1406 0.5541 0.0000 3.3465 0.0000
# 3 75.8966 0.5541 123.5832 0.0000 28.3799 0.0000
# 4 0.0000 0.0000 0.0000 27.8448 0.0000 -6.4144
# 5 19.5359 3.3465 28.3799 0.0000 28.2033 0.0000
# 6 0.0000 0.0000 0.0000 -6.4144 0.0000 -5.6904
#
#
#
# Elastic Compliance Matrix: (Units=1/GPa)
#
#
# Indices 1 2 3 4 5 6 
#
# 1 0.007798 -0.000979 -0.004644 0.000000 -0.000612 0.000000
# 2 -0.000979 0.014078 0.000996 0.000000 -0.001995 0.000000
# 3 -0.004644 0.000996 0.013301 0.000000 -0.010286 0.000000
# 4 0.000000 0.000000 0.000000 0.028510 0.000000 -0.032137
# 5 -0.000612 -0.001995 -0.010286 0.000000 0.046468 0.000000
# 6 0.000000 0.000000 0.000000 -0.032137 0.000000 -0.139507
#
#
# Mechanical properties :
#
#
# Convention : Reuss Voigt Hill
#
# Bulk Modulus (GPa) = 38.57530 60.45693 49.51612
# Shear Modulus (GPa) = -436.37814 29.12552 -203.62631
#
# Velocity S-wave (km/s) = -14.71902 3.80263 -10.05459
# Velocity P-wave (km/s) = 16.42299 7.02105 10.49808
#
# Compressibility (1/GPa) = 0.02592332
#
# Stress axis : x y z
#
# Youngs Moduli (GPa) = 128.24183 71.03458 75.18042
#
# Poissons Ratio (x) = 0.06954 0.34913
# Poissons Ratio (y) = 0.12555 -0.07489
# Poissons Ratio (z) = 0.59554 -0.07076
#
# Static dielectric constant tensor:
#      x y z
#    x 1.736270 0.000000 0.029950 
#    y 0.000000 1.758620 0.000000 
#    z 0.029950 0.000000 1.699510 
# 
# From -- ./inp_files/82348.got.cif
#   From: 2010.05.17/outbox.cif.g08.bks.cpg/sg10_42_cif.got.tgz:82348.got - 2010.06.03 11:33:40.
