data_PCOD9144793
_publ_section_title
;
Structure prediction by ZEFSAII (Michael W. Deem and Ramdas Pophale) SiO2 
 PCOD9144793
Probable space group: P 2/M
;
_chemical_formula_sum "Si O2"
_cell_formula_units_Z 32
_cell_length_a 15.675120
_cell_length_b 7.823079
_cell_length_c 26.463929
_cell_angle_alpha 90.000000
_cell_angle_beta 149.557953
_cell_angle_gamma 90.000000
_cell_volume 1644.239894
_symmetry_space_group_name_H-M "P 2/M"
_symmetry_group_IT_number 10
_symmetry_cell_setting 'monoclinic'
loop_
_space_group_symop_operation_xyz
x,y,z
-x,y,-z
-x,-y,-z
x,-y,z
loop_
_atom_site_type_symbol
_atom_site_label
_atom_site_fract_x
_atom_site_fract_y
_atom_site_fract_z
Si Si1 0.217566 0.792806 0.789443
Si Si2 0.259664 0.198184 0.342813
Si Si3 0.115624 0.790636 0.850191
Si Si4 0.569501 0.804323 0.251732
Si Si5 0.574568 0.790995 0.924070
Si Si6 0.918944 0.300634 0.384165
Si Si7 0.616921 0.698765 0.487851
Si Si8 0.711408 0.702693 0.425765
O O1 0.169676 0.739291 0.821263
O O2 0.408868 0.744967 0.872010
O O3 0.098611 0.716153 0.685378
O O4 0.205565 0.000000 0.780441
O O5 0.287975 0.208991 0.417772
O O6 0.418389 0.289247 0.398620
O O7 0.074446 0.266118 0.235975
O O8 0.269355 0.000000 0.332816
O O9 0.113845 0.000000 0.849338
O O10 0.256059 0.734890 0.961891
O O11 0.455228 0.728366 0.148473
O O12 0.758166 0.793358 0.324967
O O13 0.583611 0.728551 0.314609
O O14 0.520017 0.000000 0.232726
O O15 0.575763 0.000000 0.923066
O O16 0.902609 0.500000 0.390806
O O17 0.101757 0.231714 0.492536
O O18 0.666479 0.500000 0.515794
O O19 0.654707 0.768985 0.451422
O O20 0.733531 0.500000 0.443026
#
# Coordination Sequence:
#
# PCOD9144793 Si02
#       8
#     4   4   4   4   4   4   4   4
#     4   9  16  27  46  71  96 125 160 193 225 268
#     4  10  19  31  50  76 100 121 150 191 235 276
#     4   9  16  27  47  72  97 124 154 192 235 277
#     4  10  20  32  49  71  94 123 159 197 231 268
#     4   8  15  28  45  68  96 125 157 190 229 275
#     4  10  19  31  46  66  97 130 156 188 231 278
#     4  10  20  35  52  69  95 128 155 185 232 286
#     4  10  21  34  49  68  91 125 162 192 231 281
#
# _framework density 19.461880000000001
#
# number of rings (size 3 to 8) (size 9 to 14) (size 15 to 20)
#    0.000    2.500    0.000    4.500    0.000    5.000 
#    0.000    0.625    0.000   15.000    0.000    5.250 
#    0.000    0.000    0.000    0.000    0.000    0.000 
#
# Total GULP energy -178559.669911 kJ/mol
# GULP energy per Si atom -5579.989685 kJ/mol
# Density = 1.941758 g / cm^3
# Si number density = 19.461880 Si / 1000 Ang^3
#
#
#
# Elastic Constant Matrix: (Units=GPa)
#
#
# Indices 1 2 3 4 5 6 
#
# 1 47.6885 -9.8968 17.9827 0.0000 -14.8558 0.0000
# 2 -9.8968 25.7034 -7.8233 0.0000 3.6443 0.0000
# 3 17.9827 -7.8233 114.6745 0.0000 -9.1421 0.0000
# 4 0.0000 0.0000 0.0000 82.0658 0.0000 -7.8624
# 5 -14.8558 3.6443 -9.1421 0.0000 21.2030 0.0000
# 6 0.0000 0.0000 0.0000 -7.8624 0.0000 20.7452
#
#
#
# Elastic Compliance Matrix: (Units=1/GPa)
#
#
# Indices 1 2 3 4 5 6 
#
# 1 0.029189 0.007898 -0.002606 0.000000 0.017970 0.000000
# 2 0.007898 0.042583 0.001579 0.000000 -0.001105 0.000000
# 3 -0.002606 0.001579 0.009392 0.000000 0.001953 0.000000
# 4 0.000000 0.000000 0.000000 0.012644 0.000000 0.004792
# 5 0.017970 -0.001105 0.001953 0.000000 0.060786 0.000000
# 6 0.000000 0.000000 0.000000 0.004792 0.000000 0.050020
#
#
# Mechanical properties :
#
#
# Convention : Reuss Voigt Hill
#
# Bulk Modulus (GPa) = 10.53673 20.95464 15.74568
# Shear Modulus (GPa) = 22.47094 37.32305 29.89699
#
# Velocity S-wave (km/s) = 3.40165 4.38396 3.92367
# Velocity P-wave (km/s) = 4.56662 6.03456 5.35117
#
# Compressibility (1/GPa) = 0.09490611
#
# Stress axis : x y z
#
# Youngs Moduli (GPa) = 34.25925 23.48330 106.46986
#
# Poissons Ratio (x) = -0.18547 0.27745
# Poissons Ratio (y) = -0.27058 -0.16806
# Poissons Ratio (z) = 0.08928 -0.03707
#
# Static dielectric constant tensor:
#      x y z
#    x 1.684870 0.000000 -0.014820 
#    y 0.000000 1.696610 0.000000 
#    z -0.014820 0.000000 1.688140 
# 
# From -- ./inp_files/93140.got.cif
#   From: 2010.05.17/outbox.cif.g08.bks.cpg/sg10_47_cif.got.tgz:93140.got - 2010.06.03 11:33:40.
