data_PCOD9144695
_publ_section_title
;
Structure prediction by ZEFSAII (Michael W. Deem and Ramdas Pophale) SiO2 
 PCOD9144695
Probable space group: P 2/M
;
_chemical_formula_sum "Si O2"
_cell_formula_units_Z 28
_cell_length_a 21.464498
_cell_length_b 7.367066
_cell_length_c 15.505222
_cell_angle_alpha 90.000000
_cell_angle_beta 151.197847
_cell_angle_gamma 90.000000
_cell_volume 1181.266817
_symmetry_space_group_name_H-M "P 2/M"
_symmetry_group_IT_number 10
_symmetry_cell_setting 'monoclinic'
loop_
_space_group_symop_operation_xyz
x,y,z
-x,y,-z
-x,-y,-z
x,-y,z
loop_
_atom_site_type_symbol
_atom_site_label
_atom_site_fract_x
_atom_site_fract_y
_atom_site_fract_z
Si Si1 0.140718 0.204854 0.474144
Si Si2 0.381809 0.212991 0.079438
Si Si3 0.416907 0.219146 0.815126
Si Si4 0.087528 0.220346 0.689937
Si Si5 0.126358 0.719057 0.262276
Si Si6 0.403166 0.719096 0.305892
Si Si7 0.169623 0.719984 0.131931
O O1 0.274713 0.294597 0.663063
O O2 0.157270 0.201977 0.391653
O O3 0.003648 0.279336 0.340150
O O4 0.140460 0.000000 0.509393
O O5 0.500087 0.287619 0.165476
O O6 0.415960 0.227364 0.222086
O O7 0.375501 0.000000 0.049927
O O8 0.236443 0.285223 0.881101
O O9 0.400201 0.000000 0.783435
O O10 0.500000 0.249203 0.000000
O O11 0.000000 0.271461 0.500000
O O12 0.098423 0.000000 0.701659
O O13 0.134966 0.500000 0.279395
O O14 0.204517 0.776544 0.271932
O O15 0.977471 0.769001 0.064251
O O16 0.500000 0.778553 0.500000
O O17 0.409006 0.500000 0.312702
O O18 0.264206 0.781844 0.172516
O O19 0.173933 0.500000 0.138146
#
# Coordination Sequence:
#
# PCOD9144695 Si02
#       7
#     4   4   4   4   4   4   4
#     4  10  19  30  49  76 100 122 161 208 247 289
#     4  10  20  34  54  79 105 135 172 214 259 303
#     4   9  18  33  52  74 103 137 168 201 250 311
#     4   9  17  31  53  78 102 131 169 210 253 307
#     4   9  17  31  52  71  93 127 164 203 245 293
#     4  10  21  35  52  73 102 140 178 211 251 306
#     4   8  16  32  50  69  94 129 170 201 236 296
#
# _framework density 23.703365999999999
#
# number of rings (size 3 to 8) (size 9 to 14) (size 15 to 20)
#    0.000    2.714    0.000    2.571    2.000    3.714 
#    0.000    2.143    0.000    5.143    0.000    0.000 
#    0.000    0.000    0.000    0.000    0.000    0.000 
#
# Total GULP energy -156193.071157 kJ/mol
# GULP energy per Si atom -5578.323970 kJ/mol
# Density = 2.364942 g / cm^3
# Si number density = 23.703366 Si / 1000 Ang^3
#
#
#
# Elastic Constant Matrix: (Units=GPa)
#
#
# Indices 1 2 3 4 5 6 
#
# 1 82.8642 -5.9887 -19.3139 0.0000 -0.2341 0.0000
# 2 -5.9887 83.6285 -2.1047 0.0000 6.9465 0.0000
# 3 -19.3139 -2.1047 51.9253 0.0000 -1.2338 0.0000
# 4 0.0000 0.0000 0.0000 16.7497 0.0000 -25.3308
# 5 -0.2341 6.9465 -1.2338 0.0000 31.6068 0.0000
# 6 0.0000 0.0000 0.0000 -25.3308 0.0000 18.9592
#
#
#
# Elastic Compliance Matrix: (Units=1/GPa)
#
#
# Indices 1 2 3 4 5 6 
#
# 1 0.013310 0.001074 0.004996 0.000000 0.000058 0.000000
# 2 0.001074 0.012276 0.000834 0.000000 -0.002658 0.000000
# 3 0.004996 0.000834 0.021167 0.000000 0.000680 0.000000
# 4 0.000000 0.000000 0.000000 -0.058500 0.000000 -0.078160
# 5 0.000058 -0.002658 0.000680 0.000000 0.032250 0.000000
# 6 0.000000 0.000000 0.000000 -0.078160 0.000000 -0.051682
#
#
# Mechanical properties :
#
#
# Convention : Reuss Voigt Hill
#
# Bulk Modulus (GPa) = 16.51242 18.17814 17.34528
# Shear Modulus (GPa) = -201.61409 29.85150 -85.88129
#
# Velocity S-wave (km/s) = -9.23265 3.55262 -6.02581
# Velocity P-wave (km/s) = 10.32833 4.95114 6.40939
#
# Compressibility (1/GPa) = 0.06056048
#
# Stress axis : x y z
#
# Youngs Moduli (GPa) = 75.13085 81.45778 47.24433
#
# Poissons Ratio (x) = -0.08749 -0.23602
# Poissons Ratio (y) = -0.08070 -0.03940
# Poissons Ratio (z) = -0.37533 -0.06793
#
# Static dielectric constant tensor:
#      x y z
#    x 1.898080 0.000000 -0.017830 
#    y 0.000000 1.926320 0.000000 
#    z -0.017830 0.000000 2.086880 
# 
# From -- ./inp_files/70269.got.cif
#   From: 2010.05.17/outbox.cif.g08.bks.cpg/sg10_36_cif.got.tgz:70269.got - 2010.06.03 11:33:40.
