data_PCOD9144055
_publ_section_title
;
Structure prediction by ZEFSAII (Michael W. Deem and Ramdas Pophale) SiO2 
 PCOD9144055
Probable space group: P 2/M
;
_chemical_formula_sum "Si O2"
_cell_formula_units_Z 32
_cell_length_a 11.076906
_cell_length_b 7.513547
_cell_length_c 14.995571
_cell_angle_alpha 90.000000
_cell_angle_beta 103.248760
_cell_angle_gamma 90.000000
_cell_volume 1214.816791
_symmetry_space_group_name_H-M "P 2/M"
_symmetry_group_IT_number 10
_symmetry_cell_setting 'monoclinic'
loop_
_space_group_symop_operation_xyz
x,y,z
-x,y,-z
-x,-y,-z
x,-y,z
loop_
_atom_site_type_symbol
_atom_site_label
_atom_site_fract_x
_atom_site_fract_y
_atom_site_fract_z
Si Si1 0.469242 0.786142 0.395119
Si Si2 0.199504 0.718082 0.783177
Si Si3 0.800496 0.781918 0.716823
Si Si4 0.081742 0.203268 0.435135
Si Si5 0.530758 0.286141 0.104881
Si Si6 0.081742 0.703268 0.935134
Si Si7 0.735524 0.208926 0.896012
Si Si8 0.735523 0.291074 0.396011
O O1 0.500000 0.720209 0.500000
O O2 0.336795 0.723858 0.337503
O O3 0.589549 0.736626 0.357871
O O4 0.463303 0.000000 0.396447
O O5 0.196216 0.500000 0.784478
O O6 0.336795 0.776141 0.837503
O O7 0.102594 0.783438 0.841185
O O8 0.189477 0.771860 0.678569
O O9 0.897406 0.716562 0.658815
O O10 0.810524 0.728140 0.821431
O O11 0.803784 0.000000 0.715522
O O12 0.216546 0.199770 0.506171
O O13 0.000000 0.288906 0.500000
O O14 0.040077 0.000000 0.417221
O O15 0.536694 0.500000 0.103552
O O16 0.410450 0.236624 0.142129
O O17 0.500000 0.220206 0.000000
O O18 0.040077 0.500000 0.917220
O O19 0.216546 0.699768 0.006171
O O20 0.000000 0.788906 0.000000
O O21 0.756115 0.000000 0.910130
O O22 0.756113 0.500000 0.410128
#
# Coordination Sequence:
#
# PCOD9144055 Si02
#       8
#     4   4   4   4   4   4   4   4
#     4  10  18  34  60  81 109 149 186 219 263 330
#     4   9  19  36  56  82 113 146 179 224 277 321
#     4   9  19  36  56  82 113 146 179 224 277 321
#     4  10  21  40  62  79 103 147 196 227 261 327
#     4  10  18  34  60  81 109 149 186 219 263 330
#     4  10  21  40  62  79 103 147 196 227 261 327
#     4  11  22  35  55  84 118 143 174 229 284 325
#     4  11  22  35  55  84 118 143 174 229 284 325
#
# _framework density 26.341419999999999
#
# number of rings (size 3 to 8) (size 9 to 14) (size 15 to 20)
#    0.000    2.000    2.500    1.500    0.000    2.000 
#    0.000    3.750    0.000    0.000    0.000    0.000 
#    0.000    0.000    0.000    0.000    0.000    0.000 
#
# Total GULP energy -179094.525262 kJ/mol
# GULP energy per Si atom -5596.703914 kJ/mol
# Density = 2.628147 g / cm^3
# Si number density = 26.341420 Si / 1000 Ang^3
#
#
#
# Elastic Constant Matrix: (Units=GPa)
#
#
# Indices 1 2 3 4 5 6 
#
# 1 100.0308 6.2394 27.1975 0.0000 -26.2548 0.0000
# 2 6.2394 93.3467 11.7517 0.0000 4.9563 0.0000
# 3 27.1975 11.7517 161.1738 0.0000 -32.7560 0.0000
# 4 0.0000 0.0000 0.0000 8.8798 0.0000 1.8086
# 5 -26.2548 4.9563 -32.7560 0.0000 61.1039 0.0000
# 6 0.0000 0.0000 0.0000 1.8086 0.0000 20.8095
#
#
#
# Elastic Compliance Matrix: (Units=1/GPa)
#
#
# Indices 1 2 3 4 5 6 
#
# 1 0.011493 -0.000886 -0.000961 0.000000 0.004495 0.000000
# 2 -0.000886 0.010997 -0.001022 0.000000 -0.001821 0.000000
# 3 -0.000961 -0.001022 0.007154 0.000000 0.003505 0.000000
# 4 0.000000 0.000000 0.000000 0.114645 0.000000 -0.009964
# 5 0.004495 -0.001821 0.003505 0.000000 0.020323 0.000000
# 6 0.000000 0.000000 0.000000 -0.009964 0.000000 0.048921
#
#
# Mechanical properties :
#
#
# Convention : Reuss Voigt Hill
#
# Bulk Modulus (GPa) = 41.83230 49.43650 45.63440
# Shear Modulus (GPa) = 22.00308 38.78283 30.39295
#
# Velocity S-wave (km/s) = 2.89330 3.84124 3.40046
# Velocity P-wave (km/s) = 5.20354 6.20337 5.72532
#
# Compressibility (1/GPa) = 0.02390497
#
# Stress axis : x y z
#
# Youngs Moduli (GPa) = 87.00711 90.93096 139.79136
#
# Poissons Ratio (x) = 0.08055 0.13439
# Poissons Ratio (y) = 0.07708 0.14292
# Poissons Ratio (z) = 0.08364 0.09297
#
# Static dielectric constant tensor:
#      x y z
#    x 2.141160 0.000000 -0.018310 
#    y 0.000000 1.958920 0.000000 
#    z -0.018310 0.000000 2.046380 
# 
# From -- ./inp_files/63785.got.cif
#   From: 2010.05.17/outbox.cif.g08.bks.cpg/sg10_32_cif.got.tgz:63785.got - 2010.06.03 11:33:40.
