data_PCOD9144676
_publ_section_title
;
Structure prediction by ZEFSAII (Michael W. Deem and Ramdas Pophale) SiO2 
 PCOD9144676
Probable space group: P 2/M
;
_chemical_formula_sum "Si O2"
_cell_formula_units_Z 32
_cell_length_a 19.107643
_cell_length_b 9.400615
_cell_length_c 24.894284
_cell_angle_alpha 90.000000
_cell_angle_beta 159.142131
_cell_angle_gamma 90.000000
_cell_volume 1592.117754
_symmetry_space_group_name_H-M "P 2/M"
_symmetry_group_IT_number 10
_symmetry_cell_setting 'monoclinic'
loop_
_space_group_symop_operation_xyz
x,y,z
-x,y,-z
-x,-y,-z
x,-y,z
loop_
_atom_site_type_symbol
_atom_site_label
_atom_site_fract_x
_atom_site_fract_y
_atom_site_fract_z
Si Si1 0.931972 0.745778 0.396179
Si Si2 0.039267 0.670434 0.907659
Si Si3 0.272078 0.670159 0.848671
Si Si4 0.420573 0.834317 0.191689
Si Si5 0.655211 0.166034 0.467424
Si Si6 0.352999 0.831838 0.344406
Si Si7 0.032821 0.330996 0.778001
Si Si8 0.656514 0.347430 0.283853
O O1 0.857761 0.773344 0.283189
O O2 0.739808 0.669429 0.283555
O O3 0.000000 0.833800 0.500000
O O4 0.133333 0.657927 0.534393
O O5 0.040576 0.500000 0.913636
O O6 0.839835 0.737264 0.787431
O O7 0.053037 0.711793 0.854367
O O8 0.230937 0.742171 0.070504
O O9 0.226281 0.500000 0.806031
O O10 0.215284 0.699448 0.869640
O O11 0.500000 0.691378 0.000000
O O12 0.581015 0.817432 0.353658
O O13 0.519566 0.774133 0.208613
O O14 0.369945 0.000000 0.150719
O O15 0.476019 0.200392 0.379111
O O16 0.842043 0.258599 0.615968
O O17 0.703433 0.000000 0.511175
O O18 0.500000 0.807806 0.500000
O O19 0.300597 0.000000 0.306714
O O20 0.004294 0.500000 0.757763
O O21 0.557737 0.500000 0.220080
#
# Coordination Sequence:
#
# PCOD9144676 Si02
#       8
#     4   4   4   4   4   4   4   4
#     4   8  18  30  52  79 107 147 190 235 289 347
#     4  11  24  40  60  90 123 154 192 241 294 346
#     4  10  19  30  48  79 116 147 184 236 289 336
#     4  11  24  39  57  85 119 156 195 238 291 346
#     4  10  22  40  63  89 116 153 196 239 286 348
#     4  10  20  39  66  89 115 155 197 233 284 349
#     4  10  22  37  59  90 118 151 196 244 292 344
#     4   9  17  32  57  80 106 144 194 239 285 343
#
# _framework density 20.099015999999999
#
# number of rings (size 3 to 8) (size 9 to 14) (size 15 to 20)
#    0.750    1.250    1.250    3.000    1.750    3.750 
#    0.000    3.750    0.000    1.125    0.000    0.000 
#    0.000    0.000    0.000    0.000    0.000    0.000 
#
# Total GULP energy -178221.447936 kJ/mol
# GULP energy per Si atom -5569.420248 kJ/mol
# Density = 2.005327 g / cm^3
# Si number density = 20.099016 Si / 1000 Ang^3
#
#
#
# Elastic Constant Matrix: (Units=GPa)
#
#
# Indices 1 2 3 4 5 6 
#
# 1 56.7783 12.2724 -6.4867 0.0000 14.4042 0.0000
# 2 12.2724 42.7095 16.4052 0.0000 10.8487 0.0000
# 3 -6.4867 16.4052 42.0768 0.0000 12.7823 0.0000
# 4 0.0000 0.0000 0.0000 -0.2068 0.0000 -35.4823
# 5 14.4042 10.8487 12.7823 0.0000 30.1357 0.0000
# 6 0.0000 0.0000 0.0000 -35.4823 0.0000 -42.2888
#
#
#
# Elastic Compliance Matrix: (Units=1/GPa)
#
#
# Indices 1 2 3 4 5 6 
#
# 1 0.023800 -0.007577 0.010618 0.000000 -0.013152 0.000000
# 2 -0.007577 0.030981 -0.012580 0.000000 -0.002196 0.000000
# 3 0.010618 -0.012580 0.034981 0.000000 -0.015384 0.000000
# 4 0.000000 0.000000 0.000000 0.033824 0.000000 -0.028380
# 5 -0.013152 -0.002196 -0.015384 0.000000 0.046785 0.000000
# 6 0.000000 0.000000 0.000000 -0.028380 0.000000 0.000165
#
#
# Mechanical properties :
#
#
# Convention : Reuss Voigt Hill
#
# Bulk Modulus (GPa) = 14.14718 20.66073 17.40396
# Shear Modulus (GPa) = 23.45484 5.48628 14.47056
#
# Velocity S-wave (km/s) = 3.41979 1.65395 2.68612
# Velocity P-wave (km/s) = 4.75892 3.73486 4.27765
#
# Compressibility (1/GPa) = 0.07068545
#
# Stress axis : x y z
#
# Youngs Moduli (GPa) = 42.01732 32.27787 28.58663
#
# Poissons Ratio (x) = 0.24456 -0.30355
# Poissons Ratio (y) = 0.31835 0.35962
# Poissons Ratio (z) = -0.44616 0.40606
#
# Static dielectric constant tensor:
#      x y z
#    x 1.741460 0.000000 -0.032600 
#    y 0.000000 1.694050 0.000000 
#    z -0.032600 0.000000 1.705150 
# 
# From -- ./inp_files/93748.got.cif
#   From: 2010.05.17/outbox.cif.g08.bks.cpg/sg10_47_cif.got.tgz:93748.got - 2010.06.03 11:33:40.
