data_PCOD9144152
_publ_section_title
;
Structure prediction by ZEFSAII (Michael W. Deem and Ramdas Pophale) SiO2 
 PCOD9144152
Probable space group: P 2/M
;
_chemical_formula_sum "Si O2"
_cell_formula_units_Z 30
_cell_length_a 11.410774
_cell_length_b 13.515987
_cell_length_c 17.572024
_cell_angle_alpha 90.000000
_cell_angle_beta 32.742694
_cell_angle_gamma 90.000000
_cell_volume 1465.802036
_symmetry_space_group_name_H-M "P 2/M"
_symmetry_group_IT_number 10
_symmetry_cell_setting 'monoclinic'
loop_
_space_group_symop_operation_xyz
x,y,z
-x,y,-z
-x,-y,-z
x,-y,z
loop_
_atom_site_type_symbol
_atom_site_label
_atom_site_fract_x
_atom_site_fract_y
_atom_site_fract_z
Si Si1 0.393322 0.891684 0.879305
Si Si2 0.000000 0.830623 0.000000
Si Si3 0.306141 0.335266 0.765239
Si Si4 0.649635 0.609985 0.692697
Si Si5 0.669698 0.769791 0.469467
Si Si6 0.042145 0.607460 0.772857
Si Si7 0.430771 0.690517 0.951958
Si Si8 0.795431 0.821044 0.561208
O O1 0.402386 0.798464 0.930167
O O2 0.579015 0.869428 0.714938
O O3 0.432991 0.000000 0.891533
O O4 0.157376 0.889689 0.969392
O O5 0.835961 0.759241 0.134514
O O6 0.412886 0.382367 0.781338
O O7 0.507662 0.301893 0.603744
O O8 0.157042 0.397596 0.791880
O O9 0.736131 0.500000 0.632630
O O10 0.606177 0.633395 0.804642
O O11 0.778877 0.702705 0.587448
O O12 0.500000 0.817380 0.500000
O O13 0.844924 0.699388 0.332523
O O14 0.783887 0.832338 0.475436
O O15 0.069076 0.500000 0.719491
O O16 0.793854 0.632114 0.923810
O O17 0.500000 0.701723 0.000000
O O18 0.000000 0.856892 0.500000
#
# Coordination Sequence:
#
# PCOD9144152 Si02
#       8
#     4   2   4   4   4   4   4   4
#     4  11  24  43  72  95 112 150 207 263 324 383
#     4  12  17  40  67  94 116 150 197 264 331 356
#     4  10  18  36  60  87 122 160 202 256 304 352
#     4  10  20  36  59  87 123 167 212 251 295 358
#     4   9  20  35  56  85 124 169 202 242 298 357
#     4  11  22  34  58  89 123 169 209 242 291 360
#     4  11  24  40  56  82 124 161 197 255 310 360
#     4  10  22  41  63  91 128 164 206 261 311 361
#
# _framework density 20.466612000000001
#
# number of rings (size 3 to 8) (size 9 to 14) (size 15 to 20)
#    0.000    1.600    5.333    1.000    3.733    6.400 
#    0.000    2.000    0.000    0.400    0.000    0.000 
#    0.000    0.000    0.000    0.000    0.000    0.000 
#
# Total GULP energy -167247.370388 kJ/mol
# GULP energy per Si atom -5574.912346 kJ/mol
# Density = 2.042003 g / cm^3
# Si number density = 20.466612 Si / 1000 Ang^3
#
#
#
# Elastic Constant Matrix: (Units=GPa)
#
#
# Indices 1 2 3 4 5 6 
#
# 1 129.4552 1.4199 11.2121 0.0000 5.0435 0.0000
# 2 1.4199 54.3338 -5.7572 0.0000 -6.4049 0.0000
# 3 11.2121 -5.7572 32.4930 0.0000 -0.8120 0.0000
# 4 0.0000 0.0000 0.0000 3.0702 0.0000 0.5589
# 5 5.0435 -6.4049 -0.8120 0.0000 30.9839 0.0000
# 6 0.0000 0.0000 0.0000 0.5589 0.0000 -6.1146
#
#
#
# Elastic Compliance Matrix: (Units=1/GPa)
#
#
# Indices 1 2 3 4 5 6 
#
# 1 0.008047 -0.000702 -0.002939 0.000000 -0.001532 0.000000
# 2 -0.000702 0.019318 0.003770 0.000000 0.004207 0.000000
# 3 -0.002939 0.003770 0.032511 0.000000 0.002110 0.000000
# 4 0.000000 0.000000 0.000000 0.320383 0.000000 0.029287
# 5 -0.001532 0.004207 0.002110 0.000000 0.033449 0.000000
# 6 0.000000 0.000000 0.000000 0.029287 0.000000 -0.160866
#
#
# Mechanical properties :
#
#
# Convention : Reuss Voigt Hill
#
# Bulk Modulus (GPa) = 16.62969 25.55908 21.09439
# Shear Modulus (GPa) = 18.33992 19.54836 18.94414
#
# Velocity S-wave (km/s) = 2.99672 3.09388 3.04569
# Velocity P-wave (km/s) = 4.48517 5.02773 4.76418
#
# Compressibility (1/GPa) = 0.06013341
#
# Stress axis : x y z
#
# Youngs Moduli (GPa) = 124.27537 51.76389 30.75892
#
# Poissons Ratio (x) = 0.03636 0.09041
# Poissons Ratio (y) = 0.08728 -0.11597
# Poissons Ratio (z) = 0.36529 -0.19517
#
# Static dielectric constant tensor:
#      x y z
#    x 1.816920 0.000000 0.027190 
#    y 0.000000 1.772980 0.000000 
#    z 0.027190 0.000000 1.765160 
# 
# From -- ./inp_files/76916.got.cif
#   From: 2010.05.17/outbox.cif.g08.bks.cpg/sg10_39_cif.got.tgz:76916.got - 2010.06.03 11:33:40.
