data_PCOD9144844
_publ_section_title
;
Structure prediction by ZEFSAII (Michael W. Deem and Ramdas Pophale) SiO2 
 PCOD9144844
Probable space group: P 2/M
;
_chemical_formula_sum "Si O2"
_cell_formula_units_Z 28
_cell_length_a 15.108807
_cell_length_b 13.552926
_cell_length_c 7.622919
_cell_angle_alpha 90.000000
_cell_angle_beta 104.611797
_cell_angle_gamma 90.000000
_cell_volume 1510.449120
_symmetry_space_group_name_H-M "P 2/M"
_symmetry_group_IT_number 10
_symmetry_cell_setting 'monoclinic'
loop_
_space_group_symop_operation_xyz
x,y,z
-x,y,-z
-x,-y,-z
x,-y,z
loop_
_atom_site_type_symbol
_atom_site_label
_atom_site_fract_x
_atom_site_fract_y
_atom_site_fract_z
Si Si1 0.397481 0.886883 0.237180
Si Si2 0.206714 0.803059 0.645445
Si Si3 0.397481 0.886883 0.660300
Si Si4 0.892628 0.000000 0.985256
Si Si5 0.892628 0.000000 0.407373
Si Si6 0.106627 0.389927 0.592336
Si Si7 0.106627 0.610072 0.014291
Si Si8 0.206714 0.196941 0.061269
O O1 0.398106 0.888396 0.449053
O O2 0.500000 0.859144 0.230130
O O3 0.314541 0.818490 0.138956
O O4 0.379875 0.000000 0.168926
O O5 0.314541 0.818490 0.675585
O O6 0.155761 0.900579 0.548073
O O7 0.166905 0.700717 0.553784
O O8 0.187848 0.801755 0.843924
O O9 0.379875 0.000000 0.710949
O O10 0.844239 0.900579 0.892313
O O11 0.881260 0.000000 0.190630
O O12 0.000000 0.000000 0.000000
O O13 0.000000 0.000000 0.500000
O O14 0.129011 0.500000 0.536078
O O15 0.116740 0.393365 0.808370
O O16 0.000000 0.370794 0.500000
O O17 0.129011 0.500000 0.092932
O O18 0.166905 0.700717 0.113121
O O19 0.000000 0.629206 0.000000
#
# Coordination Sequence:
#
# PCOD9144844 Si02
#       8
#     4   4   4   2   2   4   4   4
#     4   9  18  32  49  70  95 122 154 191 232 281
#     4  10  19  31  47  69  96 123 154 192 232 276
#     4   9  18  32  49  70  95 122 154 191 232 281
#     4  10  20  30  41  64  95 123 150 183 225 274
#     4  10  20  30  41  64  95 123 150 183 225 274
#     4   9  18  32  49  69  94 125 161 197 230 269
#     4   9  18  32  49  69  94 125 161 197 230 269
#     4  10  19  31  47  69  96 123 154 192 232 276
#
# _framework density 18.537534000000001
#
# number of rings (size 3 to 8) (size 9 to 14) (size 15 to 20)
#    0.000    2.571    1.429    1.714    0.000    2.857 
#    0.000    1.429    0.000    0.857    0.000    6.000 
#    0.000    0.000    0.000    0.000    0.000    0.000 
#
# Total GULP energy -156186.198791 kJ/mol
# GULP energy per Si atom -5578.078528 kJ/mol
# Density = 1.849534 g / cm^3
# Si number density = 18.537534 Si / 1000 Ang^3
#
#
#
# Elastic Constant Matrix: (Units=GPa)
#
#
# Indices 1 2 3 4 5 6 
#
# 1 116.2905 103.0261 -2.2233 0.0000 26.0214 0.0000
# 2 103.0261 176.9567 21.9838 0.0000 31.3146 0.0000
# 3 -2.2233 21.9838 36.7166 0.0000 4.7258 0.0000
# 4 0.0000 0.0000 0.0000 -2.1113 0.0000 5.9954
# 5 26.0214 31.3146 4.7258 0.0000 33.8139 0.0000
# 6 0.0000 0.0000 0.0000 5.9954 0.0000 13.4049
#
#
#
# Elastic Compliance Matrix: (Units=1/GPa)
#
#
# Indices 1 2 3 4 5 6 
#
# 1 0.021137 -0.012405 0.009493 0.000000 -0.006104 0.000000
# 2 -0.012405 0.014456 -0.009076 0.000000 -0.002573 0.000000
# 3 0.009493 -0.009076 0.033709 0.000000 -0.003612 0.000000
# 4 0.000000 0.000000 0.000000 -0.208648 0.000000 0.093319
# 5 -0.006104 -0.002573 -0.003612 0.000000 0.037159 0.000000
# 6 0.000000 0.000000 0.000000 0.093319 0.000000 0.032862
#
#
# Mechanical properties :
#
#
# Convention : Reuss Voigt Hill
#
# Bulk Modulus (GPa) = 22.06190 63.94857 43.00523
# Shear Modulus (GPa) = -165.34184 22.83331 -71.25427
#
# Velocity S-wave (km/s) = -9.45445 3.51341 -6.20655
# Velocity P-wave (km/s) = 10.35641 7.14356 5.30211
#
# Compressibility (1/GPa) = 0.04532702
#
# Stress axis : x y z
#
# Youngs Moduli (GPa) = 47.31086 69.17355 29.66537
#
# Poissons Ratio (x) = 0.85811 -0.28162
# Poissons Ratio (y) = 0.58690 0.26923
# Poissons Ratio (z) = -0.44913 0.62780
#
# Static dielectric constant tensor:
#      x y z
#    x 1.620570 0.000000 -0.019900 
#    y 0.000000 1.661140 0.000000 
#    z -0.019900 0.000000 1.672080 
# 
# From -- ./inp_files/28379.got.cif
#   From: 2010.05.17/outbox.cif.g08.bks.cpg/sg10_15_cif.got.tgz:28379.got - 2010.06.03 11:33:40.
