data_PCOD9144328
_publ_section_title
;
Structure prediction by ZEFSAII (Michael W. Deem and Ramdas Pophale) SiO2 
 PCOD9144328
Probable space group: P 2/M
;
_chemical_formula_sum "Si O2"
_cell_formula_units_Z 32
_cell_length_a 16.550943
_cell_length_b 8.758594
_cell_length_c 20.213749
_cell_angle_alpha 90.000000
_cell_angle_beta 33.424065
_cell_angle_gamma 90.000000
_cell_volume 1614.071049
_symmetry_space_group_name_H-M "P 2/M"
_symmetry_group_IT_number 10
_symmetry_cell_setting 'monoclinic'
loop_
_space_group_symop_operation_xyz
x,y,z
-x,y,-z
-x,-y,-z
x,-y,z
loop_
_atom_site_type_symbol
_atom_site_label
_atom_site_fract_x
_atom_site_fract_y
_atom_site_fract_z
Si Si1 0.579139 0.318256 0.543009
Si Si2 0.907693 0.817380 0.497444
Si Si3 0.998439 0.182317 0.163525
Si Si4 0.366145 0.816212 0.236865
Si Si5 0.118002 0.682914 0.619459
Si Si6 0.301435 0.815911 0.001330
Si Si7 0.322377 0.673338 0.127821
Si Si8 0.281615 0.681073 0.699404
O O1 0.564177 0.500000 0.563639
O O2 0.710645 0.263326 0.499464
O O3 0.648691 0.299994 0.421914
O O4 0.412938 0.256405 0.656304
O O5 0.742528 0.770701 0.630521
O O6 0.955275 0.733627 0.398494
O O7 0.000000 0.783186 0.500000
O O8 0.914901 0.000000 0.481563
O O9 0.949818 0.241680 0.269151
O O10 0.878570 0.245279 0.194005
O O11 0.169247 0.230235 0.042983
O O12 0.990979 0.000000 0.167245
O O13 0.300960 0.757893 0.211800
O O14 0.366479 0.000000 0.233581
O O15 0.534410 0.763336 0.129488
O O16 0.114320 0.500000 0.629779
O O17 0.270615 0.755911 0.096576
O O18 0.303641 0.000000 0.002470
O O19 0.267266 0.500000 0.167415
O O20 0.500000 0.668874 0.000000
O O21 0.264330 0.500000 0.721899
#
# Coordination Sequence:
#
# PCOD9144328 Si02
#       8
#     4   4   4   4   4   4   4   4
#     4   7  12  25  45  65  89 122 155 184 219 274
#     4  10  22  37  51  68  92 120 155 201 242 272
#     4  10  19  29  44  70 102 126 152 191 230 270
#     4   9  18  34  51  64  84 121 159 187 229 285
#     4  10  20  34  50  69  94 126 160 190 229 281
#     4   9  18  31  47  65  89 124 157 183 223 282
#     4   9  17  28  44  67  90 110 143 193 235 266
#     4   8  13  25  44  66  93 124 153 181 224 279
#
# _framework density 19.825644
#
# number of rings (size 3 to 8) (size 9 to 14) (size 15 to 20)
#    0.000    3.000    0.000    2.625    1.750    3.250 
#    0.000    5.625    0.000    0.000    0.000    0.875 
#    0.000    7.000    0.000    0.000    0.000    0.000 
#
# Total GULP energy -178244.966435 kJ/mol
# GULP energy per Si atom -5570.155201 kJ/mol
# Density = 1.978052 g / cm^3
# Si number density = 19.825644 Si / 1000 Ang^3
#
#
#
# Elastic Constant Matrix: (Units=GPa)
#
#
# Indices 1 2 3 4 5 6 
#
# 1 41.1805 5.7126 14.5451 0.0000 -30.7827 0.0000
# 2 5.7126 13.8407 10.1671 0.0000 -10.2778 0.0000
# 3 14.5451 10.1671 60.7206 0.0000 -26.9867 0.0000
# 4 0.0000 0.0000 0.0000 8.8194 0.0000 -10.5048
# 5 -30.7827 -10.2778 -26.9867 0.0000 40.4278 0.0000
# 6 0.0000 0.0000 0.0000 -10.5048 0.0000 8.2288
#
#
#
# Elastic Compliance Matrix: (Units=1/GPa)
#
#
# Indices 1 2 3 4 5 6 
#
# 1 0.060059 0.009023 0.007744 0.000000 0.053194 0.000000
# 2 0.009023 0.092498 -0.005893 0.000000 0.026452 0.000000
# 3 0.007744 -0.005893 0.024961 0.000000 0.021060 0.000000
# 4 0.000000 0.000000 0.000000 -0.217822 0.000000 -0.278069
# 5 0.053194 0.026452 0.021060 0.000000 0.086021 0.000000
# 6 0.000000 0.000000 0.000000 -0.278069 0.000000 -0.233455
#
#
# Mechanical properties :
#
#
# Convention : Reuss Voigt Hill
#
# Bulk Modulus (GPa) = 5.01841 19.62128 12.31985
# Shear Modulus (GPa) = -34.94949 17.18301 -8.88324
#
# Velocity S-wave (km/s) = -4.20318 2.94718 -2.11906
# Velocity P-wave (km/s) = 4.58463 4.63676 0.49028
#
# Compressibility (1/GPa) = 0.19926613
#
# Stress axis : x y z
#
# Youngs Moduli (GPa) = 16.65030 10.81101 40.06318
#
# Poissons Ratio (x) = -0.09755 -0.31025
# Poissons Ratio (y) = -0.15024 0.23609
# Poissons Ratio (z) = -0.12894 0.06371
#
# Static dielectric constant tensor:
#      x y z
#    x 1.726310 0.000000 -0.073870 
#    y 0.000000 1.668490 0.000000 
#    z -0.073870 0.000000 1.764780 
# 
# From -- ./inp_files/89927.got.cif
#   From: 2010.05.17/outbox.cif.g08.bks.cpg/sg10_45_cif.got.tgz:89927.got - 2010.06.03 11:33:40.
