data_PCOD9144565
_publ_section_title
;
Structure prediction by ZEFSAII (Michael W. Deem and Ramdas Pophale) SiO2 
 PCOD9144565
Probable space group: P 2/M
;
_chemical_formula_sum "Si O2"
_cell_formula_units_Z 32
_cell_length_a 19.891874
_cell_length_b 8.393131
_cell_length_c 12.022851
_cell_angle_alpha 90.000000
_cell_angle_beta 119.947961
_cell_angle_gamma 90.000000
_cell_volume 1739.263145
_symmetry_space_group_name_H-M "P 2/M"
_symmetry_group_IT_number 10
_symmetry_cell_setting 'monoclinic'
loop_
_space_group_symop_operation_xyz
x,y,z
-x,y,-z
-x,-y,-z
x,-y,z
loop_
_atom_site_type_symbol
_atom_site_label
_atom_site_fract_x
_atom_site_fract_y
_atom_site_fract_z
Si Si1 0.182128 0.312357 0.884987
Si Si2 0.079485 0.188191 0.621125
Si Si3 0.459260 0.194112 0.581393
Si Si4 0.591102 0.806487 0.854067
Si Si5 0.221726 0.315283 0.599552
Si Si6 0.738349 0.689033 0.832264
Si Si7 0.674572 0.814265 0.134804
Si Si8 0.718766 0.188835 0.574055
O O1 0.200596 0.500000 0.884472
O O2 0.103437 0.272322 0.756136
O O3 0.248519 0.210176 0.877811
O O4 0.191978 0.278521 0.023297
O O5 0.150955 0.219582 0.596312
O O6 0.000000 0.246207 0.500000
O O7 0.072651 0.000000 0.635854
O O8 0.500000 0.245996 0.500000
O O9 0.510991 0.242375 0.729797
O O10 0.370483 0.245815 0.509916
O O11 0.458967 0.000000 0.579231
O O12 0.660253 0.743466 0.832244
O O13 0.595330 0.000000 0.856976
O O14 0.607406 0.755942 0.995096
O O15 0.205668 0.500000 0.604098
O O16 0.300964 0.271320 0.731586
O O17 0.231983 0.274165 0.479793
O O18 0.733964 0.500000 0.809516
O O19 0.744854 0.776081 0.720779
O O20 0.661880 0.000000 0.148911
O O21 0.720688 0.000000 0.554541
#
# Coordination Sequence:
#
# PCOD9144565 Si02
#       8
#     4   4   4   4   4   4   4   4
#     4   9  17  29  48  75 106 136 166 203 246 296
#     4  10  20  35  58  86 110 131 162 204 246 293
#     4   9  16  29  49  73  98 128 174 222 262 303
#     4   9  16  29  49  72  96 128 172 221 263 301
#     4  11  22  36  53  74 105 137 169 206 251 309
#     4  10  19  30  46  73 105 135 171 212 255 300
#     4   9  16  28  49  72  96 128 170 214 256 300
#     4  11  21  34  53  72  99 138 177 217 259 304
#
# _framework density 18.398596000000001
#
# number of rings (size 3 to 8) (size 9 to 14) (size 15 to 20)
#    0.000    2.250    1.250    4.500    0.000    3.000 
#    0.000    2.500    0.000    4.500    0.000    5.250 
#    0.000    0.000    0.000    0.000    0.000    0.000 
#
# Total GULP energy -178417.807162 kJ/mol
# GULP energy per Si atom -5575.556474 kJ/mol
# Density = 1.835672 g / cm^3
# Si number density = 18.398596 Si / 1000 Ang^3
#
#
#
# Elastic Constant Matrix: (Units=GPa)
#
#
# Indices 1 2 3 4 5 6 
#
# 1 30.1867 -6.4335 28.6213 0.0000 3.2226 0.0000
# 2 -6.4335 15.3159 0.3505 0.0000 3.2644 0.0000
# 3 28.6213 0.3505 122.0846 0.0000 14.8312 0.0000
# 4 0.0000 0.0000 0.0000 27.5954 0.0000 -12.9068
# 5 3.2226 3.2644 14.8312 0.0000 26.1532 0.0000
# 6 0.0000 0.0000 0.0000 -12.9068 0.0000 11.5361
#
#
#
# Elastic Compliance Matrix: (Units=1/GPa)
#
#
# Indices 1 2 3 4 5 6 
#
# 1 0.048421 0.021081 -0.011135 0.000000 -0.002283 0.000000
# 2 0.021081 0.076343 -0.003961 0.000000 -0.009880 0.000000
# 3 -0.011135 -0.003961 0.011369 0.000000 -0.004581 0.000000
# 4 0.000000 0.000000 0.000000 0.076017 0.000000 0.085049
# 5 -0.002283 -0.009880 -0.004581 0.000000 0.042349 0.000000
# 6 0.000000 0.000000 0.000000 0.085049 0.000000 0.181839
#
#
# Mechanical properties :
#
#
# Convention : Reuss Voigt Hill
#
# Bulk Modulus (GPa) = 6.75202 23.62933 15.19067
# Shear Modulus (GPa) = 10.55438 22.72686 16.64062
#
# Velocity S-wave (km/s) = 2.39770 3.51843 3.01067
# Velocity P-wave (km/s) = 3.36795 5.42002 4.51219
#
# Compressibility (1/GPa) = 0.14810384
#
# Stress axis : x y z
#
# Youngs Moduli (GPa) = 20.65208 13.09872 87.95553
#
# Poissons Ratio (x) = -0.27613 0.97938
# Poissons Ratio (y) = -0.43537 0.34840
# Poissons Ratio (z) = 0.22996 0.05189
#
# Static dielectric constant tensor:
#      x y z
#    x 1.601780 0.000000 0.014270 
#    y 0.000000 1.637930 0.000000 
#    z 0.014270 0.000000 1.686250 
# 
# From -- ./inp_files/54911.got.cif
#   From: 2010.05.17/outbox.cif.g08.bks.cpg/sg10_28_cif.got.tgz:54911.got - 2010.06.03 11:33:40.
