data_PCOD9144356
_publ_section_title
;
Structure prediction by ZEFSAII (Michael W. Deem and Ramdas Pophale) SiO2 
 PCOD9144356
Probable space group: P 2/M
;
_chemical_formula_sum "Si O2"
_cell_formula_units_Z 28
_cell_length_a 17.969864
_cell_length_b 10.649364
_cell_length_c 20.211703
_cell_angle_alpha 90.000000
_cell_angle_beta 158.903212
_cell_angle_gamma 90.000000
_cell_volume 1392.216957
_symmetry_space_group_name_H-M "P 2/M"
_symmetry_group_IT_number 10
_symmetry_cell_setting 'monoclinic'
loop_
_space_group_symop_operation_xyz
x,y,z
-x,y,-z
-x,-y,-z
x,-y,z
loop_
_atom_site_type_symbol
_atom_site_label
_atom_site_fract_x
_atom_site_fract_y
_atom_site_fract_z
Si Si1 0.752034 0.135170 0.290044
Si Si2 0.182380 0.646662 0.753028
Si Si3 0.312201 0.347186 0.294130
Si Si4 0.391186 0.645860 0.568357
Si Si5 0.273118 0.641091 0.975100
Si Si6 0.989013 0.645073 0.850953
Si Si7 0.290387 0.713417 0.626347
O O1 0.716311 0.257648 0.215042
O O2 0.684457 0.162049 0.308973
O O3 0.000000 0.127851 0.500000
O O4 0.674768 0.000000 0.201855
O O5 0.243457 0.500000 0.795322
O O6 0.932465 0.655729 0.540760
O O7 0.231021 0.694460 0.867683
O O8 0.500000 0.314981 0.500000
O O9 0.301026 0.500000 0.283481
O O10 0.398221 0.310759 0.293361
O O11 0.102561 0.302397 0.156149
O O12 0.418266 0.500000 0.611918
O O13 0.209406 0.644286 0.362983
O O14 0.316075 0.722887 0.569122
O O15 0.182098 0.500000 0.895147
O O16 0.514701 0.634126 0.188048
O O17 0.167195 0.701431 0.952047
O O18 0.049077 0.500000 0.915525
#
# Coordination Sequence:
#
# PCOD9144356 Si02
#       7
#     4   4   4   4   4   4   4
#     4   9  21  40  58  75 100 133 167 204 250 304
#     4  10  20  35  54  75 100 130 165 207 253 295
#     4   7  11  19  35  58  88 133 171 192 230 290
#     4   9  14  23  41  66  96 130 166 201 242 289
#     4  10  19  29  45  73 104 131 164 207 250 292
#     4   8  13  24  39  59  97 137 165 196 240 290
#     4  11  20  31  50  72  98 129 167 207 250 295
#
# _framework density 20.111808
#
# number of rings (size 3 to 8) (size 9 to 14) (size 15 to 20)
#    0.000    2.857    1.429    3.000    0.000    4.286 
#    0.000    3.571    0.000    3.429    0.000    0.000 
#    0.000    8.571    0.000    0.000    0.000    0.000 
#
# Total GULP energy -155880.409578 kJ/mol
# GULP energy per Si atom -5567.157485 kJ/mol
# Density = 2.006603 g / cm^3
# Si number density = 20.111808 Si / 1000 Ang^3
#
#
#
# Elastic Constant Matrix: (Units=GPa)
#
#
# Indices 1 2 3 4 5 6 
#
# 1 157.6647 44.1566 20.3669 0.0000 12.6460 0.0000
# 2 44.1566 53.8986 5.5806 0.0000 2.0424 0.0000
# 3 20.3669 5.5806 69.8531 0.0000 6.1669 0.0000
# 4 0.0000 0.0000 0.0000 -20.2584 0.0000 16.5719
# 5 12.6460 2.0424 6.1669 0.0000 29.4779 0.0000
# 6 0.0000 0.0000 0.0000 16.5719 0.0000 -24.8822
#
#
#
# Elastic Compliance Matrix: (Units=1/GPa)
#
#
# Indices 1 2 3 4 5 6 
#
# 1 0.008719 -0.006853 -0.001739 0.000000 -0.002902 0.000000
# 2 -0.006853 0.024124 -0.000042 0.000000 0.001277 0.000000
# 3 -0.001739 -0.000042 0.015038 0.000000 -0.002397 0.000000
# 4 0.000000 0.000000 0.000000 -0.108446 0.000000 -0.072226
# 5 -0.002902 0.001277 -0.002397 0.000000 0.035582 0.000000
# 6 0.000000 0.000000 0.000000 -0.072226 0.000000 -0.088293
#
#
# Mechanical properties :
#
#
# Convention : Reuss Voigt Hill
#
# Bulk Modulus (GPa) = 32.66542 46.84718 39.75630
# Shear Modulus (GPa) = -58.27218 10.95496 -23.65861
#
# Velocity S-wave (km/s) = -5.38860 2.33642 -3.43352
# Velocity P-wave (km/s) = 4.73697 5.53375 2.02282
#
# Compressibility (1/GPa) = 0.03061341
#
# Stress axis : x y z
#
# Youngs Moduli (GPa) = 114.68791 41.45263 66.49984
#
# Poissons Ratio (x) = 0.28409 0.11561
# Poissons Ratio (y) = 0.78600 0.00278
# Poissons Ratio (z) = 0.19939 0.00173
#
# Static dielectric constant tensor:
#      x y z
#    x 1.826130 0.000000 0.002740 
#    y 0.000000 1.675980 0.000000 
#    z 0.002740 0.000000 1.772010 
# 
# From -- ./inp_files/85853.got.cif
#   From: 2010.05.17/outbox.cif.g08.bks.cpg/sg10_43_cif.got.tgz:85853.got - 2010.06.03 11:33:40.
