data_PCOD9144885
_publ_section_title
;
Structure prediction by ZEFSAII (Michael W. Deem and Ramdas Pophale) SiO2 
 PCOD9144885
Probable space group: P 2/M
;
_chemical_formula_sum "Si O2"
_cell_formula_units_Z 32
_cell_length_a 11.874790
_cell_length_b 7.372325
_cell_length_c 20.226222
_cell_angle_alpha 90.000000
_cell_angle_beta 126.060677
_cell_angle_gamma 90.000000
_cell_volume 1431.424012
_symmetry_space_group_name_H-M "P 2/M"
_symmetry_group_IT_number 10
_symmetry_cell_setting 'monoclinic'
loop_
_space_group_symop_operation_xyz
x,y,z
-x,y,-z
-x,-y,-z
x,-y,z
loop_
_atom_site_type_symbol
_atom_site_label
_atom_site_fract_x
_atom_site_fract_y
_atom_site_fract_z
Si Si1 0.549387 0.221108 0.328922
Si Si2 0.069404 0.280176 0.126109
Si Si3 0.094412 0.792418 0.284055
Si Si4 0.184712 0.780256 0.751611
Si Si5 0.859267 0.780361 0.417258
Si Si6 0.393741 0.777711 0.406165
Si Si7 0.206619 0.284837 0.038595
Si Si8 0.486835 0.216386 0.833758
O O1 0.710489 0.276160 0.395751
O O2 0.451488 0.280605 0.354662
O O3 0.506921 0.282417 0.240464
O O4 0.546497 0.000000 0.327498
O O5 0.074595 0.500000 0.131700
O O6 0.113097 0.208381 0.211833
O O7 0.164975 0.218908 0.097733
O O8 0.911833 0.220947 0.052932
O O9 0.235952 0.713230 0.362601
O O10 0.943668 0.712020 0.249057
O O11 0.088990 0.000000 0.306511
O O12 0.147412 0.737285 0.662713
O O13 0.343362 0.715611 0.816853
O O14 0.190208 0.000000 0.760654
O O15 0.000000 0.713452 0.500000
O O16 0.861404 0.000000 0.422358
O O17 0.500000 0.723381 0.500000
O O18 0.390516 0.000000 0.404529
O O19 0.187359 0.500000 0.034525
O O20 0.367551 0.251153 0.080247
O O21 0.473391 0.000000 0.824482
#
# Coordination Sequence:
#
# PCOD9144885 Si02
#       8
#     4   4   4   4   4   4   4   4
#     4   8  14  23  35  57  87 117 152 188 228 274
#     4   9  19  35  52  72  97 124 152 191 243 287
#     4  10  19  31  48  69  98 131 163 194 233 287
#     4   8  16  28  41  64  96 129 161 196 236 277
#     4   8  13  20  35  55  82 121 158 191 229 273
#     4   9  17  25  37  62  95 125 151 192 240 274
#     4   9  18  33  53  74  95 118 153 198 238 285
#     4   9  16  29  48  69  96 126 156 197 240 276
#
# _framework density 22.355359
#
# number of rings (size 3 to 8) (size 9 to 14) (size 15 to 20)
#    0.000    3.250    0.000    3.000    1.750    2.000 
#    0.000    2.500    0.000    4.125    0.000    0.000 
#    0.000    3.000    0.000    0.000    0.000    0.000 
#
# Total GULP energy -178535.513609 kJ/mol
# GULP energy per Si atom -5579.234800 kJ/mol
# Density = 2.230448 g / cm^3
# Si number density = 22.355359 Si / 1000 Ang^3
#
#
#
# Elastic Constant Matrix: (Units=GPa)
#
#
# Indices 1 2 3 4 5 6 
#
# 1 90.9926 1.1830 38.2468 0.0000 30.1682 0.0000
# 2 1.1830 77.9522 -5.6173 0.0000 1.2850 0.0000
# 3 38.2468 -5.6173 82.3082 0.0000 41.6264 0.0000
# 4 0.0000 0.0000 0.0000 63.6924 0.0000 -25.6155
# 5 30.1682 1.2850 41.6264 0.0000 36.7943 0.0000
# 6 0.0000 0.0000 0.0000 -25.6155 0.0000 33.2159
#
#
#
# Elastic Compliance Matrix: (Units=1/GPa)
#
#
# Indices 1 2 3 4 5 6 
#
# 1 0.015206 -0.000190 -0.001816 0.000000 -0.010407 0.000000
# 2 -0.000190 0.013076 0.002648 0.000000 -0.003296 0.000000
# 3 -0.001816 0.002648 0.029141 0.000000 -0.031572 0.000000
# 4 0.000000 0.000000 0.000000 0.022759 0.000000 0.017552
# 5 -0.010407 -0.003296 -0.031572 0.000000 0.071544 0.000000
# 6 0.000000 0.000000 0.000000 0.017552 0.000000 0.043641
#
#
# Mechanical properties :
#
#
# Convention : Reuss Voigt Hill
#
# Bulk Modulus (GPa) = 17.03363 35.43087 26.23225
# Shear Modulus (GPa) = 23.40248 41.23653 32.31950
#
# Velocity S-wave (km/s) = 3.23900 4.29953 3.80638
# Velocity P-wave (km/s) = 4.65018 6.36642 5.57474
#
# Compressibility (1/GPa) = 0.05870739
#
# Stress axis : x y z
#
# Youngs Moduli (GPa) = 65.76404 76.47357 34.31604
#
# Poissons Ratio (x) = 0.01454 0.06231
# Poissons Ratio (y) = 0.01250 -0.09087
# Poissons Ratio (z) = 0.11941 -0.20249
#
# Static dielectric constant tensor:
#      x y z
#    x 1.843000 0.000000 0.051560 
#    y 0.000000 1.900080 0.000000 
#    z 0.051560 0.000000 1.798060 
# 
# From -- ./inp_files/83636.got.cif
#   From: 2010.05.17/outbox.cif.g08.bks.cpg/sg10_42_cif.got.tgz:83636.got - 2010.06.03 11:33:40.
