data_PCOD9144336
_publ_section_title
;
Structure prediction by ZEFSAII (Michael W. Deem and Ramdas Pophale) SiO2 
 PCOD9144336
Probable space group: P 2/M
;
_chemical_formula_sum "Si O2"
_cell_formula_units_Z 28
_cell_length_a 23.321511
_cell_length_b 7.357524
_cell_length_c 25.665059
_cell_angle_alpha 90.000000
_cell_angle_beta 16.934648
_cell_angle_gamma 90.000000
_cell_volume 1282.751166
_symmetry_space_group_name_H-M "P 2/M"
_symmetry_group_IT_number 10
_symmetry_cell_setting 'monoclinic'
loop_
_space_group_symop_operation_xyz
x,y,z
-x,y,-z
-x,-y,-z
x,-y,z
loop_
_atom_site_type_symbol
_atom_site_label
_atom_site_fract_x
_atom_site_fract_y
_atom_site_fract_z
Si Si1 0.555381 0.707507 0.007196
Si Si2 0.329894 0.722643 0.358666
Si Si3 0.836502 0.717453 0.387832
Si Si4 0.867652 0.707507 0.569772
Si Si5 0.264214 0.277357 0.047225
Si Si6 0.203129 0.221963 0.796871
Si Si7 0.368113 0.215093 0.543962
O O1 0.621239 0.500000 0.938277
O O2 0.706789 0.783747 0.917953
O O3 0.500000 0.793162 0.000000
O O4 0.351226 0.699624 0.216258
O O5 0.325921 0.500000 0.360385
O O6 0.282097 0.782175 0.458360
O O7 0.167438 0.783747 0.457305
O O8 0.545329 0.778088 0.151557
O O9 0.844482 0.500000 0.385172
O O10 0.734574 0.756304 0.421809
O O11 0.060726 0.782175 0.198817
O O12 0.942690 0.500000 0.497794
O O13 0.000000 0.793163 0.500000
O O14 0.267002 0.500000 0.046691
O O15 0.240034 0.280737 0.704794
O O16 0.405549 0.280736 0.649623
O O17 0.195275 0.000000 0.804725
O O18 0.000000 0.284109 0.000000
O O19 0.383044 0.000000 0.538985
#
# Coordination Sequence:
#
# PCOD9144336 Si02
#       7
#     4   4   4   4   4   4   4
#     4   8  13  19  29  46  69 101 140 181 222 263
#     4   8  15  26  36  52  81 116 150 181 218 268
#     4  10  19  29  45  64  90 128 154 174 218 272
#     4   8  13  19  29  46  69 101 140 181 222 263
#     4   8  15  26  36  52  81 116 150 181 218 268
#     4   8  15  31  54  74  94 120 146 178 222 260
#     4   9  18  32  50  74  96 114 148 188 214 252
#
# _framework density 21.828084
#
# number of rings (size 3 to 8) (size 9 to 14) (size 15 to 20)
#    0.000    3.571    0.000    2.571    2.000    1.143 
#    0.000    1.429    0.000    0.857    0.000    0.000 
#    0.000    1.143    0.000    0.000    0.000    0.000 
#
# Total GULP energy -156082.881666 kJ/mol
# GULP energy per Si atom -5574.388631 kJ/mol
# Density = 2.177840 g / cm^3
# Si number density = 21.828084 Si / 1000 Ang^3
#
#
#
# Elastic Constant Matrix: (Units=GPa)
#
#
# Indices 1 2 3 4 5 6 
#
# 1 247.2055 2.3653 119.5858 0.0000 -15.9262 0.0000
# 2 2.3653 76.9815 6.6238 0.0000 0.8645 0.0000
# 3 119.5858 6.6238 162.7297 0.0000 -1.2283 0.0000
# 4 0.0000 0.0000 0.0000 -10.6658 0.0000 -7.4912
# 5 -15.9262 0.8645 -1.2283 0.0000 27.5809 0.0000
# 6 0.0000 0.0000 0.0000 -7.4912 0.0000 26.2253
#
#
#
# Elastic Compliance Matrix: (Units=1/GPa)
#
#
# Indices 1 2 3 4 5 6 
#
# 1 0.006619 0.000173 -0.004844 0.000000 0.003601 0.000000
# 2 0.000173 0.013045 -0.000661 0.000000 -0.000338 0.000000
# 3 -0.004844 -0.000661 0.009714 0.000000 -0.002344 0.000000
# 4 0.000000 0.000000 0.000000 -0.078091 0.000000 -0.022307
# 5 0.003601 -0.000338 -0.002344 0.000000 0.038242 0.000000
# 6 0.000000 0.000000 0.000000 -0.022307 0.000000 0.031759
#
#
# Mechanical properties :
#
#
# Convention : Reuss Voigt Hill
#
# Bulk Modulus (GPa) = 53.43263 82.67404 68.05334
# Shear Modulus (GPa) = 130.92240 32.51754 81.71997
#
# Velocity S-wave (km/s) = 7.75301 3.86386 6.12530
# Velocity P-wave (km/s) = 10.23120 7.60679 9.01501
#
# Compressibility (1/GPa) = 0.01871516
#
# Stress axis : x y z
#
# Youngs Moduli (GPa) = 151.08636 76.65493 102.94480
#
# Poissons Ratio (x) = -0.01326 0.49864
# Poissons Ratio (y) = -0.02613 0.06801
# Poissons Ratio (z) = 0.73183 0.05064
#
# Static dielectric constant tensor:
#      x y z
#    x 1.806820 0.000000 -0.006460 
#    y 0.000000 1.876000 0.000000 
#    z -0.006460 0.000000 1.775030 
# 
# From -- ./inp_files/90374.got.cif
#   From: 2010.05.17/outbox.cif.g08.bks.cpg/sg10_46_cif.got.tgz:90374.got - 2010.06.03 11:33:40.
