data_PCOD9144519
_publ_section_title
;
Structure prediction by ZEFSAII (Michael W. Deem and Ramdas Pophale) SiO2 
 PCOD9144519
Probable space group: P 2/M
;
_chemical_formula_sum "Si O2"
_cell_formula_units_Z 28
_cell_length_a 13.743570
_cell_length_b 8.782676
_cell_length_c 28.228672
_cell_angle_alpha 90.000000
_cell_angle_beta 149.176242
_cell_angle_gamma 90.000000
_cell_volume 1745.923198
_symmetry_space_group_name_H-M "P 2/M"
_symmetry_group_IT_number 10
_symmetry_cell_setting 'monoclinic'
loop_
_space_group_symop_operation_xyz
x,y,z
-x,y,-z
-x,-y,-z
x,-y,z
loop_
_atom_site_type_symbol
_atom_site_label
_atom_site_fract_x
_atom_site_fract_y
_atom_site_fract_z
Si Si1 0.688886 0.676645 0.721345
Si Si2 0.452186 0.683886 0.533923
Si Si3 0.099445 0.817949 0.441229
Si Si4 0.929533 0.819308 0.900289
Si Si5 0.678914 0.180052 0.273962
Si Si6 0.289542 0.676540 0.610504
Si Si7 0.719812 0.681229 0.903496
O O1 0.749659 0.500000 0.744834
O O2 0.620488 0.727729 0.640785
O O3 0.844089 0.773317 0.814014
O O4 0.495566 0.682539 0.671519
O O5 0.500000 0.722440 0.500000
O O6 0.432359 0.500000 0.529724
O O7 0.258289 0.758422 0.471498
O O8 0.145865 0.739800 0.511084
O O9 0.883030 0.782377 0.336539
O O10 0.115642 0.000000 0.453535
O O11 0.791879 0.751134 0.883614
O O12 0.937596 0.000000 0.909250
O O13 0.134218 0.746877 0.996888
O O14 0.701969 0.224666 0.338776
O O15 0.496181 0.268972 0.178782
O O16 0.644759 0.000000 0.255501
O O17 0.249264 0.500000 0.605106
O O18 0.735906 0.500000 0.907429
#
# Coordination Sequence:
#
# PCOD9144519 Si02
#       7
#     4   4   4   4   4   4   4
#     4   9  17  30  48  71  98 127 162 201 242 288
#     4   9  19  36  56  76  98 125 161 205 248 292
#     4  10  21  33  47  69  98 129 161 200 243 293
#     4  11  20  31  47  68  96 130 166 203 243 286
#     4  11  21  32  45  66  97 132 167 201 240 285
#     4  10  19  30  46  67  95 131 168 202 235 280
#     4  11  21  32  47  66  94 131 170 207 241 280
#
# _framework density 16.037361000000001
#
# number of rings (size 3 to 8) (size 9 to 14) (size 15 to 20)
#    0.000    1.857    1.429    6.000    0.000    6.571 
#    0.000    0.000    0.000    0.000    0.000    1.000 
#    0.000    8.000    0.000    0.000    0.000    0.000 
#
# Total GULP energy -156280.906292 kJ/mol
# GULP energy per Si atom -5581.460939 kJ/mol
# Density = 1.600086 g / cm^3
# Si number density = 16.037361 Si / 1000 Ang^3
#
#
#
# Elastic Constant Matrix: (Units=GPa)
#
#
# Indices 1 2 3 4 5 6 
#
# 1 49.7723 23.5303 43.0202 0.0000 -7.3174 0.0000
# 2 23.5303 90.5310 55.8126 0.0000 5.4739 0.0000
# 3 43.0202 55.8126 132.2118 0.0000 6.6616 0.0000
# 4 0.0000 0.0000 0.0000 25.6029 0.0000 0.5277
# 5 -7.3174 5.4739 6.6616 0.0000 18.8912 0.0000
# 6 0.0000 0.0000 0.0000 0.5277 0.0000 -6.0646
#
#
#
# Elastic Compliance Matrix: (Units=1/GPa)
#
#
# Indices 1 2 3 4 5 6 
#
# 1 0.033063 -0.003342 -0.010223 0.000000 0.017380 0.000000
# 2 -0.003342 0.015355 -0.005198 0.000000 -0.003911 0.000000
# 3 -0.010223 -0.005198 0.013447 0.000000 -0.007196 0.000000
# 4 0.000000 0.000000 0.000000 0.038988 0.000000 0.003392
# 5 0.017380 -0.003911 -0.007196 0.000000 0.063338 0.000000
# 6 0.000000 0.000000 0.000000 0.003392 0.000000 -0.164596
#
#
# Mechanical properties :
#
#
# Convention : Reuss Voigt Hill
#
# Bulk Modulus (GPa) = 41.08523 57.47126 49.27825
# Shear Modulus (GPa) = 110.53562 17.69603 64.11583
#
# Velocity S-wave (km/s) = 8.31104 3.32539 6.32976
# Velocity P-wave (km/s) = 10.85228 7.11744 9.17687
#
# Compressibility (1/GPa) = 0.02433965
#
# Stress axis : x y z
#
# Youngs Moduli (GPa) = 30.24535 65.12350 74.36628
#
# Poissons Ratio (x) = 0.21762 0.76027
# Poissons Ratio (y) = 0.10107 0.38654
# Poissons Ratio (z) = 0.30921 0.33850
#
# Static dielectric constant tensor:
#      x y z
#    x 1.517390 0.000000 0.011690 
#    y 0.000000 1.539190 0.000000 
#    z 0.011690 0.000000 1.559860 
# 
# From -- ./inp_files/65780.got.cif
#   From: 2010.05.17/outbox.cif.g08.bks.cpg/sg10_33_cif.got.tgz:65780.got - 2010.06.03 11:33:40.
