data_PCOD9144776
_publ_section_title
;
Structure prediction by ZEFSAII (Michael W. Deem and Ramdas Pophale) SiO2 
 PCOD9144776
Probable space group: P 2/M
;
_chemical_formula_sum "Si O2"
_cell_formula_units_Z 32
_cell_length_a 7.404134
_cell_length_b 13.560452
_cell_length_c 21.734604
_cell_angle_alpha 90.000000
_cell_angle_beta 109.917154
_cell_angle_gamma 90.000000
_cell_volume 2051.700808
_symmetry_space_group_name_H-M "P 2/M"
_symmetry_group_IT_number 10
_symmetry_cell_setting 'monoclinic'
loop_
_space_group_symop_operation_xyz
x,y,z
-x,y,-z
-x,-y,-z
x,-y,z
loop_
_atom_site_type_symbol
_atom_site_label
_atom_site_fract_x
_atom_site_fract_y
_atom_site_fract_z
Si Si1 0.069147 0.111233 0.855215
Si Si2 0.358718 0.888767 0.144784
Si Si3 0.254467 0.187223 0.754468
Si Si4 0.140067 0.688225 0.925273
Si Si5 0.706361 0.880371 0.500000
Si Si6 0.325645 0.390281 0.825645
Si Si7 0.893252 0.119332 0.393252
Si Si8 0.289521 0.311775 0.074727
O O1 0.119601 0.138729 0.791186
O O2 0.160250 0.196754 0.907931
O O3 0.841544 0.115040 0.841545
O O4 0.135059 0.000000 0.876620
O O5 0.537230 0.861272 0.208813
O O6 0.344390 0.803246 0.092069
O O7 0.381820 0.000000 0.123380
O O8 0.272947 0.302681 0.772946
O O9 0.178164 0.165656 0.678164
O O10 0.201656 0.626859 0.873165
O O11 0.918322 0.672334 0.918322
O O12 0.265446 0.666686 1.000000
O O13 0.500000 0.844872 0.500000
O O14 0.761007 0.852641 0.436451
O O15 0.888105 0.852641 0.563549
O O16 0.701579 0.000000 0.500000
O O17 0.298363 0.500000 0.798363
O O18 0.544673 0.373141 0.873165
O O19 0.886831 0.000000 0.386831
#
# Coordination Sequence:
#
# PCOD9144776 Si02
#       8
#     4   4   4   4   4   4   4   4
#     4   9  17  28  42  62  89 119 147 176 215 263
#     4   9  17  28  42  62  89 119 147 176 215 263
#     4  10  19  31  45  63  89 117 150 187 217 254
#     4   9  18  31  46  65  86 109 143 185 227 274
#     4   8  15  27  42  65  97 125 146 167 191 229
#     4  10  21  35  48  62  83 111 145 190 238 274
#     4   9  16  26  43  67  93 121 147 168 198 241
#     4   9  18  31  46  65  86 109 143 185 227 274
#
# _framework density 15.596814999999999
#
# number of rings (size 3 to 8) (size 9 to 14) (size 15 to 20)
#    0.000    2.875    0.000    2.250    0.000    3.000 
#    0.000    6.250    0.000    4.500    0.000    1.750 
#    0.000    1.000    0.000    0.000    0.000    0.000 
#
# Total GULP energy -178313.428827 kJ/mol
# GULP energy per Si atom -5572.294651 kJ/mol
# Density = 1.556132 g / cm^3
# Si number density = 15.596815 Si / 1000 Ang^3
#
#
#
# Elastic Constant Matrix: (Units=GPa)
#
#
# Indices 1 2 3 4 5 6 
#
# 1 69.1920 8.3080 24.2461 0.0000 1.8900 0.0000
# 2 8.3080 58.8998 -2.9027 0.0000 0.7403 0.0000
# 3 24.2461 -2.9027 76.3110 0.0000 -2.3604 0.0000
# 4 0.0000 0.0000 0.0000 6.3475 0.0000 0.3317
# 5 1.8900 0.7403 -2.3604 0.0000 8.4434 0.0000
# 6 0.0000 0.0000 0.0000 0.3317 0.0000 11.3697
#
#
#
# Elastic Compliance Matrix: (Units=1/GPa)
#
#
# Indices 1 2 3 4 5 6 
#
# 1 0.016872 -0.002592 -0.005618 0.000000 -0.005120 0.000000
# 2 -0.002592 0.017423 0.001470 0.000000 -0.000536 0.000000
# 3 -0.005618 0.001470 0.015111 0.000000 0.005353 0.000000
# 4 0.000000 0.000000 0.000000 0.157783 0.000000 -0.004603
# 5 -0.005120 -0.000536 0.005353 0.000000 0.121125 0.000000
# 6 0.000000 0.000000 0.000000 -0.004603 0.000000 0.088087
#
#
# Mechanical properties :
#
#
# Convention : Reuss Voigt Hill
#
# Bulk Modulus (GPa) = 27.83571 29.30062 28.56817
# Shear Modulus (GPa) = 11.31588 16.88222 14.09905
#
# Velocity S-wave (km/s) = 2.69648 3.29358 3.00987
# Velocity P-wave (km/s) = 5.25171 5.76980 5.51684
#
# Compressibility (1/GPa) = 0.03592507
#
# Stress axis : x y z
#
# Youngs Moduli (GPa) = 59.26903 57.39598 66.17840
#
# Poissons Ratio (x) = 0.14879 0.37177
# Poissons Ratio (y) = 0.15365 -0.09727
# Poissons Ratio (z) = 0.33296 -0.08436
#
# Static dielectric constant tensor:
#      x y z
#    x 1.541130 0.000000 0.003890 
#    y 0.000000 1.524100 0.000000 
#    z 0.003890 0.000000 1.482280 
# 
# From -- ./inp_files/87955.got.cif
#   From: 2010.05.17/outbox.cif.g08.bks.cpg/sg10_44_cif.got.tgz:87955.got - 2010.06.03 11:33:40.
