data_PCOD9144819
_publ_section_title
;
Structure prediction by ZEFSAII (Michael W. Deem and Ramdas Pophale) SiO2 
 PCOD9144819
Probable space group: P 2/M
;
_chemical_formula_sum "Si O2"
_cell_formula_units_Z 28
_cell_length_a 11.719501
_cell_length_b 9.359557
_cell_length_c 18.332134
_cell_angle_alpha 90.000000
_cell_angle_beta 141.286677
_cell_angle_gamma 90.000000
_cell_volume 1257.627596
_symmetry_space_group_name_H-M "P 2/M"
_symmetry_group_IT_number 10
_symmetry_cell_setting 'monoclinic'
loop_
_space_group_symop_operation_xyz
x,y,z
-x,y,-z
-x,-y,-z
x,-y,z
loop_
_atom_site_type_symbol
_atom_site_label
_atom_site_fract_x
_atom_site_fract_y
_atom_site_fract_z
Si Si1 0.645872 0.160466 0.452353
Si Si2 0.943797 0.839989 0.395085
Si Si3 0.183601 0.338096 0.795908
Si Si4 0.733339 0.671373 0.004968
Si Si5 0.589194 0.166636 0.804563
Si Si6 0.891991 0.832716 0.836881
Si Si7 0.241683 0.337544 0.361963
O O1 0.862080 0.145909 0.547746
O O2 0.558353 0.202279 0.331323
O O3 0.636816 0.276096 0.511697
O O4 0.574949 0.000000 0.435171
O O5 0.000000 0.769947 0.500000
O O6 0.814981 0.756875 0.275496
O O7 0.871733 0.000000 0.374837
O O8 0.241642 0.500000 0.808311
O O9 0.288733 0.287494 0.920930
O O10 0.970213 0.342640 0.715412
O O11 0.740709 0.500000 0.005683
O O12 0.926686 0.738996 0.077058
O O13 0.592722 0.735390 0.877083
O O14 0.780438 0.180249 0.855954
O O15 0.569394 0.000000 0.814628
O O16 0.764561 0.771148 0.708781
O O17 0.933671 0.000000 0.845570
O O18 0.287699 0.500000 0.364175
#
# Coordination Sequence:
#
# PCOD9144819 Si02
#       7
#     4   4   4   4   4   4   4
#     4   9  18  33  49  67  96 128 155 189 237 288
#     4   9  17  30  52  79  98 114 144 188 234 280
#     4   8  16  30  47  69  94 120 150 185 228 277
#     4  10  20  33  49  69  94 124 162 203 235 268
#     4  10  21  33  46  66  93 129 166 196 232 280
#     4  10  19  31  47  67  92 124 165 204 235 273
#     4   9  17  30  47  68  94 123 159 199 237 278
#
# _framework density 22.264142
#
# number of rings (size 3 to 8) (size 9 to 14) (size 15 to 20)
#    0.000    2.714    0.000    2.571    0.000    8.286 
#    0.000    2.857    0.000    0.857    0.000    6.000 
#    0.000    0.000    0.000    0.000    0.000    0.000 
#
# Total GULP energy -156377.748080 kJ/mol
# GULP energy per Si atom -5584.919574 kJ/mol
# Density = 2.221347 g / cm^3
# Si number density = 22.264142 Si / 1000 Ang^3
#
#
#
# Elastic Constant Matrix: (Units=GPa)
#
#
# Indices 1 2 3 4 5 6 
#
# 1 51.3941 27.6547 26.5931 0.0000 3.8469 0.0000
# 2 27.6547 97.3949 83.9140 0.0000 -33.3904 0.0000
# 3 26.5931 83.9140 175.7822 0.0000 -39.4099 0.0000
# 4 0.0000 0.0000 0.0000 31.1542 0.0000 -7.6799
# 5 3.8469 -33.3904 -39.4099 0.0000 42.9329 0.0000
# 6 0.0000 0.0000 0.0000 -7.6799 0.0000 7.5861
#
#
#
# Elastic Compliance Matrix: (Units=1/GPa)
#
#
# Indices 1 2 3 4 5 6 
#
# 1 0.026759 -0.010029 -0.001948 0.000000 -0.011985 0.000000
# 2 -0.010029 0.023326 -0.006736 0.000000 0.012857 0.000000
# 3 -0.001948 -0.006736 0.010153 0.000000 0.004256 0.000000
# 4 0.000000 0.000000 0.000000 0.042773 0.000000 0.043301
# 5 -0.011985 0.012857 0.004256 0.000000 0.038273 0.000000
# 6 0.000000 0.000000 0.000000 0.043301 0.000000 0.175656
#
#
# Mechanical properties :
#
#
# Convention : Reuss Voigt Hill
#
# Bulk Modulus (GPa) = 43.83293 66.76609 55.29951
# Shear Modulus (GPa) = 13.81334 28.76195 21.28765
#
# Velocity S-wave (km/s) = 2.49355 3.59813 3.09551
# Velocity P-wave (km/s) = 5.29347 6.87861 6.13743
#
# Compressibility (1/GPa) = 0.02281390
#
# Stress axis : x y z
#
# Youngs Moduli (GPa) = 37.37067 42.86981 98.49197
#
# Poissons Ratio (x) = 0.42994 0.19184
# Poissons Ratio (y) = 0.37479 0.66340
# Poissons Ratio (z) = 0.07279 0.28875
#
# Static dielectric constant tensor:
#      x y z
#    x 1.885600 0.000000 0.051590 
#    y 0.000000 1.773180 0.000000 
#    z 0.051590 0.000000 1.863300 
# 
# From -- ./inp_files/54702.got.cif
#   From: 2010.05.17/outbox.cif.g08.bks.cpg/sg10_28_cif.got.tgz:54702.got - 2010.06.03 11:33:40.
