data_PCOD9144352
_publ_section_title
;
Structure prediction by ZEFSAII (Michael W. Deem and Ramdas Pophale) SiO2 
 PCOD9144352
Probable space group: P 2/M
;
_chemical_formula_sum "Si O2"
_cell_formula_units_Z 32
_cell_length_a 12.770692
_cell_length_b 7.644353
_cell_length_c 17.223374
_cell_angle_alpha 90.000000
_cell_angle_beta 105.733574
_cell_angle_gamma 90.000000
_cell_volume 1618.411783
_symmetry_space_group_name_H-M "P 2/M"
_symmetry_group_IT_number 10
_symmetry_cell_setting 'monoclinic'
loop_
_space_group_symop_operation_xyz
x,y,z
-x,y,-z
-x,-y,-z
x,-y,z
loop_
_atom_site_type_symbol
_atom_site_label
_atom_site_fract_x
_atom_site_fract_y
_atom_site_fract_z
Si Si1 0.674178 0.214963 0.675831
Si Si2 0.864067 0.705444 0.137629
Si Si3 0.885833 0.200956 0.802869
Si Si4 0.868497 0.702973 0.969567
Si Si5 0.333696 0.204139 0.499628
Si Si6 0.878155 0.287484 0.456061
Si Si7 0.445850 0.211456 0.679190
Si Si8 0.234553 0.292496 0.724381
O O1 0.790795 0.276537 0.730006
O O2 0.650917 0.275478 0.583352
O O3 0.571425 0.264999 0.708237
O O4 0.678385 0.000000 0.676072
O O5 0.836911 0.500000 0.126429
O O6 0.835086 0.779607 0.046490
O O7 0.803625 0.780536 0.200628
O O8 0.994655 0.715494 0.176095
O O9 0.903235 0.000000 0.784398
O O10 0.842292 0.208502 0.882792
O O11 0.834594 0.500000 0.956791
O O12 0.000000 0.704863 0.000000
O O13 0.207901 0.221529 0.498188
O O14 0.398761 0.277403 0.586611
O O15 0.364361 0.000000 0.501436
O O16 0.874447 0.500000 0.456072
O O17 0.835092 0.225357 0.363263
O O18 0.000000 0.232506 0.500000
O O19 0.360518 0.267337 0.727421
O O20 0.442189 0.000000 0.676936
O O21 0.213189 0.500000 0.722994
#
# Coordination Sequence:
#
# PCOD9144352 Si02
#       8
#     4   4   4   4   4   4   4   4
#     4   9  18  31  47  69  96 122 151 194 236 270
#     4   9  18  32  50  69  93 125 154 184 224 276
#     4  10  19  29  45  72 100 121 146 186 234 276
#     4   8  15  30  48  66  91 122 153 183 223 275
#     4   9  17  30  48  67  86 119 162 194 223 264
#     4   9  18  30  43  63  94 126 149 181 231 276
#     4   9  17  32  51  67  88 122 161 194 229 269
#     4   9  18  32  48  67  92 120 154 192 228 268
#
# _framework density 19.772473000000002
#
# number of rings (size 3 to 8) (size 9 to 14) (size 15 to 20)
#    0.000    3.000    0.000    1.500    1.750    4.500 
#    0.000    2.500    0.000    3.750    0.000    5.250 
#    0.000    0.000    0.000    0.000    0.000    0.000 
#
# Total GULP energy -178312.164749 kJ/mol
# GULP energy per Si atom -5572.255148 kJ/mol
# Density = 1.972747 g / cm^3
# Si number density = 19.772473 Si / 1000 Ang^3
#
#
#
# Elastic Constant Matrix: (Units=GPa)
#
#
# Indices 1 2 3 4 5 6 
#
# 1 54.9340 -11.6664 28.6835 0.0000 -19.6267 0.0000
# 2 -11.6664 34.0733 -0.6755 0.0000 -0.6894 0.0000
# 3 28.6835 -0.6755 79.7423 0.0000 -35.6258 0.0000
# 4 0.0000 0.0000 0.0000 4.4708 0.0000 -6.9910
# 5 -19.6267 -0.6894 -35.6258 0.0000 27.9613 0.0000
# 6 0.0000 0.0000 0.0000 -6.9910 0.0000 15.7409
#
#
#
# Elastic Compliance Matrix: (Units=1/GPa)
#
#
# Indices 1 2 3 4 5 6 
#
# 1 0.027369 0.009651 -0.002493 0.000000 0.016272 0.000000
# 2 0.009651 0.032827 0.000452 0.000000 0.008159 0.000000
# 3 -0.002493 0.000452 0.029398 0.000000 0.035718 0.000000
# 4 0.000000 0.000000 0.000000 0.732094 0.000000 0.325144
# 5 0.016272 0.008159 0.035718 0.000000 0.092895 0.000000
# 6 0.000000 0.000000 0.000000 0.325144 0.000000 0.207935
#
#
# Mechanical properties :
#
#
# Convention : Reuss Voigt Hill
#
# Bulk Modulus (GPa) = 9.54085 22.38142 15.96114
# Shear Modulus (GPa) = 4.37738 19.79513 12.08626
#
# Velocity S-wave (km/s) = 1.48952 3.16752 2.47506
# Velocity P-wave (km/s) = 2.79178 4.97209 4.03210
#
# Compressibility (1/GPa) = 0.10481246
#
# Stress axis : x y z
#
# Youngs Moduli (GPa) = 36.53828 30.46290 34.01548
#
# Poissons Ratio (x) = -0.29398 0.08480
# Poissons Ratio (y) = -0.35261 -0.01537
# Poissons Ratio (z) = 0.09109 -0.01376
#
# Static dielectric constant tensor:
#      x y z
#    x 1.677150 0.000000 -0.015300 
#    y 0.000000 1.736740 0.000000 
#    z -0.015300 0.000000 1.726780 
# 
# From -- ./inp_files/75970.got.cif
#   From: 2010.05.17/outbox.cif.g08.bks.cpg/sg10_38_cif.got.tgz:75970.got - 2010.06.03 11:33:40.
