data_PCOD9144250
_publ_section_title
;
Structure prediction by ZEFSAII (Michael W. Deem and Ramdas Pophale) SiO2 
 PCOD9144250
Probable space group: P 2/M
;
_chemical_formula_sum "Si O2"
_cell_formula_units_Z 32
_cell_length_a 22.095337
_cell_length_b 7.773958
_cell_length_c 13.100572
_cell_angle_alpha 90.000000
_cell_angle_beta 53.795980
_cell_angle_gamma 90.000000
_cell_volume 1815.778840
_symmetry_space_group_name_H-M "P 2/M"
_symmetry_group_IT_number 10
_symmetry_cell_setting 'monoclinic'
loop_
_space_group_symop_operation_xyz
x,y,z
-x,y,-z
-x,-y,-z
x,-y,z
loop_
_atom_site_type_symbol
_atom_site_label
_atom_site_fract_x
_atom_site_fract_y
_atom_site_fract_z
Si Si1 0.589899 0.204939 0.012556
Si Si2 0.421144 0.210499 0.205933
Si Si3 0.842763 0.201588 0.292693
Si Si4 0.319603 0.788473 0.495840
Si Si5 0.683088 0.296288 0.111907
Si Si6 0.415034 0.792827 0.596562
Si Si7 0.166254 0.703640 0.934695
Si Si8 0.004131 0.792189 0.115087
O O1 0.507853 0.266770 0.132081
O O2 0.653335 0.239661 0.031856
O O3 0.582517 0.000000 0.011490
O O4 0.602847 0.266865 0.883943
O O5 0.367019 0.267397 0.350456
O O6 0.420208 0.000000 0.209990
O O7 0.766309 0.273612 0.415767
O O8 0.835181 0.214474 0.176932
O O9 0.925180 0.272027 0.239506
O O10 0.844512 0.000000 0.317306
O O11 0.362192 0.733026 0.556546
O O12 0.318328 0.000000 0.498169
O O13 0.690191 0.500000 0.100487
O O14 0.621967 0.251388 0.258879
O O15 0.763334 0.227771 0.071091
O O16 0.500000 0.728436 0.500000
O O17 0.417798 0.000000 0.587218
O O18 0.175519 0.500000 0.909167
O O19 0.085901 0.732834 0.068430
O O20 0.003940 0.000000 0.118892
O O21 0.000000 0.740090 0.000000
#
# Coordination Sequence:
#
# PCOD9144250 Si02
#       8
#     4   4   4   4   4   4   4   4
#     4   9  17  31  51  69  88 115 153 196 229 261
#     4   8  15  29  49  72  90 110 148 196 233 262
#     4   9  16  27  43  64  89 118 146 179 223 271
#     4   9  15  25  44  68  93 116 143 182 227 270
#     4  11  22  32  43  64  95 125 152 185 225 266
#     4  10  19  30  47  68  89 120 157 183 214 269
#     4  10  19  29  41  60  88 121 152 182 217 260
#     4   8  15  26  41  61  85 113 147 181 220 267
#
# _framework density 17.623291999999999
#
# number of rings (size 3 to 8) (size 9 to 14) (size 15 to 20)
#    0.000    2.750    1.250    3.000    0.000    6.000 
#    0.000    1.250    0.000    1.500    0.000    0.875 
#    0.000    7.000    0.000    0.000    0.000    0.000 
#
# Total GULP energy -178298.461116 kJ/mol
# GULP energy per Si atom -5571.826910 kJ/mol
# Density = 1.758318 g / cm^3
# Si number density = 17.623292 Si / 1000 Ang^3
#
#
#
# Elastic Constant Matrix: (Units=GPa)
#
#
# Indices 1 2 3 4 5 6 
#
# 1 62.8209 -20.1973 11.0984 0.0000 20.0753 0.0000
# 2 -20.1973 9.7704 -7.9080 0.0000 11.7480 0.0000
# 3 11.0984 -7.9080 41.1348 0.0000 8.7858 0.0000
# 4 0.0000 0.0000 0.0000 -11.5021 0.0000 -48.9053
# 5 20.0753 11.7480 8.7858 0.0000 -9.0551 0.0000
# 6 0.0000 0.0000 0.0000 -48.9053 0.0000 637.7772
#
#
#
# Elastic Compliance Matrix: (Units=1/GPa)
#
#
# Indices 1 2 3 4 5 6 
#
# 1 0.011370 -0.001698 -0.006882 0.000000 0.016328 0.000000
# 2 -0.001698 0.040630 -0.001810 0.000000 0.047192 0.000000
# 3 -0.006882 -0.001810 0.024502 0.000000 0.006168 0.000000
# 4 0.000000 0.000000 0.000000 -0.065564 0.000000 -0.005028
# 5 0.016328 0.047192 0.006168 0.000000 -0.007025 0.000000
# 6 0.000000 0.000000 0.000000 -0.005028 0.000000 0.001182
#
#
# Mechanical properties :
#
#
# Convention : Reuss Voigt Hill
#
# Bulk Modulus (GPa) = 17.94628 8.85694 13.40161
# Shear Modulus (GPa) = 112.48758 132.15952 122.32355
#
# Velocity S-wave (km/s) = 7.99797 8.66915 8.34031
# Velocity P-wave (km/s) = 9.77217 10.25876 10.01842
#
# Compressibility (1/GPa) = 0.05572184
#
# Stress axis : x y z
#
# Youngs Moduli (GPa) = 87.94859 24.61222 40.81355
#
# Poissons Ratio (x) = 0.04179 0.28086
# Poissons Ratio (y) = 0.14935 0.07389
# Poissons Ratio (z) = 0.60523 0.04456
#
# Static dielectric constant tensor:
#      x y z
#    x 1.656800 0.000000 -0.018980 
#    y 0.000000 1.645610 0.000000 
#    z -0.018980 0.000000 1.604690 
# 
# From -- ./inp_files/54784.got.cif
#   From: 2010.05.17/outbox.cif.g08.bks.cpg/sg10_28_cif.got.tgz:54784.got - 2010.06.03 11:33:40.
