data_PCOD9144987
_publ_section_title
;
Structure prediction by ZEFSAII (Michael W. Deem and Ramdas Pophale) SiO2 
 PCOD9144987
Probable space group: P 2/M
;
_chemical_formula_sum "Si O2"
_cell_formula_units_Z 32
_cell_length_a 12.083839
_cell_length_b 8.225930
_cell_length_c 20.926950
_cell_angle_alpha 90.000000
_cell_angle_beta 46.178048
_cell_angle_gamma 90.000000
_cell_volume 1500.822033
_symmetry_space_group_name_H-M "P 2/M"
_symmetry_group_IT_number 10
_symmetry_cell_setting 'monoclinic'
loop_
_space_group_symop_operation_xyz
x,y,z
-x,y,-z
-x,-y,-z
x,-y,z
loop_
_atom_site_type_symbol
_atom_site_label
_atom_site_fract_x
_atom_site_fract_y
_atom_site_fract_z
Si Si1 0.463990 0.196261 0.587019
Si Si2 0.589835 0.183932 0.116280
Si Si3 0.229454 0.196235 0.461432
Si Si4 0.124397 0.693775 0.743690
Si Si5 0.628739 0.680339 0.894832
Si Si6 0.160692 0.806674 0.081036
Si Si7 0.011069 0.693227 0.337623
Si Si8 0.302314 0.196977 0.292255
O O1 0.500000 0.249659 0.500000
O O2 0.608154 0.243263 0.572542
O O3 0.302702 0.263449 0.675602
O O4 0.453818 0.000000 0.590849
O O5 0.455676 0.189130 0.116009
O O6 0.479757 0.257739 0.215154
O O7 0.630366 0.000000 0.118637
O O8 0.738819 0.255317 0.020177
O O9 0.095629 0.257218 0.560588
O O10 0.229265 0.252418 0.388367
O O11 0.219182 0.000000 0.465258
O O12 0.104936 0.500000 0.753313
O O13 0.064333 0.756558 0.698133
O O14 0.018638 0.767585 0.842038
O O15 0.647893 0.500000 0.857509
O O16 0.772444 0.731488 0.880086
O O17 0.500000 0.660714 0.000000
O O18 0.186082 0.000000 0.072684
O O19 0.013196 0.500000 0.332349
O O20 0.182658 0.752982 0.284739
O O21 0.309827 0.000000 0.290230
#
# Coordination Sequence:
#
# PCOD9144987 Si02
#       8
#     4   4   4   4   4   4   4   4
#     4  10  20  37  61  84 106 135 176 223 272 323
#     4   9  18  32  49  71 101 140 181 221 262 310
#     4  10  21  38  59  81 106 140 180 222 268 319
#     4  11  23  36  54  82 113 143 177 220 273 323
#     4   9  16  26  42  66  98 135 173 214 261 310
#     4  10  19  31  49  73 103 138 179 222 265 313
#     4  11  23  36  52  79 114 146 178 218 265 320
#     4  10  21  36  55  79 109 145 183 220 262 315
#
# _framework density 21.321648
#
# number of rings (size 3 to 8) (size 9 to 14) (size 15 to 20)
#    0.000    2.000    1.250    2.625    0.000    8.750 
#    0.000    0.000    0.000    0.750    0.000    5.250 
#    0.000    0.000    0.000    0.000    0.000    0.000 
#
# Total GULP energy -178396.436609 kJ/mol
# GULP energy per Si atom -5574.888644 kJ/mol
# Density = 2.127312 g / cm^3
# Si number density = 21.321648 Si / 1000 Ang^3
#
#
#
# Elastic Constant Matrix: (Units=GPa)
#
#
# Indices 1 2 3 4 5 6 
#
# 1 44.6956 3.5148 17.1593 0.0000 -19.2248 0.0000
# 2 3.5148 27.4883 2.4087 0.0000 -2.2876 0.0000
# 3 17.1593 2.4087 141.0249 0.0000 -38.0278 0.0000
# 4 0.0000 0.0000 0.0000 1.2931 0.0000 -2.9842
# 5 -19.2248 -2.2876 -38.0278 0.0000 33.5446 0.0000
# 6 0.0000 0.0000 0.0000 -2.9842 0.0000 11.7019
#
#
#
# Elastic Compliance Matrix: (Units=1/GPa)
#
#
# Indices 1 2 3 4 5 6 
#
# 1 0.030046 -0.002413 0.001418 0.000000 0.018663 0.000000
# 2 -0.002413 0.036781 -0.000045 0.000000 0.001075 0.000000
# 3 0.001418 -0.000045 0.010280 0.000000 0.012463 0.000000
# 4 0.000000 0.000000 0.000000 1.879521 0.000000 0.479311
# 5 0.018663 0.001075 0.012463 0.000000 0.054709 0.000000
# 6 0.000000 0.000000 0.000000 0.479311 0.000000 0.207689
#
#
# Mechanical properties :
#
#
# Convention : Reuss Voigt Hill
#
# Bulk Modulus (GPa) = 13.32851 28.81938 21.07395
# Shear Modulus (GPa) = 2.22607 21.98298 12.10452
#
# Velocity S-wave (km/s) = 1.02289 3.21443 2.38525
# Velocity P-wave (km/s) = 2.76764 5.22710 4.18225
#
# Compressibility (1/GPa) = 0.07502713
#
# Stress axis : x y z
#
# Youngs Moduli (GPa) = 33.28198 27.18798 97.27630
#
# Poissons Ratio (x) = 0.06560 -0.13791
# Poissons Ratio (y) = 0.08031 0.00436
# Poissons Ratio (z) = -0.04718 0.00122
#
# Static dielectric constant tensor:
#      x y z
#    x 1.765930 0.000000 0.025280 
#    y 0.000000 1.773060 0.000000 
#    z 0.025280 0.000000 1.882590 
# 
# From -- ./inp_files/83536.got.cif
#   From: 2010.05.17/outbox.cif.g08.bks.cpg/sg10_42_cif.got.tgz:83536.got - 2010.06.03 11:33:40.
