data_PCOD9144848
_publ_section_title
;
Structure prediction by ZEFSAII (Michael W. Deem and Ramdas Pophale) SiO2 
 PCOD9144848
Probable space group: P 2/M
;
_chemical_formula_sum "Si O2"
_cell_formula_units_Z 32
_cell_length_a 13.948171
_cell_length_b 13.977998
_cell_length_c 16.431926
_cell_angle_alpha 90.000000
_cell_angle_beta 34.394410
_cell_angle_gamma 90.000000
_cell_volume 1809.722154
_symmetry_space_group_name_H-M "P 2/M"
_symmetry_group_IT_number 10
_symmetry_cell_setting 'monoclinic'
loop_
_space_group_symop_operation_xyz
x,y,z
-x,y,-z
-x,-y,-z
x,-y,z
loop_
_atom_site_type_symbol
_atom_site_label
_atom_site_fract_x
_atom_site_fract_y
_atom_site_fract_z
Si Si1 0.327442 0.259510 0.390598
Si Si2 0.677416 0.113673 0.916909
Si Si3 0.824452 0.607277 0.075264
Si Si4 0.805719 0.609306 0.660880
Si Si5 0.680581 0.393905 0.916171
Si Si6 0.026112 0.113450 0.577657
Si Si7 0.477299 0.610885 0.421450
Si Si8 0.676627 0.245851 0.064142
O O1 0.282895 0.328288 0.345641
O O2 0.180090 0.180374 0.499886
O O3 0.356120 0.321642 0.452175
O O4 0.512048 0.221412 0.233577
O O5 0.844676 0.133039 0.746465
O O6 0.658053 0.000000 0.936169
O O7 0.500000 0.150792 0.000000
O O8 0.711503 0.156180 0.982158
O O9 0.813149 0.500000 0.044138
O O10 0.661219 0.612971 0.248907
O O11 0.810931 0.699966 0.027225
O O12 0.000000 0.609869 0.000000
O O13 0.737313 0.500000 0.708234
O O14 0.794228 0.644861 0.762061
O O15 0.000000 0.605938 0.500000
O O16 0.742485 0.500000 0.895070
O O17 0.500000 0.401392 0.000000
O O18 0.652510 0.328005 0.012698
O O19 0.000000 0.131029 0.500000
O O20 0.064730 0.000000 0.561771
O O21 0.500000 0.638619 0.500000
O O22 0.417222 0.500000 0.461351
#
# Coordination Sequence:
#
# PCOD9144848 Si02
#       8
#     4   4   4   4   4   4   4   4
#     4  11  21  33  55  78 105 141 179 221 266 319
#     4  10  22  38  56  79 109 142 179 223 267 319
#     4   9  19  36  55  78 110 143 179 224 269 317
#     4  10  21  33  44  69 109 143 173 210 254 310
#     4  10  19  31  47  70 105 142 173 208 254 313
#     4  10  22  38  55  78 109 144 179 221 271 320
#     4   9  19  36  56  79 108 143 182 223 268 316
#     4  11  21  32  54  80 103 139 182 219 267 319
#
# _framework density 17.682272000000001
#
# number of rings (size 3 to 8) (size 9 to 14) (size 15 to 20)
#    0.000    2.000    1.250    2.250    3.500    3.500 
#    0.000    0.000    0.000    0.750    0.000    0.000 
#    0.000    0.000    0.000    0.000    0.000    0.000 
#
# Total GULP energy -178336.936811 kJ/mol
# GULP energy per Si atom -5573.029275 kJ/mol
# Density = 1.764203 g / cm^3
# Si number density = 17.682272 Si / 1000 Ang^3
#
#
#
# Elastic Constant Matrix: (Units=GPa)
#
#
# Indices 1 2 3 4 5 6 
#
# 1 85.9994 46.9226 45.0819 0.0000 0.4434 0.0000
# 2 46.9226 89.6712 41.0953 0.0000 -4.0264 0.0000
# 3 45.0819 41.0953 85.0090 0.0000 2.1067 0.0000
# 4 0.0000 0.0000 0.0000 -14.2577 0.0000 7.1157
# 5 0.4434 -4.0264 2.1067 0.0000 26.6476 0.0000
# 6 0.0000 0.0000 0.0000 7.1157 0.0000 32.1837
#
#
#
# Elastic Compliance Matrix: (Units=1/GPa)
#
#
# Indices 1 2 3 4 5 6 
#
# 1 0.018869 -0.006852 -0.006674 0.000000 -0.000822 0.000000
# 2 -0.006852 0.017013 -0.004666 0.000000 0.003054 0.000000
# 3 -0.006674 -0.004666 0.017608 0.000000 -0.001986 0.000000
# 4 0.000000 0.000000 0.000000 -0.063167 0.000000 0.013966
# 5 -0.000822 0.003054 -0.001986 0.000000 0.038159 0.000000
# 6 0.000000 0.000000 0.000000 0.013966 0.000000 0.027984
#
#
# Mechanical properties :
#
#
# Convention : Reuss Voigt Hill
#
# Bulk Modulus (GPa) = 58.46119 58.54214 58.50166
# Shear Modulus (GPa) = 50.73431 17.42002 34.07716
#
# Velocity S-wave (km/s) = 5.36232 3.14214 4.39474
# Velocity P-wave (km/s) = 8.45418 6.80763 7.67518
#
# Compressibility (1/GPa) = 0.01710537
#
# Stress axis : x y z
#
# Youngs Moduli (GPa) = 52.99570 58.77839 56.79289
#
# Poissons Ratio (x) = 0.40276 0.37903
# Poissons Ratio (y) = 0.36314 0.26502
# Poissons Ratio (z) = 0.35369 0.27428
#
# Static dielectric constant tensor:
#      x y z
#    x 1.595040 0.000000 -0.008620 
#    y 0.000000 1.650910 0.000000 
#    z -0.008620 0.000000 1.544270 
# 
# From -- ./inp_files/65066.got.cif
#   From: 2010.05.17/outbox.cif.g08.bks.cpg/sg10_33_cif.got.tgz:65066.got - 2010.06.03 11:33:40.
