data_PCOD9144945
_publ_section_title
;
Structure prediction by ZEFSAII (Michael W. Deem and Ramdas Pophale) SiO2 
 PCOD9144945
Probable space group: P 2/M
;
_chemical_formula_sum "Si O2"
_cell_formula_units_Z 28
_cell_length_a 8.221096
_cell_length_b 11.483673
_cell_length_c 13.399561
_cell_angle_alpha 90.000000
_cell_angle_beta 97.108404
_cell_angle_gamma 90.000000
_cell_volume 1255.307539
_symmetry_space_group_name_H-M "P 2/M"
_symmetry_group_IT_number 10
_symmetry_cell_setting 'monoclinic'
loop_
_space_group_symop_operation_xyz
x,y,z
-x,y,-z
-x,-y,-z
x,-y,z
loop_
_atom_site_type_symbol
_atom_site_label
_atom_site_fract_x
_atom_site_fract_y
_atom_site_fract_z
Si Si1 0.884371 0.872534 0.138881
Si Si2 0.177091 0.867642 0.302907
Si Si3 0.429066 0.622609 0.108193
Si Si4 0.456249 0.130283 0.612804
Si Si5 0.663391 0.871795 0.940304
Si Si6 0.046888 0.372512 0.387583
Si Si7 0.282624 0.689559 0.733776
O O1 0.778737 0.777151 0.186058
O O2 0.069358 0.860876 0.193323
O O3 0.829276 0.000000 0.170103
O O4 0.826162 0.868312 0.020977
O O5 0.372773 0.866033 0.314514
O O6 0.129247 0.750110 0.360338
O O7 0.137954 0.000000 0.341735
O O8 0.333547 0.500000 0.111144
O O9 0.344322 0.747276 0.113801
O O10 0.571055 0.622522 0.201943
O O11 0.500000 0.622381 0.000000
O O12 0.500000 0.146604 0.500000
O O13 0.344142 0.231359 0.646950
O O14 0.384356 0.000000 0.617916
O O15 0.658521 0.000000 0.889837
O O16 0.500000 0.872672 0.000000
O O17 0.132551 0.500000 0.378727
O O18 0.876914 0.376911 0.314147
O O19 0.000000 0.364255 0.500000
#
# Coordination Sequence:
#
# PCOD9144945 Si02
#       7
#     4   4   4   4   4   4   4
#     4   9  16  28  49  79 107 137 178 227 274 324
#     4   9  19  35  54  78 109 145 184 227 278 337
#     4  10  19  31  48  79 113 138 172 228 283 327
#     4  10  21  36  55  82 116 152 192 237 285 337
#     4   9  15  26  45  74 107 134 171 218 269 325
#     4  10  21  36  54  80 111 142 184 237 286 336
#     4  11  19  32  55  81 109 147 186 228 280 335
#
# _framework density 22.305291
#
# number of rings (size 3 to 8) (size 9 to 14) (size 15 to 20)
#    0.000    2.286    2.857    1.714    0.000    1.429 
#    0.000    1.429    0.000    4.714    0.000    5.000 
#    0.000    0.000    0.000    0.000    0.000    0.000 
#
# Total GULP energy -156087.248012 kJ/mol
# GULP energy per Si atom -5574.544572 kJ/mol
# Density = 2.225452 g / cm^3
# Si number density = 22.305291 Si / 1000 Ang^3
#
#
#
# Elastic Constant Matrix: (Units=GPa)
#
#
# Indices 1 2 3 4 5 6 
#
# 1 37.8784 26.2136 -11.0621 0.0000 3.7696 0.0000
# 2 26.2136 225.2833 21.3013 0.0000 -12.7707 0.0000
# 3 -11.0621 21.3013 70.6480 0.0000 -0.4310 0.0000
# 4 0.0000 0.0000 0.0000 110.8615 0.0000 -7.3778
# 5 3.7696 -12.7707 -0.4310 0.0000 26.6516 0.0000
# 6 0.0000 0.0000 0.0000 -7.3778 0.0000 14.0968
#
#
#
# Elastic Compliance Matrix: (Units=1/GPa)
#
#
# Indices 1 2 3 4 5 6 
#
# 1 0.032229 -0.004740 0.006434 0.000000 -0.006726 0.000000
# 2 -0.004740 0.005395 -0.002349 0.000000 0.003217 0.000000
# 3 0.006434 -0.002349 0.015860 0.000000 -0.001779 0.000000
# 4 0.000000 0.000000 0.000000 0.009346 0.000000 0.004891
# 5 -0.006726 0.003217 -0.001779 0.000000 0.039985 0.000000
# 6 0.000000 0.000000 0.000000 0.004891 0.000000 0.073498
#
#
# Mechanical properties :
#
#
# Convention : Reuss Voigt Hill
#
# Bulk Modulus (GPa) = 19.16643 45.19060 32.17851
# Shear Modulus (GPa) = 25.63930 50.14578 37.89254
#
# Velocity S-wave (km/s) = 3.39406 4.74662 4.12614
# Velocity P-wave (km/s) = 4.89602 7.09539 6.09572
#
# Compressibility (1/GPa) = 0.05217456
#
# Stress axis : x y z
#
# Youngs Moduli (GPa) = 31.02805 185.36104 63.05314
#
# Poissons Ratio (x) = 0.87857 -0.40571
# Poissons Ratio (y) = 0.14707 0.14812
# Poissons Ratio (z) = -0.19965 0.43544
#
# Static dielectric constant tensor:
#      x y z
#    x 1.836160 0.000000 -0.002790 
#    y 0.000000 1.852670 0.000000 
#    z -0.002790 0.000000 1.846330 
# 
# From -- ./inp_files/28682.got.cif
#   From: 2010.05.17/outbox.cif.g08.bks.cpg/sg10_15_cif.got.tgz:28682.got - 2010.06.03 11:33:40.
