data_PCOD9144189
_publ_section_title
;
Structure prediction by ZEFSAII (Michael W. Deem and Ramdas Pophale) SiO2 
 PCOD9144189
Probable space group: P 2/M
;
_chemical_formula_sum "Si O2"
_cell_formula_units_Z 16
_cell_length_a 10.238108
_cell_length_b 12.200287
_cell_length_c 8.626256
_cell_angle_alpha 90.000000
_cell_angle_beta 40.190490
_cell_angle_gamma 90.000000
_cell_volume 695.335751
_symmetry_space_group_name_H-M "P 2/M"
_symmetry_group_IT_number 10
_symmetry_cell_setting 'monoclinic'
loop_
_space_group_symop_operation_xyz
x,y,z
-x,y,-z
-x,-y,-z
x,-y,z
loop_
_atom_site_type_symbol
_atom_site_label
_atom_site_fract_x
_atom_site_fract_y
_atom_site_fract_z
Si Si1 0.714169 0.000000 0.402752
Si Si2 0.649807 0.226481 0.488695
Si Si3 0.994458 0.372211 0.817005
Si Si4 0.738556 0.000000 0.750087
Si Si5 0.665586 0.213603 0.973553
O O1 0.500000 0.000000 0.500000
O O2 0.779934 0.875368 0.302884
O O3 0.766205 0.000000 0.541281
O O4 0.500000 0.280254 0.500000
O O5 0.799458 0.313825 0.425224
O O6 0.488034 0.173042 0.753050
O O7 0.986280 0.500000 0.785791
O O8 0.809224 0.305789 0.912216
O O9 0.000000 0.361944 0.000000
O O10 0.795707 0.886364 0.782734
O O11 0.500000 0.000000 0.000000
O O12 0.500000 0.255192 0.000000
#
# Coordination Sequence:
#
# PCOD9144189 Si02
#       5
#     2   4   4   2   4
#     4  10  20  37  68  99 131 168 213 254 315 403
#     4  11  21  40  68  99 126 168 215 263 322 384
#     4  11  26  45  65  93 127 173 231 270 311 383
#     4  10  18  39  64  97 137 169 197 260 333 390
#     4  11  22  42  68  96 133 168 206 268 330 381
#
# _framework density 23.010466000000001
#
# number of rings (size 3 to 8) (size 9 to 14) (size 15 to 20)
#    0.000    1.250    7.500    0.000    0.000    4.000 
#    0.000    3.750    0.000    0.000    0.000    0.000 
#    0.000    0.000    0.000    0.000    0.000    0.000 
#
# Total GULP energy -89131.915297 kJ/mol
# GULP energy per Si atom -5570.744706 kJ/mol
# Density = 2.295809 g / cm^3
# Si number density = 23.010466 Si / 1000 Ang^3
#
#
#
# Elastic Constant Matrix: (Units=GPa)
#
#
# Indices 1 2 3 4 5 6 
#
# 1 145.2694 88.8260 33.0273 0.0000 -11.4861 0.0000
# 2 88.8260 203.1239 20.9717 0.0000 -25.4246 0.0000
# 3 33.0273 20.9717 69.5921 0.0000 -6.8755 0.0000
# 4 0.0000 0.0000 0.0000 21.5687 0.0000 -2.7466
# 5 -11.4861 -25.4246 -6.8755 0.0000 27.6099 0.0000
# 6 0.0000 0.0000 0.0000 -2.7466 0.0000 47.5860
#
#
#
# Elastic Compliance Matrix: (Units=1/GPa)
#
#
# Indices 1 2 3 4 5 6 
#
# 1 0.010211 -0.004149 -0.003643 0.000000 -0.000480 0.000000
# 2 -0.004149 0.007350 0.000259 0.000000 0.005107 0.000000
# 3 -0.003643 0.000259 0.016295 0.000000 0.002781 0.000000
# 4 0.000000 0.000000 0.000000 0.046707 0.000000 0.002696
# 5 -0.000480 0.005107 0.002781 0.000000 0.041414 0.000000
# 6 0.000000 0.000000 0.000000 0.002696 0.000000 0.021170
#
#
# Mechanical properties :
#
#
# Convention : Reuss Voigt Hill
#
# Bulk Modulus (GPa) = 53.22239 78.18171 65.70205
# Shear Modulus (GPa) = 30.39927 37.69695 34.04811
#
# Velocity S-wave (km/s) = 3.63865 4.05192 3.85083
# Velocity P-wave (km/s) = 6.39006 7.47938 6.95608
#
# Compressibility (1/GPa) = 0.01878909
#
# Stress axis : x y z
#
# Youngs Moduli (GPa) = 97.93176 136.05332 61.36805
#
# Poissons Ratio (x) = 0.56453 0.22357
# Poissons Ratio (y) = 0.40635 -0.01588
# Poissons Ratio (z) = 0.35677 -0.03521
#
# Static dielectric constant tensor:
#      x y z
#    x 1.902400 0.000000 0.063360 
#    y 0.000000 1.860720 0.000000 
#    z 0.063360 0.000000 2.057000 
# 
# From -- ./inp_files/17597.got.cif
#   From: 2010.05.17/outbox.cif.g08.bks.cpg/sg10_9_cif.got.tgz:17597.got - 2010.06.03 11:33:40.
