data_PCOD9144136
_publ_section_title
;
Structure prediction by ZEFSAII (Michael W. Deem and Ramdas Pophale) SiO2 
 PCOD9144136
Probable space group: P 2/M
;
_chemical_formula_sum "Si O2"
_cell_formula_units_Z 21
_cell_length_a 11.304120
_cell_length_b 14.937237
_cell_length_c 5.136781
_cell_angle_alpha 90.000000
_cell_angle_beta 87.189810
_cell_angle_gamma 90.000000
_cell_volume 866.314332
_symmetry_space_group_name_H-M "P 2/M"
_symmetry_group_IT_number 10
_symmetry_cell_setting 'monoclinic'
loop_
_space_group_symop_operation_xyz
x,y,z
-x,y,-z
-x,-y,-z
x,-y,z
loop_
_atom_site_type_symbol
_atom_site_label
_atom_site_fract_x
_atom_site_fract_y
_atom_site_fract_z
Si Si1 0.113624 0.633741 0.321752
Si Si2 0.000000 0.500000 0.000000
Si Si3 0.653826 0.000000 0.058711
Si Si4 0.376163 0.318556 0.417742
Si Si5 0.355379 0.805020 0.916075
Si Si6 0.805310 0.000000 0.532895
Si Si7 0.898098 0.837595 0.816540
O O1 0.250802 0.628441 0.401714
O O2 0.084955 0.737618 0.289141
O O3 0.000000 0.595878 0.500000
O O4 0.098497 0.578492 0.059542
O O5 0.593888 0.904981 0.131496
O O6 0.765057 0.000000 0.243151
O O7 0.694850 0.000000 0.752176
O O8 0.500000 0.364889 0.500000
O O9 0.355735 0.247688 0.648995
O O10 0.395476 0.259383 0.152256
O O11 0.221702 0.826735 0.009104
O O12 0.874779 0.910581 0.599656
O O13 0.000000 0.865535 0.000000
#
# Coordination Sequence:
#
# PCOD9144136 Si02
#       7
#     4   1   2   4   4   2   4
#     4  11  24  44  74 100 140 177 226 283 346 411
#     4  12  26  48  70 114 132 172 228 288 352 412
#     4  10  18  36  54  84 127 184 230 285 330 383
#     4  11  24  43  69  99 135 180 228 279 342 409
#     4  10  21  38  61  92 134 183 233 283 334 398
#     4  10  21  32  54  92 138 178 230 280 329 397
#     4  10  19  36  60  95 133 181 228 278 340 398
#
# _framework density 24.240625000000001
#
# number of rings (size 3 to 8) (size 9 to 14) (size 15 to 20)
#    0.000    1.524    0.952    5.714    2.667    1.524 
#    0.000    7.619    0.000    1.143    0.000    0.000 
#    0.000    0.000    0.000    0.000    0.000    0.000 
#
# Total GULP energy -117005.698111 kJ/mol
# GULP energy per Si atom -5571.699910 kJ/mol
# Density = 2.418545 g / cm^3
# Si number density = 24.240625 Si / 1000 Ang^3
#
#
#
# Elastic Constant Matrix: (Units=GPa)
#
#
# Indices 1 2 3 4 5 6 
#
# 1 175.2031 32.8335 51.5635 0.0000 47.9073 0.0000
# 2 32.8335 124.9281 8.9347 0.0000 14.1100 0.0000
# 3 51.5635 8.9347 96.6990 0.0000 3.4059 0.0000
# 4 0.0000 0.0000 0.0000 167.0361 0.0000 21.5505
# 5 47.9073 14.1100 3.4059 0.0000 40.7474 0.0000
# 6 0.0000 0.0000 0.0000 21.5505 0.0000 -46.5773
#
#
#
# Elastic Compliance Matrix: (Units=1/GPa)
#
#
# Indices 1 2 3 4 5 6 
#
# 1 0.010624 -0.001105 -0.005152 0.000000 -0.011678 0.000000
# 2 -0.001105 0.008489 -0.000138 0.000000 -0.001629 0.000000
# 3 -0.005152 -0.000138 0.012924 0.000000 0.005024 0.000000
# 4 0.000000 0.000000 0.000000 0.005649 0.000000 0.002614
# 5 -0.011678 -0.001629 0.005024 0.000000 0.038415 0.000000
# 6 0.000000 0.000000 0.000000 0.002614 0.000000 -0.020260
#
#
# Mechanical properties :
#
#
# Convention : Reuss Voigt Hill
#
# Bulk Modulus (GPa) = 51.95268 64.83263 58.39266
# Shear Modulus (GPa) = 66.62565 52.47448 59.55006
#
# Velocity S-wave (km/s) = 5.24831 4.65772 4.96181
# Velocity P-wave (km/s) = 7.62922 7.46520 7.54766
#
# Compressibility (1/GPa) = 0.01924828
#
# Stress axis : x y z
#
# Youngs Moduli (GPa) = 94.12650 117.80201 77.37405
#
# Poissons Ratio (x) = 0.13015 0.39861
# Poissons Ratio (y) = 0.10399 0.01066
# Poissons Ratio (z) = 0.48491 0.01624
#
# Static dielectric constant tensor:
#      x y z
#    x 2.087780 0.000000 -0.012220 
#    y 0.000000 1.926290 0.000000 
#    z -0.012220 0.000000 2.003620 
# 
# From -- ./inp_files/6802.got.cif
#   From: 2010.05.17/outbox.cif.g08.bks.cpg/sg10_4_cif.got.tgz:6802.got - 2010.06.03 11:33:40.
