data_PCOD9144272
_publ_section_title
;
Structure prediction by ZEFSAII (Michael W. Deem and Ramdas Pophale) SiO2 
 PCOD9144272
Probable space group: P 2/M
;
_chemical_formula_sum "Si O2"
_cell_formula_units_Z 32
_cell_length_a 16.684812
_cell_length_b 9.054052
_cell_length_c 22.588295
_cell_angle_alpha 90.000000
_cell_angle_beta 38.310960
_cell_angle_gamma 90.000000
_cell_volume 2115.386863
_symmetry_space_group_name_H-M "P 2/M"
_symmetry_group_IT_number 10
_symmetry_cell_setting 'monoclinic'
loop_
_space_group_symop_operation_xyz
x,y,z
-x,y,-z
-x,-y,-z
x,-y,z
loop_
_atom_site_type_symbol
_atom_site_label
_atom_site_fract_x
_atom_site_fract_y
_atom_site_fract_z
Si Si1 0.431756 0.331146 0.974836
Si Si2 0.293197 0.827980 0.643083
Si Si3 0.925293 0.325822 0.297782
Si Si4 0.296468 0.322265 0.226536
Si Si5 0.752591 0.674106 0.515926
Si Si6 0.847000 0.175207 0.580660
Si Si7 0.196237 0.824345 0.163373
Si Si8 0.532341 0.827969 0.577395
O O1 0.391526 0.500000 0.985529
O O2 0.549909 0.287034 0.863912
O O3 0.500000 0.332343 0.000000
O O4 0.308527 0.227362 0.053103
O O5 0.169185 0.731297 0.699315
O O6 0.388571 0.780506 0.640920
O O7 0.382100 0.823253 0.532379
O O8 0.258129 0.000000 0.672422
O O9 0.950164 0.500000 0.277746
O O10 0.848288 0.302218 0.404423
O O11 0.057925 0.236450 0.223486
O O12 0.284471 0.500000 0.229178
O O13 0.228438 0.259979 0.323904
O O14 0.231650 0.249759 0.206076
O O15 0.750550 0.500000 0.529976
O O16 0.802853 0.763763 0.542895
O O17 0.611251 0.730591 0.577908
O O18 0.000000 0.200173 0.500000
O O19 0.822931 0.000000 0.598824
O O20 0.195148 0.000000 0.170156
O O21 0.527926 0.000000 0.598411
#
# Coordination Sequence:
#
# PCOD9144272 Si02
#       8
#     4   4   4   4   4   4   4   4
#     4   8  16  31  48  65  85 110 140 176 220 265
#     4   8  14  25  41  61  84 112 144 177 217 262
#     4  10  19  29  42  62  90 121 150 182 219 260
#     4  10  20  34  50  65  85 114 147 184 223 262
#     4  10  20  31  44  62  85 117 154 188 220 257
#     4  11  23  35  47  64  87 117 152 188 223 258
#     4  11  20  29  45  67  90 116 146 180 218 263
#     4   8  14  26  43  60  82 112 144 180 219 259
#
# _framework density 15.127255999999999
#
# number of rings (size 3 to 8) (size 9 to 14) (size 15 to 20)
#    0.000    2.500    0.000    4.875    0.000    7.750 
#    0.000    2.500    0.000    0.000    0.000    0.000 
#    0.000    1.000    0.000   10.500    0.000    5.000 
#
# Total GULP energy -178341.297074 kJ/mol
# GULP energy per Si atom -5573.165534 kJ/mol
# Density = 1.509283 g / cm^3
# Si number density = 15.127256 Si / 1000 Ang^3
#
#
#
# Elastic Constant Matrix: (Units=GPa)
#
#
# Indices 1 2 3 4 5 6 
#
# 1 92.4666 57.6719 36.7117 0.0000 -21.0752 0.0000
# 2 57.6719 93.1894 56.4394 0.0000 -18.3953 0.0000
# 3 36.7117 56.4394 71.6011 0.0000 -14.2504 0.0000
# 4 0.0000 0.0000 0.0000 19.5327 0.0000 -6.9702
# 5 -21.0752 -18.3953 -14.2504 0.0000 17.7914 0.0000
# 6 0.0000 0.0000 0.0000 -6.9702 0.0000 9.3036
#
#
#
# Elastic Compliance Matrix: (Units=1/GPa)
#
#
# Indices 1 2 3 4 5 6 
#
# 1 0.019944 -0.009754 0.000187 0.000000 0.013691 0.000000
# 2 -0.009754 0.026859 -0.015398 0.000000 0.003884 0.000000
# 3 0.000187 -0.015398 0.027223 0.000000 0.006106 0.000000
# 4 0.000000 0.000000 0.000000 0.069878 0.000000 0.052351
# 5 0.013691 0.003884 0.006106 0.000000 0.081331 0.000000
# 6 0.000000 0.000000 0.000000 0.052351 0.000000 0.146706
#
#
# Mechanical properties :
#
#
# Convention : Reuss Voigt Hill
#
# Bulk Modulus (GPa) = 41.49777 62.10035 51.79906
# Shear Modulus (GPa) = 11.63055 16.42115 14.02585
#
# Velocity S-wave (km/s) = 2.77582 3.29832 3.04828
# Velocity P-wave (km/s) = 6.14537 7.45964 6.83417
#
# Compressibility (1/GPa) = 0.02409768
#
# Stress axis : x y z
#
# Youngs Moduli (GPa) = 50.13978 37.23094 36.73384
#
# Poissons Ratio (x) = 0.36314 -0.00688
# Poissons Ratio (y) = 0.48905 0.56562
# Poissons Ratio (z) = -0.00939 0.57328
#
# Static dielectric constant tensor:
#      x y z
#    x 1.495930 0.000000 -0.013080 
#    y 0.000000 1.502540 0.000000 
#    z -0.013080 0.000000 1.501430 
# 
# From -- ./inp_files/66214.got.cif
#   From: 2010.05.17/outbox.cif.g08.bks.cpg/sg10_34_cif.got.tgz:66214.got - 2010.06.03 11:33:40.
