data_PCOD9144175
_publ_section_title
;
Structure prediction by ZEFSAII (Michael W. Deem and Ramdas Pophale) SiO2 
 PCOD9144175
Probable space group: P 2/M
;
_chemical_formula_sum "Si O2"
_cell_formula_units_Z 32
_cell_length_a 11.443090
_cell_length_b 14.808030
_cell_length_c 17.079810
_cell_angle_alpha 90.000000
_cell_angle_beta 31.637275
_cell_angle_gamma 90.000000
_cell_volume 1518.106246
_symmetry_space_group_name_H-M "P 2/M"
_symmetry_group_IT_number 10
_symmetry_cell_setting 'monoclinic'
loop_
_space_group_symop_operation_xyz
x,y,z
-x,y,-z
-x,-y,-z
x,-y,z
loop_
_atom_site_type_symbol
_atom_site_label
_atom_site_fract_x
_atom_site_fract_y
_atom_site_fract_z
Si Si1 0.107673 0.855568 0.560443
Si Si2 0.784873 0.653787 0.448953
Si Si3 0.408412 0.284373 0.895645
Si Si4 0.234347 0.900141 0.662761
Si Si5 0.077794 0.290280 0.794733
Si Si6 0.678226 0.395484 0.212564
Si Si7 0.354343 0.101968 0.263226
Si Si8 0.838498 0.600800 0.664697
O O1 0.175740 0.751160 0.532424
O O2 0.132605 0.895034 0.633128
O O3 0.270218 0.894836 0.401258
O O4 0.861202 0.871320 0.666519
O O5 0.787496 0.670906 0.355578
O O6 0.559075 0.610352 0.607744
O O7 0.999392 0.598836 0.353981
O O8 0.354792 0.334787 0.845065
O O9 0.463714 0.179235 0.852641
O O10 0.633747 0.332889 0.795268
O O11 0.185023 0.295129 0.073131
O O12 0.500000 0.889398 0.500000
O O13 0.145424 0.815083 0.762447
O O14 0.191370 0.000000 0.720580
O O15 0.143653 0.348014 0.832506
O O16 0.729655 0.500000 0.166342
O O17 0.423551 0.000000 0.204487
O O18 0.754731 0.500000 0.693283
O O19 0.000000 0.628598 0.500000
#
# Coordination Sequence:
#
# PCOD9144175 Si02
#       8
#     4   4   4   4   4   4   4   4
#     4  10  18  37  62  95 129 159 211 268 315 363
#     4  11  21  41  69  95 128 164 209 271 320 375
#     4  12  25  43  63  94 133 171 208 265 327 392
#     4  10  21  40  67  95 130 174 219 261 314 384
#     4  11  27  43  62  95 136 168 210 262 328 386
#     4  12  25  46  72  93 122 171 221 267 323 390
#     4  11  21  35  63  95 126 165 213 267 314 367
#     4  11  21  39  67  94 120 162 217 268 320 382
#
# _framework density 21.078893000000001
#
# number of rings (size 3 to 8) (size 9 to 14) (size 15 to 20)
#    0.000    1.000    3.750    4.500    0.000    4.000 
#    0.000    0.625    0.000    3.750    0.000    0.000 
#    0.000    0.000    0.000    0.000    0.000    0.000 
#
# Total GULP energy -178890.004325 kJ/mol
# GULP energy per Si atom -5590.312635 kJ/mol
# Density = 2.103092 g / cm^3
# Si number density = 21.078893 Si / 1000 Ang^3
#
#
#
# Elastic Constant Matrix: (Units=GPa)
#
#
# Indices 1 2 3 4 5 6 
#
# 1 52.5609 18.8767 0.6114 0.0000 -10.0639 0.0000
# 2 18.8767 116.4566 22.0275 0.0000 -17.6796 0.0000
# 3 0.6114 22.0275 66.5893 0.0000 -21.8995 0.0000
# 4 0.0000 0.0000 0.0000 -6.6101 0.0000 -5.5862
# 5 -10.0639 -17.6796 -21.8995 0.0000 25.9075 0.0000
# 6 0.0000 0.0000 0.0000 -5.5862 0.0000 13.7512
#
#
#
# Elastic Compliance Matrix: (Units=1/GPa)
#
#
# Indices 1 2 3 4 5 6 
#
# 1 0.021893 -0.002790 0.004007 0.000000 0.009987 0.000000
# 2 -0.002790 0.010032 -0.001936 0.000000 0.004125 0.000000
# 3 0.004007 -0.001936 0.021743 0.000000 0.018614 0.000000
# 4 0.000000 0.000000 0.000000 -0.112621 0.000000 -0.045750
# 5 0.009987 0.004125 0.018614 0.000000 0.061028 0.000000
# 6 0.000000 0.000000 0.000000 -0.045750 0.000000 0.054136
#
#
# Mechanical properties :
#
#
# Convention : Reuss Voigt Hill
#
# Bulk Modulus (GPa) = 19.14685 35.40421 27.27553
# Shear Modulus (GPa) = 66.61341 19.54914 43.08127
#
# Velocity S-wave (km/s) = 5.62766 3.04867 4.52576
# Velocity P-wave (km/s) = 7.16453 5.40602 6.34648
#
# Compressibility (1/GPa) = 0.05222792
#
# Stress axis : x y z
#
# Youngs Moduli (GPa) = 45.67603 99.68431 45.99199
#
# Poissons Ratio (x) = 0.27816 -0.18427
# Poissons Ratio (y) = 0.12745 0.08905
# Poissons Ratio (z) = -0.18300 0.19300
#
# Static dielectric constant tensor:
#      x y z
#    x 1.755490 0.000000 -0.006770 
#    y 0.000000 1.798500 0.000000 
#    z -0.006770 0.000000 1.742730 
# 
# From -- ./inp_files/76989.got.cif
#   From: 2010.05.17/outbox.cif.g08.bks.cpg/sg10_39_cif.got.tgz:76989.got - 2010.06.03 11:33:40.
