data_PCOD9144571
_publ_section_title
;
Structure prediction by ZEFSAII (Michael W. Deem and Ramdas Pophale) SiO2 
 PCOD9144571
Probable space group: P 2/M
;
_chemical_formula_sum "Si O2"
_cell_formula_units_Z 24
_cell_length_a 9.823441
_cell_length_b 12.130228
_cell_length_c 20.416399
_cell_angle_alpha 90.000000
_cell_angle_beta 36.191434
_cell_angle_gamma 90.000000
_cell_volume 1436.549620
_symmetry_space_group_name_H-M "P 2/M"
_symmetry_group_IT_number 10
_symmetry_cell_setting 'monoclinic'
loop_
_space_group_symop_operation_xyz
x,y,z
-x,y,-z
-x,-y,-z
x,-y,z
loop_
_atom_site_type_symbol
_atom_site_label
_atom_site_fract_x
_atom_site_fract_y
_atom_site_fract_z
Si Si1 0.464389 0.208133 0.323001
Si Si2 0.805453 0.797245 0.707563
Si Si3 0.543539 0.000000 0.383181
Si Si4 0.567326 0.130351 0.049247
Si Si5 0.895262 0.000000 0.354607
Si Si6 0.071933 0.871403 0.896891
Si Si7 0.863589 0.624550 0.484016
O O1 0.299678 0.181473 0.324569
O O2 0.489494 0.106516 0.361721
O O3 0.723781 0.214322 0.195019
O O4 0.361313 0.307206 0.406060
O O5 0.587356 0.795639 0.841891
O O6 0.974655 0.693155 0.629038
O O7 0.959492 0.894265 0.678964
O O8 0.798329 0.000000 0.317679
O O9 0.340423 0.000000 0.514530
O O10 0.534412 0.000000 0.081096
O O11 0.500000 0.142438 0.000000
O O12 0.838682 0.152644 0.948854
O O13 0.143727 0.000000 0.856505
O O14 0.000000 0.867863 0.000000
O O15 0.817157 0.500000 0.479535
O O16 0.000000 0.617982 0.500000
#
# Coordination Sequence:
#
# PCOD9144571 Si02
#       7
#     4   4   2   4   2   4   4
#     4  11  20  33  57  81 110 148 181 221 273 326
#     4  11  20  34  57  80 110 147 183 224 267 333
#     4  11  23  33  47  83 117 147 172 218 281 330
#     4  10  21  32  48  78 114 151 177 210 265 328
#     4  11  23  33  47  81 121 144 174 217 275 340
#     4  10  19  30  46  76 114 145 174 215 256 325
#     4   9  20  37  58  83 105 136 186 240 281 312
#
# _framework density 16.706697999999999
#
# number of rings (size 3 to 8) (size 9 to 14) (size 15 to 20)
#    0.000    1.667    5.000    0.500    2.333    0.667 
#    0.000    0.000    0.000    4.000    0.000    0.000 
#    0.000    0.000    0.000    0.000    0.000    0.000 
#
# Total GULP energy -133609.756481 kJ/mol
# GULP energy per Si atom -5567.073187 kJ/mol
# Density = 1.666867 g / cm^3
# Si number density = 16.706698 Si / 1000 Ang^3
#
#
#
# Elastic Constant Matrix: (Units=GPa)
#
#
# Indices 1 2 3 4 5 6 
#
# 1 96.7832 35.7054 21.4283 0.0000 -14.8306 0.0000
# 2 35.7054 106.9374 52.4749 0.0000 -7.5950 0.0000
# 3 21.4283 52.4749 101.9594 0.0000 -12.0838 0.0000
# 4 0.0000 0.0000 0.0000 10.3523 0.0000 0.3803
# 5 -14.8306 -7.5950 -12.0838 0.0000 27.8485 0.0000
# 6 0.0000 0.0000 0.0000 0.3803 0.0000 -4.5084
#
#
#
# Elastic Compliance Matrix: (Units=1/GPa)
#
#
# Indices 1 2 3 4 5 6 
#
# 1 0.012606 -0.003794 -0.000025 0.000000 0.005668 0.000000
# 2 -0.003794 0.013664 -0.006360 0.000000 -0.001054 0.000000
# 3 -0.000025 -0.006360 0.013577 0.000000 0.004144 0.000000
# 4 0.000000 0.000000 0.000000 0.096299 0.000000 0.008124
# 5 0.005668 -0.001054 0.004144 0.000000 0.040438 0.000000
# 6 0.000000 0.000000 0.000000 0.008124 0.000000 -0.221125
#
#
# Mechanical properties :
#
#
# Convention : Reuss Voigt Hill
#
# Bulk Modulus (GPa) = 51.30967 58.32191 54.81579
# Shear Modulus (GPa) = -282.69649 19.80992 -131.44329
#
# Velocity S-wave (km/s) = -13.02224 3.44720 -8.87963
# Velocity P-wave (km/s) = 13.97592 7.12947 8.49991
#
# Compressibility (1/GPa) = 0.01948951
#
# Stress axis : x y z
#
# Youngs Moduli (GPa) = 79.32613 73.18406 73.65206
#
# Poissons Ratio (x) = 0.27769 0.00183
# Poissons Ratio (y) = 0.30099 0.46842
# Poissons Ratio (z) = 0.00197 0.46544
#
# Static dielectric constant tensor:
#      x y z
#    x 1.642500 0.000000 0.032660 
#    y 0.000000 1.548650 0.000000 
#    z 0.032660 0.000000 1.653330 
# 
# From -- ./inp_files/82427.got.cif
#   From: 2010.05.17/outbox.cif.g08.bks.cpg/sg10_42_cif.got.tgz:82427.got - 2010.06.03 11:33:40.
