data_PCOD9144039
_publ_section_title
;
Structure prediction by ZEFSAII (Michael W. Deem and Ramdas Pophale) SiO2 
 PCOD9144039
Probable space group: P 2/M
;
_chemical_formula_sum "Si O2"
_cell_formula_units_Z 32
_cell_length_a 22.780497
_cell_length_b 7.505405
_cell_length_c 29.442947
_cell_angle_alpha 90.000000
_cell_angle_beta 17.083489
_cell_angle_gamma 90.000000
_cell_volume 1478.830774
_symmetry_space_group_name_H-M "P 2/M"
_symmetry_group_IT_number 10
_symmetry_cell_setting 'monoclinic'
loop_
_space_group_symop_operation_xyz
x,y,z
-x,y,-z
-x,-y,-z
x,-y,z
loop_
_atom_site_type_symbol
_atom_site_label
_atom_site_fract_x
_atom_site_fract_y
_atom_site_fract_z
Si Si1 0.469650 0.709908 0.972279
Si Si2 0.227666 0.784836 0.328327
Si Si3 0.711287 0.794918 0.536558
Si Si4 0.512367 0.783098 0.776886
Si Si5 0.940600 0.717722 0.116147
Si Si6 0.682015 0.715483 0.224532
Si Si7 0.049856 0.705766 0.131540
Si Si8 0.089215 0.705417 0.201319
O O1 0.423841 0.500000 0.012184
O O2 0.665535 0.728234 0.796870
O O3 0.500000 0.786141 0.000000
O O4 0.284130 0.787127 0.080828
O O5 0.362964 0.727862 0.270980
O O6 0.000000 0.722055 0.500000
O O7 0.224842 0.000000 0.331288
O O8 0.624767 0.723463 0.648022
O O9 0.530205 0.783987 0.634742
O O10 0.905892 0.706970 0.371487
O O11 0.765625 0.000000 0.504358
O O12 0.500341 0.000000 0.784944
O O13 0.286960 0.713196 0.945754
O O14 0.941929 0.500000 0.115938
O O15 0.942966 0.783257 0.166019
O O16 0.761049 0.771213 0.215616
O O17 0.146214 0.769656 0.938535
O O18 0.673280 0.500000 0.230472
O O19 0.981786 0.500000 0.184264
O O20 0.027937 0.786330 0.197998
O O21 0.142334 0.500000 0.151207
#
# Coordination Sequence:
#
# PCOD9144039 Si02
#       8
#     4   4   4   4   4   4   4   4
#     4  10  22  40  59  84 115 144 180 226 274 324
#     4  10  22  39  59  83 112 145 184 225 267 323
#     4  11  23  36  53  80 113 147 184 225 271 322
#     4  10  21  36  54  80 111 141 181 230 272 315
#     4   8  15  28  53  84 107 135 177 227 274 322
#     4   9  16  31  54  80 110 140 177 225 275 323
#     4  10  18  34  59  83 105 138 185 228 272 325
#     4  10  22  38  56  79 109 146 184 222 269 327
#
# _framework density 21.638715999999999
#
# number of rings (size 3 to 8) (size 9 to 14) (size 15 to 20)
#    0.000    2.250    2.500    1.125    1.750    2.000 
#    0.000    2.500    0.000    3.750    0.000    0.000 
#    0.000    0.000    0.000    0.000    0.000    0.000 
#
# Total GULP energy -178699.450615 kJ/mol
# GULP energy per Si atom -5584.357832 kJ/mol
# Density = 2.158947 g / cm^3
# Si number density = 21.638716 Si / 1000 Ang^3
#
#
#
# Elastic Constant Matrix: (Units=GPa)
#
#
# Indices 1 2 3 4 5 6 
#
# 1 143.3033 0.5734 30.1781 0.0000 15.7324 0.0000
# 2 0.5734 58.2067 -15.6042 0.0000 1.1006 0.0000
# 3 30.1781 -15.6042 69.3329 0.0000 13.6315 0.0000
# 4 0.0000 0.0000 0.0000 23.8915 0.0000 0.8731
# 5 15.7324 1.1006 13.6315 0.0000 29.7129 0.0000
# 6 0.0000 0.0000 0.0000 0.8731 0.0000 16.8595
#
#
#
# Elastic Compliance Matrix: (Units=1/GPa)
#
#
# Indices 1 2 3 4 5 6 
#
# 1 0.007938 -0.000860 -0.003109 0.000000 -0.002745 0.000000
# 2 -0.000860 0.018594 0.005061 0.000000 -0.002556 0.000000
# 3 -0.003109 0.005061 0.018277 0.000000 -0.006927 0.000000
# 4 0.000000 0.000000 0.000000 0.041935 0.000000 -0.002172
# 5 -0.002745 -0.002556 -0.006927 0.000000 0.038381 0.000000
# 6 0.000000 0.000000 0.000000 -0.002172 0.000000 0.059426
#
#
# Mechanical properties :
#
#
# Convention : Reuss Voigt Hill
#
# Bulk Modulus (GPa) = 21.27909 33.45972 27.36941
# Shear Modulus (GPa) = 25.24866 31.13915 28.19391
#
# Velocity S-wave (km/s) = 3.41959 3.79759 3.61354
# Velocity P-wave (km/s) = 5.04447 5.89283 5.48507
#
# Compressibility (1/GPa) = 0.04699449
#
# Stress axis : x y z
#
# Youngs Moduli (GPa) = 125.98177 53.78131 54.71276
#
# Poissons Ratio (x) = 0.04624 0.17009
# Poissons Ratio (y) = 0.10831 -0.27692
# Poissons Ratio (z) = 0.39165 -0.27221
#
# Static dielectric constant tensor:
#      x y z
#    x 1.816520 0.000000 0.002540 
#    y 0.000000 2.797880 0.000000 
#    z 0.002540 0.000000 1.717330 
# 
# From -- ./inp_files/93645.got.cif
#   From: 2010.05.17/outbox.cif.g08.bks.cpg/sg10_47_cif.got.tgz:93645.got - 2010.06.03 11:33:40.
