data_PCOD9144708
_publ_section_title
;
Structure prediction by ZEFSAII (Michael W. Deem and Ramdas Pophale) SiO2 
 PCOD9144708
Probable space group: P 2/M
;
_chemical_formula_sum "Si O2"
_cell_formula_units_Z 28
_cell_length_a 12.305380
_cell_length_b 11.875779
_cell_length_c 11.411730
_cell_angle_alpha 90.000000
_cell_angle_beta 100.879464
_cell_angle_gamma 90.000000
_cell_volume 1637.690383
_symmetry_space_group_name_H-M "P 2/M"
_symmetry_group_IT_number 10
_symmetry_cell_setting 'monoclinic'
loop_
_space_group_symop_operation_xyz
x,y,z
-x,y,-z
-x,-y,-z
x,-y,z
loop_
_atom_site_type_symbol
_atom_site_label
_atom_site_fract_x
_atom_site_fract_y
_atom_site_fract_z
Si Si1 0.677952 0.365514 0.570094
Si Si2 0.848680 0.366226 0.219230
Si Si3 0.413513 0.760083 0.222298
Si Si4 0.902778 0.635638 0.735180
Si Si5 0.345749 0.000000 0.575480
Si Si6 0.230961 0.366675 0.062095
Si Si7 0.609685 0.000000 0.680803
Si Si8 0.337685 0.760259 0.673197
O O1 0.664340 0.500000 0.563346
O O2 0.613562 0.314179 0.667563
O O3 0.807453 0.338540 0.621924
O O4 0.642437 0.307813 0.443189
O O5 0.842117 0.500000 0.246347
O O6 0.758003 0.300333 0.274623
O O7 0.973884 0.324155 0.265396
O O8 0.821054 0.354030 0.076003
O O9 0.342686 0.703544 0.105131
O O10 0.545527 0.762673 0.234316
O O11 0.371539 0.885792 0.243722
O O12 0.911483 0.500000 0.741761
O O13 0.854060 0.669204 0.852256
O O14 0.478910 0.000000 0.622252
O O15 0.328333 0.000000 0.431738
O O16 0.305302 0.113841 0.627723
O O17 0.254523 0.500000 0.085148
#
# Coordination Sequence:
#
# PCOD9144708 Si02
#       8
#     4   4   4   4   2   4   2   4
#     4  10  19  30  49  77 104 129 160 204 252 297
#     4  10  20  33  51  74 102 137 168 200 247 297
#     4  10  19  32  51  76 100 128 168 207 246 295
#     4   8  16  32  52  73  97 129 171 208 238 286
#     4   9  18  34  51  69  96 135 172 207 238 288
#     4   9  18  33  53  76 101 131 167 206 247 291
#     4   9  16  32  55  72  91 129 178 211 238 279
#     4  11  21  32  49  74 104 134 164 199 251 304
#
# _framework density 17.097249000000001
#
# number of rings (size 3 to 8) (size 9 to 14) (size 15 to 20)
#    0.000    2.429    1.429    2.571    0.000    5.714 
#    0.000    4.286    0.000    7.714    0.000    5.000 
#    0.000    0.000    0.000    0.000    0.000    0.000 
#
# Total GULP energy -156113.115575 kJ/mol
# GULP energy per Si atom -5575.468413 kJ/mol
# Density = 1.705833 g / cm^3
# Si number density = 17.097249 Si / 1000 Ang^3
#
#
#
# Elastic Constant Matrix: (Units=GPa)
#
#
# Indices 1 2 3 4 5 6 
#
# 1 71.1063 28.0428 22.4805 0.0000 7.3391 0.0000
# 2 28.0428 81.2060 9.6854 0.0000 9.4604 0.0000
# 3 22.4805 9.6854 -0.0442 0.0000 11.3769 0.0000
# 4 0.0000 0.0000 0.0000 5.7460 0.0000 -16.3632
# 5 7.3391 9.4604 11.3769 0.0000 13.8950 0.0000
# 6 0.0000 0.0000 0.0000 -16.3632 0.0000 -10.0904
#
#
#
# Elastic Compliance Matrix: (Units=1/GPa)
#
#
# Indices 1 2 3 4 5 6 
#
# 1 0.011507 -0.004051 0.019412 0.000000 -0.019214 0.000000
# 2 -0.004051 0.014730 -0.004076 0.000000 -0.004552 0.000000
# 3 0.019412 -0.004076 -0.073528 0.000000 0.052725 0.000000
# 4 0.000000 0.000000 0.000000 0.030978 0.000000 -0.050235
# 5 -0.019214 -0.004552 0.052725 0.000000 0.042046 0.000000
# 6 0.000000 0.000000 0.000000 -0.050235 0.000000 -0.017640
#
#
# Mechanical properties :
#
#
# Convention : Reuss Voigt Hill
#
# Bulk Modulus (GPa) = -40.45100 30.29838 -5.07631
# Shear Modulus (GPa) = -220.08865 8.04741 -106.02062
#
# Velocity S-wave (km/s) = -11.35812 2.17188 -7.88321
# Velocity P-wave (km/s) = 13.99000 4.90399 9.26474
#
# Compressibility (1/GPa) = -0.02472127
#
# Stress axis : x y z
#
# Youngs Moduli (GPa) = 86.90410 67.89066 -13.60035
#
# Poissons Ratio (x) = 0.27499 0.26401
# Poissons Ratio (y) = 0.35201 -0.05544
# Poissons Ratio (z) = -1.68695 0.27674
#
# Static dielectric constant tensor:
#      x y z
#    x 1.592500 0.000000 0.012160 
#    y 0.000000 1.573540 0.000000 
#    z 0.012160 0.000000 1.570200 
# 
# From -- ./inp_files/46181.got.cif
#   From: 2010.05.17/outbox.cif.g08.bks.cpg/sg10_24_cif.got.tgz:46181.got - 2010.06.03 11:33:40.
