data_PCOD9144446
_publ_section_title
;
Structure prediction by ZEFSAII (Michael W. Deem and Ramdas Pophale) SiO2 
 PCOD9144446
Probable space group: P 2/M
;
_chemical_formula_sum "Si O2"
_cell_formula_units_Z 32
_cell_length_a 17.481176
_cell_length_b 8.391203
_cell_length_c 12.269657
_cell_angle_alpha 90.000000
_cell_angle_beta 95.757920
_cell_angle_gamma 90.000000
_cell_volume 1790.731963
_symmetry_space_group_name_H-M "P 2/M"
_symmetry_group_IT_number 10
_symmetry_cell_setting 'monoclinic'
loop_
_space_group_symop_operation_xyz
x,y,z
-x,y,-z
-x,-y,-z
x,-y,z
loop_
_atom_site_type_symbol
_atom_site_label
_atom_site_fract_x
_atom_site_fract_y
_atom_site_fract_z
Si Si1 0.581975 0.692771 0.964166
Si Si2 0.678292 0.190147 0.794503
Si Si3 0.960313 0.691980 0.382255
Si Si4 0.784424 0.308010 0.361926
Si Si5 0.758915 0.808987 0.595157
Si Si6 0.731309 0.305328 0.122740
Si Si7 0.827476 0.687076 0.941045
Si Si8 0.089659 0.810647 0.248417
O O1 0.583098 0.500000 0.958345
O O2 0.602198 0.760506 0.847844
O O3 0.500000 0.742465 0.000000
O O4 0.652018 0.744293 0.053542
O O5 0.690101 0.229760 0.669282
O O6 0.747589 0.281499 0.865208
O O7 0.691128 0.000000 0.808274
O O8 0.958992 0.500000 0.385532
O O9 0.872739 0.748913 0.366282
O O10 0.000000 0.749460 0.500000
O O11 0.012201 0.741961 0.287916
O O12 0.785524 0.500000 0.358891
O O13 0.751912 0.258170 0.473813
O O14 0.739826 0.252133 0.248011
O O15 0.838406 0.753181 0.665359
O O16 0.763612 0.000000 0.588365
O O17 0.731734 0.500000 0.120624
O O18 0.804402 0.254752 0.058659
O O19 0.843876 0.500000 0.948619
O O20 0.891289 0.765800 0.873518
O O21 0.087916 0.000000 0.256272
#
# Coordination Sequence:
#
# PCOD9144446 Si02
#       8
#     4   4   4   4   4   4   4   4
#     4   9  17  31  53  78 100 122 152 191 231 274
#     4   9  17  29  46  72 101 125 154 192 232 277
#     4  10  19  30  44  67  92 119 161 204 238 278
#     4  10  19  31  48  67  92 124 158 195 235 282
#     4   9  18  30  44  66  94 123 156 194 233 273
#     4   8  16  31  49  71  95 121 152 189 235 281
#     4   9  16  29  49  68  91 122 158 199 238 279
#     4  10  19  30  46  67  92 122 158 202 247 282
#
# _framework density 17.869786999999999
#
# number of rings (size 3 to 8) (size 9 to 14) (size 15 to 20)
#    0.000    2.750    1.250    2.625    0.000    3.500 
#    0.000    3.750    0.000    4.500    0.000    5.250 
#    0.000    0.000    0.000    0.000    0.000    0.000 
#
# Total GULP energy -178256.177421 kJ/mol
# GULP energy per Si atom -5570.505544 kJ/mol
# Density = 1.782911 g / cm^3
# Si number density = 17.869787 Si / 1000 Ang^3
#
#
#
# Elastic Constant Matrix: (Units=GPa)
#
#
# Indices 1 2 3 4 5 6 
#
# 1 79.6539 8.6986 56.7227 0.0000 -27.5197 0.0000
# 2 8.6986 3.8402 12.6294 0.0000 -0.4895 0.0000
# 3 56.7227 12.6294 139.8780 0.0000 -26.0176 0.0000
# 4 0.0000 0.0000 0.0000 100.0790 0.0000 -15.3066
# 5 -27.5197 -0.4895 -26.0176 0.0000 28.6646 0.0000
# 6 0.0000 0.0000 0.0000 -15.3066 0.0000 11.8224
#
#
#
# Elastic Compliance Matrix: (Units=1/GPa)
#
#
# Indices 1 2 3 4 5 6 
#
# 1 0.028440 -0.054565 -0.002046 0.000000 0.024515 0.000000
# 2 -0.054565 0.496110 -0.037097 0.000000 -0.077586 0.000000
# 3 -0.002046 -0.037097 0.013048 0.000000 0.009245 0.000000
# 4 0.000000 0.000000 0.000000 0.012459 0.000000 0.016131
# 5 0.024515 -0.077586 0.009245 0.000000 0.065489 0.000000
# 6 0.000000 0.000000 0.000000 0.016131 0.000000 0.105470
#
#
# Mechanical properties :
#
#
# Convention : Reuss Voigt Hill
#
# Bulk Modulus (GPa) = 2.85568 42.16372 22.50970
# Shear Modulus (GPa) = 4.87728 37.80130 21.33929
#
# Velocity S-wave (km/s) = 1.65387 4.60431 3.45940
# Velocity P-wave (km/s) = 2.29097 7.20503 5.34607
#
# Compressibility (1/GPa) = 0.35017977
#
# Stress axis : x y z
#
# Youngs Moduli (GPa) = 35.16154 2.01568 76.64019
#
# Poissons Ratio (x) = 0.10999 0.15684
# Poissons Ratio (y) = 1.91861 2.84313
# Poissons Ratio (z) = 0.07196 0.07478
#
# Static dielectric constant tensor:
#      x y z
#    x 1.607660 0.000000 -0.015610 
#    y 0.000000 1.622290 0.000000 
#    z -0.015610 0.000000 1.636620 
# 
# From -- ./inp_files/52693.got.cif
#   From: 2010.05.17/outbox.cif.g08.bks.cpg/sg10_27_cif.got.tgz:52693.got - 2010.06.03 11:33:40.
