data_PCOD9144032
_publ_section_title
;
Structure prediction by ZEFSAII (Michael W. Deem and Ramdas Pophale) SiO2 
 PCOD9144032
Probable space group: P 2/M
;
_chemical_formula_sum "Si O2"
_cell_formula_units_Z 32
_cell_length_a 25.320208
_cell_length_b 8.731573
_cell_length_c 14.634637
_cell_angle_alpha 90.000000
_cell_angle_beta 150.315079
_cell_angle_gamma 90.000000
_cell_volume 1602.317954
_symmetry_space_group_name_H-M "P 2/M"
_symmetry_group_IT_number 10
_symmetry_cell_setting 'monoclinic'
loop_
_space_group_symop_operation_xyz
x,y,z
-x,y,-z
-x,-y,-z
x,-y,z
loop_
_atom_site_type_symbol
_atom_site_label
_atom_site_fract_x
_atom_site_fract_y
_atom_site_fract_z
Si Si1 0.467185 0.322587 0.045955
Si Si2 0.488977 0.816914 0.591140
Si Si3 0.885791 0.183035 0.368970
Si Si4 0.331978 0.315891 0.008542
Si Si5 0.966659 0.683860 0.052267
Si Si6 0.255263 0.179694 0.302745
Si Si7 0.707228 0.674157 0.455898
Si Si8 0.136795 0.683157 0.463226
O O1 0.434802 0.500000 0.976916
O O2 0.379842 0.258450 0.982972
O O3 0.579944 0.326575 0.267655
O O4 0.500000 0.246321 0.000000
O O5 0.500000 0.791705 0.500000
O O6 0.585237 0.739711 0.790721
O O7 0.371167 0.762818 0.444440
O O8 0.494096 0.000000 0.616677
O O9 0.875458 0.235789 0.458640
O O10 0.000000 0.231530 0.500000
O O11 0.878934 0.000000 0.353750
O O12 0.787442 0.254205 0.164841
O O13 0.331678 0.500000 0.006198
O O14 0.968383 0.500000 0.052396
O O15 0.847503 0.739533 0.893868
O O16 0.000000 0.737601 0.000000
O O17 0.048518 0.730455 0.255066
O O18 0.250598 0.213750 0.403808
O O19 0.249603 0.000000 0.275391
O O20 0.745585 0.500000 0.534243
O O21 0.751541 0.710672 0.421938
O O22 0.128729 0.500000 0.466602
#
# Coordination Sequence:
#
# PCOD9144032 Si02
#       8
#     4   4   4   4   4   4   4   4
#     4   9  17  30  54  87 119 153 190 234 297 362
#     4  10  23  43  63  86 125 171 207 246 304 368
#     4  11  26  46  65  86 121 167 205 247 307 366
#     4  11  22  39  67  96 121 154 203 259 303 351
#     4  10  20  37  60  86 121 163 203 248 308 369
#     4  11  22  35  56  86 120 159 204 250 297 356
#     4  10  18  34  58  84 122 159 192 241 305 366
#     4  10  21  38  64  93 120 158 207 256 302 356
#
# _framework density 19.971069
#
# number of rings (size 3 to 8) (size 9 to 14) (size 15 to 20)
#    0.000    1.750    2.500    1.875    0.000    6.000 
#    0.000    3.750    0.000    1.875    0.000    0.000 
#    0.000    0.000    0.000    0.000    0.000    0.000 
#
# Total GULP energy -178659.269240 kJ/mol
# GULP energy per Si atom -5583.102164 kJ/mol
# Density = 1.992561 g / cm^3
# Si number density = 19.971069 Si / 1000 Ang^3
#
#
#
# Elastic Constant Matrix: (Units=GPa)
#
#
# Indices 1 2 3 4 5 6 
#
# 1 83.4903 22.1839 47.2234 0.0000 21.2321 0.0000
# 2 22.1839 20.5426 31.6698 0.0000 5.3954 0.0000
# 3 47.2234 31.6698 132.7670 0.0000 23.7882 0.0000
# 4 0.0000 0.0000 0.0000 29.7228 0.0000 0.2185
# 5 21.2321 5.3954 23.7882 0.0000 31.9447 0.0000
# 6 0.0000 0.0000 0.0000 0.2185 0.0000 20.9923
#
#
#
# Elastic Compliance Matrix: (Units=1/GPa)
#
#
# Indices 1 2 3 4 5 6 
#
# 1 0.019454 -0.016552 -0.001333 0.000000 -0.009142 0.000000
# 2 -0.016552 0.091092 -0.017374 0.000000 0.008554 0.000000
# 3 -0.001333 -0.017374 0.013231 0.000000 -0.006032 0.000000
# 4 0.000000 0.000000 0.000000 0.033647 0.000000 -0.000350
# 5 -0.009142 0.008554 -0.006032 0.000000 0.040428 0.000000
# 6 0.000000 0.000000 0.000000 -0.000350 0.000000 0.047640
#
#
# Mechanical properties :
#
#
# Convention : Reuss Voigt Hill
#
# Bulk Modulus (GPa) = 18.77620 48.77269 33.77444
# Shear Modulus (GPa) = 14.98059 25.58013 20.28036
#
# Velocity S-wave (km/s) = 2.74179 3.58279 3.19013
# Velocity P-wave (km/s) = 4.40969 6.44902 5.52428
#
# Compressibility (1/GPa) = 0.05325893
#
# Stress axis : x y z
#
# Youngs Moduli (GPa) = 51.40204 10.97787 75.57723
#
# Poissons Ratio (x) = 0.18171 0.10078
# Poissons Ratio (y) = 0.85081 1.31309
# Poissons Ratio (z) = 0.06854 0.19073
#
# Static dielectric constant tensor:
#      x y z
#    x 1.713680 0.000000 0.006930 
#    y 0.000000 1.682160 0.000000 
#    z 0.006930 0.000000 1.720950 
# 
# From -- ./inp_files/71600.got.cif
#   From: 2010.05.17/outbox.cif.g08.bks.cpg/sg10_36_cif.got.tgz:71600.got - 2010.06.03 11:33:40.
