data_PCOD9144566
_publ_section_title
;
Structure prediction by ZEFSAII (Michael W. Deem and Ramdas Pophale) SiO2 
 PCOD9144566
Probable space group: P 2/M
;
_chemical_formula_sum "Si O2"
_cell_formula_units_Z 32
_cell_length_a 12.644537
_cell_length_b 8.910108
_cell_length_c 24.399742
_cell_angle_alpha 90.000000
_cell_angle_beta 46.065110
_cell_angle_gamma 90.000000
_cell_volume 1979.617454
_symmetry_space_group_name_H-M "P 2/M"
_symmetry_group_IT_number 10
_symmetry_cell_setting 'monoclinic'
loop_
_space_group_symop_operation_xyz
x,y,z
-x,y,-z
-x,-y,-z
x,-y,z
loop_
_atom_site_type_symbol
_atom_site_label
_atom_site_fract_x
_atom_site_fract_y
_atom_site_fract_z
Si Si1 0.037454 0.320449 0.596073
Si Si2 0.279713 0.178642 0.314160
Si Si3 0.131183 0.821274 0.677397
Si Si4 0.636965 0.673230 0.993488
Si Si5 0.820901 0.177716 0.839406
Si Si6 0.562221 0.319977 0.417579
Si Si7 0.409843 0.319345 0.162159
Si Si8 0.689705 0.320771 0.579970
O O1 0.017045 0.500000 0.606530
O O2 0.101220 0.260543 0.630417
O O3 0.156432 0.288972 0.505955
O O4 0.883148 0.242165 0.639533
O O5 0.385377 0.249435 0.230229
O O6 0.321879 0.231823 0.359609
O O7 0.279034 0.000000 0.309717
O O8 0.283726 0.761671 0.646271
O O9 0.990815 0.789818 0.766285
O O10 0.137834 0.000000 0.665954
O O11 0.684024 0.500000 0.981408
O O12 0.561910 0.723835 0.077076
O O13 0.500000 0.676153 0.000000
O O14 0.762601 0.769081 0.919399
O O15 0.722702 0.261187 0.828877
O O16 0.796811 0.000000 0.841889
O O17 0.500000 0.278638 0.500000
O O18 0.585184 0.500000 0.409595
O O19 0.440892 0.285354 0.415424
O O20 0.403865 0.500000 0.166104
O O21 0.686138 0.500000 0.592346
#
# Coordination Sequence:
#
# PCOD9144566 Si02
#       8
#     4   4   4   4   4   4   4   4
#     4  11  21  36  56  74 100 139 177 214 256 304
#     4  12  24  35  50  77 108 137 173 213 259 313
#     4  11  22  33  50  79 109 137 171 212 261 308
#     4   8  16  29  46  70  98 132 172 207 245 301
#     4  10  19  30  46  73 107 137 167 207 255 308
#     4  10  20  38  58  76  97 131 179 221 258 306
#     4  10  19  32  50  71 100 138 174 208 250 303
#     4  10  22  39  56  74  98 134 180 219 257 306
#
# _framework density 16.164739999999998
#
# number of rings (size 3 to 8) (size 9 to 14) (size 15 to 20)
#    0.000    1.750    2.500    3.750    0.000    7.500 
#    0.000    0.000    0.000    0.000    0.000    0.875 
#    0.000    7.000    0.000    0.000    0.000    0.000 
#
# Total GULP energy -178629.205325 kJ/mol
# GULP energy per Si atom -5582.162666 kJ/mol
# Density = 1.612795 g / cm^3
# Si number density = 16.164740 Si / 1000 Ang^3
#
#
#
# Elastic Constant Matrix: (Units=GPa)
#
#
# Indices 1 2 3 4 5 6 
#
# 1 41.0478 26.2005 39.3952 0.0000 9.0369 0.0000
# 2 26.2005 64.8496 67.6911 0.0000 3.7752 0.0000
# 3 39.3952 67.6911 148.6975 0.0000 6.4471 0.0000
# 4 0.0000 0.0000 0.0000 30.1516 0.0000 -11.9631
# 5 9.0369 3.7752 6.4471 0.0000 16.2939 0.0000
# 6 0.0000 0.0000 0.0000 -11.9631 0.0000 25.6212
#
#
#
# Elastic Compliance Matrix: (Units=1/GPa)
#
#
# Indices 1 2 3 4 5 6 
#
# 1 0.039325 -0.009119 -0.005508 0.000000 -0.017518 0.000000
# 2 -0.009119 0.031534 -0.012049 0.000000 0.002519 0.000000
# 3 -0.005508 -0.012049 0.013650 0.000000 0.000445 0.000000
# 4 0.000000 0.000000 0.000000 0.040707 0.000000 0.019007
# 5 -0.017518 0.002519 0.000445 0.000000 0.070329 0.000000
# 6 0.000000 0.000000 0.000000 0.019007 0.000000 0.047905
#
#
# Mechanical properties :
#
#
# Convention : Reuss Voigt Hill
#
# Bulk Modulus (GPa) = 32.09405 57.90761 45.00083
# Shear Modulus (GPa) = 16.27670 22.50056 19.38863
#
# Velocity S-wave (km/s) = 3.17665 3.73494 3.46705
# Velocity P-wave (km/s) = 5.77514 7.38247 6.62771
#
# Compressibility (1/GPa) = 0.03115842
#
# Stress axis : x y z
#
# Youngs Moduli (GPa) = 25.42892 31.71133 73.26129
#
# Poissons Ratio (x) = 0.28918 0.40351
# Poissons Ratio (y) = 0.23189 0.88269
# Poissons Ratio (z) = 0.14006 0.38208
#
# Static dielectric constant tensor:
#      x y z
#    x 1.508910 0.000000 0.000830 
#    y 0.000000 1.538850 0.000000 
#    z 0.000830 0.000000 1.559610 
# 
# From -- ./inp_files/79987.got.cif
#   From: 2010.05.17/outbox.cif.g08.bks.cpg/sg10_40_cif.got.tgz:79987.got - 2010.06.03 11:33:40.
