data_PCOD9144395
_publ_section_title
;
Structure prediction by ZEFSAII (Michael W. Deem and Ramdas Pophale) SiO2 
 PCOD9144395
Probable space group: P 2/M
;
_chemical_formula_sum "Si O2"
_cell_formula_units_Z 32
_cell_length_a 9.793253
_cell_length_b 14.263491
_cell_length_c 27.064638
_cell_angle_alpha 90.000000
_cell_angle_beta 153.466558
_cell_angle_gamma 90.000000
_cell_volume 1688.847789
_symmetry_space_group_name_H-M "P 2/M"
_symmetry_group_IT_number 10
_symmetry_cell_setting 'monoclinic'
loop_
_space_group_symop_operation_xyz
x,y,z
-x,y,-z
-x,-y,-z
x,-y,z
loop_
_atom_site_type_symbol
_atom_site_label
_atom_site_fract_x
_atom_site_fract_y
_atom_site_fract_z
Si Si1 0.038457 0.794326 0.188076
Si Si2 0.483965 0.395857 0.759286
Si Si3 0.414881 0.889656 0.760156
Si Si4 0.135225 0.395608 0.916430
Si Si5 0.245752 0.194409 0.803857
Si Si6 0.283263 0.770638 0.628003
Si Si7 0.099706 0.111599 0.958006
Si Si8 0.631792 0.396422 0.164301
O O1 0.398299 0.773553 0.299101
O O2 0.868256 0.694871 0.120270
O O3 0.939881 0.837336 0.208318
O O4 0.948846 0.865408 0.115339
O O5 0.356535 0.500000 0.709048
O O6 0.294594 0.316453 0.670037
O O7 0.512456 0.385110 0.827546
O O8 0.816809 0.391116 0.842682
O O9 0.214015 0.848968 0.739537
O O10 0.287435 0.859154 0.666011
O O11 0.775282 0.858438 0.877593
O O12 0.425186 0.000000 0.768507
O O13 0.153733 0.500000 0.898471
O O14 0.389679 0.391605 0.041403
O O15 0.167873 0.304323 0.775861
O O16 0.603976 0.170858 0.930556
O O17 0.000000 0.766699 0.500000
O O18 0.147757 0.000000 0.982364
O O19 0.775166 0.500000 0.209270
#
# Coordination Sequence:
#
# PCOD9144395 Si02
#       8
#     4   4   4   4   4   4   4   4
#     4  10  22  35  52  82 113 144 184 222 269 317
#     4   9  17  31  53  82 109 138 183 229 264 311
#     4  10  22  39  59  82 107 141 184 224 267 322
#     4   9  17  30  49  76 114 153 184 213 254 315
#     4  12  21  33  54  82 116 149 175 217 263 321
#     4  10  21  40  62  80 102 138 183 234 282 323
#     4  10  21  36  55  80 113 150 182 213 256 318
#     4  10  19  29  49  80 115 151 180 210 259 319
#
# _framework density 18.94783
#
# number of rings (size 3 to 8) (size 9 to 14) (size 15 to 20)
#    0.000    2.000    2.500    1.500    0.000    6.000 
#    0.000    1.875    0.000    0.750    0.000    1.750 
#    0.000    0.000    0.000    0.000    0.000    0.000 
#
# Total GULP energy -178438.606986 kJ/mol
# GULP energy per Si atom -5576.206468 kJ/mol
# Density = 1.890470 g / cm^3
# Si number density = 18.947830 Si / 1000 Ang^3
#
#
#
# Elastic Constant Matrix: (Units=GPa)
#
#
# Indices 1 2 3 4 5 6 
#
# 1 123.0609 18.5157 24.2125 0.0000 -13.5359 0.0000
# 2 18.5157 60.8215 10.4884 0.0000 -3.0620 0.0000
# 3 24.2125 10.4884 67.5890 0.0000 -6.6723 0.0000
# 4 0.0000 0.0000 0.0000 5.9193 0.0000 5.5011
# 5 -13.5359 -3.0620 -6.6723 0.0000 9.3420 0.0000
# 6 0.0000 0.0000 0.0000 5.5011 0.0000 -4.4986
#
#
#
# Elastic Compliance Matrix: (Units=1/GPa)
#
#
# Indices 1 2 3 4 5 6 
#
# 1 0.010250 -0.002122 -0.002093 0.000000 0.012661 0.000000
# 2 -0.002122 0.017469 -0.001817 0.000000 0.001353 0.000000
# 3 -0.002093 -0.001817 0.016642 0.000000 0.008259 0.000000
# 4 0.000000 0.000000 0.000000 0.079074 0.000000 0.096696
# 5 0.012661 0.001353 0.008259 0.000000 0.131729 0.000000
# 6 0.000000 0.000000 0.000000 0.096696 0.000000 -0.104047
#
#
# Mechanical properties :
#
#
# Convention : Reuss Voigt Hill
#
# Bulk Modulus (GPa) = 30.96213 39.76720 35.36466
# Shear Modulus (GPa) = 28.74447 15.36954 22.05701
#
# Velocity S-wave (km/s) = 3.89914 2.85116 3.41558
# Velocity P-wave (km/s) = 6.05369 5.64554 5.85318
#
# Compressibility (1/GPa) = 0.03229752
#
# Stress axis : x y z
#
# Youngs Moduli (GPa) = 97.56412 57.24419 60.08828
#
# Poissons Ratio (x) = 0.12147 0.12574
# Poissons Ratio (y) = 0.20703 0.10918
# Poissons Ratio (z) = 0.20416 0.10402
#
# Static dielectric constant tensor:
#      x y z
#    x 1.690150 0.000000 -0.012460 
#    y 0.000000 1.718010 0.000000 
#    z -0.012460 0.000000 1.622110 
# 
# From -- ./inp_files/25335.got.cif
#   From: 2010.05.17/outbox.cif.g08.bks.cpg/sg10_13_cif.got.tgz:25335.got - 2010.06.03 11:33:40.
