data_PCOD9144164
_publ_section_title
;
Structure prediction by ZEFSAII (Michael W. Deem and Ramdas Pophale) SiO2 
 PCOD9144164
Probable space group: P 2/M
;
_chemical_formula_sum "Si O2"
_cell_formula_units_Z 32
_cell_length_a 24.020939
_cell_length_b 8.506994
_cell_length_c 14.385602
_cell_angle_alpha 90.000000
_cell_angle_beta 33.072320
_cell_angle_gamma 90.000000
_cell_volume 1604.153283
_symmetry_space_group_name_H-M "P 2/M"
_symmetry_group_IT_number 10
_symmetry_cell_setting 'monoclinic'
loop_
_space_group_symop_operation_xyz
x,y,z
-x,y,-z
-x,-y,-z
x,-y,z
loop_
_atom_site_type_symbol
_atom_site_label
_atom_site_fract_x
_atom_site_fract_y
_atom_site_fract_z
Si Si1 0.474904 0.186728 0.298092
Si Si2 0.596337 0.313539 0.797045
Si Si3 0.897940 0.186875 0.204361
Si Si4 0.779867 0.185347 0.663779
Si Si5 0.700354 0.316437 0.967000
Si Si6 0.966900 0.684024 0.301811
Si Si7 0.282736 0.808592 0.679517
Si Si8 0.808099 0.186971 0.996842
O O1 0.423012 0.222947 0.271497
O O2 0.394658 0.238648 0.489089
O O3 0.492110 0.000000 0.282858
O O4 0.582754 0.272727 0.149565
O O5 0.601928 0.500000 0.770867
O O6 0.696841 0.256662 0.709232
O O7 0.500000 0.285803 0.000000
O O8 0.912769 0.276353 0.279699
O O9 0.801926 0.241148 0.277548
O O10 0.886404 0.000000 0.240203
O O11 0.000000 0.205432 0.000000
O O12 0.740773 0.220822 0.821844
O O13 0.888490 0.263755 0.491059
O O14 0.787469 0.000000 0.637562
O O15 0.708377 0.500000 0.933245
O O16 0.764576 0.273334 0.967971
O O17 0.989023 0.500000 0.277086
O O18 0.072340 0.778565 0.158470
O O19 0.249130 0.758921 0.829094
O O20 0.279982 0.000000 0.683071
O O21 0.792004 0.000000 0.008914
#
# Coordination Sequence:
#
# PCOD9144164 Si02
#       8
#     4   4   4   4   4   4   4   4
#     4  11  22  39  65  96 127 169 216 256 306 378
#     4  11  22  38  63  96 134 168 200 257 324 374
#     4  10  18  36  65  95 128 170 212 257 308 369
#     4  12  25  43  68  95 123 167 217 258 306 381
#     4  12  26  45  64  91 127 163 207 268 325 371
#     4  12  25  41  63  97 134 167 203 259 323 378
#     4   9  20  38  64  95 126 162 211 264 306 357
#     4  11  23  45  69  91 121 166 217 263 309 373
#
# _framework density 19.948218000000001
#
# number of rings (size 3 to 8) (size 9 to 14) (size 15 to 20)
#    0.000    1.000    2.500    5.250    0.000    2.750 
#    0.000    8.125    0.000    0.000    0.000    0.000 
#    0.000    0.000    0.000    0.000    0.000    0.000 
#
# Total GULP energy -179064.202476 kJ/mol
# GULP energy per Si atom -5595.756327 kJ/mol
# Density = 1.990282 g / cm^3
# Si number density = 19.948218 Si / 1000 Ang^3
#
#
#
# Elastic Constant Matrix: (Units=GPa)
#
#
# Indices 1 2 3 4 5 6 
#
# 1 52.3405 -18.5905 5.0926 0.0000 -4.3492 0.0000
# 2 -18.5905 33.4244 -2.4773 0.0000 2.0003 0.0000
# 3 5.0926 -2.4773 80.7613 0.0000 10.3769 0.0000
# 4 0.0000 0.0000 0.0000 10.3675 0.0000 -19.1343
# 5 -4.3492 2.0003 10.3769 0.0000 -9.5670 0.0000
# 6 0.0000 0.0000 0.0000 -19.1343 0.0000 42.3753
#
#
#
# Elastic Compliance Matrix: (Units=1/GPa)
#
#
# Indices 1 2 3 4 5 6 
#
# 1 0.023212 0.013374 -0.000050 0.000000 -0.007810 0.000000
# 2 0.013374 0.037255 0.000070 0.000000 0.001785 0.000000
# 3 -0.000050 0.000070 0.010868 0.000000 0.011825 0.000000
# 4 0.000000 0.000000 0.000000 0.578858 0.000000 0.261380
# 5 -0.007810 0.001785 0.011825 0.000000 -0.087775 0.000000
# 6 0.000000 0.000000 0.000000 0.261380 0.000000 0.141623
#
#
# Mechanical properties :
#
#
# Convention : Reuss Voigt Hill
#
# Bulk Modulus (GPa) = 10.19126 14.95286 12.57206
# Shear Modulus (GPa) = 7.04265 20.80192 13.92229
#
# Velocity S-wave (km/s) = 1.88099 3.23274 2.64469
# Velocity P-wave (km/s) = 3.13647 4.63101 3.95498
#
# Compressibility (1/GPa) = 0.09812330
#
# Stress axis : x y z
#
# Youngs Moduli (GPa) = 43.08152 26.84188 92.01298
#
# Poissons Ratio (x) = -0.35898 0.00459
# Poissons Ratio (y) = -0.57617 -0.00644
# Poissons Ratio (z) = 0.00215 -0.00188
#
# Static dielectric constant tensor:
#      x y z
#    x 1.666760 0.000000 0.004050 
#    y 0.000000 1.669470 0.000000 
#    z 0.004050 0.000000 1.698200 
# 
# From -- ./inp_files/71406.got.cif
#   From: 2010.05.17/outbox.cif.g08.bks.cpg/sg10_36_cif.got.tgz:71406.got - 2010.06.03 11:33:40.
