data_PCOD9144341
_publ_section_title
;
Structure prediction by ZEFSAII (Michael W. Deem and Ramdas Pophale) SiO2 
 PCOD9144341
Probable space group: P 2/M
;
_chemical_formula_sum "Si O2"
_cell_formula_units_Z 24
_cell_length_a 11.763967
_cell_length_b 8.608453
_cell_length_c 20.551616
_cell_angle_alpha 90.000000
_cell_angle_beta 43.400965
_cell_angle_gamma 90.000000
_cell_volume 1430.028445
_symmetry_space_group_name_H-M "P 2/M"
_symmetry_group_IT_number 10
_symmetry_cell_setting 'monoclinic'
loop_
_space_group_symop_operation_xyz
x,y,z
-x,y,-z
-x,-y,-z
x,-y,z
loop_
_atom_site_type_symbol
_atom_site_label
_atom_site_fract_x
_atom_site_fract_y
_atom_site_fract_z
Si Si1 0.311097 0.689418 0.589261
Si Si2 0.229914 0.186365 0.358932
Si Si3 0.121400 0.679473 0.012538
Si Si4 0.182700 0.311643 0.783252
Si Si5 0.891462 0.686539 0.453710
Si Si6 0.604371 0.815196 0.185812
O O1 0.500000 0.740480 0.500000
O O2 0.312332 0.500000 0.589934
O O3 0.240458 0.740570 0.688246
O O4 0.197798 0.735615 0.575554
O O5 0.198686 0.240230 0.446130
O O6 0.413508 0.234208 0.261033
O O7 0.081660 0.260805 0.379274
O O8 0.216136 0.000000 0.361575
O O9 0.164195 0.500000 0.007563
O O10 0.002163 0.740721 0.119181
O O11 0.284413 0.768246 0.922287
O O12 0.000000 0.681961 0.000000
O O13 0.179896 0.500000 0.785964
O O14 0.309884 0.257701 0.785964
O O15 0.882495 0.500000 0.463013
O O16 0.608579 0.000000 0.191489
#
# Coordination Sequence:
#
# PCOD9144341 Si02
#       6
#     4   4   4   4   4   4
#     4   9  17  29  47  71  96 119 145 182 225 269
#     4  10  20  33  47  65  94 125 150 187 233 266
#     4   8  15  27  44  66  91 120 150 185 230 271
#     4   9  17  30  47  68  96 124 148 182 231 276
#     4  10  19  31  50  72  90 117 156 188 220 268
#     4  10  19  29  45  69  93 120 155 190 225 267
#
# _framework density 16.782882000000001
#
# number of rings (size 3 to 8) (size 9 to 14) (size 15 to 20)
#    0.000    2.667    0.000    4.500    0.000    7.000 
#    0.000    1.667    0.000    5.500    0.000    7.000 
#    0.000    0.000    0.000    0.000    0.000    0.000 
#
# Total GULP energy -133760.979289 kJ/mol
# GULP energy per Si atom -5573.374137 kJ/mol
# Density = 1.674468 g / cm^3
# Si number density = 16.782882 Si / 1000 Ang^3
#
#
#
# Elastic Constant Matrix: (Units=GPa)
#
#
# Indices 1 2 3 4 5 6 
#
# 1 94.1442 11.4773 77.6288 0.0000 -3.8436 0.0000
# 2 11.4773 14.6445 14.7987 0.0000 -4.4216 0.0000
# 3 77.6288 14.7987 159.6047 0.0000 -13.8670 0.0000
# 4 0.0000 0.0000 0.0000 20.9352 0.0000 -10.3767
# 5 -3.8436 -4.4216 -13.8670 0.0000 27.1246 0.0000
# 6 0.0000 0.0000 0.0000 -10.3767 0.0000 2.6280
#
#
#
# Elastic Compliance Matrix: (Units=1/GPa)
#
#
# Indices 1 2 3 4 5 6 
#
# 1 0.018383 -0.006602 -0.008577 0.000000 -0.002856 0.000000
# 2 -0.006602 0.079933 -0.003296 0.000000 0.010409 0.000000
# 3 -0.008577 -0.003296 0.011083 0.000000 0.003913 0.000000
# 4 0.000000 0.000000 0.000000 -0.049908 0.000000 -0.197059
# 5 -0.002856 0.010409 0.003913 0.000000 0.040160 0.000000
# 6 0.000000 0.000000 0.000000 -0.197059 0.000000 -0.397570
#
#
# Mechanical properties :
#
#
# Convention : Reuss Voigt Hill
#
# Bulk Modulus (GPa) = 13.80294 52.91143 33.35719
# Shear Modulus (GPa) = -21.11300 21.10349 -0.00476
#
# Velocity S-wave (km/s) = -3.55069 3.54989 -0.05329
# Velocity P-wave (km/s) = 2.92704 6.95685 4.46263
#
# Compressibility (1/GPa) = 0.07244833
#
# Stress axis : x y z
#
# Youngs Moduli (GPa) = 54.39930 12.51050 90.23034
#
# Poissons Ratio (x) = 0.08259 0.77390
# Poissons Ratio (y) = 0.35915 0.29739
# Poissons Ratio (z) = 0.46658 0.04123
#
# Static dielectric constant tensor:
#      x y z
#    x 1.539740 0.000000 -0.006980 
#    y 0.000000 1.568600 0.000000 
#    z -0.006980 0.000000 1.591370 
# 
# From -- ./inp_files/83287.got.cif
#   From: 2010.05.17/outbox.cif.g08.bks.cpg/sg10_42_cif.got.tgz:83287.got - 2010.06.03 11:33:40.
