data_PCOD9144954
_publ_section_title
;
Structure prediction by ZEFSAII (Michael W. Deem and Ramdas Pophale) SiO2 
 PCOD9144954
Probable space group: P 2/M
;
_chemical_formula_sum "Si O2"
_cell_formula_units_Z 28
_cell_length_a 14.121305
_cell_length_b 9.613600
_cell_length_c 15.253583
_cell_angle_alpha 90.000000
_cell_angle_beta 138.229054
_cell_angle_gamma 90.000000
_cell_volume 1379.455285
_symmetry_space_group_name_H-M "P 2/M"
_symmetry_group_IT_number 10
_symmetry_cell_setting 'monoclinic'
loop_
_space_group_symop_operation_xyz
x,y,z
-x,y,-z
-x,-y,-z
x,-y,z
loop_
_atom_site_type_symbol
_atom_site_label
_atom_site_fract_x
_atom_site_fract_y
_atom_site_fract_z
Si Si1 0.863016 0.668729 0.850434
Si Si2 0.306678 0.656030 0.966927
Si Si3 0.568931 0.661220 0.267605
Si Si4 0.993558 0.156082 0.590021
Si Si5 0.457983 0.669750 0.371987
Si Si6 0.969417 0.337953 0.733503
Si Si7 0.328728 0.155719 0.822482
O O1 0.862867 0.500000 0.859407
O O2 0.703414 0.716230 0.761222
O O3 0.890150 0.700557 0.767362
O O4 0.000000 0.719383 0.000000
O O5 0.321114 0.500000 0.938638
O O6 0.139531 0.676183 0.868875
O O7 0.366920 0.764033 0.938353
O O8 0.404955 0.660962 0.120029
O O9 0.618605 0.500000 0.297516
O O10 0.562055 0.709924 0.363702
O O11 0.646976 0.755679 0.249283
O O12 0.928805 0.245296 0.622655
O O13 0.160287 0.141957 0.722842
O O14 0.000000 0.227590 0.500000
O O15 0.930632 0.000000 0.538752
O O16 0.500000 0.712307 0.500000
O O17 0.458560 0.500000 0.371999
O O18 0.942340 0.500000 0.695702
O O19 0.387028 0.000000 0.852284
#
# Coordination Sequence:
#
# PCOD9144954 Si02
#       7
#     4   4   4   4   4   4   4
#     4   9  16  28  48  72  96 124 160 200 242 289
#     4   9  17  30  47  71 101 127 154 191 238 290
#     4  10  19  31  49  70  96 131 161 190 236 290
#     4   9  19  35  50  65  92 129 161 191 238 298
#     4   9  18  31  46  68  98 128 160 200 244 288
#     4   9  17  29  49  75  97 120 157 204 242 275
#     4  10  20  32  48  71  96 124 160 199 239 287
#
# _framework density 20.297867
#
# number of rings (size 3 to 8) (size 9 to 14) (size 15 to 20)
#    0.000    2.714    0.000    1.714    0.000    7.714 
#    0.000    1.429    0.000    1.714    0.000    0.000 
#    0.000    0.000    0.000    0.000    0.000    0.000 
#
# Total GULP energy -156019.769033 kJ/mol
# GULP energy per Si atom -5572.134608 kJ/mol
# Density = 2.025167 g / cm^3
# Si number density = 20.297867 Si / 1000 Ang^3
#
#
#
# Elastic Constant Matrix: (Units=GPa)
#
#
# Indices 1 2 3 4 5 6 
#
# 1 100.4989 45.0021 14.6811 0.0000 -22.3519 0.0000
# 2 45.0021 52.9149 9.5134 0.0000 -20.0557 0.0000
# 3 14.6811 9.5134 53.0574 0.0000 -18.1745 0.0000
# 4 0.0000 0.0000 0.0000 9.7312 0.0000 1.3823
# 5 -22.3519 -20.0557 -18.1745 0.0000 32.4199 0.0000
# 6 0.0000 0.0000 0.0000 1.3823 0.0000 -16.9633
#
#
#
# Elastic Compliance Matrix: (Units=1/GPa)
#
#
# Indices 1 2 3 4 5 6 
#
# 1 0.016444 -0.012712 -0.001338 0.000000 0.002723 0.000000
# 2 -0.012712 0.034557 0.002032 0.000000 0.013752 0.000000
# 3 -0.001338 0.002032 0.023476 0.000000 0.013495 0.000000
# 4 0.000000 0.000000 0.000000 0.101586 0.000000 0.008278
# 5 0.002723 0.013752 0.013495 0.000000 0.048796 0.000000
# 6 0.000000 0.000000 0.000000 0.008278 0.000000 -0.058276
#
#
# Mechanical properties :
#
#
# Convention : Reuss Voigt Hill
#
# Bulk Modulus (GPa) = 19.82533 38.31829 29.07181
# Shear Modulus (GPa) = 24.10440 14.18922 19.14681
#
# Velocity S-wave (km/s) = 3.44980 2.64682 3.07464
# Velocity P-wave (km/s) = 5.06523 5.31600 5.19213
#
# Compressibility (1/GPa) = 0.05044052
#
# Stress axis : x y z
#
# Youngs Moduli (GPa) = 60.81320 28.93811 42.59654
#
# Poissons Ratio (x) = 0.36787 0.05699
# Poissons Ratio (y) = 0.77307 -0.08656
# Poissons Ratio (z) = 0.08136 -0.05881
#
# Static dielectric constant tensor:
#      x y z
#    x 1.726870 0.000000 0.046080 
#    y 0.000000 1.725780 0.000000 
#    z 0.046080 0.000000 1.812660 
# 
# From -- ./inp_files/49598.got.cif
#   From: 2010.05.17/outbox.cif.g08.bks.cpg/sg10_25_cif.got.tgz:49598.got - 2010.06.03 11:33:40.
