data_PCOD9144095
_publ_section_title
;
Structure prediction by ZEFSAII (Michael W. Deem and Ramdas Pophale) SiO2 
 PCOD9144095
Probable space group: P 2/M
;
_chemical_formula_sum "Si O2"
_cell_formula_units_Z 28
_cell_length_a 8.513376
_cell_length_b 16.879089
_cell_length_c 19.226400
_cell_angle_alpha 90.000000
_cell_angle_beta 151.814420
_cell_angle_gamma 90.000000
_cell_volume 1304.948442
_symmetry_space_group_name_H-M "P 2/M"
_symmetry_group_IT_number 10
_symmetry_cell_setting 'monoclinic'
loop_
_space_group_symop_operation_xyz
x,y,z
-x,y,-z
-x,-y,-z
x,-y,z
loop_
_atom_site_type_symbol
_atom_site_label
_atom_site_fract_x
_atom_site_fract_y
_atom_site_fract_z
Si Si1 0.130319 0.737471 0.481551
Si Si2 0.852296 0.364795 0.173067
Si Si3 0.838566 0.209759 0.008387
Si Si4 0.209218 0.201807 0.299767
Si Si5 0.430764 0.412633 0.296393
Si Si6 0.537710 0.642427 0.185106
Si Si7 0.306611 0.088141 0.850853
O O1 0.396537 0.788745 0.544118
O O2 0.335925 0.658583 0.585810
O O3 0.000000 0.779915 0.500000
O O4 0.807942 0.705125 0.318382
O O5 0.738191 0.403267 0.202120
O O6 0.038664 0.282117 0.261869
O O7 0.096280 0.407439 0.213191
O O8 0.500000 0.347278 0.000000
O O9 0.737672 0.301462 0.957890
O O10 0.520737 0.154449 0.895685
O O11 0.000000 0.183280 0.000000
O O12 0.084841 0.202655 0.170208
O O13 0.051526 0.125280 0.273181
O O14 0.576843 0.500000 0.365511
O O15 0.403966 0.401457 0.201954
O O16 0.298952 0.000000 0.817275
O O17 0.500000 0.082905 0.000000
#
# Coordination Sequence:
#
# PCOD9144095 Si02
#       7
#     4   4   4   4   4   4   4
#     4   9  20  37  58  85 111 147 194 242 287 337
#     4  11  20  37  60  83 115 150 194 240 284 343
#     4  11  19  32  58  86 112 149 190 234 283 332
#     4  10  18  35  58  81 114 147 187 238 280 335
#     4  10  24  41  57  84 118 149 190 243 295 346
#     4  11  22  36  62  86 109 153 198 238 286 345
#     4   9  18  33  54  84 117 149 184 227 285 338
#
# _framework density 21.456785
#
# number of rings (size 3 to 8) (size 9 to 14) (size 15 to 20)
#    0.000    1.857    2.857    3.000    0.000    6.000 
#    0.000    1.429    0.000    2.143    0.000    0.000 
#    0.000    0.000    0.000    0.000    0.000    0.000 
#
# Total GULP energy -156228.302718 kJ/mol
# GULP energy per Si atom -5579.582240 kJ/mol
# Density = 2.140795 g / cm^3
# Si number density = 21.456785 Si / 1000 Ang^3
#
#
#
# Elastic Constant Matrix: (Units=GPa)
#
#
# Indices 1 2 3 4 5 6 
#
# 1 150.9993 18.3487 2.3769 0.0000 7.4830 0.0000
# 2 18.3487 81.5524 -8.7248 0.0000 9.1730 0.0000
# 3 2.3769 -8.7248 44.1096 0.0000 12.4569 0.0000
# 4 0.0000 0.0000 0.0000 1.1060 0.0000 4.0753
# 5 7.4830 9.1730 12.4569 0.0000 31.5705 0.0000
# 6 0.0000 0.0000 0.0000 4.0753 0.0000 -12.8423
#
#
#
# Elastic Compliance Matrix: (Units=1/GPa)
#
#
# Indices 1 2 3 4 5 6 
#
# 1 0.006858 -0.001463 -0.000360 0.000000 -0.001059 0.000000
# 2 -0.001463 0.013645 0.004276 0.000000 -0.005305 0.000000
# 3 -0.000360 0.004276 0.026855 0.000000 -0.011754 0.000000
# 4 0.000000 0.000000 0.000000 0.416800 0.000000 0.132265
# 5 -0.001059 -0.005305 -0.011754 0.000000 0.038105 0.000000
# 6 0.000000 0.000000 0.000000 0.132265 0.000000 -0.035895
#
#
# Mechanical properties :
#
#
# Convention : Reuss Voigt Hill
#
# Bulk Modulus (GPa) = 19.13276 33.40699 26.26987
# Shear Modulus (GPa) = 10.44095 21.61088 16.02591
#
# Velocity S-wave (km/s) = 2.20830 3.17706 2.73590
# Velocity P-wave (km/s) = 3.92917 5.39087 4.71698
#
# Compressibility (1/GPa) = 0.05226638
#
# Stress axis : x y z
#
# Youngs Moduli (GPa) = 145.80682 73.28526 37.23662
#
# Poissons Ratio (x) = 0.10718 0.01340
# Poissons Ratio (y) = 0.21324 -0.15923
# Poissons Ratio (z) = 0.05247 -0.31337
#
# Static dielectric constant tensor:
#      x y z
#    x 1.879930 0.000000 -0.019440 
#    y 0.000000 1.740130 0.000000 
#    z -0.019440 0.000000 1.798970 
# 
# From -- ./inp_files/83025.got.cif
#   From: 2010.05.17/outbox.cif.g08.bks.cpg/sg10_42_cif.got.tgz:83025.got - 2010.06.03 11:33:40.
