data_PCOD9144068
_publ_section_title
;
Structure prediction by ZEFSAII (Michael W. Deem and Ramdas Pophale) SiO2 
 PCOD9144068
Probable space group: P 2/M
;
_chemical_formula_sum "Si O2"
_cell_formula_units_Z 28
_cell_length_a 10.182104
_cell_length_b 7.548455
_cell_length_c 25.895981
_cell_angle_alpha 90.000000
_cell_angle_beta 139.151979
_cell_angle_gamma 90.000000
_cell_volume 1301.793576
_symmetry_space_group_name_H-M "P 2/M"
_symmetry_group_IT_number 10
_symmetry_cell_setting 'monoclinic'
loop_
_space_group_symop_operation_xyz
x,y,z
-x,y,-z
-x,-y,-z
x,-y,z
loop_
_atom_site_type_symbol
_atom_site_label
_atom_site_fract_x
_atom_site_fract_y
_atom_site_fract_z
Si Si1 0.511053 0.285352 0.562437
Si Si2 0.526450 0.794722 0.745309
Si Si3 0.022641 0.292486 0.140016
Si Si4 0.940714 0.283232 0.732835
Si Si5 0.392368 0.284034 0.021755
Si Si6 0.775237 0.207760 0.431163
Si Si7 0.348200 0.285225 0.803038
O O1 0.500000 0.227237 0.500000
O O2 0.507191 0.500000 0.561829
O O3 0.722018 0.226145 0.649477
O O4 0.330816 0.223528 0.545086
O O5 0.751561 0.720110 0.813336
O O6 0.379693 0.716065 0.657571
O O7 0.423886 0.777337 0.770289
O O8 0.555448 0.000000 0.740806
O O9 0.977107 0.500000 0.132282
O O10 0.018156 0.219422 0.196852
O O11 0.839249 0.223856 0.050914
O O12 0.938297 0.500000 0.732892
O O13 0.121549 0.230263 0.749291
O O14 0.401683 0.500000 0.026738
O O15 0.510207 0.224057 0.107632
O O16 0.500000 0.233022 0.000000
O O17 0.000000 0.284136 0.500000
O O18 0.797623 0.000000 0.424207
O O19 0.352585 0.500000 0.803303
#
# Coordination Sequence:
#
# PCOD9144068 Si02
#       7
#     4   4   4   4   4   4   4
#     4  10  21  36  57  89 119 139 172 226 284 337
#     4  11  24  40  55  78 113 150 188 228 271 325
#     4  10  18  34  61  84 108 145 185 227 276 328
#     4   9  17  32  56  84 112 141 177 225 275 323
#     4   9  16  30  56  88 113 137 180 234 277 320
#     4  10  23  42  59  77 108 150 191 228 269 323
#     4  10  20  35  58  86 113 144 184 229 277 327
#
# _framework density 21.508786000000001
#
# number of rings (size 3 to 8) (size 9 to 14) (size 15 to 20)
#    0.000    2.143    2.857    0.429    2.000    1.714 
#    0.000    5.000    0.000    0.857    0.000    0.000 
#    0.000    0.000    0.000    0.000    0.000    0.000 
#
# Total GULP energy -156383.877524 kJ/mol
# GULP energy per Si atom -5585.138483 kJ/mol
# Density = 2.145983 g / cm^3
# Si number density = 21.508786 Si / 1000 Ang^3
#
#
#
# Elastic Constant Matrix: (Units=GPa)
#
#
# Indices 1 2 3 4 5 6 
#
# 1 129.0536 -22.0869 52.1116 0.0000 13.7340 0.0000
# 2 -22.0869 46.5723 -0.0923 0.0000 -0.5449 0.0000
# 3 52.1116 -0.0923 128.7796 0.0000 23.2994 0.0000
# 4 0.0000 0.0000 0.0000 1.2044 0.0000 7.0516
# 5 13.7340 -0.5449 23.2994 0.0000 40.2451 0.0000
# 6 0.0000 0.0000 0.0000 7.0516 0.0000 180.2889
#
#
#
# Elastic Compliance Matrix: (Units=1/GPa)
#
#
# Indices 1 2 3 4 5 6 
#
# 1 0.010302 0.004864 -0.003955 0.000000 -0.001160 0.000000
# 2 0.004864 0.023772 -0.001909 0.000000 -0.000233 0.000000
# 3 -0.003955 -0.001909 0.010192 0.000000 -0.004577 0.000000
# 4 0.000000 0.000000 0.000000 1.076847 0.000000 -0.042119
# 5 -0.001160 -0.000233 -0.004577 0.000000 0.027890 0.000000
# 6 0.000000 0.000000 0.000000 -0.042119 0.000000 0.007194
#
#
# Mechanical properties :
#
#
# Convention : Reuss Voigt Hill
#
# Bulk Modulus (GPa) = 23.65973 40.47448 32.06710
# Shear Modulus (GPa) = 4.26517 62.64589 33.45553
#
# Velocity S-wave (km/s) = 1.40971 5.40268 3.94818
# Velocity P-wave (km/s) = 3.69779 7.60112 5.97707
#
# Compressibility (1/GPa) = 0.04226590
#
# Stress axis : x y z
#
# Youngs Moduli (GPa) = 97.07035 42.06575 98.11155
#
# Poissons Ratio (x) = -0.20462 0.38807
# Poissons Ratio (y) = -0.47217 0.18731
# Poissons Ratio (z) = 0.38395 0.08031
#
# Static dielectric constant tensor:
#      x y z
#    x 1.715620 0.000000 0.009230 
#    y 0.000000 1.845950 0.000000 
#    z 0.009230 0.000000 1.794080 
# 
# From -- ./inp_files/92093.got.cif
#   From: 2010.05.17/outbox.cif.g08.bks.cpg/sg10_47_cif.got.tgz:92093.got - 2010.06.03 11:33:40.
