data_PCOD9144713
_publ_section_title
;
Structure prediction by ZEFSAII (Michael W. Deem and Ramdas Pophale) SiO2 
 PCOD9144713
Probable space group: P 2/M
;
_chemical_formula_sum "Si O2"
_cell_formula_units_Z 20
_cell_length_a 23.720446
_cell_length_b 7.756038
_cell_length_c 10.338879
_cell_angle_alpha 90.000000
_cell_angle_beta 157.022905
_cell_angle_gamma 90.000000
_cell_volume 742.514604
_symmetry_space_group_name_H-M "P 2/M"
_symmetry_group_IT_number 10
_symmetry_cell_setting 'monoclinic'
loop_
_space_group_symop_operation_xyz
x,y,z
-x,y,-z
-x,-y,-z
x,-y,z
loop_
_atom_site_type_symbol
_atom_site_label
_atom_site_fract_x
_atom_site_fract_y
_atom_site_fract_z
Si Si1 0.956439 0.193429 0.760269
Si Si2 0.414212 0.205150 0.199031
Si Si3 0.344767 0.791968 0.785592
Si Si4 0.167529 0.709312 0.855646
Si Si5 0.266938 0.697191 0.332453
O O1 0.803444 0.280247 0.466666
O O2 0.945347 0.000000 0.678447
O O3 0.000000 0.164988 0.000000
O O4 0.091831 0.292633 0.988260
O O5 0.500000 0.287449 0.500000
O O6 0.438498 0.000000 0.249065
O O7 0.448110 0.264247 0.123487
O O8 0.250021 0.234186 0.900983
O O9 0.343144 0.758395 0.628179
O O10 0.341269 0.000000 0.784153
O O11 0.168168 0.500000 0.862928
O O12 0.000000 0.764254 0.500000
O O13 0.259767 0.780090 0.173579
O O14 0.307113 0.500000 0.405810
#
# Coordination Sequence:
#
# PCOD9144713 Si02
#       5
#     4   4   4   4   4
#     4   8  14  25  43  70 104 139 174 215 268 326
#     4  10  22  40  61  85 112 147 194 240 284 340
#     4   9  18  33  52  75 106 143 183 228 277 332
#     4  10  22  39  58  85 120 153 188 232 282 338
#     4  10  19  30  49  79 110 141 182 229 274 326
#
# _framework density 26.935497000000002
#
# number of rings (size 3 to 8) (size 9 to 14) (size 15 to 20)
#    0.000    2.600    0.000    3.000    0.000    6.800 
#    0.000    1.000    0.000    6.000    0.000    0.000 
#    0.000    0.000    0.000    0.000    0.000    0.000 
#
# Total GULP energy -111483.605305 kJ/mol
# GULP energy per Si atom -5574.180265 kJ/mol
# Density = 2.687419 g / cm^3
# Si number density = 26.935497 Si / 1000 Ang^3
#
#
#
# Elastic Constant Matrix: (Units=GPa)
#
#
# Indices 1 2 3 4 5 6 
#
# 1 211.3275 8.3536 70.2332 0.0000 -51.0464 0.0000
# 2 8.3536 81.9502 15.9975 0.0000 -1.8059 0.0000
# 3 70.2332 15.9975 147.8684 0.0000 -56.8106 0.0000
# 4 0.0000 0.0000 0.0000 26.0122 0.0000 7.3055
# 5 -51.0464 -1.8059 -56.8106 0.0000 61.5892 0.0000
# 6 0.0000 0.0000 0.0000 7.3055 0.0000 32.3069
#
#
#
# Elastic Compliance Matrix: (Units=1/GPa)
#
#
# Indices 1 2 3 4 5 6 
#
# 1 0.006125 -0.000260 -0.001446 0.000000 0.003735 0.000000
# 2 -0.000260 0.012551 -0.001821 0.000000 -0.001527 0.000000
# 3 -0.001446 -0.001821 0.011099 0.000000 0.008986 0.000000
# 4 0.000000 0.000000 0.000000 0.041051 0.000000 -0.009283
# 5 0.003735 -0.001527 0.008986 0.000000 0.027576 0.000000
# 6 0.000000 0.000000 0.000000 -0.009283 0.000000 0.033052
#
#
# Mechanical properties :
#
#
# Convention : Reuss Voigt Hill
#
# Bulk Modulus (GPa) = 44.01259 70.03498 57.02379
# Shear Modulus (GPa) = 34.22742 47.08577 40.65660
#
# Velocity S-wave (km/s) = 3.56858 4.18556 3.88932
# Velocity P-wave (km/s) = 5.77539 7.02965 6.43316
#
# Compressibility (1/GPa) = 0.02272077
#
# Stress axis : x y z
#
# Youngs Moduli (GPa) = 163.26323 79.67569 90.09796
#
# Poissons Ratio (x) = 0.02070 0.13029
# Poissons Ratio (y) = 0.04241 0.16409
# Poissons Ratio (z) = 0.23610 0.14511
#
# Static dielectric constant tensor:
#      x y z
#    x 2.171420 0.000000 0.115440 
#    y 0.000000 1.978410 0.000000 
#    z 0.115440 0.000000 2.468060 
# 
# From -- ./inp_files/58058.got.cif
#   From: 2010.05.17/outbox.cif.g08.bks.cpg/sg10_30_cif.got.tgz:58058.got - 2010.06.03 11:33:40.
