data_PCOD9144657
_publ_section_title
;
Structure prediction by ZEFSAII (Michael W. Deem and Ramdas Pophale) SiO2 
 PCOD9144657
Probable space group: P 2/M
;
_chemical_formula_sum "Si O2"
_cell_formula_units_Z 32
_cell_length_a 15.015514
_cell_length_b 21.574608
_cell_length_c 14.674066
_cell_angle_alpha 90.000000
_cell_angle_beta 19.331126
_cell_angle_gamma 90.000000
_cell_volume 1573.609933
_symmetry_space_group_name_H-M "P 2/M"
_symmetry_group_IT_number 10
_symmetry_cell_setting 'monoclinic'
loop_
_space_group_symop_operation_xyz
x,y,z
-x,y,-z
-x,-y,-z
x,-y,z
loop_
_atom_site_type_symbol
_atom_site_label
_atom_site_fract_x
_atom_site_fract_y
_atom_site_fract_z
Si Si1 0.283076 0.069510 0.774885
Si Si2 0.866079 0.929830 0.498075
Si Si3 0.202288 0.793554 0.381277
Si Si4 0.351749 0.108646 0.904513
Si Si5 0.739010 0.573410 0.196703
Si Si6 0.915595 0.573292 0.477761
Si Si7 0.722024 0.241355 0.962160
Si Si8 0.624210 0.381379 0.100959
O O1 0.500000 0.101727 0.500000
O O2 0.234737 0.095909 0.920076
O O3 0.388874 0.000000 0.689685
O O4 0.000000 0.067054 0.000000
O O5 0.788098 0.869177 0.633591
O O6 0.638030 0.924072 0.640833
O O7 0.857262 0.000000 0.544293
O O8 0.155314 0.915866 0.174064
O O9 0.000000 0.770437 0.500000
O O10 0.027140 0.774197 0.638924
O O11 0.496900 0.765020 0.099994
O O12 0.375936 0.182437 0.886116
O O13 0.500000 0.580982 0.500000
O O14 0.786289 0.500000 0.136302
O O15 0.659959 0.598376 0.172258
O O16 0.000000 0.598510 0.000000
O O17 0.852071 0.500000 0.545991
O O18 0.663500 0.606126 0.670501
O O19 0.000000 0.594046 0.500000
O O20 0.163834 0.584014 0.169628
O O21 0.692831 0.308660 0.030949
#
# Coordination Sequence:
#
# PCOD9144657 Si02
#       8
#     4   4   4   4   4   4   4   4
#     4  10  19  30  48  74  99 128 170 218 270 326
#     4  10  19  32  54  77  99 137 179 222 281 332
#     4  10  21  37  55  78 111 144 183 236 277 322
#     4  10  20  36  51  72 107 139 173 221 268 324
#     4  10  21  38  61  89 118 150 192 241 295 348
#     4  11  24  40  61  93 127 158 195 241 297 352
#     4  10  23  38  56  80 108 149 192 219 267 334
#     4  12  23  40  64  89 122 162 200 244 288 345
#
# _framework density 20.335408000000001
#
# number of rings (size 3 to 8) (size 9 to 14) (size 15 to 20)
#    0.000    1.625    0.000    5.250    0.000    6.250 
#    0.000    1.250    0.000    4.500    0.000    0.000 
#    0.000    0.000    0.000    0.000    0.000    0.000 
#
# Total GULP energy -178372.969042 kJ/mol
# GULP energy per Si atom -5574.155283 kJ/mol
# Density = 2.028912 g / cm^3
# Si number density = 20.335408 Si / 1000 Ang^3
#
#
#
# Elastic Constant Matrix: (Units=GPa)
#
#
# Indices 1 2 3 4 5 6 
#
# 1 127.9117 21.6213 8.0727 0.0000 -4.8083 0.0000
# 2 21.6213 94.8635 0.7556 0.0000 1.5405 0.0000
# 3 8.0727 0.7556 70.3693 0.0000 -16.1687 0.0000
# 4 0.0000 0.0000 0.0000 21.6747 0.0000 -2.6205
# 5 -4.8083 1.5405 -16.1687 0.0000 29.6266 0.0000
# 6 0.0000 0.0000 0.0000 -2.6205 0.0000 47.8612
#
#
#
# Elastic Compliance Matrix: (Units=1/GPa)
#
#
# Indices 1 2 3 4 5 6 
#
# 1 0.008219 -0.001885 -0.000679 0.000000 0.001062 0.000000
# 2 -0.001885 0.010987 -0.000118 0.000000 -0.000942 0.000000
# 3 -0.000679 -0.000118 0.016311 0.000000 0.008798 0.000000
# 4 0.000000 0.000000 0.000000 0.046444 0.000000 0.002543
# 5 0.001062 -0.000942 0.008798 0.000000 0.038776 0.000000
# 6 0.000000 0.000000 0.000000 0.002543 0.000000 0.021033
#
#
# Mechanical properties :
#
#
# Convention : Reuss Voigt Hill
#
# Bulk Modulus (GPa) = 33.16314 39.33820 36.25067
# Shear Modulus (GPa) = 31.80932 37.34550 34.57741
#
# Velocity S-wave (km/s) = 3.95933 4.29006 4.12801
# Velocity P-wave (km/s) = 6.10288 6.62768 6.37069
#
# Compressibility (1/GPa) = 0.03015396
#
# Stress axis : x y z
#
# Youngs Moduli (GPa) = 121.66501 91.01365 61.30697
#
# Poissons Ratio (x) = 0.17158 0.04161
# Poissons Ratio (y) = 0.22936 0.00724
# Poissons Ratio (z) = 0.08258 0.01075
#
# Static dielectric constant tensor:
#      x y z
#    x 1.762630 0.000000 -0.043960 
#    y 0.000000 1.726270 0.000000 
#    z -0.043960 0.000000 1.630260 
# 
# From -- ./inp_files/67930.got.cif
#   From: 2010.05.17/outbox.cif.g08.bks.cpg/sg10_34_cif.got.tgz:67930.got - 2010.06.03 11:33:40.
