data_PCOD9144925
_publ_section_title
;
Structure prediction by ZEFSAII (Michael W. Deem and Ramdas Pophale) SiO2 
 PCOD9144925
Probable space group: P 2/M
;
_chemical_formula_sum "Si O2"
_cell_formula_units_Z 24
_cell_length_a 9.433526
_cell_length_b 15.494260
_cell_length_c 16.271725
_cell_angle_alpha 90.000000
_cell_angle_beta 150.112288
_cell_angle_gamma 90.000000
_cell_volume 1185.143528
_symmetry_space_group_name_H-M "P 2/M"
_symmetry_group_IT_number 10
_symmetry_cell_setting 'monoclinic'
loop_
_space_group_symop_operation_xyz
x,y,z
-x,y,-z
-x,-y,-z
x,-y,z
loop_
_atom_site_type_symbol
_atom_site_label
_atom_site_fract_x
_atom_site_fract_y
_atom_site_fract_z
Si Si1 0.361146 0.602990 0.012226
Si Si2 0.148593 0.663676 0.158238
Si Si3 0.810108 0.900392 0.645323
Si Si4 0.329632 0.604540 0.665184
Si Si5 0.076637 0.142489 0.951011
Si Si6 0.641966 0.102051 0.161715
O O1 0.392612 0.500000 0.026103
O O2 0.529599 0.633155 0.177757
O O3 0.500000 0.640632 0.000000
O O4 0.028860 0.623589 0.856464
O O5 0.477738 0.643496 0.310814
O O6 0.071841 0.764076 0.122289
O O7 0.000000 0.626596 0.000000
O O8 0.500000 0.858848 0.500000
O O9 0.952563 0.901558 0.807165
O O10 0.039209 0.863643 0.695312
O O11 0.767771 0.000000 0.597784
O O12 0.348635 0.500000 0.669153
O O13 0.000000 0.628461 0.500000
O O14 0.417706 0.146900 0.109579
O O15 0.000000 0.101458 0.000000
O O16 0.654519 0.000000 0.190353
O O17 0.500000 0.106562 0.000000
#
# Coordination Sequence:
#
# PCOD9144925 Si02
#       6
#     4   4   4   4   4   4
#     4   9  17  30  49  72  95 122 161 204 239 276
#     4   9  18  32  48  69  97 130 162 193 239 294
#     4   9  18  34  53  72  97 128 161 197 240 290
#     4   9  17  32  53  72  94 128 165 199 240 290
#     4  10  19  31  48  72  97 125 163 202 238 281
#     4   8  15  29  49  69  90 121 158 192 230 281
#
# _framework density 20.250710999999999
#
# number of rings (size 3 to 8) (size 9 to 14) (size 15 to 20)
#    0.000    3.000    0.000    2.000    0.000    5.333 
#    0.000    8.333    0.000    7.000    0.000    0.000 
#    0.000    0.000    0.000    0.000    0.000    0.000 
#
# Total GULP energy -133612.625126 kJ/mol
# GULP energy per Si atom -5567.192714 kJ/mol
# Density = 2.020462 g / cm^3
# Si number density = 20.250711 Si / 1000 Ang^3
#
#
#
# Elastic Constant Matrix: (Units=GPa)
#
#
# Indices 1 2 3 4 5 6 
#
# 1 154.6394 21.0218 63.0058 0.0000 57.8815 0.0000
# 2 21.0218 25.9367 15.4908 0.0000 14.4899 0.0000
# 3 63.0058 15.4908 101.5329 0.0000 59.4015 0.0000
# 4 0.0000 0.0000 0.0000 27.9457 0.0000 26.5051
# 5 57.8815 14.4899 59.4015 0.0000 47.1369 0.0000
# 6 0.0000 0.0000 0.0000 26.5051 0.0000 37.3906
#
#
#
# Elastic Compliance Matrix: (Units=1/GPa)
#
#
# Indices 1 2 3 4 5 6 
#
# 1 0.012557 -0.001302 0.004542 0.000000 -0.020743 0.000000
# 2 -0.001302 0.047316 0.004427 0.000000 -0.018525 0.000000
# 3 0.004542 0.004427 0.039639 0.000000 -0.056890 0.000000
# 4 0.000000 0.000000 0.000000 0.109205 0.000000 -0.077412
# 5 -0.020743 -0.018525 -0.056890 0.000000 0.124074 0.000000
# 6 0.000000 0.000000 0.000000 -0.077412 0.000000 0.081620
#
#
# Mechanical properties :
#
#
# Convention : Reuss Voigt Hill
#
# Bulk Modulus (GPa) = 8.70734 53.46065 31.08399
# Shear Modulus (GPa) = 11.43227 34.66734 23.04980
#
# Velocity S-wave (km/s) = 2.37858 4.14201 3.37741
# Velocity P-wave (km/s) = 3.44276 7.02365 5.53102
#
# Compressibility (1/GPa) = 0.11484559
#
# Stress axis : x y z
#
# Youngs Moduli (GPa) = 79.63531 21.13458 25.22790
#
# Poissons Ratio (x) = 0.02752 -0.11459
# Poissons Ratio (y) = 0.10368 -0.11168
# Poissons Ratio (z) = -0.36171 -0.09356
#
# Static dielectric constant tensor:
#      x y z
#    x 1.766740 0.000000 0.037160 
#    y 0.000000 1.748380 0.000000 
#    z 0.037160 0.000000 1.760450 
# 
# From -- ./inp_files/25733.got.cif
#   From: 2010.05.17/outbox.cif.g08.bks.cpg/sg10_13_cif.got.tgz:25733.got - 2010.06.03 11:33:40.
