data_PCOD9144404
_publ_section_title
;
Structure prediction by ZEFSAII (Michael W. Deem and Ramdas Pophale) SiO2 
 PCOD9144404
Probable space group: P 2/M
;
_chemical_formula_sum "Si O2"
_cell_formula_units_Z 28
_cell_length_a 26.533506
_cell_length_b 16.627349
_cell_length_c 29.448302
_cell_angle_alpha 90.000000
_cell_angle_beta 171.141226
_cell_angle_gamma 90.000000
_cell_volume 2000.769990
_symmetry_space_group_name_H-M "P 2/M"
_symmetry_group_IT_number 10
_symmetry_cell_setting 'monoclinic'
loop_
_space_group_symop_operation_xyz
x,y,z
-x,y,-z
-x,-y,-z
x,-y,z
loop_
_atom_site_type_symbol
_atom_site_label
_atom_site_fract_x
_atom_site_fract_y
_atom_site_fract_z
Si Si1 0.958574 0.903542 0.691757
Si Si2 0.395066 0.325357 0.853840
Si Si3 0.318825 0.902051 0.384557
Si Si4 0.726716 0.903133 0.387140
Si Si5 0.426421 0.098090 0.291038
Si Si6 0.604828 0.000000 0.145164
Si Si7 0.303987 0.837692 0.735626
Si Si8 0.394885 0.500000 0.853898
O O1 0.875589 0.874885 0.567210
O O2 0.700118 0.873980 0.499044
O O3 0.914589 0.000000 0.650205
O O4 0.333331 0.890513 0.039041
O O5 0.484847 0.246446 0.904838
O O6 0.513812 0.412916 0.942119
O O7 0.000000 0.329988 0.500000
O O8 0.500000 0.314420 0.000000
O O9 0.500000 0.875350 0.500000
O O10 0.492374 0.876577 0.585423
O O11 0.325418 0.000000 0.389803
O O12 0.939962 0.877723 0.047959
O O13 0.826800 0.854688 0.431136
O O14 0.782921 0.000000 0.430132
O O15 0.433932 0.000000 0.297367
O O16 0.496771 0.081775 0.073381
O O17 0.000000 0.000000 0.500000
O O18 0.500000 0.000000 0.000000
O O19 0.000000 0.835505 0.500000
O O20 0.000000 0.500000 0.500000
O O21 0.500000 0.500000 0.000000
#
# Coordination Sequence:
#
# PCOD9144404 Si02
#       8
#     4   4   4   4   4   2   4   2
#     4   9  18  29  40  49  62  86 119 146 172 202
#     4   9  17  28  42  58  74  91 111 134 169 219
#     4   9  15  21  32  50  68  82  99 127 168 212
#     4  10  19  30  39  51  65  86 116 150 176 212
#     4   9  15  24  35  46  62  84 106 133 164 204
#     4  10  20  30  40  52  70  92 114 136 171 224
#     4  10  20  32  42  57  73  94 115 147 189 232
#     4   8  14  26  42  58  74  90 108 132 160 206
#
# _framework density 13.994612
#
# number of rings (size 3 to 8) (size 9 to 14) (size 15 to 20)
#    0.000    2.714    0.714    1.714    0.000    9.714 
#    0.000    0.000    0.000    0.000    0.000    0.000 
#    0.000    0.000    0.000    0.000    0.000    0.000 
#
# Total GULP energy -155993.947830 kJ/mol
# GULP energy per Si atom -5571.212423 kJ/mol
# Density = 1.396276 g / cm^3
# Si number density = 13.994612 Si / 1000 Ang^3
#
#
#
# Elastic Constant Matrix: (Units=GPa)
#
#
# Indices 1 2 3 4 5 6 
#
# 1 43.8084 7.8067 3.3372 0.0000 -2.6045 0.0000
# 2 7.8067 79.5421 -1.2787 0.0000 -3.9714 0.0000
# 3 3.3372 -1.2787 40.1904 0.0000 -7.7967 0.0000
# 4 0.0000 0.0000 0.0000 6.0508 0.0000 -4.2025
# 5 -2.6045 -3.9714 -7.7967 0.0000 29.8506 0.0000
# 6 0.0000 0.0000 0.0000 -4.2025 0.0000 3.8386
#
#
#
# Elastic Compliance Matrix: (Units=1/GPa)
#
#
# Indices 1 2 3 4 5 6 
#
# 1 0.023441 -0.002265 -0.001770 0.000000 0.001282 0.000000
# 2 -0.002265 0.012897 0.000941 0.000000 0.001764 0.000000
# 3 -0.001770 0.000941 0.026390 0.000000 0.006864 0.000000
# 4 0.000000 0.000000 0.000000 0.689781 0.000000 0.755185
# 5 0.001282 0.001764 0.006864 0.000000 0.035639 0.000000
# 6 0.000000 0.000000 0.000000 0.755185 0.000000 1.087303
#
#
# Mechanical properties :
#
#
# Convention : Reuss Voigt Hill
#
# Bulk Modulus (GPa) = 17.68659 20.36347 19.02503
# Shear Modulus (GPa) = 2.63090 18.19303 10.41196
#
# Velocity S-wave (km/s) = 1.37260 3.60947 2.73059
# Velocity P-wave (km/s) = 3.89584 5.65274 4.85444
#
# Compressibility (1/GPa) = 0.05654002
#
# Stress axis : x y z
#
# Youngs Moduli (GPa) = 42.65968 77.53461 37.89325
#
# Poissons Ratio (x) = 0.17562 0.06707
# Poissons Ratio (y) = 0.09663 -0.03564
# Poissons Ratio (z) = 0.07550 -0.07293
#
# Static dielectric constant tensor:
#      x y z
#    x 1.469240 0.000000 -0.021480 
#    y 0.000000 1.487530 0.000000 
#    z -0.021480 0.000000 1.455180 
# 
# From -- ./inp_files/91319.got.cif
#   From: 2010.05.17/outbox.cif.g08.bks.cpg/sg10_46_cif.got.tgz:91319.got - 2010.06.03 11:33:40.
