data_PCOD9144761
_publ_section_title
;
Structure prediction by ZEFSAII (Michael W. Deem and Ramdas Pophale) SiO2 
 PCOD9144761
Probable space group: P 2/M
;
_chemical_formula_sum "Si O2"
_cell_formula_units_Z 28
_cell_length_a 5.236763
_cell_length_b 21.538994
_cell_length_c 22.795904
_cell_angle_alpha 90.000000
_cell_angle_beta 70.101163
_cell_angle_gamma 90.000000
_cell_volume 2417.738340
_symmetry_space_group_name_H-M "P 2/M"
_symmetry_group_IT_number 10
_symmetry_cell_setting 'monoclinic'
loop_
_space_group_symop_operation_xyz
x,y,z
-x,y,-z
-x,-y,-z
x,-y,z
loop_
_atom_site_type_symbol
_atom_site_label
_atom_site_fract_x
_atom_site_fract_y
_atom_site_fract_z
Si Si1 0.814620 0.633514 0.456451
Si Si2 0.464636 0.924372 0.710846
Si Si3 0.831750 0.924715 0.144433
Si Si4 0.559702 0.924260 0.928775
Si Si5 0.812898 0.000000 0.457869
Si Si6 0.929192 0.886150 0.363166
Si Si7 0.815647 0.500000 0.455676
Si Si8 0.815732 0.771697 0.455599
O O1 0.500000 0.633088 0.500000
O O2 0.866305 0.566927 0.421333
O O3 0.859897 0.701870 0.426826
O O4 0.000000 0.632830 0.500000
O O5 0.319172 0.908633 0.783595
O O6 0.286416 0.897128 0.671792
O O7 0.767425 0.897315 0.684414
O O8 0.476613 0.000000 0.704473
O O9 0.664496 0.903924 0.100526
O O10 0.142726 0.904195 0.115636
O O11 0.836138 0.000000 0.142604
O O12 0.556929 0.000000 0.929187
O O13 0.500000 0.904653 0.000000
O O14 0.500000 0.000000 0.500000
O O15 0.876780 0.939917 0.414628
O O16 0.000000 0.000000 0.500000
O O17 0.890287 0.822130 0.400988
O O18 0.500000 0.500000 0.500000
O O19 0.000000 0.500000 0.500000
O O20 0.500000 0.778385 0.500000
O O21 0.000000 0.779204 0.500000
#
# Coordination Sequence:
#
# PCOD9144761 Si02
#       8
#     4   4   4   4   2   4   2   4
#     4   8  14  23  37  52  70  86 102 123 153 201
#     4  11  20  33  42  53  66  85 115 145 174 207
#     4   9  17  26  39  52  68  88 105 129 159 193
#     4   9  15  24  37  56  74  88 102 120 151 197
#     4  12  22  32  42  52  62  76 101 144 187 222
#     4  12  21  32  43  52  65  84 111 146 180 221
#     4   8  12  20  34  54  70  86 102 118 144 188
#     4  10  19  31  41  53  68  86 107 137 180 222
#
# _framework density 11.581071
#
# number of rings (size 3 to 8) (size 9 to 14) (size 15 to 20)
#    0.000    2.143    1.429    3.857    0.000    4.000 
#    0.000    0.000    0.000    0.000    0.000    0.000 
#    0.000    0.000    0.000    0.000    0.000    0.000 
#
# Total GULP energy -155904.244196 kJ/mol
# GULP energy per Si atom -5568.008721 kJ/mol
# Density = 1.155471 g / cm^3
# Si number density = 11.581071 Si / 1000 Ang^3
#
#
#
# Elastic Constant Matrix: (Units=GPa)
#
#
# Indices 1 2 3 4 5 6 
#
# 1 50.6165 -8.2077 -12.5365 0.0000 -5.1572 0.0000
# 2 -8.2077 77.9297 9.4173 0.0000 -0.6677 0.0000
# 3 -12.5365 9.4173 23.3191 0.0000 -4.0249 0.0000
# 4 0.0000 0.0000 0.0000 46.6745 0.0000 0.0292
# 5 -5.1572 -0.6677 -4.0249 0.0000 20.4445 0.0000
# 6 0.0000 0.0000 0.0000 0.0292 0.0000 10.6609
#
#
#
# Elastic Compliance Matrix: (Units=1/GPa)
#
#
# Indices 1 2 3 4 5 6 
#
# 1 0.024356 0.000917 0.014274 0.000000 0.008984 0.000000
# 2 0.000917 0.013533 -0.005027 0.000000 -0.000316 0.000000
# 3 0.014274 -0.005027 0.055051 0.000000 0.014274 0.000000
# 4 0.000000 0.000000 0.000000 0.021425 0.000000 -0.000059
# 5 0.008984 -0.000316 0.014274 0.000000 0.053979 0.000000
# 6 0.000000 0.000000 0.000000 -0.000059 0.000000 0.093801
#
#
# Mechanical properties :
#
#
# Convention : Reuss Voigt Hill
#
# Bulk Modulus (GPa) = 8.82855 14.35685 11.59270
# Shear Modulus (GPa) = 17.88446 26.43546 22.15996
#
# Velocity S-wave (km/s) = 3.93400 4.78288 4.37906
# Velocity P-wave (km/s) = 5.31742 6.55172 5.96657
#
# Compressibility (1/GPa) = 0.11326887
#
# Stress axis : x y z
#
# Youngs Moduli (GPa) = 41.05800 73.89103 18.16499
#
# Poissons Ratio (x) = -0.06778 -0.25929
# Poissons Ratio (y) = -0.03766 0.09131
# Poissons Ratio (z) = -0.58606 0.37144
#
# Static dielectric constant tensor:
#      x y z
#    x 1.395770 0.000000 -0.005370 
#    y 0.000000 1.387660 0.000000 
#    z -0.005370 0.000000 1.349560 
# 
# From -- ./inp_files/11653.got.cif
#   From: 2010.05.17/outbox.cif.g08.bks.cpg/sg10_6_cif.got.tgz:11653.got - 2010.06.03 11:33:40.
