data_PCOD9144207
_publ_section_title
;
Structure prediction by ZEFSAII (Michael W. Deem and Ramdas Pophale) SiO2 
 PCOD9144207
Probable space group: P 2/M
;
_chemical_formula_sum "Si O2"
_cell_formula_units_Z 32
_cell_length_a 15.354999
_cell_length_b 7.452629
_cell_length_c 34.485945
_cell_angle_alpha 90.000000
_cell_angle_beta 25.319964
_cell_angle_gamma 90.000000
_cell_volume 1687.769407
_symmetry_space_group_name_H-M "P 2/M"
_symmetry_group_IT_number 10
_symmetry_cell_setting 'monoclinic'
loop_
_space_group_symop_operation_xyz
x,y,z
-x,y,-z
-x,-y,-z
x,-y,z
loop_
_atom_site_type_symbol
_atom_site_label
_atom_site_fract_x
_atom_site_fract_y
_atom_site_fract_z
Si Si1 0.415589 0.705641 0.211130
Si Si2 0.805150 0.208008 0.536338
Si Si3 0.978859 0.709627 0.385661
Si Si4 0.552614 0.719673 0.522050
Si Si5 0.867544 0.279830 0.015663
Si Si6 0.632740 0.717411 0.325935
Si Si7 0.402059 0.786428 0.305533
Si Si8 0.838693 0.285022 0.169330
O O1 0.418157 0.500000 0.196027
O O2 0.198642 0.788554 0.286394
O O3 0.404832 0.703665 0.262155
O O4 0.634709 0.783985 0.112027
O O5 0.579773 0.224824 0.608187
O O6 0.765788 0.280344 0.595631
O O7 0.945823 0.282112 0.445571
O O8 0.859281 0.000000 0.518318
O O9 0.985664 0.500000 0.372862
O O10 0.775518 0.781912 0.447001
O O11 0.500000 0.777941 0.500000
O O12 0.556071 0.500000 0.520767
O O13 0.388494 0.774202 0.620928
O O14 0.864806 0.500000 0.017550
O O15 0.981838 0.219694 0.930663
O O16 0.000000 0.225872 0.000000
O O17 0.634648 0.500000 0.324870
O O18 0.808437 0.779751 0.225770
O O19 0.625094 0.754195 0.233910
O O20 0.373154 0.000000 0.313083
O O21 0.860295 0.500000 0.162331
#
# Coordination Sequence:
#
# PCOD9144207 Si02
#       8
#     4   4   4   4   4   4   4   4
#     4  10  19  30  42  56  77 105 140 175 202 232
#     4   9  17  28  41  56  80 111 136 163 199 239
#     4   9  18  30  43  60  79 103 136 168 196 235
#     4   8  13  24  43  65  85 101 123 160 202 243
#     4   9  15  25  42  60  75 101 140 176 208 232
#     4   8  14  24  41  64  83 103 134 166 195 235
#     4  10  19  28  39  58  81 108 140 169 203 239
#     4   9  15  26  43  59  79 106 139 176 203 229
#
# _framework density 18.959937
#
# number of rings (size 3 to 8) (size 9 to 14) (size 15 to 20)
#    0.000    3.000    1.250    1.500    0.000    2.500 
#    0.000    3.750    0.000    6.000    0.000    0.875 
#    0.000    7.000    0.000    0.000    0.000   41.000 
#
# Total GULP energy -178289.498369 kJ/mol
# GULP energy per Si atom -5571.546824 kJ/mol
# Density = 1.891678 g / cm^3
# Si number density = 18.959937 Si / 1000 Ang^3
#
#
#
# Elastic Constant Matrix: (Units=GPa)
#
#
# Indices 1 2 3 4 5 6 
#
# 1 91.8353 -3.3907 73.1504 0.0000 15.9843 0.0000
# 2 -3.3907 61.2556 4.7648 0.0000 0.7798 0.0000
# 3 73.1504 4.7648 198.4264 0.0000 3.4409 0.0000
# 4 0.0000 0.0000 0.0000 7.9071 0.0000 -19.3459
# 5 15.9843 0.7798 3.4409 0.0000 26.5980 0.0000
# 6 0.0000 0.0000 0.0000 -19.3459 0.0000 -108.8270
#
#
#
# Elastic Compliance Matrix: (Units=1/GPa)
#
#
# Indices 1 2 3 4 5 6 
#
# 1 0.017791 0.001611 -0.006426 0.000000 -0.009908 0.000000
# 2 0.001611 0.016506 -0.000967 0.000000 -0.001327 0.000000
# 3 -0.006426 -0.000967 0.007381 0.000000 0.002935 0.000000
# 4 0.000000 0.000000 0.000000 0.088136 0.000000 -0.015668
# 5 -0.009908 -0.001327 0.002935 0.000000 0.043210 0.000000
# 6 0.000000 0.000000 0.000000 -0.015668 0.000000 -0.006404
#
#
# Mechanical properties :
#
#
# Convention : Reuss Voigt Hill
#
# Bulk Modulus (GPa) = 33.20679 55.61846 44.41263
# Shear Modulus (GPa) = 26.56425 3.60180 15.08303
#
# Velocity S-wave (km/s) = 3.74715 1.37979 2.82356
# Velocity P-wave (km/s) = 6.02277 5.65127 5.83997
#
# Compressibility (1/GPa) = 0.03011432
#
# Stress axis : x y z
#
# Youngs Moduli (GPa) = 56.20707 60.58285 135.48615
#
# Poissons Ratio (x) = -0.09759 0.87059
# Poissons Ratio (y) = -0.09054 0.13104
# Poissons Ratio (z) = 0.36117 0.05859
#
# Static dielectric constant tensor:
#      x y z
#    x 1.650160 0.000000 -0.000900 
#    y 0.000000 1.724290 0.000000 
#    z -0.000900 0.000000 1.706800 
# 
# From -- ./inp_files/66165.got.cif
#   From: 2010.05.17/outbox.cif.g08.bks.cpg/sg10_34_cif.got.tgz:66165.got - 2010.06.03 11:33:40.
