data_PCOD9144687
_publ_section_title
;
Structure prediction by ZEFSAII (Michael W. Deem and Ramdas Pophale) SiO2 
 PCOD9144687
Probable space group: P 2/M
;
_chemical_formula_sum "Si O2"
_cell_formula_units_Z 30
_cell_length_a 5.279363
_cell_length_b 37.663518
_cell_length_c 8.405010
_cell_angle_alpha 90.000000
_cell_angle_beta 70.559695
_cell_angle_gamma 90.000000
_cell_volume 1575.967149
_symmetry_space_group_name_H-M "P 2/M"
_symmetry_group_IT_number 10
_symmetry_cell_setting 'monoclinic'
loop_
_space_group_symop_operation_xyz
x,y,z
-x,y,-z
-x,-y,-z
x,-y,z
loop_
_atom_site_type_symbol
_atom_site_label
_atom_site_fract_x
_atom_site_fract_y
_atom_site_fract_z
Si Si1 0.810464 0.500000 0.885982
Si Si2 0.892158 0.810132 0.703074
Si Si3 0.391635 0.231904 0.704175
Si Si4 0.188246 0.115596 0.116463
Si Si5 0.187512 0.961801 0.117890
Si Si6 0.391253 0.617927 0.703873
Si Si7 0.689467 0.306903 0.114185
Si Si8 0.108685 0.575061 0.296262
O O1 0.867324 0.535629 0.775526
O O2 0.500000 0.500000 0.000000
O O3 0.000000 0.500000 0.000000
O O4 0.605511 0.790683 0.760678
O O5 0.872279 0.850379 0.764899
O O6 0.000000 0.809825 0.500000
O O7 0.106139 0.787912 0.760851
O O8 0.500000 0.232893 0.500000
O O9 0.368361 0.271575 0.773138
O O10 0.140467 0.076718 0.205679
O O11 0.500000 0.117180 0.000000
O O12 0.000000 0.117423 0.000000
O O13 0.138079 0.000000 0.211267
O O14 0.500000 0.961824 0.000000
O O15 0.000000 0.961835 0.000000
O O16 0.500000 0.619716 0.500000
O O17 0.366748 0.657268 0.776776
O O18 0.606295 0.594947 0.757460
O O19 0.106374 0.597997 0.757487
O O20 0.500000 0.306619 0.000000
O O21 0.000000 0.306660 0.000000
O O22 0.000000 0.573437 0.500000
#
# Coordination Sequence:
#
# PCOD9144687 Si02
#       8
#     2   4   4   4   4   4   4   4
#     4  12  25  38  59  90 122 152 182 228 283 320
#     4  10  21  36  54  75 102 137 173 214 262 312
#     4  10  22  40  57  74 103 143 180 211 255 319
#     4  10  19  30  49  75 100 130 168 213 260 306
#     4   8  14  25  41  64  94 126 162 203 248 301
#     4  10  22  41  63  84 111 150 188 222 264 319
#     4  12  25  38  58  87 114 140 174 224 275 313
#     4  10  22  41  63  85 113 152 193 225 259 316
#
# _framework density 19.035928999999999
#
# number of rings (size 3 to 8) (size 9 to 14) (size 15 to 20)
#    0.000    1.867    0.000    3.800    0.000    6.400 
#    0.000    8.000    0.000    0.400    0.000    0.000 
#    0.000   13.867    0.000    0.000    0.000    2.133 
#
# Total GULP energy -167545.510991 kJ/mol
# GULP energy per Si atom -5584.850366 kJ/mol
# Density = 1.899260 g / cm^3
# Si number density = 19.035929 Si / 1000 Ang^3
#
#
#
# Elastic Constant Matrix: (Units=GPa)
#
#
# Indices 1 2 3 4 5 6 
#
# 1 179.6834 73.3779 29.0848 0.0000 13.7616 0.0000
# 2 73.3779 231.9771 39.1731 0.0000 17.5834 0.0000
# 3 29.0848 39.1731 18.5517 0.0000 5.3495 0.0000
# 4 0.0000 0.0000 0.0000 38.8026 0.0000 2.3493
# 5 13.7616 17.5834 5.3495 0.0000 2.7262 0.0000
# 6 0.0000 0.0000 0.0000 2.3493 0.0000 34.7064
#
#
#
# Elastic Compliance Matrix: (Units=1/GPa)
#
#
# Indices 1 2 3 4 5 6 
#
# 1 0.009319 0.001334 -0.003181 0.000000 -0.049406 0.000000
# 2 0.001334 0.008822 -0.005459 0.000000 -0.052923 0.000000
# 3 -0.003181 -0.005459 0.128141 0.000000 -0.200176 0.000000
# 4 0.000000 0.000000 0.000000 0.025878 0.000000 -0.001752
# 5 -0.049406 -0.052923 -0.200176 0.000000 1.350350 0.000000
# 6 0.000000 0.000000 0.000000 -0.001752 0.000000 0.028932
#
#
# Mechanical properties :
#
#
# Convention : Reuss Voigt Hill
#
# Bulk Modulus (GPa) = 7.59476 79.27597 43.43536
# Shear Modulus (GPa) = 3.10570 34.48548 18.79559
#
# Velocity S-wave (km/s) = 1.27868 4.26091 3.14566
# Velocity P-wave (km/s) = 2.48564 8.12053 6.00505
#
# Compressibility (1/GPa) = 0.13166976
#
# Stress axis : x y z
#
# Youngs Moduli (GPa) = 107.30388 113.35187 7.80389
#
# Poissons Ratio (x) = -0.15124 0.02483
# Poissons Ratio (y) = -0.14317 0.04261
# Poissons Ratio (z) = 0.34136 0.61884
#
# Static dielectric constant tensor:
#      x y z
#    x 1.649270 0.000000 0.001070 
#    y 0.000000 1.652170 0.000000 
#    z 0.001070 0.000000 1.645130 
# 
# From -- ./inp_files/15895.got.cif
#   From: 2010.05.17/outbox.cif.g08.bks.cpg/sg10_8_cif.got.tgz:15895.got - 2010.06.03 11:33:40.
