data_PCOD9144351
_publ_section_title
;
Structure prediction by ZEFSAII (Michael W. Deem and Ramdas Pophale) SiO2 
 PCOD9144351
Probable space group: P 2/M
;
_chemical_formula_sum "Si O2"
_cell_formula_units_Z 32
_cell_length_a 28.041133
_cell_length_b 11.192978
_cell_length_c 12.527580
_cell_angle_alpha 90.000000
_cell_angle_beta 27.386853
_cell_angle_gamma 90.000000
_cell_volume 1808.683182
_symmetry_space_group_name_H-M "P 2/M"
_symmetry_group_IT_number 10
_symmetry_cell_setting 'monoclinic'
loop_
_space_group_symop_operation_xyz
x,y,z
-x,y,-z
-x,-y,-z
x,-y,z
loop_
_atom_site_type_symbol
_atom_site_label
_atom_site_fract_x
_atom_site_fract_y
_atom_site_fract_z
Si Si1 0.218790 0.141562 0.684786
Si Si2 0.901218 0.274830 0.260256
Si Si3 0.013997 0.137344 0.219855
Si Si4 0.234322 0.372064 0.291105
Si Si5 0.737598 0.138164 0.048285
Si Si6 0.394584 0.144209 0.486317
Si Si7 0.636703 0.138922 0.015633
Si Si8 0.088556 0.298356 0.395499
O O1 0.177007 0.216027 0.668483
O O2 0.328692 0.181557 0.514001
O O3 0.221580 0.000000 0.652883
O O4 0.133474 0.154965 0.948967
O O5 0.842565 0.363272 0.455574
O O6 0.949574 0.173780 0.242189
O O7 0.000000 0.326023 0.000000
O O8 0.972794 0.215193 0.398542
O O9 0.996336 0.000000 0.280398
O O10 0.291474 0.500000 0.181032
O O11 0.166144 0.369602 0.318200
O O12 0.298072 0.247387 0.165405
O O13 0.665969 0.183968 0.286980
O O14 0.670686 0.138140 0.072177
O O15 0.767977 0.000000 0.009354
O O16 0.837765 0.217581 0.825663
O O17 0.515830 0.170991 0.244956
O O18 0.388789 0.000000 0.500351
O O19 0.653891 0.000000 0.943150
O O20 0.000000 0.359078 0.500000
#
# Coordination Sequence:
#
# PCOD9144351 Si02
#       8
#     4   4   4   4   4   4   4   4
#     4   9  16  26  44  72 104 134 165 206 252 293
#     4   9  18  32  50  70  94 129 169 203 240 293
#     4   9  16  26  42  70 108 141 166 197 242 294
#     4  10  22  38  55  74  97 129 166 202 245 299
#     4   9  16  26  44  72 105 138 169 201 240 290
#     4   9  16  27  46  73 102 132 168 209 250 289
#     4   9  18  33  53  75 100 132 169 208 247 289
#     4  10  19  29  45  71 102 134 165 198 239 291
#
# _framework density 17.692430000000002
#
# number of rings (size 3 to 8) (size 9 to 14) (size 15 to 20)
#    0.000    2.750    0.000    1.875    0.000    9.000 
#    0.000    0.625    0.000    9.750    0.000    0.000 
#    0.000    0.000    0.000    0.000    0.000    0.000 
#
# Total GULP energy -178238.967586 kJ/mol
# GULP energy per Si atom -5569.967737 kJ/mol
# Density = 1.765216 g / cm^3
# Si number density = 17.692430 Si / 1000 Ang^3
#
#
#
# Elastic Constant Matrix: (Units=GPa)
#
#
# Indices 1 2 3 4 5 6 
#
# 1 67.3849 22.5788 49.9571 0.0000 -15.7565 0.0000
# 2 22.5788 77.7144 38.9704 0.0000 -1.0661 0.0000
# 3 49.9571 38.9704 70.8353 0.0000 -4.9503 0.0000
# 4 0.0000 0.0000 0.0000 1.3235 0.0000 -4.9153
# 5 -15.7565 -1.0661 -4.9503 0.0000 29.5061 0.0000
# 6 0.0000 0.0000 0.0000 -4.9153 0.0000 -10.5619
#
#
#
# Elastic Compliance Matrix: (Units=1/GPa)
#
#
# Indices 1 2 3 4 5 6 
#
# 1 0.037484 0.002808 -0.026890 0.000000 0.015607 0.000000
# 2 0.002808 0.018010 -0.011878 0.000000 0.000157 0.000000
# 3 -0.026890 -0.011878 0.039040 0.000000 -0.008239 0.000000
# 4 0.000000 0.000000 0.000000 0.276932 0.000000 -0.128878
# 5 0.015607 0.000157 -0.008239 0.000000 0.040849 0.000000
# 6 0.000000 0.000000 0.000000 -0.128878 0.000000 -0.034703
#
#
# Mechanical properties :
#
#
# Convention : Reuss Voigt Hill
#
# Bulk Modulus (GPa) = 44.21835 48.77189 46.49512
# Shear Modulus (GPa) = 10.93924 11.01544 10.97734
#
# Velocity S-wave (km/s) = 2.48926 2.49792 2.49359
# Velocity P-wave (km/s) = 5.77139 5.99548 5.88450
#
# Compressibility (1/GPa) = 0.02261505
#
# Stress axis : x y z
#
# Youngs Moduli (GPa) = 26.67815 55.52434 25.61465
#
# Poissons Ratio (x) = -0.15590 0.68877
# Poissons Ratio (y) = -0.07491 0.30424
# Poissons Ratio (z) = 0.71737 0.65949
#
# Static dielectric constant tensor:
#      x y z
#    x 1.624880 0.000000 -0.013840 
#    y 0.000000 -0.426490 0.000000 
#    z -0.013840 0.000000 1.610700 
# 
# From -- ./inp_files/46680.got.cif
#   From: 2010.05.17/outbox.cif.g08.bks.cpg/sg10_24_cif.got.tgz:46680.got - 2010.06.03 11:33:40.
