data_PCOD9144961
_publ_section_title
;
Structure prediction by ZEFSAII (Michael W. Deem and Ramdas Pophale) SiO2 
 PCOD9144961
Probable space group: P 2/M
;
_chemical_formula_sum "Si O2"
_cell_formula_units_Z 32
_cell_length_a 13.268291
_cell_length_b 7.426519
_cell_length_c 20.354819
_cell_angle_alpha 90.000000
_cell_angle_beta 134.824765
_cell_angle_gamma 90.000000
_cell_volume 1422.580121
_symmetry_space_group_name_H-M "P 2/M"
_symmetry_group_IT_number 10
_symmetry_cell_setting 'monoclinic'
loop_
_space_group_symop_operation_xyz
x,y,z
-x,y,-z
-x,-y,-z
x,-y,z
loop_
_atom_site_type_symbol
_atom_site_label
_atom_site_fract_x
_atom_site_fract_y
_atom_site_fract_z
Si Si1 0.702914 0.219134 0.414462
Si Si2 0.468634 0.282498 0.138985
Si Si3 0.917438 0.206034 0.622098
Si Si4 0.072746 0.779685 0.102034
Si Si5 0.956797 0.778737 0.189657
Si Si6 0.216756 0.289918 0.699216
Si Si7 0.351360 0.793076 0.951570
Si Si8 0.607108 0.205420 0.748058
O O1 0.762507 0.269780 0.369891
O O2 0.540016 0.283565 0.347855
O O3 0.806611 0.285428 0.519402
O O4 0.700168 0.000000 0.412975
O O5 0.465346 0.500000 0.139744
O O6 0.632572 0.225881 0.201571
O O7 0.424384 0.208170 0.188771
O O8 0.362769 0.212118 0.035506
O O9 0.937257 0.282348 0.704291
O O10 0.073327 0.203782 0.660046
O O11 0.871118 0.000000 0.610220
O O12 0.235619 0.716092 0.185691
O O13 0.992521 0.726249 0.131874
O O14 0.075134 0.000000 0.100733
O O15 0.000000 0.721390 0.000000
O O16 0.799200 0.714892 0.136782
O O17 0.954192 0.000000 0.189383
O O18 0.203746 0.500000 0.707954
O O19 0.354084 0.000000 0.930190
O O20 0.500000 0.703980 0.000000
O O21 0.616501 0.000000 0.727842
#
# Coordination Sequence:
#
# PCOD9144961 Si02
#       8
#     4   4   4   4   4   4   4   4
#     4   9  18  31  48  72  99 128 163 202 243 284
#     4  10  20  32  47  70  99 127 156 197 247 290
#     4  10  19  32  49  69  98 132 163 200 244 287
#     4   9  16  28  50  76  97 121 158 204 247 286
#     4   9  18  31  48  73 100 126 162 204 243 287
#     4  10  20  32  48  72 100 131 166 200 237 286
#     4  10  19  31  49  71  95 128 166 197 231 284
#     4   9  17  31  51  72  94 122 160 201 239 286
#
# _framework density 22.494337999999999
#
# number of rings (size 3 to 8) (size 9 to 14) (size 15 to 20)
#    0.000    2.500    0.000    2.625    0.000    6.750 
#    0.000    1.250    0.000    7.875    0.000    0.000 
#    0.000    5.000    0.000    0.000    0.000    0.000 
#
# Total GULP energy -178641.855294 kJ/mol
# GULP energy per Si atom -5582.557978 kJ/mol
# Density = 2.244314 g / cm^3
# Si number density = 22.494338 Si / 1000 Ang^3
#
#
#
# Elastic Constant Matrix: (Units=GPa)
#
#
# Indices 1 2 3 4 5 6 
#
# 1 98.7107 -1.7418 48.2638 0.0000 10.0624 0.0000
# 2 -1.7418 84.7076 1.4592 0.0000 -0.2530 0.0000
# 3 48.2638 1.4592 161.2571 0.0000 -5.5561 0.0000
# 4 0.0000 0.0000 0.0000 -39.8737 0.0000 30.1903
# 5 10.0624 -0.2530 -5.5561 0.0000 31.0889 0.0000
# 6 0.0000 0.0000 0.0000 30.1903 0.0000 -44.5341
#
#
#
# Elastic Compliance Matrix: (Units=1/GPa)
#
#
# Indices 1 2 3 4 5 6 
#
# 1 0.012537 0.000311 -0.003919 0.000000 -0.004756 0.000000
# 2 0.000311 0.011815 -0.000201 0.000000 -0.000041 0.000000
# 3 -0.003919 -0.000201 0.007466 0.000000 0.002601 0.000000
# 4 0.000000 0.000000 0.000000 -0.051527 0.000000 -0.034931
# 5 -0.004756 -0.000041 0.002601 0.000000 0.034170 0.000000
# 6 0.000000 0.000000 0.000000 -0.034931 0.000000 -0.046135
#
#
# Mechanical properties :
#
#
# Convention : Reuss Voigt Hill
#
# Bulk Modulus (GPa) = 41.32376 48.95977 45.14177
# Shear Modulus (GPa) = -312.70912 9.11584 -151.79664
#
# Velocity S-wave (km/s) = -11.80333 2.01527 -8.22366
# Velocity P-wave (km/s) = 12.93629 5.21802 8.37018
#
# Compressibility (1/GPa) = 0.02419915
#
# Stress axis : x y z
#
# Youngs Moduli (GPa) = 79.76367 84.63776 133.94674
#
# Poissons Ratio (x) = -0.02633 0.52493
# Poissons Ratio (y) = -0.02481 0.02698
# Poissons Ratio (z) = 0.31259 0.01705
#
# Static dielectric constant tensor:
#      x y z
#    x 1.827610 0.000000 0.010890 
#    y 0.000000 1.876940 0.000000 
#    z 0.010890 0.000000 1.841730 
# 
# From -- ./inp_files/84759.got.cif
#   From: 2010.05.17/outbox.cif.g08.bks.cpg/sg10_43_cif.got.tgz:84759.got - 2010.06.03 11:33:40.
