data_PCOD9144052
_publ_section_title
;
Structure prediction by ZEFSAII (Michael W. Deem and Ramdas Pophale) SiO2 
 PCOD9144052
Probable space group: P 2/M
;
_chemical_formula_sum "Si O2"
_cell_formula_units_Z 20
_cell_length_a 7.513683
_cell_length_b 14.908390
_cell_length_c 8.398271
_cell_angle_alpha 90.000000
_cell_angle_beta 114.244876
_cell_angle_gamma 90.000000
_cell_volume 857.773254
_symmetry_space_group_name_H-M "P 2/M"
_symmetry_group_IT_number 10
_symmetry_cell_setting 'monoclinic'
loop_
_space_group_symop_operation_xyz
x,y,z
-x,y,-z
-x,-y,-z
x,-y,z
loop_
_atom_site_type_symbol
_atom_site_label
_atom_site_fract_x
_atom_site_fract_y
_atom_site_fract_z
Si Si1 0.278867 0.099006 0.946229
Si Si2 0.200009 0.601869 0.974533
Si Si3 0.566941 0.714425 0.684138
Si Si4 0.709345 0.098546 0.669707
Si Si5 0.837818 0.251663 0.305275
O O1 0.138785 0.167384 0.805759
O O2 0.262857 0.000000 0.868552
O O3 0.500000 0.130255 0.000000
O O4 0.260943 0.091315 0.128337
O O5 0.261106 0.500000 0.963304
O O6 0.345869 0.654057 0.145098
O O7 0.168500 0.659431 0.804009
O O8 0.000000 0.599512 0.000000
O O9 0.500000 0.662975 0.500000
O O10 0.717099 0.790848 0.676209
O O11 0.373151 0.758203 0.688821
O O12 0.500000 0.092128 0.500000
O O13 0.801208 0.000000 0.648786
O O14 0.000000 0.252834 0.500000
#
# Coordination Sequence:
#
# PCOD9144052 Si02
#       5
#     4   4   4   4   4
#     4  10  18  34  59  88 125 168 212 254 303 360
#     4  11  25  46  69  93 121 156 204 263 324 382
#     4  11  22  40  66  95 126 167 208 254 313 369
#     4   9  17  31  58  91 124 164 208 251 302 365
#     4  12  24  40  62  94 131 169 212 254 307 367
#
# _framework density 23.316184
#
# number of rings (size 3 to 8) (size 9 to 14) (size 15 to 20)
#    0.000    1.400    4.000    1.800    0.000    2.800 
#    0.000    0.000    0.000    4.800    0.000    0.000 
#    0.000    0.000    0.000    0.000    0.000    0.000 
#
# Total GULP energy -111408.794632 kJ/mol
# GULP energy per Si atom -5570.439732 kJ/mol
# Density = 2.326312 g / cm^3
# Si number density = 23.316184 Si / 1000 Ang^3
#
#
#
# Elastic Constant Matrix: (Units=GPa)
#
#
# Indices 1 2 3 4 5 6 
#
# 1 74.6787 11.0395 30.2760 0.0000 7.1154 0.0000
# 2 11.0395 171.4354 102.8434 0.0000 1.8465 0.0000
# 3 30.2760 102.8434 219.3719 0.0000 7.9945 0.0000
# 4 0.0000 0.0000 0.0000 21.3365 0.0000 -2.9485
# 5 7.1154 1.8465 7.9945 0.0000 31.8864 0.0000
# 6 0.0000 0.0000 0.0000 -2.9485 0.0000 17.1420
#
#
#
# Elastic Compliance Matrix: (Units=1/GPa)
#
#
# Indices 1 2 3 4 5 6 
#
# 1 0.014431 0.000327 -0.002046 0.000000 -0.002726 0.000000
# 2 0.000327 0.008130 -0.003872 0.000000 0.000427 0.000000
# 3 -0.002046 -0.003872 0.006693 0.000000 -0.000997 0.000000
# 4 0.000000 0.000000 0.000000 0.048009 0.000000 0.008258
# 5 -0.002726 0.000427 -0.000997 0.000000 0.032195 0.000000
# 6 0.000000 0.000000 0.000000 0.008258 0.000000 0.059756
#
#
# Mechanical properties :
#
#
# Convention : Reuss Voigt Hill
#
# Bulk Modulus (GPa) = 55.33181 83.75600 69.54390
# Shear Modulus (GPa) = 26.82100 35.49479 31.15789
#
# Velocity S-wave (km/s) = 3.39531 3.90593 3.65954
# Velocity P-wave (km/s) = 6.25727 7.50610 6.90996
#
# Compressibility (1/GPa) = 0.01807279
#
# Stress axis : x y z
#
# Youngs Moduli (GPa) = 69.29294 122.99466 149.41981
#
# Poissons Ratio (x) = -0.04026 0.30569
# Poissons Ratio (y) = -0.02268 0.57861
# Poissons Ratio (z) = 0.14176 0.47628
#
# Static dielectric constant tensor:
#      x y z
#    x 2.030600 0.000000 0.045770 
#    y 0.000000 1.903860 0.000000 
#    z 0.045770 0.000000 1.845940 
# 
# From -- ./inp_files/19724.got.cif
#   From: 2010.05.17/outbox.cif.g08.bks.cpg/sg10_10_cif.got.tgz:19724.got - 2010.06.03 11:33:40.
