data_PCOD9144626
_publ_section_title
;
Structure prediction by ZEFSAII (Michael W. Deem and Ramdas Pophale) SiO2 
 PCOD9144626
Probable space group: P 2/M
;
_chemical_formula_sum "Si O2"
_cell_formula_units_Z 32
_cell_length_a 16.205098
_cell_length_b 7.536707
_cell_length_c 29.169362
_cell_angle_alpha 90.000000
_cell_angle_beta 27.078053
_cell_angle_gamma 90.000000
_cell_volume 1621.683803
_symmetry_space_group_name_H-M "P 2/M"
_symmetry_group_IT_number 10
_symmetry_cell_setting 'monoclinic'
loop_
_space_group_symop_operation_xyz
x,y,z
-x,y,-z
-x,-y,-z
x,-y,z
loop_
_atom_site_type_symbol
_atom_site_label
_atom_site_fract_x
_atom_site_fract_y
_atom_site_fract_z
Si Si1 0.296850 0.282958 0.851727
Si Si2 0.000193 0.788002 0.821776
Si Si3 0.710158 0.716478 0.644826
Si Si4 0.011592 0.710550 0.673561
Si Si5 0.301754 0.793336 0.606406
Si Si6 0.705187 0.786194 0.896693
Si Si7 0.005762 0.716505 0.571889
Si Si8 0.005989 0.712496 0.068483
O O1 0.302036 0.500000 0.849102
O O2 0.503479 0.221944 0.748195
O O3 0.174032 0.226066 0.869287
O O4 0.182606 0.226102 0.952925
O O5 0.826351 0.720975 0.879502
O O6 0.992318 0.756098 0.879268
O O7 0.180297 0.715885 0.707668
O O8 0.001893 0.000000 0.813973
O O9 0.708678 0.500000 0.645632
O O10 0.828894 0.770971 0.630211
O O11 0.821393 0.769896 0.544368
O O12 0.040398 0.500000 0.657827
O O13 0.822327 0.743769 0.793520
O O14 0.009903 0.777978 0.622252
O O15 0.172650 0.785064 0.625658
O O16 0.500000 0.713780 0.500000
O O17 0.331987 0.000000 0.603136
O O18 0.696075 0.000000 0.903764
O O19 0.500000 0.718580 0.000000
O O20 0.004152 0.500000 0.573614
O O21 0.005777 0.500000 0.064595
#
# Coordination Sequence:
#
# PCOD9144626 Si02
#       8
#     4   4   4   4   4   4   4   4
#     4   8  15  27  42  61  87 120 154 184 216 268
#     4   9  18  32  49  69  91 117 154 196 235 277
#     4   8  13  25  42  59  88 126 154 178 218 272
#     4  10  19  30  47  76 105 121 148 199 249 283
#     4   9  19  36  53  67  90 129 169 196 227 283
#     4   9  19  36  53  67  90 129 169 196 227 283
#     4   8  15  25  39  64  94 121 149 183 226 278
#     4   9  17  29  45  67  92 117 149 186 227 274
#
# _framework density 19.732576999999999
#
# number of rings (size 3 to 8) (size 9 to 14) (size 15 to 20)
#    0.000    3.250    0.000    2.625    0.000    4.500 
#    0.000    3.750    0.000    0.000    0.000   10.500 
#    0.000    0.000    0.000    0.000    0.000    0.000 
#
# Total GULP energy -178397.775114 kJ/mol
# GULP energy per Si atom -5574.930472 kJ/mol
# Density = 1.968767 g / cm^3
# Si number density = 19.732577 Si / 1000 Ang^3
#
#
#
# Elastic Constant Matrix: (Units=GPa)
#
#
# Indices 1 2 3 4 5 6 
#
# 1 140.5035 -9.2381 123.9315 0.0000 23.5889 0.0000
# 2 -9.2381 44.9407 -1.2137 0.0000 -3.9214 0.0000
# 3 123.9315 -1.2137 193.2235 0.0000 -14.5656 0.0000
# 4 0.0000 0.0000 0.0000 5.9230 0.0000 4.4198
# 5 23.5889 -3.9214 -14.5656 0.0000 34.5002 0.0000
# 6 0.0000 0.0000 0.0000 4.4198 0.0000 16.6889
#
#
#
# Elastic Compliance Matrix: (Units=1/GPa)
#
#
# Indices 1 2 3 4 5 6 
#
# 1 0.035597 0.003606 -0.025422 0.000000 -0.034662 0.000000
# 2 0.003606 0.022862 -0.002230 0.000000 -0.000809 0.000000
# 3 -0.025422 -0.002230 0.023506 0.000000 0.027052 0.000000
# 4 0.000000 0.000000 0.000000 0.210418 0.000000 -0.055726
# 5 -0.034662 -0.000809 0.027052 0.000000 0.064014 0.000000
# 6 0.000000 0.000000 0.000000 -0.055726 0.000000 0.074678
#
#
# Mechanical properties :
#
#
# Convention : Reuss Voigt Hill
#
# Bulk Modulus (GPa) = 29.52185 67.29188 48.40687
# Shear Modulus (GPa) = 10.19454 29.10162 19.64808
#
# Velocity S-wave (km/s) = 2.27543 3.84448 3.15892
# Velocity P-wave (km/s) = 4.67941 7.34048 6.15547
#
# Compressibility (1/GPa) = 0.03387321
#
# Stress axis : x y z
#
# Youngs Moduli (GPa) = 28.09214 43.74058 42.54250
#
# Poissons Ratio (x) = -0.15774 1.08151
# Poissons Ratio (y) = -0.10131 0.09489
# Poissons Ratio (z) = 0.71415 0.09756
#
# Static dielectric constant tensor:
#      x y z
#    x 1.670160 0.000000 -0.003830 
#    y 0.000000 1.732990 0.000000 
#    z -0.003830 0.000000 1.691210 
# 
# From -- ./inp_files/93103.got.cif
#   From: 2010.05.17/outbox.cif.g08.bks.cpg/sg10_47_cif.got.tgz:93103.got - 2010.06.03 11:33:40.
