data_PCOD9144282
_publ_section_title
;
Structure prediction by ZEFSAII (Michael W. Deem and Ramdas Pophale) SiO2 
 PCOD9144282
Probable space group: P 2/M
;
_chemical_formula_sum "Si O2"
_cell_formula_units_Z 28
_cell_length_a 20.864183
_cell_length_b 9.284570
_cell_length_c 14.037001
_cell_angle_alpha 90.000000
_cell_angle_beta 137.978953
_cell_angle_gamma 90.000000
_cell_volume 1820.226860
_symmetry_space_group_name_H-M "P 2/M"
_symmetry_group_IT_number 10
_symmetry_cell_setting 'monoclinic'
loop_
_space_group_symop_operation_xyz
x,y,z
-x,y,-z
-x,-y,-z
x,-y,z
loop_
_atom_site_type_symbol
_atom_site_label
_atom_site_fract_x
_atom_site_fract_y
_atom_site_fract_z
Si Si1 0.214573 0.828914 0.190774
Si Si2 0.675130 0.329095 0.329685
Si Si3 0.423068 0.171452 0.333395
Si Si4 0.963545 0.664729 0.069735
Si Si5 0.828866 0.673619 0.658925
Si Si6 0.391772 0.165570 0.923082
Si Si7 0.463550 0.671024 0.181019
O O1 0.317108 0.800567 0.256717
O O2 0.207144 0.752088 0.285387
O O3 0.203037 0.000000 0.190196
O O4 0.128456 0.765773 0.031629
O O5 0.679716 0.500000 0.313881
O O6 0.761484 0.290796 0.495684
O O7 0.671570 0.240810 0.227986
O O8 0.574485 0.303921 0.273424
O O9 0.500000 0.207605 0.500000
O O10 0.443470 0.259112 0.260573
O O11 0.431510 0.000000 0.323032
O O12 0.937750 0.500000 0.065646
O O13 0.058910 0.709681 0.231683
O O14 0.000000 0.664306 0.000000
O O15 0.824461 0.500000 0.669560
O O16 0.364528 0.000000 0.909469
O O17 0.500000 0.166730 0.000000
O O18 0.399086 0.254485 0.028579
O O19 0.447884 0.500000 0.164991
#
# Coordination Sequence:
#
# PCOD9144282 Si02
#       7
#     4   4   4   4   4   4   4
#     4  10  19  29  43  63  87 117 151 185 217 253
#     4   9  17  29  45  67  92 114 143 183 220 256
#     4  10  21  34  45  61  89 122 152 182 217 257
#     4   8  15  28  44  61  84 115 146 176 217 265
#     4   9  17  29  45  65  90 118 144 177 222 264
#     4   9  17  29  45  64  88 118 147 176 216 264
#     4  10  19  30  46  66  88 117 151 185 216 250
#
# _framework density 15.382698
#
# number of rings (size 3 to 8) (size 9 to 14) (size 15 to 20)
#    0.000    2.714    0.000    3.000    0.000    6.857 
#    0.000    0.000    0.000    0.000    0.000    1.000 
#    0.000    8.000    0.000    0.000    0.000    0.000 
#
# Total GULP energy -156040.632986 kJ/mol
# GULP energy per Si atom -5572.879750 kJ/mol
# Density = 1.534769 g / cm^3
# Si number density = 15.382698 Si / 1000 Ang^3
#
#
#
# Elastic Constant Matrix: (Units=GPa)
#
#
# Indices 1 2 3 4 5 6 
#
# 1 60.2395 54.3078 61.7574 0.0000 -0.1562 0.0000
# 2 54.3078 74.6321 79.3804 0.0000 -1.7335 0.0000
# 3 61.7574 79.3804 165.9122 0.0000 3.8401 0.0000
# 4 0.0000 0.0000 0.0000 26.2364 0.0000 -3.4244
# 5 -0.1562 -1.7335 3.8401 0.0000 23.2919 0.0000
# 6 0.0000 0.0000 0.0000 -3.4244 0.0000 22.7475
#
#
#
# Elastic Compliance Matrix: (Units=1/GPa)
#
#
# Indices 1 2 3 4 5 6 
#
# 1 0.048791 -0.033132 -0.002269 0.000000 -0.001764 0.000000
# 2 -0.033132 0.050197 -0.011810 0.000000 0.005461 0.000000
# 3 -0.002269 -0.011810 0.012591 0.000000 -0.002970 0.000000
# 4 0.000000 0.000000 0.000000 0.038879 0.000000 0.005853
# 5 -0.001764 0.005461 -0.002970 0.000000 0.043818 0.000000
# 6 0.000000 0.000000 0.000000 0.005853 0.000000 0.044842
#
#
# Mechanical properties :
#
#
# Convention : Reuss Voigt Hill
#
# Bulk Modulus (GPa) = 58.28462 76.85279 67.56870
# Shear Modulus (GPa) = 14.73802 21.47772 18.10787
#
# Velocity S-wave (km/s) = 3.09866 3.74066 3.43470
# Velocity P-wave (km/s) = 7.12561 8.29010 7.72981
#
# Compressibility (1/GPa) = 0.01715719
#
# Stress axis : x y z
#
# Youngs Moduli (GPa) = 20.49549 19.92156 79.42083
#
# Poissons Ratio (x) = 0.66004 0.18019
# Poissons Ratio (y) = 0.67906 0.93798
# Poissons Ratio (z) = 0.04650 0.23528
#
# Static dielectric constant tensor:
#      x y z
#    x 1.484220 0.000000 0.018890 
#    y 0.000000 1.515720 0.000000 
#    z 0.018890 0.000000 1.517950 
# 
# From -- ./inp_files/54982.got.cif
#   From: 2010.05.17/outbox.cif.g08.bks.cpg/sg10_28_cif.got.tgz:54982.got - 2010.06.03 11:33:40.
