data_PCOD9144684
_publ_section_title
;
Structure prediction by ZEFSAII (Michael W. Deem and Ramdas Pophale) SiO2 
 PCOD9144684
Probable space group: P 2/M
;
_chemical_formula_sum "Si O2"
_cell_formula_units_Z 32
_cell_length_a 15.075292
_cell_length_b 8.573008
_cell_length_c 16.248513
_cell_angle_alpha 90.000000
_cell_angle_beta 62.291034
_cell_angle_gamma 90.000000
_cell_volume 1859.145107
_symmetry_space_group_name_H-M "P 2/M"
_symmetry_group_IT_number 10
_symmetry_cell_setting 'monoclinic'
loop_
_space_group_symop_operation_xyz
x,y,z
-x,y,-z
-x,-y,-z
x,-y,z
loop_
_atom_site_type_symbol
_atom_site_label
_atom_site_fract_x
_atom_site_fract_y
_atom_site_fract_z
Si Si1 0.637055 0.814037 0.773448
Si Si2 0.915869 0.188489 0.225935
Si Si3 0.120107 0.313767 0.061430
Si Si4 0.846184 0.809880 0.607885
Si Si5 0.050416 0.809846 0.604230
Si Si6 0.423398 0.313702 0.848614
Si Si7 0.325497 0.313058 0.062665
Si Si8 0.773137 0.186821 0.145703
O O1 0.737997 0.756203 0.684871
O O2 0.534624 0.743713 0.782952
O O3 0.646027 0.768359 0.865317
O O4 0.632902 0.000000 0.767737
O O5 0.917383 0.244380 0.319576
O O6 0.821946 0.238304 0.210749
O O7 0.017126 0.243669 0.137917
O O8 0.916347 0.000000 0.227095
O O9 0.112053 0.500000 0.057512
O O10 0.210986 0.279558 0.085578
O O11 0.155335 0.246175 0.958826
O O12 0.878396 0.761537 0.502074
O O13 0.937104 0.762165 0.629076
O O14 0.845031 0.000000 0.609214
O O15 0.050936 0.000000 0.604649
O O16 0.419064 0.500000 0.849069
O O17 0.337290 0.249599 0.826154
O O18 0.392205 0.264678 0.955272
O O19 0.336663 0.500000 0.068128
O O20 0.770904 0.000000 0.144177
#
# Coordination Sequence:
#
# PCOD9144684 Si02
#       8
#     4   4   4   4   4   4   4   4
#     4  11  20  29  48  76  98 121 158 200 240 283
#     4  10  19  30  49  74  97 124 160 202 243 280
#     4  10  20  32  47  69 100 135 164 191 230 284
#     4   8  15  27  46  73 101 125 151 187 232 286
#     4   8  14  28  48  71 100 128 152 185 235 286
#     4  10  21  36  50  65  92 131 166 196 236 285
#     4   9  19  33  46  65  95 129 162 193 229 279
#     4  10  20  33  48  69  96 124 161 207 243 274
#
# _framework density 17.212212000000001
#
# number of rings (size 3 to 8) (size 9 to 14) (size 15 to 20)
#    0.000    2.500    0.000    4.500    0.000    8.000 
#    0.000    0.000    0.000    2.250    0.000   11.375 
#    0.000    0.000    0.000    0.000    0.000    0.000 
#
# Total GULP energy -178536.802987 kJ/mol
# GULP energy per Si atom -5579.275093 kJ/mol
# Density = 1.717304 g / cm^3
# Si number density = 17.212212 Si / 1000 Ang^3
#
#
#
# Elastic Constant Matrix: (Units=GPa)
#
#
# Indices 1 2 3 4 5 6 
#
# 1 142.0441 26.6505 99.9855 0.0000 3.6922 0.0000
# 2 26.6505 11.4528 14.4065 0.0000 5.3777 0.0000
# 3 99.9855 14.4065 89.2921 0.0000 4.8650 0.0000
# 4 0.0000 0.0000 0.0000 -9.1388 0.0000 -10.8017
# 5 3.6922 5.3777 4.8650 0.0000 29.0496 0.0000
# 6 0.0000 0.0000 0.0000 -10.8017 0.0000 14.5082
#
#
#
# Elastic Compliance Matrix: (Units=1/GPa)
#
#
# Indices 1 2 3 4 5 6 
#
# 1 0.062159 -0.079951 -0.057605 0.000000 0.016547 0.000000
# 2 -0.079951 0.221944 0.055912 0.000000 -0.040288 0.000000
# 3 -0.057605 0.055912 0.067463 0.000000 -0.014327 0.000000
# 4 0.000000 0.000000 0.000000 -0.058204 0.000000 -0.043334
# 5 0.016547 -0.040288 -0.014327 0.000000 0.042178 0.000000
# 6 0.000000 0.000000 0.000000 -0.043334 0.000000 0.036663
#
#
# Mechanical properties :
#
#
# Convention : Reuss Voigt Hill
#
# Bulk Modulus (GPa) = 5.31131 58.31933 31.81532
# Shear Modulus (GPa) = 8.35771 13.66692 11.01231
#
# Velocity S-wave (km/s) = 2.20595 2.82090 2.53216
# Velocity P-wave (km/s) = 3.09528 6.67578 5.20321
#
# Compressibility (1/GPa) = 0.18827758
#
# Stress axis : x y z
#
# Youngs Moduli (GPa) = 16.08781 4.50563 14.82305
#
# Poissons Ratio (x) = 0.36023 0.85388
# Poissons Ratio (y) = 1.28623 -0.82878
# Poissons Ratio (z) = 0.92674 -0.25192
#
# Static dielectric constant tensor:
#      x y z
#    x 1.589200 0.000000 0.004720 
#    y 0.000000 1.579210 0.000000 
#    z 0.004720 0.000000 1.571670 
# 
# From -- ./inp_files/66524.got.cif
#   From: 2010.05.17/outbox.cif.g08.bks.cpg/sg10_34_cif.got.tgz:66524.got - 2010.06.03 11:33:40.
