data_PCOD9144284
_publ_section_title
;
Structure prediction by ZEFSAII (Michael W. Deem and Ramdas Pophale) SiO2 
 PCOD9144284
Probable space group: P 2/M
;
_chemical_formula_sum "Si O2"
_cell_formula_units_Z 28
_cell_length_a 12.010185
_cell_length_b 7.692922
_cell_length_c 19.079184
_cell_angle_alpha 90.000000
_cell_angle_beta 53.671284
_cell_angle_gamma 90.000000
_cell_volume 1420.159899
_symmetry_space_group_name_H-M "P 2/M"
_symmetry_group_IT_number 10
_symmetry_cell_setting 'monoclinic'
loop_
_space_group_symop_operation_xyz
x,y,z
-x,y,-z
-x,-y,-z
x,-y,z
loop_
_atom_site_type_symbol
_atom_site_label
_atom_site_fract_x
_atom_site_fract_y
_atom_site_fract_z
Si Si1 0.985115 0.289483 0.158642
Si Si2 0.124317 0.286830 0.403959
Si Si3 0.721219 0.193821 0.168229
Si Si4 0.428738 0.707697 0.122239
Si Si5 0.874097 0.287958 0.757753
Si Si6 0.572907 0.294734 0.708351
Si Si7 0.728425 0.301050 0.010572
O O1 0.980229 0.500000 0.155940
O O2 0.008647 0.239206 0.230741
O O3 0.847971 0.224687 0.172469
O O4 0.125079 0.226597 0.067788
O O5 0.126316 0.500000 0.403002
O O6 0.105215 0.231912 0.330066
O O7 0.277215 0.229996 0.371993
O O8 0.000000 0.230640 0.500000
O O9 0.572774 0.217266 0.260509
O O10 0.728380 0.307846 0.095329
O O11 0.728278 0.000000 0.137026
O O12 0.432779 0.500000 0.107328
O O13 0.276846 0.771308 0.157383
O O14 0.424496 0.729522 0.208270
O O15 0.579388 0.776843 0.043623
O O16 0.868052 0.500000 0.758519
O O17 0.566123 0.500000 0.697000
O O18 0.728000 0.500000 0.984102
#
# Coordination Sequence:
#
# PCOD9144284 Si02
#       7
#     4   4   4   4   4   4   4
#     4  10  19  29  43  63  89 122 155 186 220 262
#     4   8  13  24  48  80 103 113 130 173 228 272
#     4  11  21  31  44  61  85 119 159 196 224 254
#     4   7  11  22  40  62  86 109 137 176 216 254
#     4   8  14  24  40  66  96 120 142 172 218 274
#     4   8  14  27  47  69  92 116 143 177 218 264
#     4   9  17  29  45  64  86 115 153 193 228 261
#
# _framework density 19.716087000000002
#
# number of rings (size 3 to 8) (size 9 to 14) (size 15 to 20)
#    0.000    3.286    0.000    4.286    0.000    2.857 
#    0.000    2.857    0.000    9.000    0.000   16.000 
#    0.000    0.000    0.000    0.000    0.000    0.000 
#
# Total GULP energy -155988.467441 kJ/mol
# GULP energy per Si atom -5571.016694 kJ/mol
# Density = 1.967121 g / cm^3
# Si number density = 19.716087 Si / 1000 Ang^3
#
#
#
# Elastic Constant Matrix: (Units=GPa)
#
#
# Indices 1 2 3 4 5 6 
#
# 1 145.7590 -0.9600 61.6055 0.0000 -27.9356 0.0000
# 2 -0.9600 31.5242 5.0215 0.0000 -7.3667 0.0000
# 3 61.6055 5.0215 123.8315 0.0000 -25.7194 0.0000
# 4 0.0000 0.0000 0.0000 -18.0940 0.0000 25.0804
# 5 -27.9356 -7.3667 -25.7194 0.0000 23.9319 0.0000
# 6 0.0000 0.0000 0.0000 25.0804 0.0000 -82.8294
#
#
#
# Elastic Compliance Matrix: (Units=1/GPa)
#
#
# Indices 1 2 3 4 5 6 
#
# 1 0.009976 0.002944 -0.003187 0.000000 0.009126 0.000000
# 2 0.002944 0.035151 0.000091 0.000000 0.014355 0.000000
# 3 -0.003187 0.000091 0.011445 0.000000 0.008608 0.000000
# 4 0.000000 0.000000 0.000000 -0.095241 0.000000 -0.028839
# 5 0.009126 0.014355 0.008608 0.000000 0.066108 0.000000
# 6 0.000000 0.000000 0.000000 -0.028839 0.000000 -0.020805
#
#
# Mechanical properties :
#
#
# Convention : Reuss Voigt Hill
#
# Bulk Modulus (GPa) = 17.77153 48.04984 32.91069
# Shear Modulus (GPa) = 194.59517 0.29821 97.44669
#
# Velocity S-wave (km/s) = 9.94550 0.38934 7.03792
# Velocity P-wave (km/s) = 11.87086 4.96245 9.09789
#
# Compressibility (1/GPa) = 0.05626978
#
# Stress axis : x y z
#
# Youngs Moduli (GPa) = 100.23931 28.44844 87.37342
#
# Poissons Ratio (x) = -0.08376 0.27845
# Poissons Ratio (y) = -0.29512 -0.00798
# Poissons Ratio (z) = 0.31946 -0.00260
#
# Static dielectric constant tensor:
#      x y z
#    x 1.710760 0.000000 -0.023130 
#    y 0.000000 1.724690 0.000000 
#    z -0.023130 0.000000 1.702730 
# 
# From -- ./inp_files/54682.got.cif
#   From: 2010.05.17/outbox.cif.g08.bks.cpg/sg10_28_cif.got.tgz:54682.got - 2010.06.03 11:33:40.
