data_PCOD9144581
_publ_section_title
;
Structure prediction by ZEFSAII (Michael W. Deem and Ramdas Pophale) SiO2 
 PCOD9144581
Probable space group: P 2/M
;
_chemical_formula_sum "Si O2"
_cell_formula_units_Z 32
_cell_length_a 15.069593
_cell_length_b 9.171942
_cell_length_c 21.164692
_cell_angle_alpha 90.000000
_cell_angle_beta 42.448007
_cell_angle_gamma 90.000000
_cell_volume 1974.365915
_symmetry_space_group_name_H-M "P 2/M"
_symmetry_group_IT_number 10
_symmetry_cell_setting 'monoclinic'
loop_
_space_group_symop_operation_xyz
x,y,z
-x,y,-z
-x,-y,-z
x,-y,z
loop_
_atom_site_type_symbol
_atom_site_label
_atom_site_fract_x
_atom_site_fract_y
_atom_site_fract_z
Si Si1 0.704387 0.833679 0.802498
Si Si2 0.982375 0.831426 0.333286
Si Si3 0.964027 0.672556 0.818920
Si Si4 0.112231 0.324487 0.492095
Si Si5 0.625210 0.672911 0.719920
Si Si6 0.632580 0.171605 0.119117
Si Si7 0.913840 0.674966 0.984190
Si Si8 0.688737 0.171341 0.949457
O O1 0.672257 0.721375 0.764804
O O2 0.636933 0.806948 0.905834
O O3 0.860640 0.826923 0.734720
O O4 0.673173 0.000000 0.798313
O O5 0.914628 0.748643 0.426690
O O6 0.962032 0.756843 0.275802
O O7 0.943163 0.000000 0.351988
O O8 0.978533 0.500000 0.802323
O O9 0.990292 0.709914 0.878513
O O10 0.812059 0.721099 0.891435
O O11 0.104002 0.500000 0.502400
O O12 0.255404 0.286529 0.389293
O O13 0.000000 0.280226 0.500000
O O14 0.606716 0.500000 0.727017
O O15 0.487204 0.753133 0.781792
O O16 0.638010 0.000000 0.128996
O O17 0.773800 0.243973 0.058158
O O18 0.607520 0.190387 0.056370
O O19 0.890264 0.500000 0.995916
O O20 0.000000 0.711328 0.000000
O O21 0.733094 0.000000 0.927178
#
# Coordination Sequence:
#
# PCOD9144581 Si02
#       8
#     4   4   4   4   4   4   4   4
#     4   9  17  29  44  63  88 123 165 203 243 284
#     4  10  19  30  47  69  96 129 166 209 250 290
#     4   9  16  27  47  73 100 128 157 194 239 286
#     4  10  20  34  49  67  92 126 172 220 257 290
#     4  11  22  33  46  65  93 127 166 210 252 290
#     4  10  20  34  50  69  98 130 162 199 240 292
#     4   9  18  34  56  81 106 130 158 193 236 291
#     4   8  16  30  45  63  90 126 163 199 237 280
#
# _framework density 16.207736000000001
#
# number of rings (size 3 to 8) (size 9 to 14) (size 15 to 20)
#    0.000    2.500    1.250    2.250    0.000    5.000 
#    0.000    2.500    0.000    0.000    0.000    0.875 
#    0.000    7.000    0.000    0.000    0.000    0.000 
#
# Total GULP energy -178350.303736 kJ/mol
# GULP energy per Si atom -5573.446992 kJ/mol
# Density = 1.617085 g / cm^3
# Si number density = 16.207736 Si / 1000 Ang^3
#
#
#
# Elastic Constant Matrix: (Units=GPa)
#
#
# Indices 1 2 3 4 5 6 
#
# 1 78.6735 39.1334 51.6434 0.0000 14.8730 0.0000
# 2 39.1334 54.3791 61.0449 0.0000 8.9811 0.0000
# 3 51.6434 61.0449 139.1789 0.0000 13.4002 0.0000
# 4 0.0000 0.0000 0.0000 20.1013 0.0000 3.6670
# 5 14.8730 8.9811 13.4002 0.0000 20.2646 0.0000
# 6 0.0000 0.0000 0.0000 3.6670 0.0000 14.9717
#
#
#
# Elastic Compliance Matrix: (Units=1/GPa)
#
#
# Indices 1 2 3 4 5 6 
#
# 1 0.021649 -0.011874 -0.001924 0.000000 -0.009354 0.000000
# 2 -0.011874 0.043418 -0.014550 0.000000 -0.000906 0.000000
# 3 -0.001924 -0.014550 0.014443 0.000000 -0.001690 0.000000
# 4 0.000000 0.000000 0.000000 0.052075 0.000000 -0.012754
# 5 -0.009354 -0.000906 -0.001690 0.000000 0.057732 0.000000
# 6 0.000000 0.000000 0.000000 -0.012754 0.000000 0.069917
#
#
# Mechanical properties :
#
#
# Convention : Reuss Voigt Hill
#
# Bulk Modulus (GPa) = 43.83500 63.98612 53.91056
# Shear Modulus (GPa) = 15.45430 19.09485 17.27458
#
# Velocity S-wave (km/s) = 3.09125 3.43612 3.26824
# Velocity P-wave (km/s) = 6.31233 7.43687 6.89756
#
# Compressibility (1/GPa) = 0.02281282
#
# Stress axis : x y z
#
# Youngs Moduli (GPa) = 46.19232 23.03192 69.23533
#
# Poissons Ratio (x) = 0.27349 0.13322
# Poissons Ratio (y) = 0.54851 1.00738
# Poissons Ratio (z) = 0.08888 0.33512
#
# Static dielectric constant tensor:
#      x y z
#    x 1.540530 0.000000 0.006790 
#    y 0.000000 1.538320 0.000000 
#    z 0.006790 0.000000 1.561520 
# 
# From -- ./inp_files/66149.got.cif
#   From: 2010.05.17/outbox.cif.g08.bks.cpg/sg10_34_cif.got.tgz:66149.got - 2010.06.03 11:33:40.
