data_PCOD9144339
_publ_section_title
;
Structure prediction by ZEFSAII (Michael W. Deem and Ramdas Pophale) SiO2 
 PCOD9144339
Probable space group: P 2/M
;
_chemical_formula_sum "Si O2"
_cell_formula_units_Z 28
_cell_length_a 16.803993
_cell_length_b 9.199434
_cell_length_c 19.121153
_cell_angle_alpha 90.000000
_cell_angle_beta 143.531040
_cell_angle_gamma 90.000000
_cell_volume 1756.940816
_symmetry_space_group_name_H-M "P 2/M"
_symmetry_group_IT_number 10
_symmetry_cell_setting 'monoclinic'
loop_
_space_group_symop_operation_xyz
x,y,z
-x,y,-z
-x,-y,-z
x,-y,z
loop_
_atom_site_type_symbol
_atom_site_label
_atom_site_fract_x
_atom_site_fract_y
_atom_site_fract_z
Si Si1 0.725663 0.672791 0.991586
Si Si2 0.959752 0.676241 0.582198
Si Si3 0.032260 0.326534 0.254951
Si Si4 0.113750 0.169386 0.178670
Si Si5 0.783108 0.324099 0.325560
Si Si6 0.802260 0.170404 0.910232
Si Si7 0.508957 0.827318 0.089544
O O1 0.703551 0.500000 0.976494
O O2 0.724101 0.734913 0.911529
O O3 0.616466 0.753498 0.960957
O O4 0.875002 0.700554 0.127428
O O5 0.960483 0.500000 0.584761
O O6 0.847985 0.716411 0.446268
O O7 0.938367 0.727970 0.645990
O O8 0.104560 0.716744 0.652838
O O9 0.051276 0.500000 0.266132
O O10 0.118616 0.255359 0.254325
O O11 0.198998 0.219907 0.171578
O O12 0.144280 0.000000 0.211694
O O13 0.958321 0.177340 0.044092
O O14 0.767119 0.500000 0.312227
O O15 0.644746 0.245686 0.213116
O O16 0.763672 0.000000 0.886340
O O17 0.509259 0.000000 0.102587
O O18 0.500000 0.803074 0.000000
#
# Coordination Sequence:
#
# PCOD9144339 Si02
#       7
#     4   4   4   4   4   4   4
#     4  10  19  29  45  68  91 119 154 186 218 262
#     4   8  15  29  49  70  90 115 146 184 229 266
#     4   9  16  26  42  67  95 118 146 185 224 262
#     4   8  14  24  39  60  87 121 153 178 215 265
#     4   9  17  32  52  68  86 116 153 187 220 264
#     4   8  14  26  41  58  87 122 151 181 218 262
#     4  11  23  35  46  64  92 122 150 183 223 263
#
# _framework density 15.936792000000001
#
# number of rings (size 3 to 8) (size 9 to 14) (size 15 to 20)
#    0.000    3.000    0.000    3.429    0.000    3.429 
#    0.000    5.714    0.000    0.000    0.000    1.000 
#    0.000    8.000    0.000    0.000    0.000    0.000 
#
# Total GULP energy -155925.722905 kJ/mol
# GULP energy per Si atom -5568.775818 kJ/mol
# Density = 1.590052 g / cm^3
# Si number density = 15.936792 Si / 1000 Ang^3
#
#
#
# Elastic Constant Matrix: (Units=GPa)
#
#
# Indices 1 2 3 4 5 6 
#
# 1 134.0273 60.5862 45.9258 0.0000 -30.5779 0.0000
# 2 60.5862 48.5187 34.5628 0.0000 -6.5022 0.0000
# 3 45.9258 34.5628 46.5689 0.0000 -16.0591 0.0000
# 4 0.0000 0.0000 0.0000 14.5723 0.0000 -3.9360
# 5 -30.5779 -6.5022 -16.0591 0.0000 27.8928 0.0000
# 6 0.0000 0.0000 0.0000 -3.9360 0.0000 26.9326
#
#
#
# Elastic Compliance Matrix: (Units=1/GPa)
#
#
# Indices 1 2 3 4 5 6 
#
# 1 0.026984 -0.037648 0.010612 0.000000 0.026915 0.000000
# 2 -0.037648 0.098922 -0.053117 0.000000 -0.048794 0.000000
# 3 0.010612 -0.053117 0.062601 0.000000 0.035294 0.000000
# 4 0.000000 0.000000 0.000000 0.071444 0.000000 0.010441
# 5 0.026915 -0.048794 0.035294 0.000000 0.074304 0.000000
# 6 0.000000 0.000000 0.000000 0.010441 0.000000 0.038656
#
#
# Mechanical properties :
#
#
# Convention : Reuss Voigt Hill
#
# Bulk Modulus (GPa) = 35.45842 56.80718 46.13280
# Shear Modulus (GPa) = 9.21461 19.74888 14.48174
#
# Velocity S-wave (km/s) = 2.40718 3.52405 3.01773
# Velocity P-wave (km/s) = 5.47939 7.23058 6.41502
#
# Compressibility (1/GPa) = 0.02820205
#
# Stress axis : x y z
#
# Youngs Moduli (GPa) = 37.05876 10.10897 15.97412
#
# Poissons Ratio (x) = 0.38059 -0.16952
# Poissons Ratio (y) = 1.39520 0.84849
# Poissons Ratio (z) = -0.39328 0.53695
#
# Static dielectric constant tensor:
#      x y z
#    x 1.543840 0.000000 -0.023130 
#    y 0.000000 1.528980 0.000000 
#    z -0.023130 0.000000 1.521880 
# 
# From -- ./inp_files/49191.got.cif
#   From: 2010.05.17/outbox.cif.g08.bks.cpg/sg10_25_cif.got.tgz:49191.got - 2010.06.03 11:33:40.
