data_PCOD9144205
_publ_section_title
;
Structure prediction by ZEFSAII (Michael W. Deem and Ramdas Pophale) SiO2 
 PCOD9144205
Probable space group: P 2/M
;
_chemical_formula_sum "Si O2"
_cell_formula_units_Z 28
_cell_length_a 16.584307
_cell_length_b 7.596377
_cell_length_c 12.689724
_cell_angle_alpha 90.000000
_cell_angle_beta 61.687355
_cell_angle_gamma 90.000000
_cell_volume 1407.416321
_symmetry_space_group_name_H-M "P 2/M"
_symmetry_group_IT_number 10
_symmetry_cell_setting 'monoclinic'
loop_
_space_group_symop_operation_xyz
x,y,z
-x,y,-z
-x,-y,-z
x,-y,z
loop_
_atom_site_type_symbol
_atom_site_label
_atom_site_fract_x
_atom_site_fract_y
_atom_site_fract_z
Si Si1 0.702990 0.296173 0.110414
Si Si2 0.387095 0.000000 0.450910
Si Si3 0.933113 0.799814 0.754548
Si Si4 0.710603 0.283746 0.631232
Si Si5 0.393690 0.000000 0.693329
Si Si6 0.269686 0.702686 0.147735
Si Si7 0.094853 0.797810 0.980116
Si Si8 0.081024 0.702699 0.522917
O O1 0.672885 0.500000 0.128841
O O2 0.642898 0.168809 0.219419
O O3 0.806374 0.289161 0.093242
O O4 0.708049 0.228387 0.984148
O O5 0.349241 0.172418 0.413283
O O6 0.361203 0.000000 0.591233
O O7 0.496746 0.000000 0.376389
O O8 0.840740 0.710989 0.768920
O O9 0.029707 0.714831 0.665973
O O10 0.932716 0.000000 0.717545
O O11 0.919476 0.802938 0.886535
O O12 0.702386 0.500000 0.626811
O O13 0.690434 0.230248 0.766005
O O14 0.816620 0.228591 0.543765
O O15 0.296881 0.500000 0.125859
O O16 0.100898 0.000000 0.935230
O O17 0.000000 0.715927 0.000000
O O18 0.090413 0.500000 0.485046
O O19 0.000000 0.779962 0.500000
#
# Coordination Sequence:
#
# PCOD9144205 Si02
#       8
#     4   2   4   4   2   4   4   4
#     4  10  21  39  69  96 120 163 206 250 310 370
#     4  11  28  47  70  89 115 162 201 261 332 367
#     4  10  19  27  47  79 115 165 210 239 280 347
#     4  10  22  40  63  94 130 163 206 254 305 374
#     4  11  26  51  68  89 119 151 212 269 314 382
#     4   9  18  35  59  91 129 161 194 243 302 368
#     4   9  18  34  53  82 125 163 200 251 296 343
#     4  10  19  32  50  78 122 167 198 235 284 347
#
# _framework density 19.894611999999999
#
# number of rings (size 3 to 8) (size 9 to 14) (size 15 to 20)
#    0.000    2.143    2.143    0.429    3.000    3.429 
#    0.000    4.286    0.000    2.571    0.000    0.000 
#    0.000    0.000    0.000    0.000    0.000    0.000 
#
# Total GULP energy -155929.799790 kJ/mol
# GULP energy per Si atom -5568.921421 kJ/mol
# Density = 1.984933 g / cm^3
# Si number density = 19.894612 Si / 1000 Ang^3
#
#
#
# Elastic Constant Matrix: (Units=GPa)
#
#
# Indices 1 2 3 4 5 6 
#
# 1 84.7206 32.5240 49.3972 0.0000 8.2114 0.0000
# 2 32.5240 90.4489 50.8654 0.0000 4.7137 0.0000
# 3 49.3972 50.8654 121.7375 0.0000 0.2652 0.0000
# 4 0.0000 0.0000 0.0000 25.8346 0.0000 2.6707
# 5 8.2114 4.7137 0.2652 0.0000 22.3032 0.0000
# 6 0.0000 0.0000 0.0000 2.6707 0.0000 20.5906
#
#
#
# Elastic Compliance Matrix: (Units=1/GPa)
#
#
# Indices 1 2 3 4 5 6 
#
# 1 0.016610 -0.002485 -0.005689 0.000000 -0.005522 0.000000
# 2 -0.002485 0.015025 -0.005264 0.000000 -0.002198 0.000000
# 3 -0.005689 -0.005264 0.012716 0.000000 0.003056 0.000000
# 4 0.000000 0.000000 0.000000 0.039234 0.000000 -0.005089
# 5 -0.005522 -0.002198 0.003056 0.000000 0.047298 0.000000
# 6 0.000000 0.000000 0.000000 -0.005089 0.000000 0.049226
#
#
# Mechanical properties :
#
#
# Convention : Reuss Voigt Hill
#
# Bulk Modulus (GPa) = 57.23335 62.49779 59.86557
# Shear Modulus (GPa) = 23.49498 24.68703 24.09100
#
# Velocity S-wave (km/s) = 3.44026 3.52645 3.48362
# Velocity P-wave (km/s) = 6.67916 6.93280 6.80716
#
# Compressibility (1/GPa) = 0.01747233
#
# Stress axis : x y z
#
# Youngs Moduli (GPa) = 60.20416 66.55662 78.64138
#
# Poissons Ratio (x) = 0.16542 0.44742
# Poissons Ratio (y) = 0.14963 0.41401
# Poissons Ratio (z) = 0.34252 0.35039
#
# Static dielectric constant tensor:
#      x y z
#    x 1.714570 0.000000 0.026420 
#    y 0.000000 1.748150 0.000000 
#    z 0.026420 0.000000 1.781910 
# 
# From -- ./inp_files/49259.got.cif
#   From: 2010.05.17/outbox.cif.g08.bks.cpg/sg10_25_cif.got.tgz:49259.got - 2010.06.03 11:33:40.
