data_PCOD9144118
_publ_section_title
;
Structure prediction by ZEFSAII (Michael W. Deem and Ramdas Pophale) SiO2 
 PCOD9144118
Probable space group: P 2/M
;
_chemical_formula_sum "Si O2"
_cell_formula_units_Z 28
_cell_length_a 8.921818
_cell_length_b 17.076615
_cell_length_c 15.108097
_cell_angle_alpha 90.000000
_cell_angle_beta 145.070154
_cell_angle_gamma 90.000000
_cell_volume 1317.940466
_symmetry_space_group_name_H-M "P 2/M"
_symmetry_group_IT_number 10
_symmetry_cell_setting 'monoclinic'
loop_
_space_group_symop_operation_xyz
x,y,z
-x,y,-z
-x,-y,-z
x,-y,z
loop_
_atom_site_type_symbol
_atom_site_label
_atom_site_fract_x
_atom_site_fract_y
_atom_site_fract_z
Si Si1 0.015756 0.804735 0.676233
Si Si2 0.457044 0.910837 0.585696
Si Si3 0.077308 0.361109 0.936713
Si Si4 0.162437 0.500000 0.487114
Si Si5 0.817149 0.500000 0.143818
Si Si6 0.046774 0.191800 0.150368
Si Si7 0.531423 0.239991 0.828249
Si Si8 0.766326 0.671125 0.459370
O O1 0.817315 0.866177 0.535208
O O2 0.044984 0.823337 0.793330
O O3 0.881225 0.719418 0.597359
O O4 0.293286 0.799740 0.763105
O O5 0.500000 0.911164 0.500000
O O6 0.705433 0.863608 0.743018
O O7 0.449305 0.000000 0.613615
O O8 0.085899 0.426680 0.867628
O O9 0.900599 0.285526 0.828210
O O10 0.366718 0.321151 0.078094
O O11 0.000000 0.385698 0.000000
O O12 0.318748 0.582477 0.560566
O O13 0.000000 0.500000 0.500000
O O14 0.957534 0.500000 0.306883
O O15 0.500000 0.500000 0.000000
O O16 0.208010 0.187490 0.036275
O O17 0.429386 0.271227 0.685766
O O18 0.000000 0.664133 0.500000
#
# Coordination Sequence:
#
# PCOD9144118 Si02
#       8
#     4   4   4   2   2   4   4   4
#     4  10  18  35  61  93 125 161 219 283 322 406
#     4   9  19  36  60  93 130 171 209 265 350 423
#     4  10  24  40  64  91 136 179 229 276 345 395
#     4  10  22  37  55  94 137 166 218 279 344 380
#     4  12  27  39  69  96 132 186 237 293 325 400
#     4   9  20  35  63  90 125 166 225 269 333 402
#     4   9  21  35  62  90 121 170 215 273 332 387
#     4   9  19  32  54  82 124 160 202 260 328 387
#
# _framework density 21.245270000000001
#
# number of rings (size 3 to 8) (size 9 to 14) (size 15 to 20)
#    0.857    1.571    0.000    1.500   10.000    0.000 
#    0.000    0.714    0.000   12.000    0.000    0.000 
#    0.000    0.000    0.000    0.000    0.000    0.000 
#
# Total GULP energy -156043.080986 kJ/mol
# GULP energy per Si atom -5572.967178 kJ/mol
# Density = 2.119691 g / cm^3
# Si number density = 21.245270 Si / 1000 Ang^3
#
#
#
# Elastic Constant Matrix: (Units=GPa)
#
#
# Indices 1 2 3 4 5 6 
#
# 1 105.8156 53.4740 64.8665 0.0000 18.8200 0.0000
# 2 53.4740 126.5717 59.4790 0.0000 9.7864 0.0000
# 3 64.8665 59.4790 139.8611 0.0000 1.3814 0.0000
# 4 0.0000 0.0000 0.0000 23.0296 0.0000 0.6786
# 5 18.8200 9.7864 1.3814 0.0000 36.4563 0.0000
# 6 0.0000 0.0000 0.0000 0.6786 0.0000 16.9007
#
#
#
# Elastic Compliance Matrix: (Units=1/GPa)
#
#
# Indices 1 2 3 4 5 6 
#
# 1 0.016109 -0.003467 -0.005926 0.000000 -0.007161 0.000000
# 2 -0.003467 0.010852 -0.002997 0.000000 -0.001010 0.000000
# 3 -0.005926 -0.002997 0.011139 0.000000 0.003442 0.000000
# 4 0.000000 0.000000 0.000000 0.043474 0.000000 -0.001746
# 5 -0.007161 -0.001010 0.003442 0.000000 0.031267 0.000000
# 6 0.000000 0.000000 0.000000 -0.001746 0.000000 0.059239
#
#
# Mechanical properties :
#
#
# Convention : Reuss Voigt Hill
#
# Bulk Modulus (GPa) = 75.07867 80.87638 77.97752
# Shear Modulus (GPa) = 24.83857 28.23925 26.53891
#
# Velocity S-wave (km/s) = 3.42297 3.64978 3.53819
# Velocity P-wave (km/s) = 7.14409 7.47742 7.31265
#
# Compressibility (1/GPa) = 0.01331936
#
# Stress axis : x y z
#
# Youngs Moduli (GPa) = 62.07784 92.14968 89.77584
#
# Poissons Ratio (x) = 0.31951 0.53200
# Poissons Ratio (y) = 0.21524 0.26905
# Poissons Ratio (z) = 0.36787 0.27617
#
# Static dielectric constant tensor:
#      x y z
#    x 1.820860 0.000000 0.017500 
#    y 0.000000 1.769500 0.000000 
#    z 0.017500 0.000000 1.808480 
# 
# From -- ./inp_files/62399.got.cif
#   From: 2010.05.17/outbox.cif.g08.bks.cpg/sg10_32_cif.got.tgz:62399.got - 2010.06.03 11:33:40.
