data_PCOD9144334
_publ_section_title
;
Structure prediction by ZEFSAII (Michael W. Deem and Ramdas Pophale) SiO2 
 PCOD9144334
Probable space group: P 2/M
;
_chemical_formula_sum "Si O2"
_cell_formula_units_Z 24
_cell_length_a 7.834291
_cell_length_b 14.277669
_cell_length_c 9.448964
_cell_angle_alpha 90.000000
_cell_angle_beta 72.788799
_cell_angle_gamma 90.000000
_cell_volume 1009.589565
_symmetry_space_group_name_H-M "P 2/M"
_symmetry_group_IT_number 10
_symmetry_cell_setting 'monoclinic'
loop_
_space_group_symop_operation_xyz
x,y,z
-x,y,-z
-x,-y,-z
x,-y,z
loop_
_atom_site_type_symbol
_atom_site_label
_atom_site_fract_x
_atom_site_fract_y
_atom_site_fract_z
Si Si1 0.949188 0.610294 0.807788
Si Si2 0.821085 0.108417 0.841108
Si Si3 0.804320 0.731577 0.616221
Si Si4 0.322974 0.286870 0.656122
Si Si5 0.756952 0.893871 0.179577
Si Si6 0.367964 0.611703 0.914759
O O1 0.995726 0.500000 0.798479
O O2 0.828630 0.637050 0.701561
O O3 0.828867 0.632456 0.974173
O O4 0.120317 0.675020 0.741601
O O5 0.768358 0.183680 0.735139
O O6 0.035193 0.111305 0.820965
O O7 0.778333 0.000000 0.813446
O O8 0.741452 0.128531 0.016444
O O9 0.674615 0.715791 0.513929
O O10 0.000000 0.754001 0.500000
O O11 0.344220 0.181983 0.705186
O O12 0.416027 0.351929 0.749411
O O13 0.697220 0.000000 0.214992
O O14 0.380734 0.500000 0.910403
O O15 0.500000 0.651035 0.000000
#
# Coordination Sequence:
#
# PCOD9144334 Si02
#       6
#     4   4   4   4   4   4
#     4  10  20  34  53  76 104 135 168 212 262 310
#     4   9  16  27  42  67 108 145 169 204 254 303
#     4  10  19  29  44  76 111 140 163 207 257 313
#     4  11  20  31  54  81 108 137 172 213 259 308
#     4   9  17  28  47  75 108 142 174 210 252 299
#     4  10  22  39  57  76  99 133 178 221 261 308
#
# _framework density 23.772037999999998
#
# number of rings (size 3 to 8) (size 9 to 14) (size 15 to 20)
#    0.000    2.167    3.333    3.000    2.333    6.000 
#    0.000    0.833    0.000    3.500    0.000    0.000 
#    0.000    5.333    0.000    0.000    0.000    0.000 
#
# Total GULP energy -134124.655315 kJ/mol
# GULP energy per Si atom -5588.527305 kJ/mol
# Density = 2.371793 g / cm^3
# Si number density = 23.772038 Si / 1000 Ang^3
#
#
#
# Elastic Constant Matrix: (Units=GPa)
#
#
# Indices 1 2 3 4 5 6 
#
# 1 57.0270 6.4682 36.7988 0.0000 16.8620 0.0000
# 2 6.4682 94.2432 55.8867 0.0000 -5.9619 0.0000
# 3 36.7988 55.8867 171.1330 0.0000 13.0954 0.0000
# 4 0.0000 0.0000 0.0000 -0.2140 0.0000 2.8887
# 5 16.8620 -5.9619 13.0954 0.0000 46.5826 0.0000
# 6 0.0000 0.0000 0.0000 2.8887 0.0000 26.5563
#
#
#
# Elastic Compliance Matrix: (Units=1/GPa)
#
#
# Indices 1 2 3 4 5 6 
#
# 1 0.022367 0.000727 -0.004532 0.000000 -0.006730 0.000000
# 2 0.000727 0.013593 -0.004812 0.000000 0.002829 0.000000
# 3 -0.004532 -0.004812 0.008494 0.000000 -0.001363 0.000000
# 4 0.000000 0.000000 0.000000 -1.893271 0.000000 0.205941
# 5 -0.006730 0.002829 -0.001363 0.000000 0.024649 0.000000
# 6 0.000000 0.000000 0.000000 0.205941 0.000000 0.015254
#
#
# Mechanical properties :
#
#
# Convention : Reuss Voigt Hill
#
# Bulk Modulus (GPa) = 36.73782 57.85673 47.29727
# Shear Modulus (GPa) = -2.80488 29.46830 13.33171
#
# Velocity S-wave (km/s) = -1.08741 3.52464 2.37072
# Velocity P-wave (km/s) = 3.72976 6.39962 5.23767
#
# Compressibility (1/GPa) = 0.02721991
#
# Stress axis : x y z
#
# Youngs Moduli (GPa) = 44.70787 73.56467 117.73456
#
# Poissons Ratio (x) = -0.05346 0.53358
# Poissons Ratio (y) = -0.03249 0.56654
# Poissons Ratio (z) = 0.20262 0.35399
#
# Static dielectric constant tensor:
#      x y z
#    x 2.073590 0.000000 0.009320 
#    y 0.000000 1.822670 0.000000 
#    z 0.009320 0.000000 1.899860 
# 
# From -- ./inp_files/18848.got.cif
#   From: 2010.05.17/outbox.cif.g08.bks.cpg/sg10_10_cif.got.tgz:18848.got - 2010.06.03 11:33:40.
