data_PCOD9144665
_publ_section_title
;
Structure prediction by ZEFSAII (Michael W. Deem and Ramdas Pophale) SiO2 
 PCOD9144665
Probable space group: P 2/M
;
_chemical_formula_sum "Si O2"
_cell_formula_units_Z 32
_cell_length_a 25.292103
_cell_length_b 7.603911
_cell_length_c 25.292087
_cell_angle_alpha 90.000000
_cell_angle_beta 18.139055
_cell_angle_gamma 90.000000
_cell_volume 1514.326791
_symmetry_space_group_name_H-M "P 2/M"
_symmetry_group_IT_number 10
_symmetry_cell_setting 'monoclinic'
loop_
_space_group_symop_operation_xyz
x,y,z
-x,y,-z
-x,-y,-z
x,-y,z
loop_
_atom_site_type_symbol
_atom_site_label
_atom_site_fract_x
_atom_site_fract_y
_atom_site_fract_z
Si Si1 0.351999 0.206254 0.472556
Si Si2 0.027443 0.206254 0.148002
Si Si3 0.577413 0.700799 0.479334
Si Si4 0.566273 0.712361 0.066276
Si Si5 0.628816 0.789505 0.128815
Si Si6 0.220298 0.285459 0.341280
Si Si7 0.020666 0.700799 0.922587
Si Si8 0.841276 0.285459 0.720301
O O1 0.160154 0.281792 0.660153
O O2 0.442824 0.219857 0.443451
O O3 0.474486 0.282012 0.311311
O O4 0.330729 0.000000 0.481483
O O5 0.056549 0.219857 0.057176
O O6 0.018516 0.000000 0.169272
O O7 0.188688 0.282012 0.025515
O O8 0.500000 0.784213 0.500000
O O9 0.512247 0.500000 0.544200
O O10 0.778561 0.698055 0.278561
O O11 0.564553 0.500000 0.064556
O O12 0.597270 0.760084 0.097268
O O13 0.384538 0.775256 0.217024
O O14 0.717019 0.775256 0.884541
O O15 0.633601 0.000000 0.133600
O O16 0.221044 0.500000 0.341193
O O17 0.224080 0.233800 0.275920
O O18 0.037759 0.229643 0.537763
O O19 0.955801 0.500000 0.987752
O O20 0.000000 0.784213 0.000000
O O21 0.841189 0.500000 0.721047
#
# Coordination Sequence:
#
# PCOD9144665 Si02
#       8
#     4   4   4   4   4   4   4   4
#     4   9  19  36  53  68  90 123 163 201 235 280
#     4   9  19  36  53  68  90 123 163 201 235 280
#     4   9  18  31  48  73 100 123 148 186 240 295
#     4  10  19  30  48  76 100 124 166 208 240 284
#     4  10  22  37  51  69  96 132 168 202 246 290
#     4   8  14  26  46  73 104 133 160 198 246 288
#     4   9  18  31  48  73 100 123 148 186 240 295
#     4   8  14  26  46  73 104 133 160 198 246 288
#
# _framework density 21.131501
#
# number of rings (size 3 to 8) (size 9 to 14) (size 15 to 20)
#    0.000    3.000    0.000    1.125    1.750    4.000 
#    0.000    0.000    0.000    1.500    0.000    1.750 
#    0.000    0.000    0.000    0.000    0.000    0.000 
#
# Total GULP energy -178441.589903 kJ/mol
# GULP energy per Si atom -5576.299684 kJ/mol
# Density = 2.108341 g / cm^3
# Si number density = 21.131501 Si / 1000 Ang^3
#
#
#
# Elastic Constant Matrix: (Units=GPa)
#
#
# Indices 1 2 3 4 5 6 
#
# 1 177.8256 -4.6246 131.3836 0.0000 2.8772 0.0000
# 2 -4.6246 41.1376 8.5476 0.0000 -2.3972 0.0000
# 3 131.3836 8.5476 153.6830 0.0000 1.5044 0.0000
# 4 0.0000 0.0000 0.0000 -24.6974 0.0000 9.5404
# 5 2.8772 -2.3972 1.5044 0.0000 15.5480 0.0000
# 6 0.0000 0.0000 0.0000 9.5404 0.0000 27.7247
#
#
#
# Elastic Compliance Matrix: (Units=1/GPa)
#
#
# Indices 1 2 3 4 5 6 
#
# 1 0.016140 0.004681 -0.014050 0.000000 -0.000906 0.000000
# 2 0.004681 0.026192 -0.005495 0.000000 0.003704 0.000000
# 3 -0.014050 -0.005495 0.018825 0.000000 -0.000069 0.000000
# 4 0.000000 0.000000 0.000000 -0.035739 0.000000 0.012298
# 5 -0.000906 0.003704 -0.000069 0.000000 0.065062 0.000000
# 6 0.000000 0.000000 0.000000 0.012298 0.000000 0.031837
#
#
# Mechanical properties :
#
#
# Convention : Reuss Voigt Hill
#
# Bulk Modulus (GPa) = 31.81694 71.47329 51.64512
# Shear Modulus (GPa) = 30.76512 19.53768 25.15140
#
# Velocity S-wave (km/s) = 3.81975 3.04398 3.45372
# Velocity P-wave (km/s) = 5.87736 6.80081 6.35587
#
# Compressibility (1/GPa) = 0.03142980
#
# Stress axis : x y z
#
# Youngs Moduli (GPa) = 61.95600 38.17899 53.12217
#
# Poissons Ratio (x) = -0.17872 0.74637
# Poissons Ratio (y) = -0.29002 0.29190
# Poissons Ratio (z) = 0.87048 0.20979
#
# Static dielectric constant tensor:
#      x y z
#    x 1.725280 0.000000 -0.009290 
#    y 0.000000 1.799820 0.000000 
#    z -0.009290 0.000000 1.776350 
# 
# From -- ./inp_files/86259.got.cif
#   From: 2010.05.17/outbox.cif.g08.bks.cpg/sg10_44_cif.got.tgz:86259.got - 2010.06.03 11:33:40.
