data_PCOD9144213
_publ_section_title
;
Structure prediction by ZEFSAII (Michael W. Deem and Ramdas Pophale) SiO2 
 PCOD9144213
Probable space group: P 2/M
;
_chemical_formula_sum "Si O2"
_cell_formula_units_Z 32
_cell_length_a 16.417799
_cell_length_b 9.127393
_cell_length_c 31.011527
_cell_angle_alpha 90.000000
_cell_angle_beta 29.624736
_cell_angle_gamma 90.000000
_cell_volume 2297.156380
_symmetry_space_group_name_H-M "P 2/M"
_symmetry_group_IT_number 10
_symmetry_cell_setting 'monoclinic'
loop_
_space_group_symop_operation_xyz
x,y,z
-x,y,-z
-x,-y,-z
x,-y,z
loop_
_atom_site_type_symbol
_atom_site_label
_atom_site_fract_x
_atom_site_fract_y
_atom_site_fract_z
Si Si1 0.366748 0.174123 0.154917
Si Si2 0.198247 0.825877 0.323418
Si Si3 0.088991 0.825276 0.026535
Si Si4 0.257587 0.825277 0.857940
Si Si5 0.602402 0.676048 0.690889
Si Si6 0.904157 0.668183 0.498084
Si Si7 0.277469 0.323952 0.015821
Si Si8 0.697434 0.668183 0.900325
O O1 0.263872 0.205311 0.245376
O O2 0.543880 0.253503 0.075918
O O3 0.277718 0.232312 0.152769
O O4 0.393317 0.000000 0.139699
O O5 0.315515 0.746497 0.304284
O O6 0.013744 0.767689 0.416744
O O7 0.205731 0.000000 0.327285
O O8 0.901815 0.794007 0.098185
O O9 0.102305 0.000000 0.028351
O O10 0.202479 0.792516 0.932507
O O11 0.151572 0.736337 0.038578
O O12 0.418876 0.736338 0.771273
O O13 0.289663 0.000000 0.840994
O O14 0.606067 0.500000 0.693129
O O15 0.720648 0.715340 0.596009
O O16 0.902660 0.500000 0.483377
O O17 0.000000 0.668749 0.500000
O O18 0.291523 0.500000 0.007674
O O19 0.229320 0.284660 0.087336
O O20 0.744547 0.500000 0.869415
O O21 0.500000 0.668750 0.000000
#
# Coordination Sequence:
#
# PCOD9144213 Si02
#       8
#     4   4   4   4   4   4   4   4
#     4  10  19  28  40  60  83 107 137 169 200 238
#     4  10  19  28  40  60  83 107 137 169 200 238
#     4   9  18  31  44  59  81 108 138 171 203 235
#     4   9  18  31  44  59  81 108 138 171 203 235
#     4  10  19  29  42  60  81 107 139 170 201 239
#     4   8  16  29  41  56  79 105 134 167 200 236
#     4  10  19  29  42  60  81 107 139 170 201 239
#     4   8  16  29  41  56  79 105 134 167 200 236
#
# _framework density 13.930266
#
# number of rings (size 3 to 8) (size 9 to 14) (size 15 to 20)
#    0.000    2.750    0.000    4.500    0.000   11.500 
#    0.000    1.250    0.000    0.000    0.000    0.000 
#    0.000    1.000    0.000   11.000    0.000    8.000 
#
# Total GULP energy -178266.977763 kJ/mol
# GULP energy per Si atom -5570.843055 kJ/mol
# Density = 1.389856 g / cm^3
# Si number density = 13.930266 Si / 1000 Ang^3
#
#
#
# Elastic Constant Matrix: (Units=GPa)
#
#
# Indices 1 2 3 4 5 6 
#
# 1 85.8149 43.5643 35.4149 0.0000 8.5216 0.0000
# 2 43.5643 54.7139 48.4776 0.0000 8.7713 0.0000
# 3 35.4149 48.4776 91.7708 0.0000 2.1116 0.0000
# 4 0.0000 0.0000 0.0000 23.8757 0.0000 1.1875
# 5 8.5216 8.7713 2.1116 0.0000 16.1419 0.0000
# 6 0.0000 0.0000 0.0000 1.1875 0.0000 23.2108
#
#
#
# Elastic Compliance Matrix: (Units=1/GPa)
#
#
# Indices 1 2 3 4 5 6 
#
# 1 0.019676 -0.016374 0.001094 0.000000 -0.001633 0.000000
# 2 -0.016374 0.052898 -0.021226 0.000000 -0.017323 0.000000
# 3 0.001094 -0.021226 0.021500 0.000000 0.008144 0.000000
# 4 0.000000 0.000000 0.000000 0.041990 0.000000 -0.002148
# 5 -0.001633 -0.017323 0.008144 0.000000 0.071161 0.000000
# 6 0.000000 0.000000 0.000000 -0.002148 0.000000 0.043193
#
#
# Mechanical properties :
#
#
# Convention : Reuss Voigt Hill
#
# Bulk Modulus (GPa) = 47.47885 54.13481 50.80683
# Shear Modulus (GPa) = 15.13091 19.63519 17.38305
#
# Velocity S-wave (km/s) = 3.29931 3.75845 3.53634
# Velocity P-wave (km/s) = 6.97647 7.60133 7.29560
#
# Compressibility (1/GPa) = 0.02106201
#
# Stress axis : x y z
#
# Youngs Moduli (GPa) = 50.82350 18.90443 46.51257
#
# Poissons Ratio (x) = 0.30954 -0.05088
# Poissons Ratio (y) = 0.83218 0.98726
# Poissons Ratio (z) = -0.05560 0.40126
#
# Static dielectric constant tensor:
#      x y z
#    x 1.453820 0.000000 0.003070 
#    y 0.000000 1.464640 0.000000 
#    z 0.003070 0.000000 1.455540 
# 
# From -- ./inp_files/72228.got.cif
#   From: 2010.05.17/outbox.cif.g08.bks.cpg/sg10_37_cif.got.tgz:72228.got - 2010.06.03 11:33:40.
