data_PCOD9144441
_publ_section_title
;
Structure prediction by ZEFSAII (Michael W. Deem and Ramdas Pophale) SiO2 
 PCOD9144441
Probable space group: P 2/M
;
_chemical_formula_sum "Si O2"
_cell_formula_units_Z 24
_cell_length_a 12.390937
_cell_length_b 7.799077
_cell_length_c 20.876117
_cell_angle_alpha 90.000000
_cell_angle_beta 39.590380
_cell_angle_gamma 90.000000
_cell_volume 1285.693136
_symmetry_space_group_name_H-M "P 2/M"
_symmetry_group_IT_number 10
_symmetry_cell_setting 'monoclinic'
loop_
_space_group_symop_operation_xyz
x,y,z
-x,y,-z
-x,-y,-z
x,-y,z
loop_
_atom_site_type_symbol
_atom_site_label
_atom_site_fract_x
_atom_site_fract_y
_atom_site_fract_z
Si Si1 0.927147 0.804525 0.343451
Si Si2 0.574697 0.699459 0.556412
Si Si3 0.162407 0.799137 0.890050
Si Si4 0.196716 0.700384 0.730671
Si Si5 0.539916 0.791257 0.718604
Si Si6 0.893016 0.790610 0.611815
O O1 0.732961 0.798079 0.455818
O O2 0.924911 0.722384 0.274238
O O3 0.031081 0.727466 0.355596
O O4 0.982545 0.000000 0.309715
O O5 0.592354 0.500000 0.528898
O O6 0.386311 0.763051 0.625518
O O7 0.581782 0.717271 0.629694
O O8 0.144131 0.784625 0.821554
O O9 0.349810 0.731315 0.821951
O O10 0.168076 0.000000 0.904568
O O11 0.000000 0.721847 0.000000
O O12 0.217125 0.500000 0.735585
O O13 0.696311 0.745812 0.692471
O O14 0.537455 0.000000 0.713965
O O15 0.000000 0.734874 0.500000
O O16 0.906623 0.000000 0.606461
#
# Coordination Sequence:
#
# PCOD9144441 Si02
#       6
#     4   4   4   4   4   4
#     4  11  20  30  47  68  95 131 166 197 231 277
#     4  10  19  30  44  66  98 130 160 195 233 279
#     4   9  18  33  55  79  96 115 153 203 247 287
#     4  10  21  34  47  68  98 128 159 195 240 290
#     4   9  16  30  50  70  96 127 158 195 237 279
#     4   9  16  28  46  69  96 128 165 195 225 274
#
# _framework density 18.666972999999999
#
# number of rings (size 3 to 8) (size 9 to 14) (size 15 to 20)
#    0.000    2.333    1.667    2.000    0.000    4.333 
#    0.000    2.500    0.000    1.000    0.000    7.000 
#    0.000    0.000    0.000    0.000    0.000    0.000 
#
# Total GULP energy -133814.251773 kJ/mol
# GULP energy per Si atom -5575.593824 kJ/mol
# Density = 1.862449 g / cm^3
# Si number density = 18.666973 Si / 1000 Ang^3
#
#
#
# Elastic Constant Matrix: (Units=GPa)
#
#
# Indices 1 2 3 4 5 6 
#
# 1 154.4516 -1.7898 46.6744 0.0000 -5.2484 0.0000
# 2 -1.7898 24.6889 -1.6494 0.0000 -4.2914 0.0000
# 3 46.6744 -1.6494 87.1078 0.0000 -15.8200 0.0000
# 4 0.0000 0.0000 0.0000 27.5392 0.0000 44.1961
# 5 -5.2484 -4.2914 -15.8200 0.0000 8.6358 0.0000
# 6 0.0000 0.0000 0.0000 44.1961 0.0000 71.3539
#
#
#
# Elastic Compliance Matrix: (Units=1/GPa)
#
#
# Indices 1 2 3 4 5 6 
#
# 1 0.007843 -0.000622 -0.005102 0.000000 -0.004889 0.000000
# 2 -0.000622 0.047668 0.008196 0.000000 0.038325 0.000000
# 3 -0.005102 0.008196 0.021798 0.000000 0.040904 0.000000
# 4 0.000000 0.000000 0.000000 6.078024 0.000000 -3.764680
# 5 -0.004889 0.038325 0.040904 0.000000 0.206804 0.000000
# 6 0.000000 0.000000 0.000000 -3.764680 0.000000 2.345827
#
#
# Mechanical properties :
#
#
# Convention : Reuss Voigt Hill
#
# Bulk Modulus (GPa) = 12.15763 39.19096 25.67429
# Shear Modulus (GPa) = 0.57271 36.37333 18.47302
#
# Velocity S-wave (km/s) = 0.55450 4.41901 3.14922
# Velocity P-wave (km/s) = 2.63382 6.86129 5.19684
#
# Compressibility (1/GPa) = 0.08225287
#
# Stress axis : x y z
#
# Youngs Moduli (GPa) = 127.50166 20.97838 45.87598
#
# Poissons Ratio (x) = 0.01305 0.23407
# Poissons Ratio (y) = 0.07933 -0.37602
# Poissons Ratio (z) = 0.65055 -0.17195
#
# Static dielectric constant tensor:
#      x y z
#    x 1.682020 0.000000 -0.018060 
#    y 0.000000 1.671760 0.000000 
#    z -0.018060 0.000000 1.634280 
# 
# From -- ./inp_files/45130.got.cif
#   From: 2010.05.17/outbox.cif.g08.bks.cpg/sg10_23_cif.got.tgz:45130.got - 2010.06.03 11:33:40.
