data_PCOD9144135
_publ_section_title
;
Structure prediction by ZEFSAII (Michael W. Deem and Ramdas Pophale) SiO2 
 PCOD9144135
Probable space group: P 2/M
;
_chemical_formula_sum "Si O2"
_cell_formula_units_Z 30
_cell_length_a 25.996422
_cell_length_b 12.205598
_cell_length_c 14.633744
_cell_angle_alpha 90.000000
_cell_angle_beta 20.044250
_cell_angle_gamma 90.000000
_cell_volume 1591.476396
_symmetry_space_group_name_H-M "P 2/M"
_symmetry_group_IT_number 10
_symmetry_cell_setting 'monoclinic'
loop_
_space_group_symop_operation_xyz
x,y,z
-x,y,-z
-x,-y,-z
x,-y,z
loop_
_atom_site_type_symbol
_atom_site_label
_atom_site_fract_x
_atom_site_fract_y
_atom_site_fract_z
Si Si1 0.896213 0.368800 0.024008
Si Si2 0.500000 0.293750 0.500000
Si Si3 0.517360 0.876859 0.307664
Si Si4 0.175703 0.624047 0.061111
Si Si5 0.609771 0.281572 0.612973
Si Si6 0.761144 0.628923 0.528819
Si Si7 0.845448 0.794378 0.740425
Si Si8 0.713411 0.374666 0.825155
O O1 0.881832 0.500000 0.053361
O O2 0.063606 0.342335 0.778903
O O3 0.889409 0.340366 0.928001
O O4 0.755172 0.320319 0.313250
O O5 0.521653 0.212894 0.550137
O O6 0.645020 0.368113 0.248130
O O7 0.438780 0.835750 0.345839
O O8 0.474298 0.000000 0.404443
O O9 0.696779 0.866652 0.997437
O O10 0.127806 0.500000 0.160096
O O11 0.144762 0.706279 0.194028
O O12 0.658371 0.296427 0.636566
O O13 0.457480 0.353290 0.855784
O O14 0.739840 0.500000 0.538299
O O15 0.723103 0.636619 0.699462
O O16 0.815848 0.717618 0.701431
O O17 0.000000 0.857731 0.500000
O O18 0.756405 0.500000 0.776468
#
# Coordination Sequence:
#
# PCOD9144135 Si02
#       8
#     4   2   4   4   4   4   4   4
#     4  10  19  31  50  79 114 146 176 211 257 322
#     4  10  18  36  54  78 104 140 172 214 268 320
#     4  10  22  38  58  78  98 132 183 236 280 317
#     4  10  19  30  50  82 118 146 170 202 255 326
#     4  11  20  34  53  78 103 136 180 232 269 312
#     4  10  20  33  52  78 111 150 182 210 256 320
#     4  10  21  35  53  78 110 146 178 215 268 322
#     4  10  20  33  51  78 112 148 182 211 250 319
#
# _framework density 18.850421000000001
#
# number of rings (size 3 to 8) (size 9 to 14) (size 15 to 20)
#    0.000    1.867    1.333    3.600    0.000    4.533 
#    0.000    0.000    0.000    8.000    0.000    0.000 
#    0.000    0.000    0.000    0.000    0.000    0.000 
#
# Total GULP energy -167381.236370 kJ/mol
# GULP energy per Si atom -5579.374546 kJ/mol
# Density = 1.880752 g / cm^3
# Si number density = 18.850421 Si / 1000 Ang^3
#
#
#
# Elastic Constant Matrix: (Units=GPa)
#
#
# Indices 1 2 3 4 5 6 
#
# 1 70.7599 16.5284 10.1870 0.0000 -10.2023 0.0000
# 2 16.5284 45.7181 7.7440 0.0000 0.5202 0.0000
# 3 10.1870 7.7440 78.9433 0.0000 -11.2073 0.0000
# 4 0.0000 0.0000 0.0000 2.2336 0.0000 -1.9215
# 5 -10.2023 0.5202 -11.2073 0.0000 29.3451 0.0000
# 6 0.0000 0.0000 0.0000 -1.9215 0.0000 9.3620
#
#
#
# Elastic Compliance Matrix: (Units=1/GPa)
#
#
# Indices 1 2 3 4 5 6 
#
# 1 0.016407 -0.005866 -0.000758 0.000000 0.005519 0.000000
# 2 -0.005866 0.024387 -0.002100 0.000000 -0.003274 0.000000
# 3 -0.000758 -0.002100 0.013681 0.000000 0.004998 0.000000
# 4 0.000000 0.000000 0.000000 0.543710 0.000000 0.111591
# 5 0.005519 -0.003274 0.004998 0.000000 0.037963 0.000000
# 6 0.000000 0.000000 0.000000 0.111591 0.000000 0.129718
#
#
# Mechanical properties :
#
#
# Convention : Reuss Voigt Hill
#
# Bulk Modulus (GPa) = 27.00793 29.37112 28.18953
# Shear Modulus (GPa) = 6.28411 18.91892 12.60152
#
# Velocity S-wave (km/s) = 1.82782 3.17145 2.58834
# Velocity P-wave (km/s) = 4.33741 5.38756 4.89075
#
# Compressibility (1/GPa) = 0.03702616
#
# Stress axis : x y z
#
# Youngs Moduli (GPa) = 60.94815 41.00558 73.09510
#
# Poissons Ratio (x) = 0.24054 0.05543
# Poissons Ratio (y) = 0.35753 0.15350
# Poissons Ratio (z) = 0.04622 0.08611
#
# Static dielectric constant tensor:
#      x y z
#    x 1.685910 0.000000 -0.001460 
#    y 0.000000 1.599150 0.000000 
#    z -0.001460 0.000000 1.723170 
# 
# From -- ./inp_files/72374.got.cif
#   From: 2010.05.17/outbox.cif.g08.bks.cpg/sg10_37_cif.got.tgz:72374.got - 2010.06.03 11:33:40.
