data_PCOD9144410
_publ_section_title
;
Structure prediction by ZEFSAII (Michael W. Deem and Ramdas Pophale) SiO2 
 PCOD9144410
Probable space group: P 2/M
;
_chemical_formula_sum "Si O2"
_cell_formula_units_Z 20
_cell_length_a 18.769886
_cell_length_b 13.890196
_cell_length_c 5.319762
_cell_angle_alpha 90.000000
_cell_angle_beta 98.146871
_cell_angle_gamma 90.000000
_cell_volume 1372.957434
_symmetry_space_group_name_H-M "P 2/M"
_symmetry_group_IT_number 10
_symmetry_cell_setting 'monoclinic'
loop_
_space_group_symop_operation_xyz
x,y,z
-x,y,-z
-x,-y,-z
x,-y,z
loop_
_atom_site_type_symbol
_atom_site_label
_atom_site_fract_x
_atom_site_fract_y
_atom_site_fract_z
Si Si1 0.707869 0.116615 0.353934
Si Si2 0.086578 0.272094 0.043290
Si Si3 0.204254 0.115879 0.102128
Si Si4 0.542489 0.117436 0.271245
Si Si5 0.087242 0.389963 0.543622
O O1 0.750644 0.143447 0.626983
O O2 0.625276 0.150269 0.312638
O O3 0.704924 0.000000 0.352462
O O4 0.750643 0.143446 0.123658
O O5 0.129350 0.172326 0.064674
O O6 0.106967 0.332549 0.301809
O O7 0.106967 0.332550 0.805161
O O8 0.000000 0.258431 0.000000
O O9 0.194480 0.000000 0.097241
O O10 0.500000 0.147265 0.500000
O O11 0.543510 0.000000 0.271755
O O12 0.500000 0.147265 0.000000
O O13 0.113667 0.500000 0.556833
O O14 0.000000 0.394408 0.500000
#
# Coordination Sequence:
#
# PCOD9144410 Si02
#       5
#     4   4   4   4   4
#     4   9  17  28  40  55  78 110 145 176 208 246
#     4  10  19  30  45  64  83 108 146 182 212 249
#     4  10  19  30  42  57  83 118 151 179 205 238
#     4   9  15  23  37  56  75  97 133 178 211 238
#     4   9  17  30  47  65  83 101 128 174 226 270
#
# _framework density 14.567094000000001
#
# number of rings (size 3 to 8) (size 9 to 14) (size 15 to 20)
#    0.000    2.600    0.000    3.000    0.000    7.600 
#    0.000    0.000    0.000    7.200    0.000    0.000 
#    0.000    0.000    0.000    0.000    0.000  252.000 
#
# Total GULP energy -111412.034120 kJ/mol
# GULP energy per Si atom -5570.601706 kJ/mol
# Density = 1.453394 g / cm^3
# Si number density = 14.567094 Si / 1000 Ang^3
#
#
#
# Elastic Constant Matrix: (Units=GPa)
#
#
# Indices 1 2 3 4 5 6 
#
# 1 83.3258 38.7466 57.3720 0.0000 0.2858 0.0000
# 2 38.7466 49.6710 40.5029 0.0000 -0.1481 0.0000
# 3 57.3720 40.5029 157.7006 0.0000 -6.5352 0.0000
# 4 0.0000 0.0000 0.0000 7.6762 0.0000 -0.6072
# 5 0.2858 -0.1481 -6.5352 0.0000 11.8496 0.0000
# 6 0.0000 0.0000 0.0000 -0.6072 0.0000 0.4495
#
#
#
# Elastic Compliance Matrix: (Units=1/GPa)
#
#
# Indices 1 2 3 4 5 6 
#
# 1 0.021047 -0.012747 -0.004514 0.000000 -0.003156 0.000000
# 2 -0.012747 0.033317 -0.003981 0.000000 -0.001471 0.000000
# 3 -0.004514 -0.003981 0.009219 0.000000 0.005143 0.000000
# 4 0.000000 0.000000 0.000000 0.145859 0.000000 0.197036
# 5 -0.003156 -0.001471 0.005143 0.000000 0.087286 0.000000
# 6 0.000000 0.000000 0.000000 0.197036 0.000000 2.490977
#
#
# Mechanical properties :
#
#
# Convention : Reuss Voigt Hill
#
# Bulk Modulus (GPa) = 47.39237 62.66003 55.02620
# Shear Modulus (GPa) = 1.76229 14.26677 8.01453
#
# Velocity S-wave (km/s) = 1.10109 3.13290 2.34814
# Velocity P-wave (km/s) = 5.84987 7.49633 6.72369
#
# Compressibility (1/GPa) = 0.02110044
#
# Stress axis : x y z
#
# Youngs Moduli (GPa) = 47.51226 30.01439 108.47303
#
# Poissons Ratio (x) = 0.38259 0.48965
# Poissons Ratio (y) = 0.60563 0.43180
# Poissons Ratio (z) = 0.21447 0.11948
#
# Static dielectric constant tensor:
#      x y z
#    x 1.469840 0.000000 -0.002010 
#    y 0.000000 1.452510 0.000000 
#    z -0.002010 0.000000 1.493820 
# 
# From -- ./inp_files/8867.got.cif
#   From: 2010.05.17/outbox.cif.g08.bks.cpg/sg10_5_cif.got.tgz:8867.got - 2010.06.03 11:33:40.
