data_PCOD9144612
_publ_section_title
;
Structure prediction by ZEFSAII (Michael W. Deem and Ramdas Pophale) SiO2 
 PCOD9144612
Probable space group: P 2/M
;
_chemical_formula_sum "Si O2"
_cell_formula_units_Z 32
_cell_length_a 13.593020
_cell_length_b 14.139942
_cell_length_c 14.951909
_cell_angle_alpha 90.000000
_cell_angle_beta 139.453421
_cell_angle_gamma 90.000000
_cell_volume 1868.175570
_symmetry_space_group_name_H-M "P 2/M"
_symmetry_group_IT_number 10
_symmetry_cell_setting 'monoclinic'
loop_
_space_group_symop_operation_xyz
x,y,z
-x,y,-z
-x,-y,-z
x,-y,z
loop_
_atom_site_type_symbol
_atom_site_label
_atom_site_fract_x
_atom_site_fract_y
_atom_site_fract_z
Si Si1 0.801489 0.723561 0.569361
Si Si2 0.674090 0.611495 0.647716
Si Si3 0.870440 0.736759 0.131171
Si Si4 0.166618 0.610019 0.582907
Si Si5 0.984867 0.887950 0.887454
Si Si6 0.663309 0.111558 0.568574
Si Si7 0.320947 0.606565 0.879504
Si Si8 0.162911 0.392563 0.065276
O O1 0.763373 0.661969 0.630666
O O2 0.771596 0.670138 0.456779
O O3 0.705345 0.819325 0.515975
O O4 0.981293 0.735446 0.703531
O O5 0.500000 0.622963 0.500000
O O6 0.710724 0.500000 0.673015
O O7 0.720849 0.646274 0.778953
O O8 0.897705 0.835938 0.097700
O O9 0.739794 0.694070 0.103875
O O10 0.860960 0.665732 0.040622
O O11 0.155614 0.500000 0.546377
O O12 0.265945 0.615912 0.739912
O O13 0.000000 0.640462 0.500000
O O14 0.810522 0.873681 0.734578
O O15 0.013378 0.000000 0.906227
O O16 0.000000 0.852877 0.000000
O O17 0.500000 0.135216 0.500000
O O18 0.658864 0.000000 0.542790
O O19 0.268639 0.500000 0.874515
O O20 0.500000 0.606307 0.000000
O O21 0.210252 0.500000 0.076025
O O22 0.000000 0.395571 0.000000
#
# Coordination Sequence:
#
# PCOD9144612 Si02
#       8
#     4   4   4   4   4   4   4   4
#     4  11  20  32  55  79 101 137 180 217 256 314
#     4  10  21  33  45  71 110 138 164 209 261 312
#     4  11  20  32  56  77 101 137 179 217 261 313
#     4  10  20  35  56  78 102 137 181 222 264 314
#     4   9  19  35  56  81 108 139 176 216 259 317
#     4   9  19  36  56  79 110 142 172 214 265 316
#     4  10  22  39  55  77 107 138 178 228 271 308
#     4  10  19  30  47  73 103 137 173 205 250 319
#
# _framework density 17.129010000000001
#
# number of rings (size 3 to 8) (size 9 to 14) (size 15 to 20)
#    0.000    2.000    2.500    1.500    1.750    2.000 
#    2.250    3.750    0.000    1.500    0.000    0.000 
#    0.000    0.000    0.000    0.000    0.000    0.000 
#
# Total GULP energy -178229.714707 kJ/mol
# GULP energy per Si atom -5569.678585 kJ/mol
# Density = 1.709002 g / cm^3
# Si number density = 17.129010 Si / 1000 Ang^3
#
#
#
# Elastic Constant Matrix: (Units=GPa)
#
#
# Indices 1 2 3 4 5 6 
#
# 1 76.9843 51.2644 24.5833 0.0000 -5.4401 0.0000
# 2 51.2644 74.5621 26.6352 0.0000 -0.7153 0.0000
# 3 24.5833 26.6352 66.0893 0.0000 -0.9517 0.0000
# 4 0.0000 0.0000 0.0000 15.0620 0.0000 0.7203
# 5 -5.4401 -0.7153 -0.9517 0.0000 22.9026 0.0000
# 6 0.0000 0.0000 0.0000 0.7203 0.0000 25.2698
#
#
#
# Elastic Compliance Matrix: (Units=1/GPa)
#
#
# Indices 1 2 3 4 5 6 
#
# 1 0.024996 -0.016168 -0.002705 0.000000 0.005320 0.000000
# 2 -0.016168 0.026127 -0.004562 0.000000 -0.003214 0.000000
# 3 -0.002705 -0.004562 0.017975 0.000000 -0.000038 0.000000
# 4 0.000000 0.000000 0.000000 0.066483 0.000000 -0.001895
# 5 0.005320 -0.003214 -0.000038 0.000000 0.044825 0.000000
# 6 0.000000 0.000000 0.000000 -0.001895 0.000000 0.039627
#
#
# Mechanical properties :
#
#
# Convention : Reuss Voigt Hill
#
# Bulk Modulus (GPa) = 44.98893 46.95573 45.97233
# Shear Modulus (GPa) = 18.22743 20.32375 19.27559
#
# Velocity S-wave (km/s) = 3.26563 3.44831 3.35822
# Velocity P-wave (km/s) = 6.36718 6.58232 6.47564
#
# Compressibility (1/GPa) = 0.02222769
#
# Stress axis : x y z
#
# Youngs Moduli (GPa) = 40.00639 38.27497 55.63248
#
# Poissons Ratio (x) = 0.61885 0.15049
# Poissons Ratio (y) = 0.64684 0.25378
# Poissons Ratio (z) = 0.10822 0.17460
#
# Static dielectric constant tensor:
#      x y z
#    x 1.571260 0.000000 0.016330 
#    y 0.000000 1.617790 0.000000 
#    z 0.016330 0.000000 1.607450 
# 
# From -- ./inp_files/65120.got.cif
#   From: 2010.05.17/outbox.cif.g08.bks.cpg/sg10_33_cif.got.tgz:65120.got - 2010.06.03 11:33:40.
