data_PCOD9144702
_publ_section_title
;
Structure prediction by ZEFSAII (Michael W. Deem and Ramdas Pophale) SiO2 
 PCOD9144702
Probable space group: P 2/M
;
_chemical_formula_sum "Si O2"
_cell_formula_units_Z 30
_cell_length_a 14.908445
_cell_length_b 14.859502
_cell_length_c 15.352078
_cell_angle_alpha 90.000000
_cell_angle_beta 152.488837
_cell_angle_gamma 90.000000
_cell_volume 1570.984405
_symmetry_space_group_name_H-M "P 2/M"
_symmetry_group_IT_number 10
_symmetry_cell_setting 'monoclinic'
loop_
_space_group_symop_operation_xyz
x,y,z
-x,y,-z
-x,-y,-z
x,-y,z
loop_
_atom_site_type_symbol
_atom_site_label
_atom_site_fract_x
_atom_site_fract_y
_atom_site_fract_z
Si Si1 0.500000 0.242086 0.500000
Si Si2 0.987033 0.397697 0.084564
Si Si3 0.938163 0.233802 0.545769
Si Si4 0.564609 0.343521 0.734999
Si Si5 0.856505 0.397602 0.600045
Si Si6 0.237391 0.896391 0.366605
Si Si7 0.139213 0.102079 0.848530
Si Si8 0.462747 0.839129 0.734511
O O1 0.544147 0.305740 0.619489
O O2 0.677545 0.175381 0.628028
O O3 0.065705 0.500000 0.143746
O O4 0.761242 0.397246 0.912564
O O5 0.000000 0.354461 0.000000
O O6 0.089628 0.358360 0.257876
O O7 0.925235 0.328526 0.585946
O O8 0.726236 0.186256 0.371376
O O9 0.000000 0.244939 0.500000
O O10 0.087303 0.171174 0.727558
O O11 0.375593 0.398061 0.599023
O O12 0.561983 0.254479 0.791532
O O13 0.931400 0.500000 0.656501
O O14 0.371789 0.883805 0.569011
O O15 0.016448 0.878590 0.207796
O O16 0.251348 0.000000 0.348420
O O17 0.094821 0.000000 0.782093
O O18 0.361971 0.107796 0.070440
#
# Coordination Sequence:
#
# PCOD9144702 Si02
#       8
#     2   4   4   4   4   4   4   4
#     4  10  19  30  49  76 108 150 186 228 280 322
#     4  10  20  32  50  76 104 137 176 219 265 315
#     4  10  22  39  58  84 114 141 179 233 286 337
#     4  10  19  32  50  73 106 141 178 224 270 319
#     4  10  21  38  59  81 108 145 186 228 279 335
#     4   9  18  33  51  74 107 145 188 233 273 320
#     4  10  20  36  58  80 108 147 186 225 273 329
#     4   9  19  34  54  77 103 142 182 222 273 328
#
# _framework density 19.096306999999999
#
# number of rings (size 3 to 8) (size 9 to 14) (size 15 to 20)
#    0.000    2.267    0.000    3.400    0.000    2.667 
#    0.000    5.333    0.000    7.200    0.000    7.467 
#    0.000    0.000    0.000    0.000    0.000    0.000 
#
# Total GULP energy -167339.355502 kJ/mol
# GULP energy per Si atom -5577.978517 kJ/mol
# Density = 1.905284 g / cm^3
# Si number density = 19.096307 Si / 1000 Ang^3
#
#
#
# Elastic Constant Matrix: (Units=GPa)
#
#
# Indices 1 2 3 4 5 6 
#
# 1 78.4640 20.6643 15.6473 0.0000 -7.1459 0.0000
# 2 20.6643 79.1014 8.6023 0.0000 -2.7170 0.0000
# 3 15.6473 8.6023 63.6547 0.0000 13.9915 0.0000
# 4 0.0000 0.0000 0.0000 29.3145 0.0000 4.3257
# 5 -7.1459 -2.7170 13.9915 0.0000 14.2091 0.0000
# 6 0.0000 0.0000 0.0000 4.3257 0.0000 16.0071
#
#
#
# Elastic Compliance Matrix: (Units=1/GPa)
#
#
# Indices 1 2 3 4 5 6 
#
# 1 0.016152 -0.003010 -0.006665 0.000000 0.014110 0.000000
# 2 -0.003010 0.013713 -0.001732 0.000000 0.002814 0.000000
# 3 -0.006665 -0.001732 0.023472 0.000000 -0.026795 0.000000
# 4 0.000000 0.000000 0.000000 0.035530 0.000000 -0.009601
# 5 0.014110 0.002814 -0.026795 0.000000 0.104397 0.000000
# 6 0.000000 0.000000 0.000000 -0.009601 0.000000 0.065067
#
#
# Mechanical properties :
#
#
# Convention : Reuss Voigt Hill
#
# Bulk Modulus (GPa) = 32.76186 34.56087 33.66137
# Shear Modulus (GPa) = 17.16337 23.65988 20.41162
#
# Velocity S-wave (km/s) = 3.00122 3.52373 3.27292
# Velocity P-wave (km/s) = 5.40399 5.89008 5.65226
#
# Compressibility (1/GPa) = 0.03052329
#
# Stress axis : x y z
#
# Youngs Moduli (GPa) = 61.91342 72.92204 42.60416
#
# Poissons Ratio (x) = 0.21949 0.28396
# Poissons Ratio (y) = 0.18635 0.07378
# Poissons Ratio (z) = 0.41265 0.12629
#
# Static dielectric constant tensor:
#      x y z
#    x 1.651440 0.000000 0.007070 
#    y 0.000000 1.703900 0.000000 
#    z 0.007070 0.000000 1.678840 
# 
# From -- ./inp_files/67604.got.cif
#   From: 2010.05.17/outbox.cif.g08.bks.cpg/sg10_34_cif.got.tgz:67604.got - 2010.06.03 11:33:40.
