data_PCOD9144829
_publ_section_title
;
Structure prediction by ZEFSAII (Michael W. Deem and Ramdas Pophale) SiO2 
 PCOD9144829
Probable space group: P 2/M
;
_chemical_formula_sum "Si O2"
_cell_formula_units_Z 28
_cell_length_a 9.377382
_cell_length_b 31.280308
_cell_length_c 5.271845
_cell_angle_alpha 90.000000
_cell_angle_beta 45.526399
_cell_angle_gamma 90.000000
_cell_volume 1103.453060
_symmetry_space_group_name_H-M "P 2/M"
_symmetry_group_IT_number 10
_symmetry_cell_setting 'monoclinic'
loop_
_space_group_symop_operation_xyz
x,y,z
-x,y,-z
-x,-y,-z
x,-y,z
loop_
_atom_site_type_symbol
_atom_site_label
_atom_site_fract_x
_atom_site_fract_y
_atom_site_fract_z
Si Si1 0.735784 0.264382 0.175154
Si Si2 0.257382 0.596329 0.321269
Si Si3 0.637225 0.046361 0.580156
Si Si4 0.743625 0.548575 0.179128
Si Si5 0.230404 0.138240 0.677930
Si Si6 0.765426 0.824634 0.834230
Si Si7 0.744208 0.306877 0.670169
O O1 0.500000 0.271682 0.500000
O O2 0.808700 0.272916 0.371710
O O3 0.751949 0.219518 0.006315
O O4 0.815146 0.297334 0.867037
O O5 0.194462 0.564092 0.620239
O O6 0.204336 0.644671 0.461883
O O7 0.500000 0.595904 0.000000
O O8 0.195038 0.580777 0.120664
O O9 0.500000 0.047281 0.500000
O O10 0.763094 0.089655 0.423469
O O11 0.744085 0.000000 0.448023
O O12 0.500000 0.047620 0.000000
O O13 0.500000 0.548927 0.500000
O O14 0.802925 0.500000 0.047619
O O15 0.315432 0.169499 0.351790
O O16 0.315251 0.141764 0.857898
O O17 0.000000 0.151154 0.000000
O O18 0.000000 0.833000 0.500000
O O19 0.500000 0.304122 0.000000
#
# Coordination Sequence:
#
# PCOD9144829 Si02
#       7
#     4   4   4   4   4   4   4
#     4  10  19  31  47  68  92 120 159 201 240 289
#     4   9  15  23  34  48  71 104 141 185 231 270
#     4  10  21  37  57  83 113 142 174 215 260 302
#     4   9  15  21  30  46  69 101 144 186 222 270
#     4  10  21  37  56  78 105 139 176 211 250 305
#     4  10  21  36  53  75 103 133 168 209 254 301
#     4   9  17  28  42  61  85 114 153 198 239 285
#
# _framework density 25.374889
#
# number of rings (size 3 to 8) (size 9 to 14) (size 15 to 20)
#    0.000    2.429    0.000    3.000    0.000    7.143 
#    0.000    0.000    0.000    5.143    0.000    0.000 
#    0.000    0.000    0.000    0.000    0.000   50.000 
#
# Total GULP energy -156579.972780 kJ/mol
# GULP energy per Si atom -5592.141885 kJ/mol
# Density = 2.531713 g / cm^3
# Si number density = 25.374889 Si / 1000 Ang^3
#
#
#
# Elastic Constant Matrix: (Units=GPa)
#
#
# Indices 1 2 3 4 5 6 
#
# 1 100.3139 -7.8984 32.8300 0.0000 32.8808 0.0000
# 2 -7.8984 129.9286 53.4882 0.0000 30.5888 0.0000
# 3 32.8300 53.4882 168.8006 0.0000 34.3306 0.0000
# 4 0.0000 0.0000 0.0000 46.0465 0.0000 9.6330
# 5 32.8808 30.5888 34.3306 0.0000 55.9162 0.0000
# 6 0.0000 0.0000 0.0000 9.6330 0.0000 25.3048
#
#
#
# Elastic Compliance Matrix: (Units=1/GPa)
#
#
# Indices 1 2 3 4 5 6 
#
# 1 0.013895 0.003817 -0.002086 0.000000 -0.008978 0.000000
# 2 0.003817 0.010569 -0.002810 0.000000 -0.006301 0.000000
# 3 -0.002086 -0.002810 0.007608 0.000000 -0.001907 0.000000
# 4 0.000000 0.000000 0.000000 0.023596 0.000000 -0.008983
# 5 -0.008978 -0.006301 -0.001907 0.000000 0.027781 0.000000
# 6 0.000000 0.000000 0.000000 -0.008983 0.000000 0.042938
#
#
# Mechanical properties :
#
#
# Convention : Reuss Voigt Hill
#
# Bulk Modulus (GPa) = 33.42888 61.76476 47.59682
# Shear Modulus (GPa) = 36.09692 46.82839 41.46265
#
# Velocity S-wave (km/s) = 3.77576 4.30054 4.04667
# Velocity P-wave (km/s) = 5.67548 7.00381 6.37434
#
# Compressibility (1/GPa) = 0.02991425
#
# Stress axis : x y z
#
# Youngs Moduli (GPa) = 71.96960 94.61854 131.43839
#
# Poissons Ratio (x) = -0.36117 0.27418
# Poissons Ratio (y) = -0.27471 0.36932
# Poissons Ratio (z) = 0.15013 0.26586
#
# Static dielectric constant tensor:
#      x y z
#    x 2.115330 0.000000 -0.041960 
#    y 0.000000 1.975440 0.000000 
#    z -0.041960 0.000000 1.963540 
# 
# From -- ./inp_files/10251.got.cif
#   From: 2010.05.17/outbox.cif.g08.bks.cpg/sg10_6_cif.got.tgz:10251.got - 2010.06.03 11:33:40.
