data_PCOD9144011
_publ_section_title
;
Structure prediction by ZEFSAII (Michael W. Deem and Ramdas Pophale) SiO2 
 PCOD9144011
Probable space group: P 2/M
;
_chemical_formula_sum "Si O2"
_cell_formula_units_Z 28
_cell_length_a 13.879793
_cell_length_b 8.688294
_cell_length_c 17.969242
_cell_angle_alpha 90.000000
_cell_angle_beta 44.155973
_cell_angle_gamma 90.000000
_cell_volume 1509.522048
_symmetry_space_group_name_H-M "P 2/M"
_symmetry_group_IT_number 10
_symmetry_cell_setting 'monoclinic'
loop_
_space_group_symop_operation_xyz
x,y,z
-x,y,-z
-x,-y,-z
x,-y,z
loop_
_atom_site_type_symbol
_atom_site_label
_atom_site_fract_x
_atom_site_fract_y
_atom_site_fract_z
Si Si1 0.822673 0.816125 0.833182
Si Si2 0.602065 0.315758 0.255174
Si Si3 0.875150 0.187438 0.384555
Si Si4 0.684551 0.315419 0.047320
Si Si5 0.303524 0.184814 0.378754
Si Si6 0.348064 0.185684 0.615345
Si Si7 0.368829 0.315983 0.186187
O O1 0.703215 0.749570 0.846686
O O2 0.970804 0.761045 0.720265
O O3 0.819570 0.000000 0.831130
O O4 0.794245 0.763069 0.932907
O O5 0.583580 0.500000 0.265525
O O6 0.686877 0.275420 0.133400
O O7 0.451161 0.238436 0.330077
O O8 0.668797 0.259490 0.294471
O O9 0.814901 0.235147 0.497899
O O10 0.767411 0.234163 0.380028
O O11 0.875626 0.000000 0.384719
O O12 0.696796 0.500000 0.033695
O O13 0.530012 0.271291 0.105136
O O14 0.293649 0.254472 0.302031
O O15 0.302643 0.000000 0.374219
O O16 0.500000 0.226846 0.500000
O O17 0.343739 0.000000 0.624637
O O18 0.363570 0.500000 0.187938
#
# Coordination Sequence:
#
# PCOD9144011 Si02
#       7
#     4   4   4   4   4   4   4
#     4  11  22  36  55  79 107 142 184 225 265 317
#     4  10  20  34  54  84 114 138 173 226 275 313
#     4   9  20  36  53  79 113 142 175 223 272 315
#     4   9  20  38  56  75 107 144 177 220 271 316
#     4  10  18  34  57  80 108 143 181 219 266 321
#     4  10  18  34  59  82 106 143 182 217 264 321
#     4  10  21  37  56  80 110 141 178 225 272 316
#
# _framework density 18.548918
#
# number of rings (size 3 to 8) (size 9 to 14) (size 15 to 20)
#    0.000    2.143    1.429    3.000    0.000    6.000 
#    0.000    7.857    0.000    4.286    0.000    0.000 
#    0.000    0.000    0.000    0.000    0.000    0.000 
#
# Total GULP energy -156313.577450 kJ/mol
# GULP energy per Si atom -5582.627766 kJ/mol
# Density = 1.850670 g / cm^3
# Si number density = 18.548918 Si / 1000 Ang^3
#
#
#
# Elastic Constant Matrix: (Units=GPa)
#
#
# Indices 1 2 3 4 5 6 
#
# 1 24.9429 3.7691 8.5679 0.0000 16.7426 0.0000
# 2 3.7691 25.9551 23.0858 0.0000 2.9415 0.0000
# 3 8.5679 23.0858 119.8900 0.0000 19.9532 0.0000
# 4 0.0000 0.0000 0.0000 63.3045 0.0000 -18.1671
# 5 16.7426 2.9415 19.9532 0.0000 22.4998 0.0000
# 6 0.0000 0.0000 0.0000 -18.1671 0.0000 41.3486
#
#
#
# Elastic Compliance Matrix: (Units=1/GPa)
#
#
# Indices 1 2 3 4 5 6 
#
# 1 0.085301 -0.011279 0.007501 0.000000 -0.068652 0.000000
# 2 -0.011279 0.048074 -0.010326 0.000000 0.011265 0.000000
# 3 0.007501 -0.010326 0.012315 0.000000 -0.015153 0.000000
# 4 0.000000 0.000000 0.000000 0.018076 0.000000 0.007942
# 5 -0.068652 0.011265 -0.015153 0.000000 0.107495 0.000000
# 6 0.000000 0.000000 0.000000 0.007942 0.000000 0.027674
#
#
# Mechanical properties :
#
#
# Convention : Reuss Voigt Hill
#
# Bulk Modulus (GPa) = 8.51184 26.84817 17.68001
# Shear Modulus (GPa) = 13.64995 34.45493 24.05244
#
# Velocity S-wave (km/s) = 2.71567 4.31457 3.60488
# Velocity P-wave (km/s) = 3.79895 6.27107 5.18451
#
# Compressibility (1/GPa) = 0.11748334
#
# Stress axis : x y z
#
# Youngs Moduli (GPa) = 11.72324 20.80147 81.20085
#
# Poissons Ratio (x) = 0.23462 -0.60913
# Poissons Ratio (y) = 0.13222 0.83846
# Poissons Ratio (z) = -0.08794 0.21479
#
# Static dielectric constant tensor:
#      x y z
#    x 1.619440 0.000000 0.006830 
#    y 0.000000 1.625450 0.000000 
#    z 0.006830 0.000000 1.648870 
# 
# From -- ./inp_files/68689.got.cif
#   From: 2010.05.17/outbox.cif.g08.bks.cpg/sg10_35_cif.got.tgz:68689.got - 2010.06.03 11:33:40.
