data_PCOD9144996
_publ_section_title
;
Structure prediction by ZEFSAII (Michael W. Deem and Ramdas Pophale) SiO2 
 PCOD9144996
Probable space group: P 2/M
;
_chemical_formula_sum "Si O2"
_cell_formula_units_Z 24
_cell_length_a 21.782630
_cell_length_b 11.673877
_cell_length_c 21.787453
_cell_angle_alpha 90.000000
_cell_angle_beta 13.503666
_cell_angle_gamma 90.000000
_cell_volume 1293.697898
_symmetry_space_group_name_H-M "P 2/M"
_symmetry_group_IT_number 10
_symmetry_cell_setting 'monoclinic'
loop_
_space_group_symop_operation_xyz
x,y,z
-x,y,-z
-x,-y,-z
x,-y,z
loop_
_atom_site_type_symbol
_atom_site_label
_atom_site_fract_x
_atom_site_fract_y
_atom_site_fract_z
Si Si1 0.772905 0.750862 0.771517
Si Si2 0.775038 0.500000 0.269627
Si Si3 0.091790 0.751215 0.839693
Si Si4 0.227498 0.500000 0.228572
Si Si5 0.278658 0.860848 0.462114
Si Si6 0.743470 0.863410 0.927934
Si Si7 0.555994 0.137053 0.320401
O O1 0.790836 0.623624 0.784415
O O2 0.785345 0.835898 0.816169
O O3 0.000000 0.765418 0.500000
O O4 0.500000 0.761298 0.000000
O O5 0.500000 0.500000 0.500000
O O6 0.820382 0.620311 0.260229
O O7 0.000000 0.500000 0.000000
O O8 0.347657 0.827354 0.575623
O O9 0.000000 0.756908 0.000000
O O10 0.834404 0.798383 0.054970
O O11 0.000000 0.500000 0.500000
O O12 0.500000 0.500000 0.000000
O O13 0.408532 0.830757 0.400554
O O14 0.985773 0.819111 0.733245
O O15 0.268387 0.000000 0.471560
O O16 0.468885 0.820796 0.222316
O O17 0.738582 0.000000 0.939341
O O18 0.602372 0.000000 0.276531
#
# Coordination Sequence:
#
# PCOD9144996 Si02
#       7
#     4   2   4   2   4   4   4
#     4  10  19  31  49  73  99 127 160 204 256 302
#     4  10  20  38  58  77 106 147 190 216 250 322
#     4  11  22  36  57  83 110 142 177 221 272 320
#     4   8  16  30  46  65  92 127 162 190 231 300
#     4   9  19  35  52  71  98 139 179 202 239 307
#     4  10  19  32  51  73  99 131 168 208 247 298
#     4  11  22  36  56  82 112 143 177 221 271 323
#
# _framework density 18.551470999999999
#
# number of rings (size 3 to 8) (size 9 to 14) (size 15 to 20)
#    0.000    2.000    0.000    5.000    0.000    5.333 
#    0.000    0.000    0.000    6.000    0.000    0.000 
#    0.000    0.000    0.000    0.000    0.000    0.000 
#
# Total GULP energy -133773.554960 kJ/mol
# GULP energy per Si atom -5573.898123 kJ/mol
# Density = 1.850925 g / cm^3
# Si number density = 18.551471 Si / 1000 Ang^3
#
#
#
# Elastic Constant Matrix: (Units=GPa)
#
#
# Indices 1 2 3 4 5 6 
#
# 1 46.4177 9.0986 2.8943 0.0000 -4.4582 0.0000
# 2 9.0986 51.0053 18.8015 0.0000 -9.7793 0.0000
# 3 2.8943 18.8015 102.7999 0.0000 -11.7371 0.0000
# 4 0.0000 0.0000 0.0000 18.0594 0.0000 -11.3744
# 5 -4.4582 -9.7793 -11.7371 0.0000 30.7098 0.0000
# 6 0.0000 0.0000 0.0000 -11.3744 0.0000 -5.0098
#
#
#
# Elastic Compliance Matrix: (Units=1/GPa)
#
#
# Indices 1 2 3 4 5 6 
#
# 1 0.022460 -0.003694 0.000294 0.000000 0.002197 0.000000
# 2 -0.003694 0.022545 -0.003410 0.000000 0.005340 0.000000
# 3 0.000294 -0.003410 0.010690 0.000000 0.003043 0.000000
# 4 0.000000 0.000000 0.000000 0.022787 0.000000 -0.051737
# 5 0.002197 0.005340 0.003043 0.000000 0.035745 0.000000
# 6 0.000000 0.000000 0.000000 -0.051737 0.000000 -0.082144
#
#
# Mechanical properties :
#
#
# Convention : Reuss Voigt Hill
#
# Bulk Modulus (GPa) = 23.76595 29.09019 26.42807
# Shear Modulus (GPa) = 83.71088 20.04712 51.87900
#
# Velocity S-wave (km/s) = 6.72470 3.29085 5.29392
# Velocity P-wave (km/s) = 8.55184 5.49130 7.18639
#
# Compressibility (1/GPa) = 0.04207700
#
# Stress axis : x y z
#
# Youngs Moduli (GPa) = 44.52324 44.35486 93.54211
#
# Poissons Ratio (x) = 0.16384 -0.02750
# Poissons Ratio (y) = 0.16446 0.31895
# Poissons Ratio (z) = -0.01309 0.15124
#
# Static dielectric constant tensor:
#      x y z
#    x 1.627260 0.000000 -0.002180 
#    y 0.000000 1.689140 0.000000 
#    z -0.002180 0.000000 1.646710 
# 
# From -- ./inp_files/90788.got.cif
#   From: 2010.05.17/outbox.cif.g08.bks.cpg/sg10_46_cif.got.tgz:90788.got - 2010.06.03 11:33:40.
