data_PCOD9144128
_publ_section_title
;
Structure prediction by ZEFSAII (Michael W. Deem and Ramdas Pophale) SiO2 
 PCOD9144128
Probable space group: P 2/M
;
_chemical_formula_sum "Si O2"
_cell_formula_units_Z 28
_cell_length_a 9.415708
_cell_length_b 16.525821
_cell_length_c 21.939298
_cell_angle_alpha 90.000000
_cell_angle_beta 25.364168
_cell_angle_gamma 90.000000
_cell_volume 1462.372189
_symmetry_space_group_name_H-M "P 2/M"
_symmetry_group_IT_number 10
_symmetry_cell_setting 'monoclinic'
loop_
_space_group_symop_operation_xyz
x,y,z
-x,y,-z
-x,-y,-z
x,-y,z
loop_
_atom_site_type_symbol
_atom_site_label
_atom_site_fract_x
_atom_site_fract_y
_atom_site_fract_z
Si Si1 0.873347 0.909786 0.372504
Si Si2 0.728674 0.649286 0.467814
Si Si3 0.010128 0.500000 0.921474
Si Si4 0.694522 0.091784 0.580150
Si Si5 0.227435 0.751245 0.197108
Si Si6 0.736996 0.760559 0.276778
Si Si7 0.689659 0.500000 0.576103
Si Si8 0.083091 0.679553 0.039712
O O1 0.500000 0.883702 0.500000
O O2 0.853180 0.915808 0.452244
O O3 0.128664 0.841755 0.254683
O O4 0.929688 0.000000 0.324378
O O5 0.500000 0.622636 0.500000
O O6 0.557701 0.724727 0.567971
O O7 0.728560 0.577680 0.516785
O O8 0.054276 0.685357 0.309264
O O9 0.358111 0.500000 0.747879
O O10 0.000000 0.500000 0.000000
O O11 0.844385 0.586044 0.971292
O O12 0.373631 0.148978 0.698547
O O13 0.000000 0.127839 0.500000
O O14 0.617135 0.000000 0.631959
O O15 0.611826 0.734469 0.057347
O O16 0.058503 0.746672 0.195537
O O17 0.779119 0.709399 0.198960
O O18 0.000000 0.500000 0.500000
O O19 0.000000 0.685516 0.000000
#
# Coordination Sequence:
#
# PCOD9144128 Si02
#       8
#     4   4   2   4   4   4   2   4
#     4  10  18  35  63  95 125 159 203 255 307 362
#     4  10  22  39  63  91 125 153 200 260 309 363
#     4  10  24  47  60  85 127 161 207 254 312 385
#     4  10  21  35  60  95 130 163 202 255 313 366
#     4  11  22  39  62  95 123 163 205 252 308 367
#     4  11  21  41  62  90 125 161 208 255 301 373
#     4  12  25  39  67  94 120 158 206 263 320 367
#     4  11  26  42  65  84 124 167 207 255 312 375
#
# _framework density 19.146972999999999
#
# number of rings (size 3 to 8) (size 9 to 14) (size 15 to 20)
#    0.000    1.429    4.286    1.071    6.000    0.571 
#    0.000    2.857    0.000    2.571    0.000    0.000 
#    0.000    0.000    0.000    0.000    0.000    0.000 
#
# Total GULP energy -155992.331598 kJ/mol
# GULP energy per Si atom -5571.154700 kJ/mol
# Density = 1.910339 g / cm^3
# Si number density = 19.146973 Si / 1000 Ang^3
#
#
#
# Elastic Constant Matrix: (Units=GPa)
#
#
# Indices 1 2 3 4 5 6 
#
# 1 87.0134 22.9027 31.6482 0.0000 7.7479 0.0000
# 2 22.9027 122.7926 22.5754 0.0000 -2.3291 0.0000
# 3 31.6482 22.5754 55.5513 0.0000 8.8811 0.0000
# 4 0.0000 0.0000 0.0000 19.2301 0.0000 2.2062
# 5 7.7479 -2.3291 8.8811 0.0000 31.0958 0.0000
# 6 0.0000 0.0000 0.0000 2.2062 0.0000 24.0095
#
#
#
# Elastic Compliance Matrix: (Units=1/GPa)
#
#
# Indices 1 2 3 4 5 6 
#
# 1 0.014761 -0.001389 -0.007587 0.000000 -0.001615 0.000000
# 2 -0.001389 0.009025 -0.003185 0.000000 0.001932 0.000000
# 3 -0.007587 -0.003185 0.024472 0.000000 -0.005337 0.000000
# 4 0.000000 0.000000 0.000000 0.052556 0.000000 -0.004829
# 5 -0.001615 0.001932 -0.005337 0.000000 0.034230 0.000000
# 6 0.000000 0.000000 0.000000 -0.004829 0.000000 0.042094
#
#
# Mechanical properties :
#
#
# Convention : Reuss Voigt Hill
#
# Bulk Modulus (GPa) = 41.77886 46.62332 44.20109
# Shear Modulus (GPa) = 23.87326 27.41579 25.64452
#
# Velocity S-wave (km/s) = 3.53490 3.78810 3.66369
# Velocity P-wave (km/s) = 6.20710 6.59818 6.40563
#
# Compressibility (1/GPa) = 0.02393555
#
# Stress axis : x y z
#
# Youngs Moduli (GPa) = 67.74411 110.80178 40.86378
#
# Poissons Ratio (x) = 0.15390 0.31004
# Poissons Ratio (y) = 0.09410 0.13016
# Poissons Ratio (z) = 0.51398 0.35293
#
# Static dielectric constant tensor:
#      x y z
#    x 1.755210 0.000000 0.012020 
#    y 0.000000 1.722370 0.000000 
#    z 0.012020 0.000000 1.659650 
# 
# From -- ./inp_files/83004.got.cif
#   From: 2010.05.17/outbox.cif.g08.bks.cpg/sg10_42_cif.got.tgz:83004.got - 2010.06.03 11:33:40.
