data_PCOD9144252
_publ_section_title
;
Structure prediction by ZEFSAII (Michael W. Deem and Ramdas Pophale) SiO2 
 PCOD9144252
Probable space group: P 2/M
;
_chemical_formula_sum "Si O2"
_cell_formula_units_Z 32
_cell_length_a 17.004039
_cell_length_b 8.438585
_cell_length_c 24.509789
_cell_angle_alpha 90.000000
_cell_angle_beta 150.537753
_cell_angle_gamma 90.000000
_cell_volume 1729.792213
_symmetry_space_group_name_H-M "P 2/M"
_symmetry_group_IT_number 10
_symmetry_cell_setting 'monoclinic'
loop_
_space_group_symop_operation_xyz
x,y,z
-x,y,-z
-x,-y,-z
x,-y,z
loop_
_atom_site_type_symbol
_atom_site_label
_atom_site_fract_x
_atom_site_fract_y
_atom_site_fract_z
Si Si1 0.260284 0.310777 0.294161
Si Si2 0.473923 0.809797 0.730348
Si Si3 0.898513 0.690118 0.607573
Si Si4 0.894778 0.191670 0.487726
Si Si5 0.537621 0.189316 0.399536
Si Si6 0.998795 0.178402 0.935078
Si Si7 0.732054 0.681247 0.968714
Si Si8 0.022715 0.307438 0.795780
O O1 0.249501 0.500000 0.283518
O O2 0.443074 0.263205 0.393693
O O3 0.145102 0.263227 0.275263
O O4 0.173023 0.221915 0.191699
O O5 0.290830 0.758303 0.629586
O O6 0.520197 0.755911 0.696504
O O7 0.587283 0.759537 0.848426
O O8 0.476652 0.000000 0.729704
O O9 0.883601 0.500000 0.599329
O O10 0.954289 0.745111 0.581834
O O11 0.723516 0.763593 0.512298
O O12 0.010309 0.739563 0.725514
O O13 0.000000 0.243927 0.500000
O O14 0.897174 0.000000 0.491013
O O15 0.521835 0.000000 0.392695
O O16 0.045355 0.000000 0.945306
O O17 0.120966 0.304513 0.984786
O O18 0.000000 0.181212 0.000000
O O19 0.688419 0.500000 0.953208
O O20 0.821113 0.749867 0.076469
O O21 0.029220 0.500000 0.802504
#
# Coordination Sequence:
#
# PCOD9144252 Si02
#       8
#     4   4   4   4   4   4   4   4
#     4  10  19  31  46  65  92 130 176 216 252 293
#     4   9  18  32  50  73 101 130 159 197 248 298
#     4  10  19  34  55  75  98 129 167 206 245 295
#     4   9  19  37  59  82 108 131 151 189 249 305
#     4  10  20  33  47  69 102 134 168 213 263 302
#     4  10  19  29  41  60  90 127 166 211 259 297
#     4  10  19  31  48  69  95 129 168 205 243 290
#     4   8  18  34  48  67  98 135 170 209 253 288
#
# _framework density 18.49933
#
# number of rings (size 3 to 8) (size 9 to 14) (size 15 to 20)
#    0.000    2.500    0.000    4.125    0.000    7.250 
#    0.000   10.000    0.000    0.750    0.000    5.250 
#    0.000    0.000    0.000    0.000    0.000    0.000 
#
# Total GULP energy -178238.436297 kJ/mol
# GULP energy per Si atom -5569.951134 kJ/mol
# Density = 1.845722 g / cm^3
# Si number density = 18.499330 Si / 1000 Ang^3
#
#
#
# Elastic Constant Matrix: (Units=GPa)
#
#
# Indices 1 2 3 4 5 6 
#
# 1 81.2260 13.1399 45.3297 0.0000 -15.2869 0.0000
# 2 13.1399 21.9539 7.0267 0.0000 -6.8383 0.0000
# 3 45.3297 7.0267 92.0335 0.0000 -27.9187 0.0000
# 4 0.0000 0.0000 0.0000 20.0468 0.0000 -3.7712
# 5 -15.2869 -6.8383 -27.9187 0.0000 25.3164 0.0000
# 6 0.0000 0.0000 0.0000 -3.7712 0.0000 20.1596
#
#
#
# Elastic Compliance Matrix: (Units=1/GPa)
#
#
# Indices 1 2 3 4 5 6 
#
# 1 0.018348 -0.008442 -0.008600 0.000000 -0.000686 0.000000
# 2 -0.008442 0.053630 0.004375 0.000000 0.014213 0.000000
# 3 -0.008600 0.004375 0.020363 0.000000 0.018444 0.000000
# 4 0.000000 0.000000 0.000000 0.051703 0.000000 0.009672
# 5 -0.000686 0.014213 0.018444 0.000000 0.063266 0.000000
# 6 0.000000 0.000000 0.000000 0.009672 0.000000 0.051413
#
#
# Mechanical properties :
#
#
# Convention : Reuss Voigt Hill
#
# Bulk Modulus (GPa) = 14.92423 36.24511 25.58467
# Shear Modulus (GPa) = 16.31899 21.75236 19.03567
#
# Velocity S-wave (km/s) = 2.97331 3.43278 3.21127
# Velocity P-wave (km/s) = 4.45784 5.94535 5.25450
#
# Compressibility (1/GPa) = 0.06700513
#
# Stress axis : x y z
#
# Youngs Moduli (GPa) = 54.50327 18.64635 49.10939
#
# Poissons Ratio (x) = 0.15742 0.42235
# Poissons Ratio (y) = 0.46014 -0.21486
# Poissons Ratio (z) = 0.46874 -0.08158
#
# Static dielectric constant tensor:
#      x y z
#    x 1.642550 0.000000 -0.014790 
#    y 0.000000 1.641670 0.000000 
#    z -0.014790 0.000000 1.693060 
# 
# From -- ./inp_files/55306.got.cif
#   From: 2010.05.17/outbox.cif.g08.bks.cpg/sg10_28_cif.got.tgz:55306.got - 2010.06.03 11:33:40.
