data_PCOD9144472
_publ_section_title
;
Structure prediction by ZEFSAII (Michael W. Deem and Ramdas Pophale) SiO2 
 PCOD9144472
Probable space group: P 2/M
;
_chemical_formula_sum "Si O2"
_cell_formula_units_Z 32
_cell_length_a 24.165313
_cell_length_b 7.358562
_cell_length_c 17.258514
_cell_angle_alpha 90.000000
_cell_angle_beta 152.679336
_cell_angle_gamma 90.000000
_cell_volume 1408.552650
_symmetry_space_group_name_H-M "P 2/M"
_symmetry_group_IT_number 10
_symmetry_cell_setting 'monoclinic'
loop_
_space_group_symop_operation_xyz
x,y,z
-x,y,-z
-x,-y,-z
x,-y,z
loop_
_atom_site_type_symbol
_atom_site_label
_atom_site_fract_x
_atom_site_fract_y
_atom_site_fract_z
Si Si1 0.727553 0.283304 0.886683
Si Si2 0.117627 0.220280 0.246609
Si Si3 0.555500 0.720386 0.801636
Si Si4 0.151554 0.215517 0.115687
Si Si5 0.214421 0.276855 0.620455
Si Si6 0.226712 0.280170 0.812039
Si Si7 0.056620 0.278747 0.734916
Si Si8 0.334937 0.707463 0.622950
O O1 0.728105 0.500000 0.896693
O O2 0.610568 0.215690 0.788084
O O3 0.744754 0.249373 0.817469
O O4 0.847739 0.216328 0.081360
O O5 0.165544 0.279334 0.221226
O O6 0.205076 0.292958 0.420652
O O7 0.120822 0.000000 0.255493
O O8 0.978453 0.281630 0.077579
O O9 0.547191 0.500000 0.784738
O O10 0.429777 0.788350 0.680005
O O11 0.656937 0.765215 0.991815
O O12 0.138122 0.000000 0.105628
O O13 0.216410 0.500000 0.622120
O O14 0.232599 0.217292 0.731365
O O15 0.312653 0.213317 0.680288
O O16 0.080441 0.219632 0.427539
O O17 0.222007 0.500000 0.803051
O O18 0.111521 0.224358 0.719833
O O19 0.056049 0.500000 0.736183
O O20 0.375788 0.500000 0.686589
#
# Coordination Sequence:
#
# PCOD9144472 Si02
#       8
#     4   4   4   4   4   4   4   4
#     4   9  16  28  47  68  92 123 154 183 222 270
#     4   9  19  35  51  68  93 120 142 174 228 283
#     4   8  16  29  42  61  93 128 156 186 224 261
#     4   9  18  33  52  72  92 113 142 182 225 274
#     4   9  15  21  35  62  90 116 150 190 226 262
#     4   8  13  22  36  56  88 125 151 179 226 270
#     4   8  13  21  35  59  90 118 146 184 227 268
#     4  10  19  30  45  67  94 121 155 195 224 254
#
# _framework density 22.718356
#
# number of rings (size 3 to 8) (size 9 to 14) (size 15 to 20)
#    0.000    3.250    0.000    3.375    0.000    4.000 
#    0.000    5.000    0.000    3.750    0.000    5.250 
#    0.000   13.000    0.000    0.000    0.000    0.000 
#
# Total GULP energy -178533.504242 kJ/mol
# GULP energy per Si atom -5579.172008 kJ/mol
# Density = 2.266665 g / cm^3
# Si number density = 22.718356 Si / 1000 Ang^3
#
#
#
# Elastic Constant Matrix: (Units=GPa)
#
#
# Indices 1 2 3 4 5 6 
#
# 1 182.1307 -2.1702 17.7166 0.0000 7.6084 0.0000
# 2 -2.1702 82.1996 -6.4053 0.0000 3.1346 0.0000
# 3 17.7166 -6.4053 6.5589 0.0000 6.3683 0.0000
# 4 0.0000 0.0000 0.0000 -34.4945 0.0000 6.0622
# 5 7.6084 3.1346 6.3683 0.0000 18.4302 0.0000
# 6 0.0000 0.0000 0.0000 6.0622 0.0000 20.4104
#
#
#
# Elastic Compliance Matrix: (Units=1/GPa)
#
#
# Indices 1 2 3 4 5 6 
#
# 1 0.008373 -0.002733 -0.033682 0.000000 0.008647 0.000000
# 2 -0.002733 0.015427 0.035968 0.000000 -0.013924 0.000000
# 3 -0.033682 0.035968 0.407840 0.000000 -0.133136 0.000000
# 4 0.000000 0.000000 0.000000 -0.027552 0.000000 0.008183
# 5 0.008647 -0.013924 -0.133136 0.000000 0.099061 0.000000
# 6 0.000000 0.000000 0.000000 0.008183 0.000000 0.046564
#
#
# Mechanical properties :
#
#
# Convention : Reuss Voigt Hill
#
# Bulk Modulus (GPa) = 2.32155 32.13014 17.22584
# Shear Modulus (GPa) = 7.20264 18.31909 12.76087
#
# Velocity S-wave (km/s) = 1.78250 2.84272 2.37259
# Velocity P-wave (km/s) = 2.29358 4.99482 3.88644
#
# Compressibility (1/GPa) = 0.43074629
#
# Stress axis : x y z
#
# Youngs Moduli (GPa) = 119.42904 64.82102 2.45194
#
# Poissons Ratio (x) = 0.17717 0.08259
# Poissons Ratio (y) = 0.32643 -0.08819
# Poissons Ratio (z) = 4.02261 -2.33150
#
# Static dielectric constant tensor:
#      x y z
#    x 1.884420 0.000000 0.016800 
#    y 0.000000 1.918920 0.000000 
#    z 0.016800 0.000000 1.792120 
# 
# From -- ./inp_files/79994.got.cif
#   From: 2010.05.17/outbox.cif.g08.bks.cpg/sg10_40_cif.got.tgz:79994.got - 2010.06.03 11:33:40.
