data_PCOD9144902
_publ_section_title
;
Structure prediction by ZEFSAII (Michael W. Deem and Ramdas Pophale) SiO2 
 PCOD9144902
Probable space group: P 2/M
;
_chemical_formula_sum "Si O2"
_cell_formula_units_Z 32
_cell_length_a 21.500763
_cell_length_b 7.473261
_cell_length_c 22.498375
_cell_angle_alpha 90.000000
_cell_angle_beta 26.300595
_cell_angle_gamma 90.000000
_cell_volume 1601.761354
_symmetry_space_group_name_H-M "P 2/M"
_symmetry_group_IT_number 10
_symmetry_cell_setting 'monoclinic'
loop_
_space_group_symop_operation_xyz
x,y,z
-x,y,-z
-x,-y,-z
x,-y,z
loop_
_atom_site_type_symbol
_atom_site_label
_atom_site_fract_x
_atom_site_fract_y
_atom_site_fract_z
Si Si1 0.143120 0.794154 0.400863
Si Si2 0.447777 0.786172 0.607967
Si Si3 0.354300 0.214692 0.316322
Si Si4 0.529017 0.782128 0.663965
Si Si5 0.660639 0.283174 0.875763
Si Si6 0.866460 0.284235 0.077059
Si Si7 0.782879 0.706573 0.023625
Si Si8 0.329673 0.285260 0.999641
O O1 0.229817 0.713631 0.381674
O O2 0.245603 0.792461 0.256811
O O3 0.000000 0.708500 0.500000
O O4 0.109818 0.000000 0.446234
O O5 0.500000 0.714036 0.500000
O O6 0.537288 0.722704 0.588587
O O7 0.283420 0.754565 0.763503
O O8 0.465645 0.000000 0.590872
O O9 0.362487 0.275354 0.377960
O O10 0.506681 0.251727 0.156478
O O11 0.341262 0.000000 0.328131
O O12 0.378226 0.713604 0.815708
O O13 0.523995 0.000000 0.669024
O O14 0.671215 0.500000 0.864812
O O15 0.500000 0.236169 0.000000
O O16 0.699756 0.221886 0.908603
O O17 0.875079 0.500000 0.066026
O O18 0.864380 0.215154 0.010557
O O19 0.000000 0.219952 0.000000
O O20 0.827560 0.500000 0.979083
O O21 0.768379 0.785847 0.969883
O O22 0.313871 0.500000 0.013146
#
# Coordination Sequence:
#
# PCOD9144902 Si02
#       8
#     4   4   4   4   4   4   4   4
#     4  10  21  34  47  65  91 122 153 183 219 266
#     4   9  17  29  46  68  92 117 147 185 226 264
#     4   9  16  27  45  66  86 113 148 184 222 260
#     4   8  14  25  42  64  86 110 144 185 221 257
#     4  10  19  31  48  71  93 114 146 186 226 266
#     4   9  17  29  46  68  92 120 152 182 216 262
#     4   8  14  25  42  64  88 115 144 178 219 259
#     4   9  16  27  45  68  91 112 141 185 227 261
#
# _framework density 19.978007000000002
#
# number of rings (size 3 to 8) (size 9 to 14) (size 15 to 20)
#    0.000    3.000    1.250    0.000    0.000    1.500 
#    0.000    0.000    2.750    0.000    0.000    0.000 
#    0.000    0.000    0.000    0.000    0.000    0.000 
#
# Total GULP energy -178203.833131 kJ/mol
# GULP energy per Si atom -5568.869785 kJ/mol
# Density = 1.993254 g / cm^3
# Si number density = 19.978007 Si / 1000 Ang^3
#
#
#
# Elastic Constant Matrix: (Units=GPa)
#
#
# Indices 1 2 3 4 5 6 
#
# 1 239.9378 9.7230 51.1003 0.0000 9.4462 0.0000
# 2 9.7230 59.9175 -2.1705 0.0000 2.4434 0.0000
# 3 51.1003 -2.1705 41.0033 0.0000 1.7789 0.0000
# 4 0.0000 0.0000 0.0000 21.5130 0.0000 19.9451
# 5 9.4462 2.4434 1.7789 0.0000 30.3527 0.0000
# 6 0.0000 0.0000 0.0000 19.9451 0.0000 51.9641
#
#
#
# Elastic Compliance Matrix: (Units=1/GPa)
#
#
# Indices 1 2 3 4 5 6 
#
# 1 0.005808 -0.001152 -0.007243 0.000000 -0.001290 0.000000
# 2 -0.001152 0.017010 0.002386 0.000000 -0.001151 0.000000
# 3 -0.007243 0.002386 0.033537 0.000000 0.000097 0.000000
# 4 0.000000 0.000000 0.000000 0.072163 0.000000 -0.027698
# 5 -0.001290 -0.001151 0.000097 0.000000 0.033435 0.000000
# 6 0.000000 0.000000 0.000000 -0.027698 0.000000 0.029875
#
#
# Mechanical properties :
#
#
# Convention : Reuss Voigt Hill
#
# Bulk Modulus (GPa) = 22.55457 50.90713 36.73085
# Shear Modulus (GPa) = 22.87034 39.57967 31.22500
#
# Velocity S-wave (km/s) = 3.38712 4.45585 3.95773
# Velocity P-wave (km/s) = 5.15859 7.21178 6.26980
#
# Compressibility (1/GPa) = 0.04433691
#
# Stress axis : x y z
#
# Youngs Moduli (GPa) = 172.18240 58.78910 29.81780
#
# Poissons Ratio (x) = 0.06774 0.21597
# Poissons Ratio (y) = 0.19839 -0.07115
# Poissons Ratio (z) = 1.24711 -0.14029
#
# Static dielectric constant tensor:
#      x y z
#    x 1.800380 0.000000 -0.012470 
#    y 0.000000 1.743620 0.000000 
#    z -0.012470 0.000000 1.871810 
# 
# From -- ./inp_files/86110.got.cif
#   From: 2010.05.17/outbox.cif.g08.bks.cpg/sg10_44_cif.got.tgz:86110.got - 2010.06.03 11:33:40.
