data_PCOD9144326
_publ_section_title
;
Structure prediction by ZEFSAII (Michael W. Deem and Ramdas Pophale) SiO2 
 PCOD9144326
Probable space group: P 2/M
;
_chemical_formula_sum "Si O2"
_cell_formula_units_Z 28
_cell_length_a 11.532717
_cell_length_b 8.904294
_cell_length_c 21.896249
_cell_angle_alpha 90.000000
_cell_angle_beta 50.040346
_cell_angle_gamma 90.000000
_cell_volume 1723.499825
_symmetry_space_group_name_H-M "P 2/M"
_symmetry_group_IT_number 10
_symmetry_cell_setting 'monoclinic'
loop_
_space_group_symop_operation_xyz
x,y,z
-x,y,-z
-x,-y,-z
x,-y,z
loop_
_atom_site_type_symbol
_atom_site_label
_atom_site_fract_x
_atom_site_fract_y
_atom_site_fract_z
Si Si1 0.479668 0.320618 0.264698
Si Si2 0.776007 0.320606 0.561019
Si Si3 0.669200 0.679555 0.921209
Si Si4 0.788469 0.819745 0.124267
Si Si5 0.267901 0.179285 0.231347
Si Si6 0.868907 0.180545 0.959292
Si Si7 0.990153 0.179140 0.593385
O O1 0.476132 0.500000 0.258259
O O2 0.391988 0.285403 0.357789
O O3 0.648935 0.260008 0.203583
O O4 0.384394 0.247181 0.241464
O O5 0.793402 0.500000 0.551681
O O6 0.880595 0.255291 0.580150
O O7 0.844984 0.246554 0.476792
O O8 0.677744 0.500000 0.913718
O O9 0.703417 0.751408 0.844175
O O10 0.785040 0.738971 0.932756
O O11 0.500000 0.720781 0.000000
O O12 0.953047 0.782481 0.095969
O O13 0.770331 0.000000 0.134027
O O14 0.795582 0.780020 0.049785
O O15 0.097421 0.209379 0.313900
O O16 0.288849 0.000000 0.222780
O O17 0.856678 0.000000 0.956650
O O18 0.993367 0.000000 0.582895
#
# Coordination Sequence:
#
# PCOD9144326 Si02
#       7
#     4   4   4   4   4   4   4
#     4  10  19  29  44  70 100 126 155 191 231 277
#     4   9  16  25  39  61  91 124 151 181 227 276
#     4  11  23  35  48  70  97 124 156 192 230 274
#     4   9  18  33  52  71  92 121 156 193 232 274
#     4  10  20  32  47  67  93 127 161 193 232 276
#     4   9  19  35  52  70  92 121 158 194 230 274
#     4   9  16  26  41  62  87 117 155 192 225 268
#
# _framework density 16.246012
#
# number of rings (size 3 to 8) (size 9 to 14) (size 15 to 20)
#    0.000    2.429    0.000    4.714    0.000    8.000 
#    0.000    1.429    0.000    0.000    0.000    1.000 
#    0.000    8.000    0.000    0.000    0.000    0.000 
#
# Total GULP energy -156049.475989 kJ/mol
# GULP energy per Si atom -5573.195571 kJ/mol
# Density = 1.620904 g / cm^3
# Si number density = 16.246012 Si / 1000 Ang^3
#
#
#
# Elastic Constant Matrix: (Units=GPa)
#
#
# Indices 1 2 3 4 5 6 
#
# 1 46.4290 26.6009 47.7640 0.0000 -5.7250 0.0000
# 2 26.6009 56.2735 63.2243 0.0000 -7.4956 0.0000
# 3 47.7640 63.2243 163.0290 0.0000 -21.9747 0.0000
# 4 0.0000 0.0000 0.0000 29.9168 0.0000 -2.9067
# 5 -5.7250 -7.4956 -21.9747 0.0000 22.7662 0.0000
# 6 0.0000 0.0000 0.0000 -2.9067 0.0000 29.0650
#
#
#
# Elastic Compliance Matrix: (Units=1/GPa)
#
#
# Indices 1 2 3 4 5 6 
#
# 1 0.032927 -0.008352 -0.006510 0.000000 -0.000753 0.000000
# 2 -0.008352 0.033663 -0.010803 0.000000 -0.001444 0.000000
# 3 -0.006510 -0.010803 0.013255 0.000000 0.007600 0.000000
# 4 0.000000 0.000000 0.000000 0.033754 0.000000 0.003376
# 5 -0.000753 -0.001444 0.007600 0.000000 0.050596 0.000000
# 6 0.000000 0.000000 0.000000 0.003376 0.000000 0.034743
#
#
# Mechanical properties :
#
#
# Convention : Reuss Voigt Hill
#
# Bulk Modulus (GPa) = 35.06638 60.10112 47.58375
# Shear Modulus (GPa) = 19.24769 24.89241 22.07005
#
# Velocity S-wave (km/s) = 3.44577 3.91860 3.68977
# Velocity P-wave (km/s) = 6.12067 7.58608 6.89243
#
# Compressibility (1/GPa) = 0.02851734
#
# Stress axis : x y z
#
# Youngs Moduli (GPa) = 30.37004 29.70643 75.44398
#
# Poissons Ratio (x) = 0.24809 0.49111
# Poissons Ratio (y) = 0.25364 0.81499
# Poissons Ratio (z) = 0.19770 0.32091
#
# Static dielectric constant tensor:
#      x y z
#    x 1.514100 0.000000 -0.025800 
#    y 0.000000 1.540810 0.000000 
#    z -0.025800 0.000000 1.588750 
# 
# From -- ./inp_files/83318.got.cif
#   From: 2010.05.17/outbox.cif.g08.bks.cpg/sg10_42_cif.got.tgz:83318.got - 2010.06.03 11:33:40.
