data_PCOD9144597
_publ_section_title
;
Structure prediction by ZEFSAII (Michael W. Deem and Ramdas Pophale) SiO2 
 PCOD9144597
Probable space group: P 2/M
;
_chemical_formula_sum "Si O2"
_cell_formula_units_Z 32
_cell_length_a 14.882178
_cell_length_b 7.656371
_cell_length_c 28.713911
_cell_angle_alpha 90.000000
_cell_angle_beta 29.380724
_cell_angle_gamma 90.000000
_cell_volume 1605.161603
_symmetry_space_group_name_H-M "P 2/M"
_symmetry_group_IT_number 10
_symmetry_cell_setting 'monoclinic'
loop_
_space_group_symop_operation_xyz
x,y,z
-x,y,-z
-x,-y,-z
x,-y,z
loop_
_atom_site_type_symbol
_atom_site_label
_atom_site_fract_x
_atom_site_fract_y
_atom_site_fract_z
Si Si1 0.790082 0.709321 0.108848
Si Si2 0.002329 0.794761 0.156148
Si Si3 0.693538 0.288529 0.804327
Si Si4 0.356605 0.800708 0.725406
Si Si5 0.302665 0.711225 0.948976
Si Si6 0.747919 0.294076 0.582355
Si Si7 0.861503 0.286018 0.630768
Si Si8 0.292611 0.794191 0.098871
O O1 0.768873 0.500000 0.125108
O O2 0.727724 0.794117 0.184548
O O3 0.678860 0.762634 0.113165
O O4 0.000000 0.742414 0.000000
O O5 0.137603 0.718896 0.134456
O O6 0.800678 0.719114 0.236638
O O7 0.976402 0.000000 0.178282
O O8 0.120971 0.779850 0.055380
O O9 0.697402 0.500000 0.803025
O O10 0.481246 0.232933 0.896354
O O11 0.791107 0.227551 0.712912
O O12 0.766124 0.225707 0.821031
O O13 0.560170 0.728532 0.639530
O O14 0.379534 0.000000 0.700476
O O15 0.290849 0.500000 0.954849
O O16 0.777916 0.500000 0.573339
O O17 0.746924 0.229434 0.636555
O O18 0.930278 0.228647 0.474134
O O19 0.853579 0.500000 0.636313
O O20 0.306445 0.000000 0.081134
O O21 0.500000 0.720078 0.000000
#
# Coordination Sequence:
#
# PCOD9144597 Si02
#       8
#     4   4   4   4   4   4   4   4
#     4  10  19  31  47  68  97 134 171 202 235 293
#     4  10  21  35  48  65  97 137 171 205 246 296
#     4  10  19  31  51  78 104 125 159 213 263 299
#     4  11  22  33  48  72 103 137 169 208 255 296
#     4  10  19  30  47  72 100 129 163 203 244 293
#     4   9  17  34  59  79 102 136 170 201 245 308
#     4   8  16  33  57  82 104 131 165 206 255 304
#     4  10  20  35  52  69  95 135 179 212 248 303
#
# _framework density 19.935687999999999
#
# number of rings (size 3 to 8) (size 9 to 14) (size 15 to 20)
#    0.000    2.250    2.500    1.875    0.000    4.000 
#    0.000    3.750    0.000    0.750    0.000    5.250 
#    0.000    0.000    0.000    0.000    0.000    0.000 
#
# Total GULP energy -178486.924414 kJ/mol
# GULP energy per Si atom -5577.716388 kJ/mol
# Density = 1.989031 g / cm^3
# Si number density = 19.935688 Si / 1000 Ang^3
#
#
#
# Elastic Constant Matrix: (Units=GPa)
#
#
# Indices 1 2 3 4 5 6 
#
# 1 136.2987 -1.0863 49.0652 0.0000 -23.4670 0.0000
# 2 -1.0863 29.2058 0.2764 0.0000 -4.2045 0.0000
# 3 49.0652 0.2764 77.9098 0.0000 -13.5464 0.0000
# 4 0.0000 0.0000 0.0000 -41.6940 0.0000 -1.5363
# 5 -23.4670 -4.2045 -13.5464 0.0000 31.7989 0.0000
# 6 0.0000 0.0000 0.0000 -1.5363 0.0000 16.4890
#
#
#
# Elastic Compliance Matrix: (Units=1/GPa)
#
#
# Indices 1 2 3 4 5 6 
#
# 1 0.010264 0.001208 -0.005533 0.000000 0.005377 0.000000
# 2 0.001208 0.035085 0.000082 0.000000 0.005566 0.000000
# 3 -0.005533 0.000082 0.016861 0.000000 0.003110 0.000000
# 4 0.000000 0.000000 0.000000 -0.023902 0.000000 -0.002227
# 5 0.005377 0.005566 0.003110 0.000000 0.037477 0.000000
# 6 0.000000 0.000000 0.000000 -0.002227 0.000000 0.060439
#
#
# Mechanical properties :
#
#
# Convention : Reuss Voigt Hill
#
# Bulk Modulus (GPa) = 18.61351 37.76944 28.19148
# Shear Modulus (GPa) = 30.74706 14.32938 22.53822
#
# Velocity S-wave (km/s) = 3.93149 2.68392 3.36601
# Velocity P-wave (km/s) = 5.47411 5.34708 5.41097
#
# Compressibility (1/GPa) = 0.05372440
#
# Stress axis : x y z
#
# Youngs Moduli (GPa) = 97.42586 28.50201 59.31006
#
# Poissons Ratio (x) = -0.03444 0.32819
# Poissons Ratio (y) = -0.11772 -0.00488
# Poissons Ratio (z) = 0.53910 -0.00235
#
# Static dielectric constant tensor:
#      x y z
#    x 1.746080 0.000000 -0.035340 
#    y 0.000000 1.751830 0.000000 
#    z -0.035340 0.000000 1.693360 
# 
# From -- ./inp_files/95247.got.cif
#   From: 2010.05.17/outbox.cif.g08.bks.cpg/sg10_48_cif.got.tgz:95247.got - 2010.06.03 11:33:40.
