data_PCOD9144025
_publ_section_title
;
Structure prediction by ZEFSAII (Michael W. Deem and Ramdas Pophale) SiO2 
 PCOD9144025
Probable space group: P 2/M
;
_chemical_formula_sum "Si O2"
_cell_formula_units_Z 28
_cell_length_a 10.348566
_cell_length_b 7.566257
_cell_length_c 28.205115
_cell_angle_alpha 90.000000
_cell_angle_beta 144.784147
_cell_angle_gamma 90.000000
_cell_volume 1273.525809
_symmetry_space_group_name_H-M "P 2/M"
_symmetry_group_IT_number 10
_symmetry_cell_setting 'monoclinic'
loop_
_space_group_symop_operation_xyz
x,y,z
-x,y,-z
-x,-y,-z
x,-y,z
loop_
_atom_site_type_symbol
_atom_site_label
_atom_site_fract_x
_atom_site_fract_y
_atom_site_fract_z
Si Si1 0.535046 0.215798 0.064210
Si Si2 0.108916 0.785981 0.482561
Si Si3 0.067286 0.216528 0.967742
Si Si4 0.924807 0.788128 0.247734
Si Si5 0.300259 0.798817 0.215718
Si Si6 0.608474 0.216816 0.650600
Si Si7 0.739175 0.700866 0.295274
O O1 0.319096 0.267088 0.030066
O O2 0.762275 0.276962 0.157216
O O3 0.541434 0.000000 0.065348
O O4 0.500000 0.274916 0.000000
O O5 0.366336 0.726159 0.559183
O O6 0.000000 0.732516 0.500000
O O7 0.953008 0.722661 0.393400
O O8 0.105229 0.000000 0.479833
O O9 0.106177 0.279410 0.124529
O O10 0.057522 0.000000 0.965041
O O11 0.000000 0.275329 0.000000
O O12 0.813947 0.748381 0.264888
O O13 0.178728 0.725587 0.316487
O O14 0.933868 0.000000 0.246501
O O15 0.352693 0.723170 0.283355
O O16 0.529478 0.804076 0.254357
O O17 0.225309 0.000000 0.203139
O O18 0.599869 0.000000 0.648376
O O19 0.662667 0.500000 0.272940
#
# Coordination Sequence:
#
# PCOD9144025 Si02
#       7
#     4   4   4   4   4   4   4
#     4   9  16  28  50  83 115 140 173 226 282 326
#     4  10  19  37  62  85 110 140 182 230 281 335
#     4   9  16  25  44  77 110 138 172 217 269 322
#     4  10  20  36  58  84 116 150 184 225 279 334
#     4  10  18  34  58  82 109 143 186 232 279 328
#     4   9  18  33  58  87 107 136 184 232 273 329
#     4  12  25  38  54  80 115 151 189 229 276 330
#
# _framework density 21.986204000000001
#
# number of rings (size 3 to 8) (size 9 to 14) (size 15 to 20)
#    0.000    2.143    1.429    3.000    0.000    6.571 
#    0.000    4.286    0.000    4.286    0.000    0.000 
#    0.000    0.000    0.000    0.000    0.000    0.000 
#
# Total GULP energy -156472.130124 kJ/mol
# GULP energy per Si atom -5588.290362 kJ/mol
# Density = 2.193616 g / cm^3
# Si number density = 21.986204 Si / 1000 Ang^3
#
#
#
# Elastic Constant Matrix: (Units=GPa)
#
#
# Indices 1 2 3 4 5 6 
#
# 1 58.4661 -2.8812 -17.1173 0.0000 0.7632 0.0000
# 2 -2.8812 49.8119 -1.8575 0.0000 4.6364 0.0000
# 3 -17.1173 -1.8575 79.4125 0.0000 9.2023 0.0000
# 4 0.0000 0.0000 0.0000 16.7931 0.0000 -78.0065
# 5 0.7632 4.6364 9.2023 0.0000 32.7522 0.0000
# 6 0.0000 0.0000 0.0000 -78.0065 0.0000 72.3440
#
#
#
# Elastic Compliance Matrix: (Units=1/GPa)
#
#
# Indices 1 2 3 4 5 6 
#
# 1 0.018430 0.001392 0.004215 0.000000 -0.001811 0.000000
# 2 0.001392 0.020503 0.001157 0.000000 -0.003260 0.000000
# 3 0.004215 0.001157 0.014015 0.000000 -0.004200 0.000000
# 4 0.000000 0.000000 0.000000 -0.014855 0.000000 -0.016017
# 5 -0.001811 -0.003260 -0.004200 0.000000 0.032216 0.000000
# 6 0.000000 0.000000 0.000000 -0.016017 0.000000 -0.003448
#
#
# Mechanical properties :
#
#
# Convention : Reuss Voigt Hill
#
# Bulk Modulus (GPa) = 15.04310 15.99761 15.52036
# Shear Modulus (GPa) = 66.23299 38.34763 52.29031
#
# Velocity S-wave (km/s) = 5.49456 4.18085 4.88210
# Velocity P-wave (km/s) = 6.86371 5.53155 6.23332
#
# Compressibility (1/GPa) = 0.06647567
#
# Stress axis : x y z
#
# Youngs Moduli (GPa) = 54.25880 48.77429 71.35343
#
# Poissons Ratio (x) = -0.06788 -0.30075
# Poissons Ratio (y) = -0.07551 -0.08258
# Poissons Ratio (z) = -0.22870 -0.05645
#
# Static dielectric constant tensor:
#      x y z
#    x 1.772550 0.000000 0.010710 
#    y 0.000000 1.890640 0.000000 
#    z 0.010710 0.000000 1.773580 
# 
# From -- ./inp_files/79317.got.cif
#   From: 2010.05.17/outbox.cif.g08.bks.cpg/sg10_40_cif.got.tgz:79317.got - 2010.06.03 11:33:40.
