data_PCOD9144400
_publ_section_title
;
Structure prediction by ZEFSAII (Michael W. Deem and Ramdas Pophale) SiO2 
 PCOD9144400
Probable space group: P 2/M
;
_chemical_formula_sum "Si O2"
_cell_formula_units_Z 32
_cell_length_a 11.563780
_cell_length_b 19.017523
_cell_length_c 9.215664
_cell_angle_alpha 90.000000
_cell_angle_beta 52.115501
_cell_angle_gamma 90.000000
_cell_volume 1599.540090
_symmetry_space_group_name_H-M "P 2/M"
_symmetry_group_IT_number 10
_symmetry_cell_setting 'monoclinic'
loop_
_space_group_symop_operation_xyz
x,y,z
-x,y,-z
-x,-y,-z
x,-y,z
loop_
_atom_site_type_symbol
_atom_site_label
_atom_site_fract_x
_atom_site_fract_y
_atom_site_fract_z
Si Si1 0.845687 0.660626 0.536255
Si Si2 0.181348 0.826434 0.100139
Si Si3 0.411242 0.283644 0.924438
Si Si4 0.375805 0.186975 0.696947
Si Si5 0.979429 0.581340 0.177102
Si Si6 0.177739 0.920081 0.377411
Si Si7 0.163674 0.803847 0.607904
Si Si8 0.291980 0.419129 0.099723
O O1 0.868499 0.623253 0.364134
O O2 0.820166 0.742177 0.522579
O O3 0.734116 0.619214 0.725390
O O4 0.000000 0.655558 0.500000
O O5 0.222687 0.875807 0.202245
O O6 0.007254 0.817143 0.221192
O O7 0.247899 0.748500 0.071910
O O8 0.272650 0.854207 0.890583
O O9 0.453695 0.245045 0.741813
O O10 0.500000 0.262601 0.000000
O O11 0.398887 0.367338 0.929903
O O12 0.500000 0.153025 0.500000
O O13 0.256926 0.216513 0.675857
O O14 0.931109 0.500000 0.201505
O O15 0.136561 0.581131 0.135766
O O16 0.000000 0.611046 0.000000
O O17 0.216153 0.875662 0.490606
O O18 0.000000 0.921676 0.500000
O O19 0.230854 0.000000 0.338891
O O20 0.336521 0.500000 0.080400
#
# Coordination Sequence:
#
# PCOD9144400 Si02
#       8
#     4   4   4   4   4   4   4   4
#     4  10  19  29  52  82 117 148 191 247 302 345
#     4   9  20  37  62  93 117 158 205 246 288 353
#     4  10  23  39  61  82 116 153 204 246 304 358
#     4  10  25  38  60  88 119 158 194 253 309 350
#     4   9  18  30  47  75 115 152 185 241 310 358
#     4   9  18  34  61  96 131 162 193 239 297 352
#     4  11  20  36  63  94 125 148 205 253 293 356
#     4  10  20  35  53  78 109 153 205 246 294 365
#
# _framework density 20.005749999999999
#
# number of rings (size 3 to 8) (size 9 to 14) (size 15 to 20)
#    0.750    1.500    0.000    4.125    5.250    1.750 
#    0.000    0.625    0.000    7.500    0.000    0.000 
#    0.000    0.000    0.000    0.000    0.000    0.000 
#
# Total GULP energy -178293.480892 kJ/mol
# GULP energy per Si atom -5571.671278 kJ/mol
# Density = 1.996022 g / cm^3
# Si number density = 20.005750 Si / 1000 Ang^3
#
#
#
# Elastic Constant Matrix: (Units=GPa)
#
#
# Indices 1 2 3 4 5 6 
#
# 1 62.4465 8.3259 31.2527 0.0000 2.6447 0.0000
# 2 8.3259 92.1814 31.0617 0.0000 8.9121 0.0000
# 3 31.2527 31.0617 110.3571 0.0000 17.3655 0.0000
# 4 0.0000 0.0000 0.0000 12.8186 0.0000 3.5068
# 5 2.6447 8.9121 17.3655 0.0000 24.3624 0.0000
# 6 0.0000 0.0000 0.0000 3.5068 0.0000 9.0496
#
#
#
# Elastic Compliance Matrix: (Units=1/GPa)
#
#
# Indices 1 2 3 4 5 6 
#
# 1 0.018742 0.000011 -0.005620 0.000000 0.001968 0.000000
# 2 0.000011 0.012093 -0.003053 0.000000 -0.002249 0.000000
# 3 -0.005620 -0.003053 0.012661 0.000000 -0.007298 0.000000
# 4 0.000000 0.000000 0.000000 0.087263 0.000000 -0.033815
# 5 0.001968 -0.002249 -0.007298 0.000000 0.046858 0.000000
# 6 0.000000 0.000000 0.000000 -0.033815 0.000000 0.123606
#
#
# Mechanical properties :
#
#
# Convention : Reuss Voigt Hill
#
# Bulk Modulus (GPa) = 38.21031 45.14061 41.67546
# Shear Modulus (GPa) = 15.27784 22.20241 18.74012
#
# Velocity S-wave (km/s) = 2.76646 3.33498 3.06394
# Velocity P-wave (km/s) = 5.41715 6.11901 5.77875
#
# Compressibility (1/GPa) = 0.02617094
#
# Stress axis : x y z
#
# Youngs Moduli (GPa) = 53.35691 82.68980 78.98409
#
# Poissons Ratio (x) = -0.00089 0.44391
# Poissons Ratio (y) = -0.00058 0.24114
# Poissons Ratio (z) = 0.29988 0.25246
#
# Static dielectric constant tensor:
#      x y z
#    x 1.720300 0.000000 -0.009720 
#    y 0.000000 1.693160 0.000000 
#    z -0.009720 0.000000 1.749580 
# 
# From -- ./inp_files/25969.got.cif
#   From: 2010.05.17/outbox.cif.g08.bks.cpg/sg10_13_cif.got.tgz:25969.got - 2010.06.03 11:33:40.
