data_PCOD9144483
_publ_section_title
;
Structure prediction by ZEFSAII (Michael W. Deem and Ramdas Pophale) SiO2 
 PCOD9144483
Probable space group: P 2/M
;
_chemical_formula_sum "Si O2"
_cell_formula_units_Z 18
_cell_length_a 5.136419
_cell_length_b 13.718473
_cell_length_c 15.987632
_cell_angle_alpha 90.000000
_cell_angle_beta 59.811063
_cell_angle_gamma 90.000000
_cell_volume 973.757926
_symmetry_space_group_name_H-M "P 2/M"
_symmetry_group_IT_number 10
_symmetry_cell_setting 'monoclinic'
loop_
_space_group_symop_operation_xyz
x,y,z
-x,y,-z
-x,-y,-z
x,-y,z
loop_
_atom_site_type_symbol
_atom_site_label
_atom_site_fract_x
_atom_site_fract_y
_atom_site_fract_z
Si Si1 0.360706 0.607793 0.931063
Si Si2 0.638541 0.000000 0.068910
Si Si3 0.762351 0.197022 0.114892
Si Si4 0.893098 0.883649 0.265546
Si Si5 0.178426 0.115907 0.390876
O O1 0.469147 0.500000 0.886293
O O2 0.409562 0.700607 0.863532
O O3 0.500000 0.627931 0.000000
O O4 0.000000 0.600380 0.000000
O O5 0.500000 0.000000 0.000000
O O6 0.567520 0.900613 0.129130
O O7 0.000000 0.000000 0.000000
O O8 0.932819 0.176592 0.173715
O O9 0.000000 0.200161 0.000000
O O10 0.535263 0.874501 0.342148
O O11 0.062737 0.846597 0.320358
O O12 0.950310 0.000000 0.240103
O O13 0.000000 0.155336 0.500000
O O14 0.109965 0.000000 0.397877
#
# Coordination Sequence:
#
# PCOD9144483 Si02
#       5
#     4   2   4   4   4
#     4   9  18  32  48  64  86 123 166 201 231 261
#     4  10  20  30  42  60  89 130 159 178 216 266
#     4  10  20  33  46  69 100 132 158 191 226 278
#     4  10  19  30  45  68  92 123 157 188 229 280
#     4   9  18  32  48  64  88 120 157 198 235 271
#
# _framework density 18.485088000000001
#
# number of rings (size 3 to 8) (size 9 to 14) (size 15 to 20)
#    0.000    2.444    1.111    1.333    0.000    9.778 
#    0.000    0.000    0.000    0.000    0.000    0.000 
#    0.000    5.333    0.000    0.000    0.000    0.000 
#
# Total GULP energy -100458.257798 kJ/mol
# GULP energy per Si atom -5581.014322 kJ/mol
# Density = 1.844302 g / cm^3
# Si number density = 18.485088 Si / 1000 Ang^3
#
#
#
# Elastic Constant Matrix: (Units=GPa)
#
#
# Indices 1 2 3 4 5 6 
#
# 1 82.2666 13.2995 31.5661 0.0000 24.1859 0.0000
# 2 13.2995 123.0196 19.4716 0.0000 12.0112 0.0000
# 3 31.5661 19.4716 109.1602 0.0000 7.0850 0.0000
# 4 0.0000 0.0000 0.0000 5.2198 0.0000 5.9771
# 5 24.1859 12.0112 7.0850 0.0000 30.2489 0.0000
# 6 0.0000 0.0000 0.0000 5.9771 0.0000 16.0709
#
#
#
# Elastic Compliance Matrix: (Units=1/GPa)
#
#
# Indices 1 2 3 4 5 6 
#
# 1 0.017641 0.000048 -0.004258 0.000000 -0.013127 0.000000
# 2 0.000048 0.008645 -0.001351 0.000000 -0.003155 0.000000
# 3 -0.004258 -0.001351 0.010538 0.000000 0.001473 0.000000
# 4 0.000000 0.000000 0.000000 0.333693 0.000000 -0.124108
# 5 -0.013127 -0.003155 0.001473 0.000000 0.044463 0.000000
# 6 0.000000 0.000000 0.000000 -0.124108 0.000000 0.108382
#
#
# Mechanical properties :
#
#
# Convention : Reuss Voigt Hill
#
# Bulk Modulus (GPa) = 38.90713 49.23564 44.07138
# Shear Modulus (GPa) = 9.20724 26.98188 18.09456
#
# Velocity S-wave (km/s) = 2.23421 3.82469 3.13209
# Velocity P-wave (km/s) = 5.26775 6.79687 6.08057
#
# Compressibility (1/GPa) = 0.02570223
#
# Stress axis : x y z
#
# Youngs Moduli (GPa) = 56.68703 115.66713 94.89862
#
# Poissons Ratio (x) = -0.00561 0.40407
# Poissons Ratio (y) = -0.00275 0.12824
# Poissons Ratio (z) = 0.24137 0.15631
#
# Static dielectric constant tensor:
#      x y z
#    x 1.649350 0.000000 0.022360 
#    y 0.000000 1.705560 0.000000 
#    z 0.022360 0.000000 1.645910 
# 
# From -- ./inp_files/6620.got.cif
#   From: 2010.05.17/outbox.cif.g08.bks.cpg/sg10_4_cif.got.tgz:6620.got - 2010.06.03 11:33:40.
