data_PCOD9144861
_publ_section_title
;
Structure prediction by ZEFSAII (Michael W. Deem and Ramdas Pophale) SiO2 
 PCOD9144861
Probable space group: P 2/M
;
_chemical_formula_sum "Si O2"
_cell_formula_units_Z 30
_cell_length_a 16.103238
_cell_length_b 26.735932
_cell_length_c 13.999019
_cell_angle_alpha 90.000000
_cell_angle_beta 161.435690
_cell_angle_gamma 90.000000
_cell_volume 1918.831085
_symmetry_space_group_name_H-M "P 2/M"
_symmetry_group_IT_number 10
_symmetry_cell_setting 'monoclinic'
loop_
_space_group_symop_operation_xyz
x,y,z
-x,y,-z
-x,-y,-z
x,-y,z
loop_
_atom_site_type_symbol
_atom_site_label
_atom_site_fract_x
_atom_site_fract_y
_atom_site_fract_z
Si Si1 0.581546 0.442337 0.201456
Si Si2 0.409376 0.902354 0.792108
Si Si3 0.589804 0.789830 0.209790
Si Si4 0.913737 0.268084 0.293839
Si Si5 0.082386 0.383308 0.702230
Si Si6 0.915208 0.060585 0.802547
Si Si7 0.326549 0.060202 0.094420
Si Si8 0.205147 0.000000 0.636371
O O1 0.622161 0.500000 0.273318
O O2 0.841133 0.409265 0.492195
O O3 0.500000 0.442593 0.000000
O O4 0.340994 0.416423 0.992264
O O5 0.648025 0.917345 0.983701
O O6 0.208922 0.949455 0.576794
O O7 0.500000 0.897788 0.000000
O O8 0.330508 0.846501 0.677544
O O9 0.340965 0.766685 0.992288
O O10 0.500000 0.789814 0.000000
O O11 0.839864 0.754754 0.491741
O O12 0.868108 0.325720 0.217534
O O13 0.000000 0.267766 0.500000
O O14 0.000000 0.383027 0.500000
O O15 0.614872 0.071325 0.451855
O O16 0.939259 0.000000 0.828878
O O17 0.000000 0.077988 0.000000
O O18 0.112583 0.078861 0.935905
O O19 0.304547 0.000000 0.060131
O O20 0.000000 0.000000 0.500000
O O21 0.500000 0.000000 0.000000
#
# Coordination Sequence:
#
# PCOD9144861 Si02
#       8
#     4   4   4   4   4   4   4   2
#     4   9  15  21  29  44  63  82 100 127 174 229
#     4  10  21  35  46  64  87 113 136 165 199 245
#     4   9  18  28  41  52  70  93 123 157 190 220
#     4   9  16  27  38  51  62  85 121 156 186 216
#     4   9  15  22  33  44  60  80 107 141 174 215
#     4   9  18  32  49  67  85 103 128 162 195 230
#     4  10  19  31  48  67  85 108 133 157 194 244
#     4  10  22  34  46  58  77 108 135 156 188 234
#
# _framework density 15.634518
#
# number of rings (size 3 to 8) (size 9 to 14) (size 15 to 20)
#    0.000    2.667    0.667    1.600    0.000   13.333 
#    0.000    0.000    0.000    0.000    0.000    0.000 
#    0.000    0.000    0.000    0.000    0.000    0.000 
#
# Total GULP energy -167195.590058 kJ/mol
# GULP energy per Si atom -5573.186335 kJ/mol
# Density = 1.559893 g / cm^3
# Si number density = 15.634518 Si / 1000 Ang^3
#
#
#
# Elastic Constant Matrix: (Units=GPa)
#
#
# Indices 1 2 3 4 5 6 
#
# 1 58.8073 8.8583 28.7108 0.0000 9.1775 0.0000
# 2 8.8583 107.0080 36.6295 0.0000 14.4909 0.0000
# 3 28.7108 36.6295 84.3198 0.0000 27.4793 0.0000
# 4 0.0000 0.0000 0.0000 16.0489 0.0000 6.0982
# 5 9.1775 14.4909 27.4793 0.0000 21.9309 0.0000
# 6 0.0000 0.0000 0.0000 6.0982 0.0000 0.3411
#
#
#
# Elastic Compliance Matrix: (Units=1/GPa)
#
#
# Indices 1 2 3 4 5 6 
#
# 1 0.020455 0.000808 -0.007356 0.000000 0.000123 0.000000
# 2 0.000808 0.011070 -0.004378 0.000000 -0.002167 0.000000
# 3 -0.007356 -0.004378 0.024204 0.000000 -0.024356 0.000000
# 4 0.000000 0.000000 0.000000 -0.010757 0.000000 0.192292
# 5 0.000123 -0.002167 -0.024356 0.000000 0.077496 0.000000
# 6 0.000000 0.000000 0.000000 0.192292 0.000000 -0.506061
#
#
# Mechanical properties :
#
#
# Convention : Reuss Voigt Hill
#
# Bulk Modulus (GPa) = 29.51852 44.28138 36.89995
# Shear Modulus (GPa) = -14.26741 19.39330 2.56294
#
# Velocity S-wave (km/s) = -3.02414 3.52577 1.28173
# Velocity P-wave (km/s) = 2.59374 6.70515 5.08363
#
# Compressibility (1/GPa) = 0.03387704
#
# Stress axis : x y z
#
# Youngs Moduli (GPa) = 48.88751 90.33193 41.31621
#
# Poissons Ratio (x) = -0.07299 0.30393
# Poissons Ratio (y) = -0.03950 0.18088
# Poissons Ratio (z) = 0.35963 0.39546
#
# Static dielectric constant tensor:
#      x y z
#    x 1.519190 0.000000 0.000470 
#    y 0.000000 1.533520 0.000000 
#    z 0.000470 0.000000 1.626430 
# 
# From -- ./inp_files/68038.got.cif
#   From: 2010.05.17/outbox.cif.g08.bks.cpg/sg10_35_cif.got.tgz:68038.got - 2010.06.03 11:33:40.
