data_PCOD9144104
_publ_section_title
;
Structure prediction by ZEFSAII (Michael W. Deem and Ramdas Pophale) SiO2 
 PCOD9144104
Probable space group: P 2/M
;
_chemical_formula_sum "Si O2"
_cell_formula_units_Z 28
_cell_length_a 16.243469
_cell_length_b 7.557117
_cell_length_c 10.307113
_cell_angle_alpha 90.000000
_cell_angle_beta 119.697034
_cell_angle_gamma 90.000000
_cell_volume 1099.057393
_symmetry_space_group_name_H-M "P 2/M"
_symmetry_group_IT_number 10
_symmetry_cell_setting 'monoclinic'
loop_
_space_group_symop_operation_xyz
x,y,z
-x,y,-z
-x,-y,-z
x,-y,z
loop_
_atom_site_type_symbol
_atom_site_label
_atom_site_fract_x
_atom_site_fract_y
_atom_site_fract_z
Si Si1 0.765782 0.211174 0.389477
Si Si2 0.104458 0.201756 0.968073
Si Si3 0.194536 0.291670 0.296672
Si Si4 0.926848 0.782599 0.331645
Si Si5 0.314446 0.287643 0.033849
Si Si6 0.598827 0.714346 0.635181
Si Si7 0.412840 0.801394 0.858861
O O1 0.820496 0.239779 0.566718
O O2 0.828449 0.279806 0.319215
O O3 0.656898 0.280890 0.303245
O O4 0.756592 0.000000 0.369334
O O5 0.056104 0.284261 0.801584
O O6 0.074724 0.000000 0.946655
O O7 0.113029 0.254083 0.126032
O O8 0.214551 0.222555 0.011044
O O9 0.204821 0.500000 0.299251
O O10 0.300208 0.218318 0.343043
O O11 0.000000 0.732828 0.500000
O O12 0.925092 0.000000 0.324937
O O13 0.309488 0.500000 0.012917
O O14 0.393183 0.250920 0.205149
O O15 0.341761 0.190891 0.925073
O O16 0.500000 0.781197 0.500000
O O17 0.599081 0.500000 0.619623
O O18 0.443145 0.000000 0.842923
O O19 0.500000 0.707968 0.000000
#
# Coordination Sequence:
#
# PCOD9144104 Si02
#       7
#     4   4   4   4   4   4   4
#     4  10  20  37  57  81 113 147 183 231 284 333
#     4  10  18  35  60  82 110 145 180 226 281 329
#     4  10  21  35  54  80 111 149 187 229 277 330
#     4   9  18  35  62  90 110 137 185 235 277 331
#     4  10  19  31  51  76 105 143 187 229 271 325
#     4   8  16  30  46  67  99 136 179 227 265 306
#     4  10  21  35  51  75 111 149 186 230 280 331
#
# _framework density 25.476375000000001
#
# number of rings (size 3 to 8) (size 9 to 14) (size 15 to 20)
#    0.000    2.429    1.429    2.143    2.000    0.857 
#    0.000    0.714    0.000   10.714    0.000    0.000 
#    0.000    0.000    0.000    0.000    0.000    0.000 
#
# Total GULP energy -156195.309784 kJ/mol
# GULP energy per Si atom -5578.403921 kJ/mol
# Density = 2.541839 g / cm^3
# Si number density = 25.476375 Si / 1000 Ang^3
#
#
#
# Elastic Constant Matrix: (Units=GPa)
#
#
# Indices 1 2 3 4 5 6 
#
# 1 47.4917 4.5220 44.2345 0.0000 -3.5105 0.0000
# 2 4.5220 77.9697 7.5065 0.0000 -2.4688 0.0000
# 3 44.2345 7.5065 215.6376 0.0000 -0.6517 0.0000
# 4 0.0000 0.0000 0.0000 64.0640 0.0000 -34.8589
# 5 -3.5105 -2.4688 -0.6517 0.0000 46.1546 0.0000
# 6 0.0000 0.0000 0.0000 -34.8589 0.0000 21.7438
#
#
#
# Elastic Compliance Matrix: (Units=1/GPa)
#
#
# Indices 1 2 3 4 5 6 
#
# 1 0.026268 -0.000949 -0.005350 0.000000 0.001872 0.000000
# 2 -0.000949 0.012924 -0.000253 0.000000 0.000616 0.000000
# 3 -0.005350 -0.000253 0.005743 0.000000 -0.000339 0.000000
# 4 0.000000 0.000000 0.000000 0.122258 0.000000 0.195999
# 5 0.001872 0.000616 -0.000339 0.000000 0.021837 0.000000
# 6 0.000000 0.000000 0.000000 0.195999 0.000000 0.360210
#
#
# Mechanical properties :
#
#
# Convention : Reuss Voigt Hill
#
# Bulk Modulus (GPa) = 31.41645 50.40279 40.90962
# Shear Modulus (GPa) = 8.72671 45.38153 27.05412
#
# Velocity S-wave (km/s) = 1.85279 4.22515 3.26226
# Velocity P-wave (km/s) = 4.11528 6.60527 5.50296
#
# Compressibility (1/GPa) = 0.03183046
#
# Stress axis : x y z
#
# Youngs Moduli (GPa) = 38.06933 77.37291 174.13673
#
# Poissons Ratio (x) = 0.07344 0.93158
# Poissons Ratio (y) = 0.03613 0.04412
# Poissons Ratio (z) = 0.20366 0.01960
#
# Static dielectric constant tensor:
#      x y z
#    x 2.068820 0.000000 0.043750 
#    y 0.000000 1.933550 0.000000 
#    z 0.043750 0.000000 2.170270 
# 
# From -- ./inp_files/54995.got.cif
#   From: 2010.05.17/outbox.cif.g08.bks.cpg/sg10_28_cif.got.tgz:54995.got - 2010.06.03 11:33:40.
