data_PCOD9144741
_publ_section_title
;
Structure prediction by ZEFSAII (Michael W. Deem and Ramdas Pophale) SiO2 
 PCOD9144741
Probable space group: P 2/M
;
_chemical_formula_sum "Si O2"
_cell_formula_units_Z 28
_cell_length_a 15.642720
_cell_length_b 8.681583
_cell_length_c 20.227526
_cell_angle_alpha 90.000000
_cell_angle_beta 144.257814
_cell_angle_gamma 90.000000
_cell_volume 1604.612414
_symmetry_space_group_name_H-M "P 2/M"
_symmetry_group_IT_number 10
_symmetry_cell_setting 'monoclinic'
loop_
_space_group_symop_operation_xyz
x,y,z
-x,y,-z
-x,-y,-z
x,-y,z
loop_
_atom_site_type_symbol
_atom_site_label
_atom_site_fract_x
_atom_site_fract_y
_atom_site_fract_z
Si Si1 0.655721 0.684223 0.129655
Si Si2 0.608613 0.186354 0.245046
Si Si3 0.160964 0.677545 0.135039
Si Si4 0.996253 0.684903 0.836545
Si Si5 0.958559 0.815330 0.275430
Si Si6 0.714630 0.183265 0.913224
Si Si7 0.101846 0.812778 0.502672
O O1 0.671350 0.500000 0.136785
O O2 0.654063 0.742166 0.203798
O O3 0.790902 0.760906 0.176797
O O4 0.500000 0.726647 0.000000
O O5 0.444937 0.233596 0.162097
O O6 0.731735 0.229713 0.375914
O O7 0.611005 0.000000 0.240170
O O8 0.211160 0.500000 0.168678
O O9 0.261363 0.772912 0.148463
O O10 0.126651 0.735666 0.187271
O O11 0.000000 0.677167 0.000000
O O12 0.996361 0.500000 0.836827
O O13 0.975559 0.748358 0.750384
O O14 0.153971 0.740360 0.962905
O O15 0.040861 0.761026 0.393737
O O16 0.962769 0.000000 0.275697
O O17 0.726223 0.000000 0.928364
O O18 0.000000 0.761254 0.500000
O O19 0.094175 0.000000 0.497155
#
# Coordination Sequence:
#
# PCOD9144741 Si02
#       7
#     4   4   4   4   4   4   4
#     4  11  23  35  48  71 104 137 164 199 250 303
#     4  10  20  35  53  74 100 131 169 209 251 298
#     4   8  16  31  50  71 101 140 169 198 248 304
#     4  10  20  34  51  74 107 139 167 203 251 305
#     4  11  21  34  55  76  97 130 171 213 253 296
#     4  10  19  30  51  81 107 131 166 211 250 297
#     4   9  17  34  56  73  94 130 171 211 255 297
#
# _framework density 17.449695999999999
#
# number of rings (size 3 to 8) (size 9 to 14) (size 15 to 20)
#    0.000    2.143    1.429    3.429    0.000    7.714 
#    0.000    2.143    0.000    0.857    0.000    6.000 
#    0.000    0.000    0.000    0.000    0.000    0.000 
#
# Total GULP energy -156213.242467 kJ/mol
# GULP energy per Si atom -5579.044374 kJ/mol
# Density = 1.740998 g / cm^3
# Si number density = 17.449696 Si / 1000 Ang^3
#
#
#
# Elastic Constant Matrix: (Units=GPa)
#
#
# Indices 1 2 3 4 5 6 
#
# 1 73.2209 8.7240 8.8139 0.0000 -31.7515 0.0000
# 2 8.7240 23.3332 7.8958 0.0000 -6.1282 0.0000
# 3 8.8139 7.8958 65.5978 0.0000 -24.5569 0.0000
# 4 0.0000 0.0000 0.0000 0.7567 0.0000 -16.4754
# 5 -31.7515 -6.1282 -24.5569 0.0000 28.8516 0.0000
# 6 0.0000 0.0000 0.0000 -16.4754 0.0000 34.2348
#
#
#
# Elastic Compliance Matrix: (Units=1/GPa)
#
#
# Indices 1 2 3 4 5 6 
#
# 1 0.032866 -0.004616 0.013668 0.000000 0.046822 0.000000
# 2 -0.004616 0.046371 -0.004661 0.000000 0.000802 0.000000
# 3 0.013668 -0.004661 0.028222 0.000000 0.038072 0.000000
# 4 0.000000 0.000000 0.000000 -0.139432 0.000000 -0.067101
# 5 0.046822 0.000802 0.038072 0.000000 0.118764 0.000000
# 6 0.000000 0.000000 0.000000 -0.067101 0.000000 -0.003082
#
#
# Mechanical properties :
#
#
# Convention : Reuss Voigt Hill
#
# Bulk Modulus (GPa) = 8.60287 23.66881 16.13584
# Shear Modulus (GPa) = 43.98527 21.88317 32.93422
#
# Velocity S-wave (km/s) = 5.02609 3.54513 4.34911
# Velocity P-wave (km/s) = 6.21474 5.50915 5.87255
#
# Compressibility (1/GPa) = 0.11624026
#
# Stress axis : x y z
#
# Youngs Moduli (GPa) = 30.42649 21.56509 35.43387
#
# Poissons Ratio (x) = 0.09955 -0.48431
# Poissons Ratio (y) = 0.14045 0.16516
# Poissons Ratio (z) = -0.41587 0.10052
#
# Static dielectric constant tensor:
#      x y z
#    x 1.598060 0.000000 -0.014830 
#    y 0.000000 1.588640 0.000000 
#    z -0.014830 0.000000 1.589770 
# 
# From -- ./inp_files/54722.got.cif
#   From: 2010.05.17/outbox.cif.g08.bks.cpg/sg10_28_cif.got.tgz:54722.got - 2010.06.03 11:33:40.
