data_PCOD9144857
_publ_section_title
;
Structure prediction by ZEFSAII (Michael W. Deem and Ramdas Pophale) SiO2 
 PCOD9144857
Probable space group: P 2/M
;
_chemical_formula_sum "Si O2"
_cell_formula_units_Z 26
_cell_length_a 6.471540
_cell_length_b 14.308894
_cell_length_c 19.181092
_cell_angle_alpha 90.000000
_cell_angle_beta 52.668750
_cell_angle_gamma 90.000000
_cell_volume 1412.317015
_symmetry_space_group_name_H-M "P 2/M"
_symmetry_group_IT_number 10
_symmetry_cell_setting 'monoclinic'
loop_
_space_group_symop_operation_xyz
x,y,z
-x,y,-z
-x,-y,-z
x,-y,z
loop_
_atom_site_type_symbol
_atom_site_label
_atom_site_fract_x
_atom_site_fract_y
_atom_site_fract_z
Si Si1 0.000000 0.181715 0.500000
Si Si2 0.733942 0.608401 0.098428
Si Si3 0.589478 0.768133 0.902870
Si Si4 0.198537 0.729478 0.777476
Si Si5 0.900959 0.102172 0.372784
Si Si6 0.533752 0.724771 0.414435
Si Si7 0.496134 0.891281 0.207177
O O1 0.043935 0.117490 0.557362
O O2 0.251136 0.247739 0.444144
O O3 0.662755 0.500000 0.119207
O O4 0.521693 0.669337 0.101213
O O5 0.775144 0.656397 0.164824
O O6 0.000000 0.615289 0.000000
O O7 0.466775 0.846170 0.876772
O O8 0.900542 0.762227 0.833199
O O9 0.500000 0.784168 0.000000
O O10 0.306582 0.683761 0.683667
O O11 0.365910 0.821383 0.766176
O O12 0.698459 0.180781 0.393429
O O13 0.185064 0.112139 0.281377
O O14 0.794904 0.000000 0.378737
O O15 0.500000 0.682149 0.500000
O O16 0.577553 0.000000 0.196604
#
# Coordination Sequence:
#
# PCOD9144857 Si02
#       7
#     2   4   4   4   4   4   4
#     4  10  19  32  46  72 107 144 192 242 287 326
#     4  10  22  39  63  94 118 140 177 229 296 360
#     4  11  22  38  60  86 115 151 188 234 282 343
#     4  11  21  39  59  82 120 155 189 235 287 337
#     4  10  19  31  47  73 106 144 193 242 286 326
#     4  10  21  33  52  79 108 150 197 235 282 335
#     4  10  22  36  54  79 114 159 203 237 276 329
#
# _framework density 18.409464
#
# number of rings (size 3 to 8) (size 9 to 14) (size 15 to 20)
#    0.000    1.692    4.615    0.231    0.000    5.846 
#    0.000    0.769    0.000    0.462    0.000    1.615 
#    0.000    0.000    0.000    0.000    0.000    0.000 
#
# Total GULP energy -144979.318597 kJ/mol
# GULP energy per Si atom -5576.127638 kJ/mol
# Density = 1.836756 g / cm^3
# Si number density = 18.409464 Si / 1000 Ang^3
#
#
#
# Elastic Constant Matrix: (Units=GPa)
#
#
# Indices 1 2 3 4 5 6 
#
# 1 68.2290 7.8481 17.3382 0.0000 -6.3853 0.0000
# 2 7.8481 60.6277 19.3995 0.0000 1.9826 0.0000
# 3 17.3382 19.3995 121.9547 0.0000 17.4776 0.0000
# 4 0.0000 0.0000 0.0000 9.5071 0.0000 1.2061
# 5 -6.3853 1.9826 17.4776 0.0000 32.9426 0.0000
# 6 0.0000 0.0000 0.0000 1.2061 0.0000 5.0129
#
#
#
# Elastic Compliance Matrix: (Units=1/GPa)
#
#
# Indices 1 2 3 4 5 6 
#
# 1 0.015931 -0.001345 -0.002711 0.000000 0.004607 0.000000
# 2 -0.001345 0.017499 -0.002602 0.000000 0.000066 0.000000
# 3 -0.002711 -0.002602 0.009797 0.000000 -0.005567 0.000000
# 4 0.000000 0.000000 0.000000 0.108496 0.000000 -0.026105
# 5 0.004607 0.000066 -0.005567 0.000000 0.034198 0.000000
# 6 0.000000 0.000000 0.000000 -0.026105 0.000000 0.205767
#
#
# Mechanical properties :
#
#
# Convention : Reuss Voigt Hill
#
# Bulk Modulus (GPa) = 33.43359 37.77589 35.60474
# Shear Modulus (GPa) = 12.04892 23.24089 17.64491
#
# Velocity S-wave (km/s) = 2.56109 3.55694 3.09927
# Velocity P-wave (km/s) = 5.19096 6.11829 5.67360
#
# Compressibility (1/GPa) = 0.02991004
#
# Stress axis : x y z
#
# Youngs Moduli (GPa) = 62.76894 57.14741 102.07357
#
# Poissons Ratio (x) = 0.07689 0.27675
# Poissons Ratio (y) = 0.08445 0.26557
# Poissons Ratio (z) = 0.17018 0.14868
#
# Static dielectric constant tensor:
#      x y z
#    x 1.625350 0.000000 0.015250 
#    y 0.000000 1.606660 0.000000 
#    z 0.015250 0.000000 1.686760 
# 
# From -- ./inp_files/11226.got.cif
#   From: 2010.05.17/outbox.cif.g08.bks.cpg/sg10_6_cif.got.tgz:11226.got - 2010.06.03 11:33:40.
