data_PCOD9144111
_publ_section_title
;
Structure prediction by ZEFSAII (Michael W. Deem and Ramdas Pophale) SiO2 
 PCOD9144111
Probable space group: P 2/M
;
_chemical_formula_sum "Si O2"
_cell_formula_units_Z 32
_cell_length_a 25.119724
_cell_length_b 9.042265
_cell_length_c 14.518396
_cell_angle_alpha 90.000000
_cell_angle_beta 150.248462
_cell_angle_gamma 90.000000
_cell_volume 1636.448464
_symmetry_space_group_name_H-M "P 2/M"
_symmetry_group_IT_number 10
_symmetry_cell_setting 'monoclinic'
loop_
_space_group_symop_operation_xyz
x,y,z
-x,y,-z
-x,-y,-z
x,-y,z
loop_
_atom_site_type_symbol
_atom_site_label
_atom_site_fract_x
_atom_site_fract_y
_atom_site_fract_z
Si Si1 0.466208 0.328787 0.044691
Si Si2 0.476494 0.673903 0.572532
Si Si3 0.884306 0.176602 0.368485
Si Si4 0.327057 0.320723 0.000940
Si Si5 0.961305 0.677233 0.045050
Si Si6 0.257073 0.174117 0.305265
Si Si7 0.706780 0.667991 0.457273
Si Si8 0.138168 0.675615 0.466703
O O1 0.434578 0.500000 0.976487
O O2 0.375915 0.269194 0.975972
O O3 0.578461 0.333344 0.267930
O O4 0.500000 0.254499 0.000000
O O5 0.500000 0.688651 0.500000
O O6 0.457740 0.500000 0.565458
O O7 0.582914 0.719467 0.788780
O O8 0.369269 0.760943 0.437589
O O9 0.875113 0.237363 0.458873
O O10 0.000000 0.214871 0.500000
O O11 0.872716 0.000000 0.350880
O O12 0.789062 0.249529 0.165796
O O13 0.318789 0.500000 0.987691
O O14 0.948716 0.500000 0.024491
O O15 0.847518 0.751125 0.895886
O O16 0.000000 0.721777 0.000000
O O17 0.048285 0.711943 0.254606
O O18 0.251713 0.220196 0.404648
O O19 0.254263 0.000000 0.289248
O O20 0.745454 0.500000 0.536915
O O21 0.750412 0.701513 0.420896
O O22 0.132389 0.500000 0.478498
#
# Coordination Sequence:
#
# PCOD9144111 Si02
#       8
#     4   4   4   4   4   4   4   4
#     4   9  16  28  54  88 117 147 187 240 299 351
#     4  10  22  42  67  92 119 157 208 262 308 354
#     4  11  26  45  62  84 123 169 204 247 308 369
#     4  10  20  38  65  92 117 151 202 257 300 350
#     4  10  20  38  63  89 121 162 210 259 305 360
#     4  12  24  36  56  88 128 167 199 241 305 372
#     4  10  18  35  60  86 121 157 198 249 301 359
#     4  10  21  38  66  95 117 155 209 261 306 353
#
# _framework density 19.554542000000001
#
# number of rings (size 3 to 8) (size 9 to 14) (size 15 to 20)
#    0.000    1.750    2.500    2.250    0.000    6.000 
#    0.000    3.750    0.000    1.500    0.000    0.000 
#    0.000    0.000    0.000    0.000    0.000    0.000 
#
# Total GULP energy -178685.138978 kJ/mol
# GULP energy per Si atom -5583.910593 kJ/mol
# Density = 1.951003 g / cm^3
# Si number density = 19.554542 Si / 1000 Ang^3
#
#
#
# Elastic Constant Matrix: (Units=GPa)
#
#
# Indices 1 2 3 4 5 6 
#
# 1 82.7561 32.5682 47.4339 0.0000 14.0607 0.0000
# 2 32.5682 41.1393 44.3389 0.0000 11.0851 0.0000
# 3 47.4339 44.3389 128.5159 0.0000 22.9223 0.0000
# 4 0.0000 0.0000 0.0000 -2.2732 0.0000 5.7547
# 5 14.0607 11.0851 22.9223 0.0000 33.4638 0.0000
# 6 0.0000 0.0000 0.0000 5.7547 0.0000 15.1133
#
#
#
# Elastic Compliance Matrix: (Units=1/GPa)
#
#
# Indices 1 2 3 4 5 6 
#
# 1 0.018302 -0.011195 -0.002486 0.000000 -0.002278 0.000000
# 2 -0.011195 0.046066 -0.011253 0.000000 -0.002847 0.000000
# 3 -0.002486 -0.011253 0.013363 0.000000 -0.004381 0.000000
# 4 0.000000 0.000000 0.000000 -0.223994 0.000000 0.085291
# 5 -0.002278 -0.002847 -0.004381 0.000000 0.034785 0.000000
# 6 0.000000 0.000000 0.000000 0.085291 0.000000 0.033690
#
#
# Mechanical properties :
#
#
# Convention : Reuss Voigt Hill
#
# Bulk Modulus (GPa) = 35.89221 55.67702 45.78461
# Shear Modulus (GPa) = -268.34111 17.79880 -125.27115
#
# Velocity S-wave (km/s) = -11.72710 3.02025 -8.01258
# Velocity P-wave (km/s) = 12.84413 6.37942 7.88273
#
# Compressibility (1/GPa) = 0.02786120
#
# Stress axis : x y z
#
# Youngs Moduli (GPa) = 54.64010 21.70798 74.83583
#
# Poissons Ratio (x) = 0.24302 0.18605
# Poissons Ratio (y) = 0.61170 0.84214
# Poissons Ratio (z) = 0.13584 0.24428
#
# Static dielectric constant tensor:
#      x y z
#    x 1.694610 0.000000 -0.010600 
#    y 0.000000 1.647550 0.000000 
#    z -0.010600 0.000000 1.713810 
# 
# From -- ./inp_files/71601.got.cif
#   From: 2010.05.17/outbox.cif.g08.bks.cpg/sg10_36_cif.got.tgz:71601.got - 2010.06.03 11:33:40.
