data_PCOD9144203
_publ_section_title
;
Structure prediction by ZEFSAII (Michael W. Deem and Ramdas Pophale) SiO2 
 PCOD9144203
Probable space group: P 2/M
;
_chemical_formula_sum "Si O2"
_cell_formula_units_Z 24
_cell_length_a 8.756448
_cell_length_b 18.605166
_cell_length_c 13.969952
_cell_angle_alpha 90.000000
_cell_angle_beta 26.918599
_cell_angle_gamma 90.000000
_cell_volume 1030.362685
_symmetry_space_group_name_H-M "P 2/M"
_symmetry_group_IT_number 10
_symmetry_cell_setting 'monoclinic'
loop_
_space_group_symop_operation_xyz
x,y,z
-x,y,-z
-x,-y,-z
x,-y,z
loop_
_atom_site_type_symbol
_atom_site_label
_atom_site_fract_x
_atom_site_fract_y
_atom_site_fract_z
Si Si1 0.776929 0.500000 0.425881
Si Si2 0.366232 0.646547 0.843641
Si Si3 0.239712 0.917945 0.270461
Si Si4 0.596066 0.500000 0.734401
Si Si5 0.642450 0.196137 0.148690
Si Si6 0.196201 0.345563 0.591784
Si Si7 0.205998 0.812234 0.584773
O O1 0.500000 0.500000 0.500000
O O2 0.530471 0.500000 0.657003
O O3 0.972371 0.424335 0.308705
O O4 0.452458 0.574600 0.852713
O O5 0.373102 0.724384 0.888368
O O6 0.638905 0.652203 0.605953
O O7 0.000000 0.638930 0.000000
O O8 0.545496 0.866570 0.131041
O O9 0.000000 0.919916 0.500000
O O10 0.043881 0.878376 0.293525
O O11 0.329284 0.000000 0.199300
O O12 0.000000 0.500000 0.500000
O O13 0.386185 0.194580 0.380881
O O14 0.000000 0.186822 0.000000
O O15 0.500000 0.345849 0.500000
O O16 0.038958 0.266626 0.693340
O O17 0.500000 0.822972 0.500000
#
# Coordination Sequence:
#
# PCOD9144203 Si02
#       7
#     2   4   4   2   4   4   4
#     4   8  14  25  40  61  86 116 149 180 213 259
#     4   9  17  29  45  67  94 123 153 189 233 274
#     4   9  18  32  50  71  94 123 157 192 235 286
#     4  10  19  27  42  71  97 118 153 198 232 261
#     4   9  18  32  50  70  94 125 158 192 234 284
#     4   8  14  25  43  67  89 117 155 190 221 266
#     4   9  17  30  49  71  95 123 157 196 233 275
#
# _framework density 23.292769
#
# number of rings (size 3 to 8) (size 9 to 14) (size 15 to 20)
#    0.000    3.167    0.000    0.250    0.000    5.333 
#    0.000    0.833    0.000    1.000    0.000   53.667 
#    0.000    0.000    0.000    0.000    0.000    0.000 
#
# Total GULP energy -133802.933140 kJ/mol
# GULP energy per Si atom -5575.122214 kJ/mol
# Density = 2.323975 g / cm^3
# Si number density = 23.292769 Si / 1000 Ang^3
#
#
#
# Elastic Constant Matrix: (Units=GPa)
#
#
# Indices 1 2 3 4 5 6 
#
# 1 84.1741 67.4024 23.4537 0.0000 -6.1417 0.0000
# 2 67.4024 315.9326 46.2796 0.0000 -47.0402 0.0000
# 3 23.4537 46.2796 42.2759 0.0000 6.1560 0.0000
# 4 0.0000 0.0000 0.0000 11.1975 0.0000 -17.6394
# 5 -6.1417 -47.0402 6.1560 0.0000 42.8090 0.0000
# 6 0.0000 0.0000 0.0000 -17.6394 0.0000 62.8917
#
#
#
# Elastic Compliance Matrix: (Units=1/GPa)
#
#
# Indices 1 2 3 4 5 6 
#
# 1 0.015489 -0.002325 -0.006127 0.000000 0.000548 0.000000
# 2 -0.002325 0.005444 -0.005610 0.000000 0.006455 0.000000
# 3 -0.006127 -0.005610 0.034952 0.000000 -0.012069 0.000000
# 4 0.000000 0.000000 0.000000 0.159997 0.000000 0.044875
# 5 0.000548 0.006455 -0.012069 0.000000 0.032267 0.000000
# 6 0.000000 0.000000 0.000000 0.044875 0.000000 0.028487
#
#
# Mechanical properties :
#
#
# Convention : Reuss Voigt Hill
#
# Bulk Modulus (GPa) = 36.02227 79.62823 57.82525
# Shear Modulus (GPa) = 15.92278 43.72943 29.82611
#
# Velocity S-wave (km/s) = 2.61740 4.33758 3.58227
# Velocity P-wave (km/s) = 4.96316 7.70364 6.47993
#
# Compressibility (1/GPa) = 0.02776060
#
# Stress axis : x y z
#
# Youngs Moduli (GPa) = 64.55990 183.67939 28.61062
#
# Poissons Ratio (x) = 0.42713 0.17531
# Poissons Ratio (y) = 0.15013 0.16050
# Poissons Ratio (z) = 0.39559 1.03040
#
# Static dielectric constant tensor:
#      x y z
#    x 1.968120 0.000000 -0.021930 
#    y 0.000000 1.940670 0.000000 
#    z -0.021930 0.000000 1.887420 
# 
# From -- ./inp_files/75424.got.cif
#   From: 2010.05.17/outbox.cif.g08.bks.cpg/sg10_38_cif.got.tgz:75424.got - 2010.06.03 11:33:40.
