data_PCOD9144106
_publ_section_title
;
Structure prediction by ZEFSAII (Michael W. Deem and Ramdas Pophale) SiO2 
 PCOD9144106
Probable space group: P 2/M
;
_chemical_formula_sum "Si O2"
_cell_formula_units_Z 24
_cell_length_a 18.403645
_cell_length_b 7.693301
_cell_length_c 24.547075
_cell_angle_alpha 90.000000
_cell_angle_beta 160.054283
_cell_angle_gamma 90.000000
_cell_volume 1185.593652
_symmetry_space_group_name_H-M "P 2/M"
_symmetry_group_IT_number 10
_symmetry_cell_setting 'monoclinic'
loop_
_space_group_symop_operation_xyz
x,y,z
-x,y,-z
-x,-y,-z
x,-y,z
loop_
_atom_site_type_symbol
_atom_site_label
_atom_site_fract_x
_atom_site_fract_y
_atom_site_fract_z
Si Si1 0.880279 0.790023 0.634528
Si Si2 0.937296 0.299827 0.795007
Si Si3 0.508733 0.296455 0.289187
Si Si4 0.751760 0.000000 0.840199
Si Si5 0.691732 0.000000 0.677498
Si Si6 0.427973 0.707084 0.115103
Si Si7 0.642647 0.797299 0.052426
O O1 0.830492 0.722378 0.660151
O O2 0.709527 0.731006 0.469938
O O3 0.118386 0.724997 0.786798
O O4 0.884628 0.000000 0.640332
O O5 0.926269 0.500000 0.804333
O O6 0.830289 0.169862 0.761585
O O7 0.183168 0.249579 0.958030
O O8 0.445797 0.500000 0.245190
O O9 0.323960 0.169869 0.180637
O O10 0.557963 0.247093 0.260975
O O11 0.627787 0.000000 0.695117
O O12 0.000000 0.000000 0.000000
O O13 0.500000 0.000000 0.500000
O O14 0.439945 0.500000 0.116039
O O15 0.470924 0.786213 0.086445
O O16 0.674449 0.000000 0.088230
O O17 0.500000 0.719375 0.000000
#
# Coordination Sequence:
#
# PCOD9144106 Si02
#       7
#     4   4   4   2   2   4   4
#     4  10  18  35  60  84 115 154 197 235 282 341
#     4  10  20  37  58  79 108 147 188 235 283 334
#     4  11  23  40  60  85 116 153 198 237 280 345
#     4  12  26  40  60  86 115 153 188 237 305 342
#     4  12  24  36  54  82 111 139 188 231 285 352
#     4   9  20  36  58  83 107 148 194 227 275 340
#     4   9  19  34  58  91 120 149 188 236 286 336
#
# _framework density 20.243023999999998
#
# number of rings (size 3 to 8) (size 9 to 14) (size 15 to 20)
#    0.000    1.833    1.667    2.500    2.333    2.333 
#    0.000    0.833    0.000    5.000    0.000    0.000 
#    0.000    0.000    0.000    0.000    0.000    0.000 
#
# Total GULP energy -134047.113142 kJ/mol
# GULP energy per Si atom -5585.296381 kJ/mol
# Density = 2.019695 g / cm^3
# Si number density = 20.243024 Si / 1000 Ang^3
#
#
#
# Elastic Constant Matrix: (Units=GPa)
#
#
# Indices 1 2 3 4 5 6 
#
# 1 111.6943 33.7707 21.1311 0.0000 -6.1934 0.0000
# 2 33.7707 80.9019 1.6042 0.0000 8.6148 0.0000
# 3 21.1311 1.6042 56.4579 0.0000 -19.5637 0.0000
# 4 0.0000 0.0000 0.0000 -5.7422 0.0000 -45.7191
# 5 -6.1934 8.6148 -19.5637 0.0000 32.8574 0.0000
# 6 0.0000 0.0000 0.0000 -45.7191 0.0000 -58.7787
#
#
#
# Elastic Compliance Matrix: (Units=1/GPa)
#
#
# Indices 1 2 3 4 5 6 
#
# 1 0.011123 -0.004696 -0.003624 0.000000 0.001170 0.000000
# 2 -0.004696 0.014864 -0.000406 0.000000 -0.005024 0.000000
# 3 -0.003624 -0.000406 0.023789 0.000000 0.013587 0.000000
# 4 0.000000 0.000000 0.000000 0.033536 0.000000 -0.026085
# 5 0.001170 -0.005024 0.013587 0.000000 0.040062 0.000000
# 6 0.000000 0.000000 0.000000 -0.026085 0.000000 0.003276
#
#
# Mechanical properties :
#
#
# Convention : Reuss Voigt Hill
#
# Bulk Modulus (GPa) = 30.93683 40.22957 35.58320
# Shear Modulus (GPa) = 32.28381 6.50386 19.39384
#
# Velocity S-wave (km/s) = 3.99784 1.79440 3.09860
# Velocity P-wave (km/s) = 6.05196 4.92032 5.51524
#
# Compressibility (1/GPa) = 0.03232394
#
# Stress axis : x y z
#
# Youngs Moduli (GPa) = 89.90073 67.27733 42.03696
#
# Poissons Ratio (x) = 0.31593 0.15236
# Poissons Ratio (y) = 0.42217 0.01705
# Poissons Ratio (z) = 0.32584 0.02729
#
# Static dielectric constant tensor:
#      x y z
#    x 1.712580 0.000000 -0.018300 
#    y 0.000000 1.728350 0.000000 
#    z -0.018300 0.000000 1.755280 
# 
# From -- ./inp_files/33810.got.cif
#   From: 2010.05.17/outbox.cif.g08.bks.cpg/sg10_17_cif.got.tgz:33810.got - 2010.06.03 11:33:40.
