data_PCOD9144933
_publ_section_title
;
Structure prediction by ZEFSAII (Michael W. Deem and Ramdas Pophale) SiO2 
 PCOD9144933
Probable space group: P 2/M
;
_chemical_formula_sum "Si O2"
_cell_formula_units_Z 28
_cell_length_a 11.448909
_cell_length_b 20.698221
_cell_length_c 5.451698
_cell_angle_alpha 90.000000
_cell_angle_beta 113.761580
_cell_angle_gamma 90.000000
_cell_volume 1182.385757
_symmetry_space_group_name_H-M "P 2/M"
_symmetry_group_IT_number 10
_symmetry_cell_setting 'monoclinic'
loop_
_space_group_symop_operation_xyz
x,y,z
-x,y,-z
-x,-y,-z
x,-y,z
loop_
_atom_site_type_symbol
_atom_site_label
_atom_site_fract_x
_atom_site_fract_y
_atom_site_fract_z
Si Si1 0.140486 0.575649 0.618304
Si Si2 0.512889 0.821100 0.260922
Si Si3 0.220057 0.745181 0.518191
Si Si4 0.139792 0.876310 0.584738
Si Si5 0.705209 0.573974 0.746865
Si Si6 0.309361 0.703360 0.097359
Si Si7 0.847865 0.075008 0.905121
O O1 0.120735 0.500000 0.540458
O O2 0.235452 0.590805 0.469273
O O3 0.000000 0.607719 0.500000
O O4 0.193309 0.575414 0.941768
O O5 0.500000 0.858987 0.500000
O O6 0.647355 0.784908 0.375930
O O7 0.410342 0.761861 0.172483
O O8 0.500000 0.859047 0.000000
O O9 0.122549 0.802220 0.491228
O O10 0.211593 0.716833 0.238663
O O11 0.237067 0.701181 0.774575
O O12 0.206910 0.909456 0.409810
O O13 0.000000 0.907783 0.500000
O O14 0.200627 0.883050 0.905777
O O15 0.653786 0.500000 0.696912
O O16 0.623119 0.635724 0.770369
O O17 0.832765 0.000000 0.952423
O O18 0.000000 0.089090 0.000000
#
# Coordination Sequence:
#
# PCOD9144933 Si02
#       7
#     4   4   4   4   4   4   4
#     4   9  17  30  46  64  88 119 158 197 232 284
#     4   8  16  30  50  68  87 116 157 203 247 288
#     4  10  19  33  51  70  97 131 165 202 245 286
#     4  10  19  31  48  73 107 138 166 201 235 279
#     4  10  19  31  49  70  92 123 160 206 261 309
#     4  10  19  33  50  70  96 122 159 211 258 301
#     4   9  17  30  49  73 104 142 173 196 229 274
#
# _framework density 23.680931999999999
#
# number of rings (size 3 to 8) (size 9 to 14) (size 15 to 20)
#    0.000    2.571    0.000    2.571    0.000    3.429 
#    0.000    4.286    0.000    7.714    0.000    0.000 
#    0.000  102.857    0.000    0.000    0.000    0.000 
#
# Total GULP energy -155888.298986 kJ/mol
# GULP energy per Si atom -5567.439250 kJ/mol
# Density = 2.362703 g / cm^3
# Si number density = 23.680932 Si / 1000 Ang^3
#
#
#
# Elastic Constant Matrix: (Units=GPa)
#
#
# Indices 1 2 3 4 5 6 
#
# 1 39.6643 9.0499 32.4053 0.0000 -15.9774 0.0000
# 2 9.0499 59.6089 0.2483 0.0000 -7.4327 0.0000
# 3 32.4053 0.2483 131.4809 0.0000 -40.6800 0.0000
# 4 0.0000 0.0000 0.0000 30.1502 0.0000 -13.4622
# 5 -15.9774 -7.4327 -40.6800 0.0000 30.0869 0.0000
# 6 0.0000 0.0000 0.0000 -13.4622 0.0000 6.9538
#
#
#
# Elastic Compliance Matrix: (Units=1/GPa)
#
#
# Indices 1 2 3 4 5 6 
#
# 1 0.034591 -0.003971 -0.005395 0.000000 0.010094 0.000000
# 2 -0.003971 0.018150 0.002887 0.000000 0.006279 0.000000
# 3 -0.005395 0.002887 0.014208 0.000000 0.017058 0.000000
# 4 0.000000 0.000000 0.000000 0.244607 0.000000 0.473546
# 5 0.010094 0.006279 0.017058 0.000000 0.063213 0.000000
# 6 0.000000 0.000000 0.000000 0.473546 0.000000 1.060563
#
#
# Mechanical properties :
#
#
# Convention : Reuss Voigt Hill
#
# Bulk Modulus (GPa) = 18.52143 34.90678 26.71410
# Shear Modulus (GPa) = 3.40998 26.04155 14.72576
#
# Velocity S-wave (km/s) = 1.20129 3.31975 2.49638
# Velocity P-wave (km/s) = 3.12447 5.42833 4.42883
#
# Compressibility (1/GPa) = 0.05399152
#
# Stress axis : x y z
#
# Youngs Moduli (GPa) = 28.90917 55.09743 70.38477
#
# Poissons Ratio (x) = 0.21876 0.37971
# Poissons Ratio (y) = 0.11478 -0.20319
# Poissons Ratio (z) = 0.15596 -0.15906
#
# Static dielectric constant tensor:
#      x y z
#    x 1.926020 0.000000 -0.034080 
#    y 0.000000 1.997730 0.000000 
#    z -0.034080 0.000000 1.989210 
# 
# From -- ./inp_files/9690.got.cif
#   From: 2010.05.17/outbox.cif.g08.bks.cpg/sg10_5_cif.got.tgz:9690.got - 2010.06.03 11:33:40.
