data_PCOD9144900
_publ_section_title
;
Structure prediction by ZEFSAII (Michael W. Deem and Ramdas Pophale) SiO2 
 PCOD9144900
Probable space group: P 2/M
;
_chemical_formula_sum "Si O2"
_cell_formula_units_Z 28
_cell_length_a 14.131421
_cell_length_b 7.406997
_cell_length_c 16.498682
_cell_angle_alpha 90.000000
_cell_angle_beta 42.635856
_cell_angle_gamma 90.000000
_cell_volume 1169.719497
_symmetry_space_group_name_H-M "P 2/M"
_symmetry_group_IT_number 10
_symmetry_cell_setting 'monoclinic'
loop_
_space_group_symop_operation_xyz
x,y,z
-x,y,-z
-x,-y,-z
x,-y,z
loop_
_atom_site_type_symbol
_atom_site_label
_atom_site_fract_x
_atom_site_fract_y
_atom_site_fract_z
Si Si1 0.345450 0.710723 0.442469
Si Si2 0.920288 0.282681 0.966461
Si Si3 0.836338 0.217813 0.600540
Si Si4 0.580078 0.218069 0.030116
Si Si5 0.154660 0.217934 0.227402
Si Si6 0.608624 0.291549 0.189072
Si Si7 0.891584 0.707709 0.298623
O O1 0.367407 0.500000 0.448017
O O2 0.251313 0.715497 0.420122
O O3 0.496456 0.788271 0.322437
O O4 0.250737 0.788183 0.574938
O O5 0.907508 0.500000 0.960426
O O6 0.019358 0.211334 0.831656
O O7 0.762557 0.211010 0.078021
O O8 0.000000 0.254651 0.000000
O O9 0.786544 0.271238 0.721957
O O10 0.000000 0.268661 0.500000
O O11 0.830343 0.000000 0.598743
O O12 0.539156 0.287113 0.143574
O O13 0.569107 0.000000 0.040275
O O14 0.500000 0.276846 0.000000
O O15 0.739606 0.271262 0.910003
O O16 0.002567 0.289454 0.302545
O O17 0.145785 0.000000 0.233850
O O18 0.630399 0.500000 0.199316
O O19 0.861267 0.500000 0.295351
#
# Coordination Sequence:
#
# PCOD9144900 Si02
#       7
#     4   4   4   4   4   4   4
#     4  10  21  33  48  75 109 139 171 216 262 303
#     4   9  18  35  59  81 101 132 174 219 269 324
#     4  10  19  31  48  71 102 144 187 216 247 303
#     4  10  20  33  50  73 105 142 178 216 258 305
#     4  10  19  31  48  72 101 134 177 220 252 292
#     4  10  20  35  53  77 107 137 173 218 264 312
#     4  10  19  33  53  75 100 132 169 208 257 312
#
# _framework density 23.937365
#
# number of rings (size 3 to 8) (size 9 to 14) (size 15 to 20)
#    0.000    2.143    2.857    0.857    0.000    2.857 
#    0.000    0.714    0.000    6.000    0.000    0.000 
#    0.000    3.429    0.000    0.000    0.000    0.000 
#
# Total GULP energy -156326.099019 kJ/mol
# GULP energy per Si atom -5583.074965 kJ/mol
# Density = 2.388288 g / cm^3
# Si number density = 23.937365 Si / 1000 Ang^3
#
#
#
# Elastic Constant Matrix: (Units=GPa)
#
#
# Indices 1 2 3 4 5 6 
#
# 1 52.4715 -0.2843 49.4871 0.0000 -1.5694 0.0000
# 2 -0.2843 78.9677 14.1443 0.0000 -1.1338 0.0000
# 3 49.4871 14.1443 252.4139 0.0000 -13.6550 0.0000
# 4 0.0000 0.0000 0.0000 -1.2516 0.0000 3.9918
# 5 -1.5694 -1.1338 -13.6550 0.0000 22.0401 0.0000
# 6 0.0000 0.0000 0.0000 3.9918 0.0000 15.8194
#
#
#
# Elastic Compliance Matrix: (Units=1/GPa)
#
#
# Indices 1 2 3 4 5 6 
#
# 1 0.023478 0.000913 -0.004719 0.000000 -0.001205 0.000000
# 2 0.000913 0.012828 -0.000888 0.000000 0.000175 0.000000
# 3 -0.004719 -0.000888 0.005087 0.000000 0.002770 0.000000
# 4 0.000000 0.000000 0.000000 -0.442705 0.000000 0.111709
# 5 -0.001205 0.000175 0.002770 0.000000 0.047011 0.000000
# 6 0.000000 0.000000 0.000000 0.111709 0.000000 0.035026
#
#
# Mechanical properties :
#
#
# Convention : Reuss Voigt Hill
#
# Bulk Modulus (GPa) = 31.24758 56.72748 43.98753
# Shear Modulus (GPa) = -16.71022 28.68865 5.98922
#
# Velocity S-wave (km/s) = -2.64499 3.46567 1.58350
# Velocity P-wave (km/s) = 1.93760 6.30589 4.66468
#
# Compressibility (1/GPa) = 0.03200248
#
# Stress axis : x y z
#
# Youngs Moduli (GPa) = 42.59363 77.95262 196.59538
#
# Poissons Ratio (x) = -0.07113 0.92778
# Poissons Ratio (y) = -0.03887 0.17464
# Poissons Ratio (z) = 0.20101 0.06925
#
# Static dielectric constant tensor:
#      x y z
#    x 1.869260 0.000000 -0.025990 
#    y 0.000000 1.906100 0.000000 
#    z -0.025990 0.000000 1.994900 
# 
# From -- ./inp_files/77700.got.cif
#   From: 2010.05.17/outbox.cif.g08.bks.cpg/sg10_39_cif.got.tgz:77700.got - 2010.06.03 11:33:40.
