data_PCOD9144045
_publ_section_title
;
Structure prediction by ZEFSAII (Michael W. Deem and Ramdas Pophale) SiO2 
 PCOD9144045
Probable space group: P 2/M
;
_chemical_formula_sum "Si O2"
_cell_formula_units_Z 32
_cell_length_a 29.926284
_cell_length_b 8.748867
_cell_length_c 12.544940
_cell_angle_alpha 90.000000
_cell_angle_beta 146.404875
_cell_angle_gamma 90.000000
_cell_volume 1817.398213
_symmetry_space_group_name_H-M "P 2/M"
_symmetry_group_IT_number 10
_symmetry_cell_setting 'monoclinic'
loop_
_space_group_symop_operation_xyz
x,y,z
-x,y,-z
-x,-y,-z
x,-y,z
loop_
_atom_site_type_symbol
_atom_site_label
_atom_site_fract_x
_atom_site_fract_y
_atom_site_fract_z
Si Si1 0.464594 0.183419 0.812533
Si Si2 0.760973 0.684802 0.437775
Si Si3 0.878625 0.314728 0.491748
Si Si4 0.214216 0.181258 0.066057
Si Si5 0.625274 0.817012 0.012901
Si Si6 0.963390 0.683021 0.309289
Si Si7 0.711605 0.317457 0.572756
Si Si8 0.731189 0.316741 0.043838
O O1 0.381299 0.268491 0.626179
O O2 0.450693 0.000000 0.781793
O O3 0.500000 0.219601 0.000000
O O4 0.534286 0.222247 0.865971
O O5 0.754317 0.500000 0.417749
O O6 0.840629 0.730917 0.529537
O O7 0.685317 0.754842 0.223889
O O8 0.756879 0.728014 0.552987
O O9 0.881575 0.500000 0.495417
O O10 0.812463 0.270367 0.270829
O O11 0.967557 0.262913 0.635863
O O12 0.250780 0.239472 0.249389
O O13 0.219004 0.000000 0.069248
O O14 0.121579 0.235494 0.872816
O O15 0.261718 0.253036 0.060358
O O16 0.657136 0.746506 0.966168
O O17 0.631998 0.000000 0.022535
O O18 0.950626 0.500000 0.271564
O O19 0.000000 0.706139 0.500000
O O20 0.717432 0.500000 0.595349
O O21 0.728691 0.500000 0.037267
#
# Coordination Sequence:
#
# PCOD9144045 Si02
#       8
#     4   4   4   4   4   4   4   4
#     4  10  20  36  57  84 119 153 186 228 284 339
#     4   9  18  33  54  82 112 147 190 235 279 328
#     4   8  15  30  55  83 110 140 179 229 280 326
#     4  12  25  39  56  81 116 152 188 231 291 350
#     4  10  19  32  55  86 117 148 183 227 282 336
#     4  10  18  34  59  85 112 146 188 232 281 335
#     4  11  23  38  58  82 112 151 198 240 281 332
#     4  10  19  36  58  82 113 147 188 232 280 332
#
# _framework density 17.607589000000001
#
# number of rings (size 3 to 8) (size 9 to 14) (size 15 to 20)
#    0.000    2.000    2.500    3.000    0.000    2.000 
#    0.000    1.875    0.000    7.500    0.000    0.000 
#    0.000    0.000    0.000    0.000    0.000    0.000 
#
# Total GULP energy -178597.016805 kJ/mol
# GULP energy per Si atom -5581.156775 kJ/mol
# Density = 1.756751 g / cm^3
# Si number density = 17.607589 Si / 1000 Ang^3
#
#
#
# Elastic Constant Matrix: (Units=GPa)
#
#
# Indices 1 2 3 4 5 6 
#
# 1 175.0600 53.0435 55.2833 0.0000 -9.0719 0.0000
# 2 53.0435 49.7005 30.9393 0.0000 -4.7885 0.0000
# 3 55.2833 30.9393 59.6727 0.0000 -10.1632 0.0000
# 4 0.0000 0.0000 0.0000 30.4021 0.0000 5.0230
# 5 -9.0719 -4.7885 -10.1632 0.0000 25.4944 0.0000
# 6 0.0000 0.0000 0.0000 5.0230 0.0000 27.1700
#
#
#
# Elastic Compliance Matrix: (Units=1/GPa)
#
#
# Indices 1 2 3 4 5 6 
#
# 1 0.009418 -0.006821 -0.005188 0.000000 0.000002 0.000000
# 2 -0.006821 0.034659 -0.011753 0.000000 -0.000603 0.000000
# 3 -0.005188 -0.011753 0.028932 0.000000 0.007480 0.000000
# 4 0.000000 0.000000 0.000000 0.033929 0.000000 -0.006273
# 5 0.000002 -0.000603 0.007480 0.000000 0.042094 0.000000
# 6 0.000000 0.000000 0.000000 -0.006273 0.000000 0.037965
#
#
# Mechanical properties :
#
#
# Convention : Reuss Voigt Hill
#
# Bulk Modulus (GPa) = 39.24024 62.55172 50.89598
# Shear Modulus (GPa) = 20.57478 26.29112 23.43295
#
# Velocity S-wave (km/s) = 3.42207 3.86835 3.65203
# Velocity P-wave (km/s) = 6.16023 7.45350 6.83751
#
# Compressibility (1/GPa) = 0.02548404
#
# Stress axis : x y z
#
# Youngs Moduli (GPa) = 106.18428 28.85228 34.56368
#
# Poissons Ratio (x) = 0.19681 0.17931
# Poissons Ratio (y) = 0.72433 0.40624
# Poissons Ratio (z) = 0.55086 0.33911
#
# Static dielectric constant tensor:
#      x y z
#    x 1.624420 0.000000 0.005360 
#    y 0.000000 1.591690 0.000000 
#    z 0.005360 0.000000 1.560050 
# 
# From -- ./inp_files/58260.got.cif
#   From: 2010.05.17/outbox.cif.g08.bks.cpg/sg10_30_cif.got.tgz:58260.got - 2010.06.03 11:33:40.
