data_PCOD9144839
_publ_section_title
;
Structure prediction by ZEFSAII (Michael W. Deem and Ramdas Pophale) SiO2 
 PCOD9144839
Probable space group: P 2/M
;
_chemical_formula_sum "Si O2"
_cell_formula_units_Z 32
_cell_length_a 26.083785
_cell_length_b 14.494803
_cell_length_c 8.622926
_cell_angle_alpha 90.000000
_cell_angle_beta 30.101401
_cell_angle_gamma 90.000000
_cell_volume 1635.069218
_symmetry_space_group_name_H-M "P 2/M"
_symmetry_group_IT_number 10
_symmetry_cell_setting 'monoclinic'
loop_
_space_group_symop_operation_xyz
x,y,z
-x,y,-z
-x,-y,-z
x,-y,z
loop_
_atom_site_type_symbol
_atom_site_label
_atom_site_fract_x
_atom_site_fract_y
_atom_site_fract_z
Si Si1 0.659524 0.391534 0.501895
Si Si2 0.203819 0.249370 0.725828
Si Si3 0.474954 0.895192 0.748554
Si Si4 0.312002 0.251205 0.140098
Si Si5 0.796712 0.896184 0.783997
Si Si6 0.027360 0.104417 0.246205
Si Si7 0.320473 0.897674 0.595659
Si Si8 0.459798 0.391843 0.854138
O O1 0.677665 0.500000 0.427972
O O2 0.765155 0.335435 0.245305
O O3 0.575470 0.359458 0.593684
O O4 0.601696 0.383455 0.820440
O O5 0.224926 0.275943 0.492755
O O6 0.290320 0.177459 0.552969
O O7 0.101128 0.189560 0.013114
O O8 0.500000 0.886049 0.500000
O O9 0.575172 0.879145 0.587434
O O10 0.442419 0.000000 0.859897
O O11 0.389938 0.822446 0.008670
O O12 0.260145 0.191160 0.141004
O O13 0.389689 0.336859 0.914623
O O14 0.918085 0.888566 0.446711
O O15 0.764493 0.000000 0.811536
O O16 0.766626 0.896656 0.043531
O O17 0.000000 0.107662 0.500000
O O18 0.069591 0.000000 0.103997
O O19 0.326317 0.000000 0.513272
O O20 0.465049 0.500000 0.801873
#
# Coordination Sequence:
#
# PCOD9144839 Si02
#       8
#     4   4   4   4   4   4   4   4
#     4   8  15  30  52  78 107 137 169 208 260 320
#     4  11  21  32  53  82 103 126 173 231 267 291
#     4  10  19  31  47  69 101 141 173 195 240 317
#     4  11  21  32  51  80 108 132 170 221 261 299
#     4  10  20  35  53  72 100 143 183 210 253 314
#     4  10  20  36  56  75  99 137 183 221 257 310
#     4  10  19  32  50  72 100 138 176 204 247 314
#     4   8  15  30  52  77 107 140 170 205 257 317
#
# _framework density 19.571037
#
# number of rings (size 3 to 8) (size 9 to 14) (size 15 to 20)
#    0.000    2.250    2.500    2.250    0.000    4.000 
#    0.000    2.500    0.000    2.250    0.000    3.500 
#    0.000    0.000    0.000    0.000    0.000    0.000 
#
# Total GULP energy -178330.063524 kJ/mol
# GULP energy per Si atom -5572.814485 kJ/mol
# Density = 1.952649 g / cm^3
# Si number density = 19.571037 Si / 1000 Ang^3
#
#
#
# Elastic Constant Matrix: (Units=GPa)
#
#
# Indices 1 2 3 4 5 6 
#
# 1 39.4528 23.1810 5.6558 0.0000 -9.9524 0.0000
# 2 23.1810 85.8835 21.9623 0.0000 -10.6139 0.0000
# 3 5.6558 21.9623 54.1531 0.0000 -14.0228 0.0000
# 4 0.0000 0.0000 0.0000 11.2442 0.0000 -8.8108
# 5 -9.9524 -10.6139 -14.0228 0.0000 23.8110 0.0000
# 6 0.0000 0.0000 0.0000 -8.8108 0.0000 30.0919
#
#
#
# Elastic Compliance Matrix: (Units=1/GPa)
#
#
# Indices 1 2 3 4 5 6 
#
# 1 0.032658 -0.008109 0.002922 0.000000 0.011757 0.000000
# 2 -0.008109 0.015211 -0.005244 0.000000 0.000303 0.000000
# 3 0.002922 -0.005244 0.023597 0.000000 0.012781 0.000000
# 4 0.000000 0.000000 0.000000 0.115415 0.000000 0.033793
# 5 0.011757 0.000303 0.012781 0.000000 0.054573 0.000000
# 6 0.000000 0.000000 0.000000 0.033793 0.000000 0.043126
#
#
# Mechanical properties :
#
#
# Convention : Reuss Voigt Hill
#
# Bulk Modulus (GPa) = 19.76079 31.23195 25.49637
# Shear Modulus (GPa) = 15.51302 21.60876 18.56089
#
# Velocity S-wave (km/s) = 2.81846 3.32643 3.08293
# Velocity P-wave (km/s) = 4.55088 5.54495 5.07232
#
# Compressibility (1/GPa) = 0.05060527
#
# Stress axis : x y z
#
# Youngs Moduli (GPa) = 30.62012 65.74292 42.37799
#
# Poissons Ratio (x) = 0.53312 -0.12384
# Poissons Ratio (y) = 0.24831 0.22221
# Poissons Ratio (z) = -0.08948 0.34473
#
# Static dielectric constant tensor:
#      x y z
#    x 1.727590 0.000000 -0.008370 
#    y 0.000000 1.718000 0.000000 
#    z -0.008370 0.000000 1.744600 
# 
# From -- ./inp_files/37698.got.cif
#   From: 2010.05.17/outbox.cif.g08.bks.cpg/sg10_19_cif.got.tgz:37698.got - 2010.06.03 11:33:40.
