data_PCOD9144394
_publ_section_title
;
Structure prediction by ZEFSAII (Michael W. Deem and Ramdas Pophale) SiO2 
 PCOD9144394
Probable space group: P 2/M
;
_chemical_formula_sum "Si O2"
_cell_formula_units_Z 30
_cell_length_a 8.551911
_cell_length_b 18.249422
_cell_length_c 10.873974
_cell_angle_alpha 90.000000
_cell_angle_beta 59.482093
_cell_angle_gamma 90.000000
_cell_volume 1461.978494
_symmetry_space_group_name_H-M "P 2/M"
_symmetry_group_IT_number 10
_symmetry_cell_setting 'monoclinic'
loop_
_space_group_symop_operation_xyz
x,y,z
-x,y,-z
-x,-y,-z
x,-y,z
loop_
_atom_site_type_symbol
_atom_site_label
_atom_site_fract_x
_atom_site_fract_y
_atom_site_fract_z
Si Si1 0.184623 0.580561 0.648690
Si Si2 0.686347 0.302001 0.782594
Si Si3 0.000000 0.648252 0.500000
Si Si4 0.733034 0.150861 0.163788
Si Si5 0.794475 0.584035 0.939225
Si Si6 0.941153 0.086238 0.843533
Si Si7 0.615538 0.134033 0.838572
Si Si8 0.325462 0.678131 0.786825
O O1 0.267271 0.500000 0.627484
O O2 0.128798 0.598031 0.532065
O O3 0.300849 0.644218 0.663017
O O4 0.996217 0.580629 0.801731
O O5 0.880056 0.303690 0.639101
O O6 0.690793 0.363598 0.885090
O O7 0.644704 0.221043 0.846866
O O8 0.532485 0.321637 0.746818
O O9 0.521779 0.127944 0.223201
O O10 0.741161 0.238441 0.175923
O O11 0.851967 0.114926 0.225470
O O12 0.834824 0.127507 0.996942
O O13 0.728958 0.500000 0.974676
O O14 0.777751 0.625508 0.075058
O O15 0.817300 0.100865 0.772134
O O16 0.941234 0.000000 0.868167
O O17 0.500000 0.103244 0.000000
#
# Coordination Sequence:
#
# PCOD9144394 Si02
#       8
#     4   4   2   4   4   4   4   4
#     4  10  22  37  54  77 107 143 187 233 280 330
#     4  10  21  37  54  78 105 143 190 225 281 330
#     4  10  23  40  58  68 101 146 186 246 279 326
#     4   9  19  29  45  75 111 145 178 218 254 320
#     4  10  20  33  52  80 111 142 177 223 279 337
#     4  10  19  29  49  79 115 157 180 198 265 345
#     4   9  18  33  52  78 113 145 178 226 271 325
#     4  11  21  33  55  82 109 141 181 228 280 332
#
# _framework density 20.520136999999998
#
# number of rings (size 3 to 8) (size 9 to 14) (size 15 to 20)
#    0.000    2.133    0.000    4.600    7.467    6.667 
#    0.000    0.667    0.000    0.000    0.000    0.467 
#    0.000    2.400    0.000    0.000    0.000    0.000 
#
# Total GULP energy -167297.474762 kJ/mol
# GULP energy per Si atom -5576.582492 kJ/mol
# Density = 2.047343 g / cm^3
# Si number density = 20.520137 Si / 1000 Ang^3
#
#
#
# Elastic Constant Matrix: (Units=GPa)
#
#
# Indices 1 2 3 4 5 6 
#
# 1 151.8280 68.3665 4.5366 0.0000 16.1698 0.0000
# 2 68.3665 108.1095 8.5242 0.0000 13.8092 0.0000
# 3 4.5366 8.5242 37.1300 0.0000 0.2955 0.0000
# 4 0.0000 0.0000 0.0000 3.0377 0.0000 -6.1180
# 5 16.1698 13.8092 0.2955 0.0000 26.1019 0.0000
# 6 0.0000 0.0000 0.0000 -6.1180 0.0000 33.3473
#
#
#
# Elastic Compliance Matrix: (Units=1/GPa)
#
#
# Indices 1 2 3 4 5 6 
#
# 1 0.009406 -0.005594 0.000158 0.000000 -0.002869 0.000000
# 2 -0.005594 0.013437 -0.002372 0.000000 -0.003616 0.000000
# 3 0.000158 -0.002372 0.027451 0.000000 0.000847 0.000000
# 4 0.000000 0.000000 0.000000 0.522115 0.000000 0.095790
# 5 -0.002869 -0.003616 0.000847 0.000000 0.041992 0.000000
# 6 0.000000 0.000000 0.000000 0.095790 0.000000 0.047561
#
#
# Mechanical properties :
#
#
# Convention : Reuss Voigt Hill
#
# Bulk Modulus (GPa) = 28.83823 51.10247 39.97035
# Shear Modulus (GPa) = 7.25542 26.87339 17.06441
#
# Velocity S-wave (km/s) = 1.88240 3.62278 2.88686
# Velocity P-wave (km/s) = 4.33690 6.51591 5.53470
#
# Compressibility (1/GPa) = 0.03467619
#
# Stress axis : x y z
#
# Youngs Moduli (GPa) = 106.31138 74.42354 36.42851
#
# Poissons Ratio (x) = 0.41635 -0.00575
# Poissons Ratio (y) = 0.59474 0.08642
# Poissons Ratio (z) = -0.01679 0.17656
#
# Static dielectric constant tensor:
#      x y z
#    x 1.834560 0.000000 0.014330 
#    y 0.000000 1.706240 0.000000 
#    z 0.014330 0.000000 1.789590 
# 
# From -- ./inp_files/43404.got.cif
#   From: 2010.05.17/outbox.cif.g08.bks.cpg/sg10_22_cif.got.tgz:43404.got - 2010.06.03 11:33:40.
