data_PCOD9144824
_publ_section_title
;
Structure prediction by ZEFSAII (Michael W. Deem and Ramdas Pophale) SiO2 
 PCOD9144824
Probable space group: P 2/M
;
_chemical_formula_sum "Si O2"
_cell_formula_units_Z 24
_cell_length_a 12.441124
_cell_length_b 8.771353
_cell_length_c 14.679273
_cell_angle_alpha 90.000000
_cell_angle_beta 69.294704
_cell_angle_gamma 90.000000
_cell_volume 1498.419419
_symmetry_space_group_name_H-M "P 2/M"
_symmetry_group_IT_number 10
_symmetry_cell_setting 'monoclinic'
loop_
_space_group_symop_operation_xyz
x,y,z
-x,y,-z
-x,-y,-z
x,-y,z
loop_
_atom_site_type_symbol
_atom_site_label
_atom_site_fract_x
_atom_site_fract_y
_atom_site_fract_z
Si Si1 0.060817 0.818041 0.348426
Si Si2 0.748259 0.319577 0.825555
Si Si3 0.574445 0.683144 0.565172
Si Si4 0.537565 0.183055 0.772155
Si Si5 0.841437 0.682573 0.492934
Si Si6 0.381362 0.824182 0.977160
O O1 0.134631 0.759727 0.241374
O O2 0.125341 0.755014 0.419523
O O3 0.932996 0.750125 0.394543
O O4 0.057815 0.000000 0.352628
O O5 0.757523 0.500000 0.812470
O O6 0.647702 0.258301 0.788453
O O7 0.708101 0.274690 0.939089
O O8 0.500000 0.727751 0.500000
O O9 0.564301 0.500000 0.580282
O O10 0.534126 0.763484 0.669674
O O11 0.709367 0.717322 0.510949
O O12 0.424375 0.225776 0.864748
O O13 0.549972 0.000000 0.775118
O O14 0.855437 0.500000 0.494732
O O15 0.342333 0.000000 0.986084
O O16 0.500000 0.821764 0.000000
#
# Coordination Sequence:
#
# PCOD9144824 Si02
#       6
#     4   4   4   4   4   4
#     4  11  20  30  47  69  97 128 159 196 241 289
#     4  11  19  28  45  70  97 127 159 193 238 292
#     4  10  21  35  51  71  97 130 165 201 239 280
#     4  10  19  31  47  67  95 128 161 199 239 282
#     4  10  19  32  48  68  95 126 162 199 238 285
#     4   8  16  29  43  64  94 125 156 192 236 286
#
# _framework density 16.016876
#
# number of rings (size 3 to 8) (size 9 to 14) (size 15 to 20)
#    0.000    2.000    1.667    6.000    0.000    4.667 
#    0.000    0.000    0.000    0.000    0.000    1.167 
#    0.000    9.333    0.000    0.000    0.000    0.000 
#
# Total GULP energy -133867.106743 kJ/mol
# GULP energy per Si atom -5577.796114 kJ/mol
# Density = 1.598042 g / cm^3
# Si number density = 16.016876 Si / 1000 Ang^3
#
#
#
# Elastic Constant Matrix: (Units=GPa)
#
#
# Indices 1 2 3 4 5 6 
#
# 1 66.5718 37.1973 57.4546 0.0000 -8.1949 0.0000
# 2 37.1973 91.6803 58.6119 0.0000 -13.1499 0.0000
# 3 57.4546 58.6119 135.2471 0.0000 -24.6769 0.0000
# 4 0.0000 0.0000 0.0000 4.8491 0.0000 -0.2545
# 5 -8.1949 -13.1499 -24.6769 0.0000 22.3602 0.0000
# 6 0.0000 0.0000 0.0000 -0.2545 0.0000 -3.7393
#
#
#
# Elastic Compliance Matrix: (Units=1/GPa)
#
#
# Indices 1 2 3 4 5 6 
#
# 1 0.025343 -0.004847 -0.009379 0.000000 -0.003914 0.000000
# 2 -0.004847 0.016092 -0.004397 0.000000 0.002834 0.000000
# 3 -0.009379 -0.004397 0.015257 0.000000 0.010814 0.000000
# 4 0.000000 0.000000 0.000000 0.205491 0.000000 -0.013984
# 5 -0.003914 0.002834 0.010814 0.000000 0.056889 0.000000
# 6 0.000000 0.000000 0.000000 -0.013984 0.000000 -0.266475
#
#
# Mechanical properties :
#
#
# Convention : Reuss Voigt Hill
#
# Bulk Modulus (GPa) = 51.43051 66.66962 59.05006
# Shear Modulus (GPa) = 51.90638 14.04302 32.97470
#
# Velocity S-wave (km/s) = 5.69892 2.96423 4.54226
# Velocity P-wave (km/s) = 8.68812 7.30962 8.02851
#
# Compressibility (1/GPa) = 0.01944371
#
# Stress axis : x y z
#
# Youngs Moduli (GPa) = 39.45880 62.14265 65.54271
#
# Poissons Ratio (x) = 0.30123 0.61475
# Poissons Ratio (y) = 0.19127 0.28822
# Poissons Ratio (z) = 0.37010 0.27327
#
# Static dielectric constant tensor:
#      x y z
#    x 1.511590 0.000000 -0.025850 
#    y 0.000000 1.534910 0.000000 
#    z -0.025850 0.000000 1.562630 
# 
# From -- ./inp_files/48666.got.cif
#   From: 2010.05.17/outbox.cif.g08.bks.cpg/sg10_25_cif.got.tgz:48666.got - 2010.06.03 11:33:40.
