data_PCOD9144210
_publ_section_title
;
Structure prediction by ZEFSAII (Michael W. Deem and Ramdas Pophale) SiO2 
 PCOD9144210
Probable space group: P 2/M
;
_chemical_formula_sum "Si O2"
_cell_formula_units_Z 28
_cell_length_a 17.368194
_cell_length_b 7.559942
_cell_length_c 21.845547
_cell_angle_alpha 90.000000
_cell_angle_beta 30.697224
_cell_angle_gamma 90.000000
_cell_volume 1464.309448
_symmetry_space_group_name_H-M "P 2/M"
_symmetry_group_IT_number 10
_symmetry_cell_setting 'monoclinic'
loop_
_space_group_symop_operation_xyz
x,y,z
-x,y,-z
-x,-y,-z
x,-y,z
loop_
_atom_site_type_symbol
_atom_site_label
_atom_site_fract_x
_atom_site_fract_y
_atom_site_fract_z
Si Si1 0.260926 0.284108 0.677722
Si Si2 0.486466 0.712714 0.412169
Si Si3 0.997946 0.296243 0.225083
Si Si4 0.220691 0.207568 0.515744
Si Si5 0.149405 0.791095 0.429702
Si Si6 0.708301 0.283410 0.909811
Si Si7 0.631034 0.286851 0.828820
O O1 0.254409 0.500000 0.683528
O O2 0.347003 0.226735 0.680663
O O3 0.374926 0.237195 0.544436
O O4 0.097919 0.219512 0.766263
O O5 0.490310 0.500000 0.407246
O O6 0.396508 0.773400 0.414049
O O7 0.030434 0.500000 0.186724
O O8 0.883400 0.295230 0.361244
O O9 0.153712 0.217577 0.143383
O O10 0.185735 0.279631 0.472283
O O11 0.184518 0.000000 0.543371
O O12 0.285147 0.771384 0.289258
O O13 0.000000 0.714465 0.500000
O O14 0.123036 0.000000 0.456554
O O15 0.713559 0.500000 0.906131
O O16 0.715425 0.228388 0.833574
O O17 0.543268 0.230814 0.046653
O O18 0.631064 0.500000 0.829537
#
# Coordination Sequence:
#
# PCOD9144210 Si02
#       7
#     4   4   4   4   4   4   4
#     4   7  11  20  37  59  80 105 136 167 198 241
#     4   8  13  24  39  55  79 109 139 167 201 247
#     4   9  15  26  44  63  85 113 140 164 202 252
#     4  10  19  28  39  59  86 112 140 174 207 239
#     4  10  21  34  44  58  85 116 142 171 206 241
#     4   8  15  28  46  67  88 107 131 172 214 243
#     4   9  17  30  47  66  86 108 138 172 207 246
#
# _framework density 19.121641
#
# number of rings (size 3 to 8) (size 9 to 14) (size 15 to 20)
#    0.000    3.286    0.000    3.857    0.000    1.429 
#    0.000    7.857    0.000    0.000    0.000    1.000 
#    0.000    8.000    0.000    0.000    0.000    0.000 
#
# Total GULP energy -155877.241001 kJ/mol
# GULP energy per Si atom -5567.044321 kJ/mol
# Density = 1.907812 g / cm^3
# Si number density = 19.121641 Si / 1000 Ang^3
#
#
#
# Elastic Constant Matrix: (Units=GPa)
#
#
# Indices 1 2 3 4 5 6 
#
# 1 146.1628 2.7380 38.5273 0.0000 -40.0800 0.0000
# 2 2.7380 44.7394 -8.0445 0.0000 -4.5701 0.0000
# 3 38.5273 -8.0445 33.5494 0.0000 -16.5509 0.0000
# 4 0.0000 0.0000 0.0000 -4.5163 0.0000 16.9315
# 5 -40.0800 -4.5701 -16.5509 0.0000 35.8365 0.0000
# 6 0.0000 0.0000 0.0000 16.9315 0.0000 2.2581
#
#
#
# Elastic Compliance Matrix: (Units=1/GPa)
#
#
# Indices 1 2 3 4 5 6 
#
# 1 0.011747 -0.001600 -0.009704 0.000000 0.008452 0.000000
# 2 -0.001600 0.025109 0.011080 0.000000 0.006529 0.000000
# 3 -0.009704 0.011080 0.050444 0.000000 0.013856 0.000000
# 4 0.000000 0.000000 0.000000 -0.007606 0.000000 0.057033
# 5 0.008452 0.006529 0.013856 0.000000 0.044590 0.000000
# 6 0.000000 0.000000 0.000000 0.057033 0.000000 0.015213
#
#
# Mechanical properties :
#
#
# Convention : Reuss Voigt Hill
#
# Bulk Modulus (GPa) = 11.51422 32.32146 21.91784
# Shear Modulus (GPa) = 29.60386 19.46438 24.53412
#
# Velocity S-wave (km/s) = 3.93897 3.19395 3.58586
# Velocity P-wave (km/s) = 5.16933 5.52644 5.35086
#
# Compressibility (1/GPa) = 0.08684911
#
# Stress axis : x y z
#
# Youngs Moduli (GPa) = 85.12478 39.82679 19.82413
#
# Poissons Ratio (x) = 0.06374 0.19238
# Poissons Ratio (y) = 0.13624 -0.21964
# Poissons Ratio (z) = 0.82609 -0.44126
#
# Static dielectric constant tensor:
#      x y z
#    x 1.734530 0.000000 -0.054920 
#    y 0.000000 1.721510 0.000000 
#    z -0.054920 0.000000 1.636840 
# 
# From -- ./inp_files/83415.got.cif
#   From: 2010.05.17/outbox.cif.g08.bks.cpg/sg10_42_cif.got.tgz:83415.got - 2010.06.03 11:33:40.
