data_PCOD9144953
_publ_section_title
;
Structure prediction by ZEFSAII (Michael W. Deem and Ramdas Pophale) SiO2 
 PCOD9144953
Probable space group: P 2/M
;
_chemical_formula_sum "Si O2"
_cell_formula_units_Z 29
_cell_length_a 18.252089
_cell_length_b 9.660903
_cell_length_c 11.765596
_cell_angle_alpha 90.000000
_cell_angle_beta 38.136178
_cell_angle_gamma 90.000000
_cell_volume 1281.162300
_symmetry_space_group_name_H-M "P 2/M"
_symmetry_group_IT_number 10
_symmetry_cell_setting 'monoclinic'
loop_
_space_group_symop_operation_xyz
x,y,z
-x,y,-z
-x,-y,-z
x,-y,z
loop_
_atom_site_type_symbol
_atom_site_label
_atom_site_fract_x
_atom_site_fract_y
_atom_site_fract_z
Si Si1 0.700036 0.159518 0.588467
Si Si2 0.952873 0.842143 0.357291
Si Si3 0.512750 0.841086 0.291399
Si Si4 0.891099 0.843368 0.056284
Si Si5 0.642400 0.232591 0.906767
Si Si6 0.861567 0.341478 0.756432
Si Si7 0.700942 0.658716 0.183414
Si Si8 0.500000 0.500000 0.000000
O O1 0.831908 0.214841 0.448201
O O2 0.612909 0.219642 0.599519
O O3 0.638036 0.165561 0.787754
O O4 0.714519 0.000000 0.539444
O O5 0.048988 0.856711 0.139898
O O6 0.016987 0.735589 0.361801
O O7 0.930840 0.000000 0.428743
O O8 0.501774 0.000000 0.345281
O O9 0.587514 0.843855 0.081837
O O10 0.584784 0.745205 0.289619
O O11 0.779627 0.743158 0.178339
O O12 0.858950 0.000000 0.133909
O O13 0.000000 0.791195 0.000000
O O14 0.780124 0.257984 0.768026
O O15 0.576839 0.378995 0.972378
O O16 0.877088 0.500000 0.702148
O O17 0.781367 0.345311 0.970059
O O18 0.676486 0.500000 0.245913
#
# Coordination Sequence:
#
# PCOD9144953 Si02
#       8
#     4   4   4   4   4   4   4   1
#     4  10  20  33  48  68  95 130 169 207 244 288
#     4   9  19  35  51  70  98 129 159 197 248 297
#     4  10  19  31  49  70  96 127 167 208 240 279
#     4   9  17  32  56  81 101 123 157 199 245 298
#     4  11  20  31  49  68  95 130 173 209 247 282
#     4   9  18  32  46  67  95 125 163 202 239 285
#     4   9  18  30  50  75 101 127 158 199 243 292
#     4  12  20  32  46  70 100 128 172 220 250 286
#
# _framework density 22.635697
#
# number of rings (size 3 to 8) (size 9 to 14) (size 15 to 20)
#    0.000    2.345    2.069    0.828    0.966    5.793 
#    1.241    2.069    0.000    0.828    0.000    5.793 
#    0.000    0.000    0.000    0.000    0.000    0.000 
#
# Total GULP energy -161660.791542 kJ/mol
# GULP energy per Si atom -5574.510053 kJ/mol
# Density = 2.258418 g / cm^3
# Si number density = 22.635697 Si / 1000 Ang^3
#
#
#
# Elastic Constant Matrix: (Units=GPa)
#
#
# Indices 1 2 3 4 5 6 
#
# 1 158.4961 73.4222 30.4463 0.0000 -61.2147 0.0000
# 2 73.4222 99.4875 20.8334 0.0000 -34.1231 0.0000
# 3 30.4463 20.8334 69.5044 0.0000 -10.4848 0.0000
# 4 0.0000 0.0000 0.0000 8.2188 0.0000 -11.4874
# 5 -61.2147 -34.1231 -10.4848 0.0000 57.3834 0.0000
# 6 0.0000 0.0000 0.0000 -11.4874 0.0000 25.8951
#
#
#
# Elastic Compliance Matrix: (Units=1/GPa)
#
#
# Indices 1 2 3 4 5 6 
#
# 1 0.013604 -0.005879 -0.002607 0.000000 0.010541 0.000000
# 2 -0.005879 0.015691 -0.001714 0.000000 0.002746 0.000000
# 3 -0.002607 -0.001714 0.015909 0.000000 -0.000894 0.000000
# 4 0.000000 0.000000 0.000000 0.320222 0.000000 0.142055
# 5 0.010541 0.002746 -0.000894 0.000000 0.030141 0.000000
# 6 0.000000 0.000000 0.000000 0.142055 0.000000 0.101635
#
#
# Mechanical properties :
#
#
# Convention : Reuss Voigt Hill
#
# Bulk Modulus (GPa) = 40.31570 64.09908 52.20739
# Shear Modulus (GPa) = 9.50807 31.81853 20.66330
#
# Velocity S-wave (km/s) = 2.05173 3.75331 3.02464
# Velocity P-wave (km/s) = 4.84377 6.86748 5.94241
#
# Compressibility (1/GPa) = 0.02480423
#
# Stress axis : x y z
#
# Youngs Moduli (GPa) = 73.50512 63.73106 62.85936
#
# Poissons Ratio (x) = 0.37467 0.16389
# Poissons Ratio (y) = 0.43213 0.10772
# Poissons Ratio (z) = 0.19164 0.10922
#
# Static dielectric constant tensor:
#      x y z
#    x 1.866880 0.000000 0.010670 
#    y 0.000000 1.783120 0.000000 
#    z 0.010670 0.000000 1.927040 
# 
# From -- ./inp_files/68640.got.cif
#   From: 2010.05.17/outbox.cif.g08.bks.cpg/sg10_35_cif.got.tgz:68640.got - 2010.06.03 11:33:40.
