data_PCOD9144445
_publ_section_title
;
Structure prediction by ZEFSAII (Michael W. Deem and Ramdas Pophale) SiO2 
 PCOD9144445
Probable space group: P 2/M
;
_chemical_formula_sum "Si O2"
_cell_formula_units_Z 28
_cell_length_a 24.486279
_cell_length_b 7.724374
_cell_length_c 20.204037
_cell_angle_alpha 90.000000
_cell_angle_beta 154.268161
_cell_angle_gamma 90.000000
_cell_volume 1659.104696
_symmetry_space_group_name_H-M "P 2/M"
_symmetry_group_IT_number 10
_symmetry_cell_setting 'monoclinic'
loop_
_space_group_symop_operation_xyz
x,y,z
-x,y,-z
-x,-y,-z
x,-y,z
loop_
_atom_site_type_symbol
_atom_site_label
_atom_site_fract_x
_atom_site_fract_y
_atom_site_fract_z
Si Si1 0.432000 0.708720 0.253939
Si Si2 0.611720 0.698714 0.939370
Si Si3 0.307773 0.301426 0.627395
Si Si4 0.718183 0.708995 0.547992
Si Si5 0.861812 0.206121 0.834419
Si Si6 0.634791 0.000000 0.061795
Si Si7 0.330092 0.000000 0.748962
Si Si8 0.367081 0.206357 0.327841
O O1 0.436288 0.500000 0.256841
O O2 0.371235 0.761312 0.117678
O O3 0.577533 0.771176 0.414264
O O4 0.363104 0.763901 0.245179
O O5 0.655163 0.500000 0.994141
O O6 0.459623 0.695872 0.782751
O O7 0.664624 0.830645 0.050931
O O8 0.269119 0.500000 0.598075
O O9 0.255953 0.239774 0.499612
O O10 0.281156 0.169319 0.657196
O O11 0.714116 0.500000 0.543273
O O12 0.816803 0.766947 0.710241
O O13 0.751605 0.277736 0.761468
O O14 0.867508 0.000000 0.852853
O O15 0.000000 0.278033 0.000000
O O16 0.482551 0.000000 0.905984
O O17 0.693689 0.000000 0.198889
O O18 0.500000 0.277979 0.500000
O O19 0.369542 0.000000 0.342183
#
# Coordination Sequence:
#
# PCOD9144445 Si02
#       8
#     4   4   4   4   4   2   2   4
#     4   9  17  28  44  64  85 111 148 194 235 266
#     4   8  15  26  37  56  83 113 145 181 228 271
#     4   8  15  26  38  57  82 108 146 191 224 261
#     4   9  17  29  45  63  83 112 151 191 232 273
#     4  10  21  34  45  62  91 122 150 187 238 282
#     4   9  16  24  36  56  82 116 150 180 217 273
#     4   9  16  24  36  58  80 113 154 179 221 269
#     4  10  19  30  44  67  87 111 153 195 231 266
#
# _framework density 16.876571999999999
#
# number of rings (size 3 to 8) (size 9 to 14) (size 15 to 20)
#    0.000    3.000    1.429    1.714    2.000    1.714 
#    0.000    2.857    0.000    0.000    0.000    0.000 
#    0.000    0.000    0.000    2.571    0.000   12.571 
#
# Total GULP energy -155967.017613 kJ/mol
# GULP energy per Si atom -5570.250629 kJ/mol
# Density = 1.683816 g / cm^3
# Si number density = 16.876572 Si / 1000 Ang^3
#
#
#
# Elastic Constant Matrix: (Units=GPa)
#
#
# Indices 1 2 3 4 5 6 
#
# 1 96.7111 36.3870 71.9385 0.0000 -31.5675 0.0000
# 2 36.3870 50.6346 30.2562 0.0000 -9.7486 0.0000
# 3 71.9385 30.2562 82.7377 0.0000 -21.5907 0.0000
# 4 0.0000 0.0000 0.0000 17.1503 0.0000 -17.0199
# 5 -31.5675 -9.7486 -21.5907 0.0000 25.9349 0.0000
# 6 0.0000 0.0000 0.0000 -17.0199 0.0000 23.8088
#
#
#
# Elastic Compliance Matrix: (Units=1/GPa)
#
#
# Indices 1 2 3 4 5 6 
#
# 1 0.041524 -0.009392 -0.026064 0.000000 0.025314 0.000000
# 2 -0.009392 0.027504 -0.002781 0.000000 -0.003409 0.000000
# 3 -0.026064 -0.002781 0.034767 0.000000 -0.003827 0.000000
# 4 0.000000 0.000000 0.000000 0.200663 0.000000 0.143446
# 5 0.025314 -0.003409 -0.003827 0.000000 0.064903 0.000000
# 6 0.000000 0.000000 0.000000 0.143446 0.000000 0.144545
#
#
# Mechanical properties :
#
#
# Convention : Reuss Voigt Hill
#
# Bulk Modulus (GPa) = 36.60243 56.36074 46.48159
# Shear Modulus (GPa) = 8.34045 19.47892 13.90969
#
# Velocity S-wave (km/s) = 2.22548 3.40104 2.87400
# Velocity P-wave (km/s) = 5.32345 6.99222 6.21410
#
# Compressibility (1/GPa) = 0.02732059
#
# Stress axis : x y z
#
# Youngs Moduli (GPa) = 24.08227 36.35786 28.76304
#
# Poissons Ratio (x) = 0.34148 0.74968
# Poissons Ratio (y) = 0.22619 0.08000
# Poissons Ratio (z) = 0.62768 0.10112
#
# Static dielectric constant tensor:
#      x y z
#    x 1.567780 0.000000 -0.015070 
#    y 0.000000 1.602130 0.000000 
#    z -0.015070 0.000000 1.559440 
# 
# From -- ./inp_files/79879.got.cif
#   From: 2010.05.17/outbox.cif.g08.bks.cpg/sg10_40_cif.got.tgz:79879.got - 2010.06.03 11:33:40.
