data_PCOD9144896
_publ_section_title
;
Structure prediction by ZEFSAII (Michael W. Deem and Ramdas Pophale) SiO2 
 PCOD9144896
Probable space group: P 2/M
;
_chemical_formula_sum "Si O2"
_cell_formula_units_Z 32
_cell_length_a 22.388364
_cell_length_b 8.978490
_cell_length_c 11.753176
_cell_angle_alpha 90.000000
_cell_angle_beta 55.685766
_cell_angle_gamma 90.000000
_cell_volume 1951.367238
_symmetry_space_group_name_H-M "P 2/M"
_symmetry_group_IT_number 10
_symmetry_cell_setting 'monoclinic'
loop_
_space_group_symop_operation_xyz
x,y,z
-x,y,-z
-x,-y,-z
x,-y,z
loop_
_atom_site_type_symbol
_atom_site_label
_atom_site_fract_x
_atom_site_fract_y
_atom_site_fract_z
Si Si1 0.283337 0.321893 0.053090
Si Si2 0.850743 0.177134 0.920280
Si Si3 0.589577 0.174051 0.782659
Si Si4 0.020964 0.323588 0.346042
Si Si5 0.736684 0.320809 0.660508
Si Si6 0.123762 0.318943 0.629245
Si Si7 0.431573 0.174709 0.920863
Si Si8 0.085662 0.321027 0.921036
O O1 0.278703 0.500000 0.050355
O O2 0.226109 0.246271 0.031455
O O3 0.263717 0.278093 0.205328
O O4 0.365078 0.267273 0.943107
O O5 0.908640 0.233554 0.764839
O O6 0.847029 0.000000 0.926189
O O7 0.880080 0.239904 0.008286
O O8 0.663180 0.261647 0.682278
O O9 0.513814 0.226402 0.809176
O O10 0.598724 0.000000 0.744678
O O11 0.577829 0.182751 0.931911
O O12 0.034383 0.500000 0.309312
O O13 0.000000 0.308438 0.500000
O O14 0.952198 0.274111 0.345418
O O15 0.735895 0.500000 0.658639
O O16 0.807809 0.267276 0.517650
O O17 0.124095 0.500000 0.624511
O O18 0.123542 0.277435 0.761744
O O19 0.425683 0.000000 0.896428
O O20 0.092166 0.500000 0.929571
O O21 0.000000 0.289379 0.000000
#
# Coordination Sequence:
#
# PCOD9144896 Si02
#       8
#     4   4   4   4   4   4   4   4
#     4  10  19  31  48  71 100 132 167 201 240 290
#     4  12  24  35  49  71 101 129 161 204 252 298
#     4   8  14  25  42  65  97 135 164 189 231 289
#     4  10  19  34  55  74  96 128 165 199 238 293
#     4   9  17  29  47  73 101 127 160 202 241 284
#     4   9  17  31  51  73  94 122 160 204 248 283
#     4   8  14  26  43  65  96 132 166 196 233 280
#     4  10  19  36  58  72  88 121 169 213 248 292
#
# _framework density 16.398758000000001
#
# number of rings (size 3 to 8) (size 9 to 14) (size 15 to 20)
#    0.000    2.500    1.250    3.000    0.000    3.500 
#    0.000    3.750    0.000    0.000    0.000    0.875 
#    0.000    7.000    0.000    0.000    0.000    0.000 
#
# Total GULP energy -178363.486017 kJ/mol
# GULP energy per Si atom -5573.858938 kJ/mol
# Density = 1.636143 g / cm^3
# Si number density = 16.398758 Si / 1000 Ang^3
#
#
#
# Elastic Constant Matrix: (Units=GPa)
#
#
# Indices 1 2 3 4 5 6 
#
# 1 128.4873 53.1733 31.4658 0.0000 -14.9981 0.0000
# 2 53.1733 45.7411 15.2203 0.0000 -1.7574 0.0000
# 3 31.4658 15.2203 17.5850 0.0000 -0.4734 0.0000
# 4 0.0000 0.0000 0.0000 6.1553 0.0000 -1.6441
# 5 -14.9981 -1.7574 -0.4734 0.0000 21.4782 0.0000
# 6 0.0000 0.0000 0.0000 -1.6441 0.0000 19.2348
#
#
#
# Elastic Compliance Matrix: (Units=1/GPa)
#
#
# Indices 1 2 3 4 5 6 
#
# 1 0.022969 -0.017714 -0.025391 0.000000 0.014030 0.000000
# 2 -0.017714 0.044446 -0.007012 0.000000 -0.008887 0.000000
# 3 -0.025391 -0.007012 0.107940 0.000000 -0.015925 0.000000
# 4 0.000000 0.000000 0.000000 0.166258 0.000000 0.014211
# 5 0.014030 -0.008887 -0.015925 0.000000 0.055278 0.000000
# 6 0.000000 0.000000 0.000000 0.014211 0.000000 0.053204
#
#
# Mechanical properties :
#
#
# Convention : Reuss Voigt Hill
#
# Bulk Modulus (GPa) = 13.31169 43.50358 28.40764
# Shear Modulus (GPa) = 8.69006 15.50393 12.09699
#
# Velocity S-wave (km/s) = 2.30450 3.07813 2.71897
# Velocity P-wave (km/s) = 3.90078 6.26253 5.21706
#
# Compressibility (1/GPa) = 0.07512194
#
# Stress axis : x y z
#
# Youngs Moduli (GPa) = 43.53629 22.49924 9.26437
#
# Poissons Ratio (x) = 0.39854 0.23523
# Poissons Ratio (y) = 0.77119 0.06496
# Poissons Ratio (z) = 1.10543 0.15777
#
# Static dielectric constant tensor:
#      x y z
#    x 1.553340 0.000000 -0.010210 
#    y 0.000000 1.548770 0.000000 
#    z -0.010210 0.000000 1.547880 
# 
# From -- ./inp_files/55230.got.cif
#   From: 2010.05.17/outbox.cif.g08.bks.cpg/sg10_28_cif.got.tgz:55230.got - 2010.06.03 11:33:40.
