data_PCOD9144568
_publ_section_title
;
Structure prediction by ZEFSAII (Michael W. Deem and Ramdas Pophale) SiO2 
 PCOD9144568
Probable space group: P 2/M
;
_chemical_formula_sum "Si O2"
_cell_formula_units_Z 32
_cell_length_a 12.633813
_cell_length_b 13.930570
_cell_length_c 15.965251
_cell_angle_alpha 90.000000
_cell_angle_beta 140.532581
_cell_angle_gamma 90.000000
_cell_volume 1786.034516
_symmetry_space_group_name_H-M "P 2/M"
_symmetry_group_IT_number 10
_symmetry_cell_setting 'monoclinic'
loop_
_space_group_symop_operation_xyz
x,y,z
-x,y,-z
-x,-y,-z
x,-y,z
loop_
_atom_site_type_symbol
_atom_site_label
_atom_site_fract_x
_atom_site_fract_y
_atom_site_fract_z
Si Si1 0.625613 0.115020 0.648723
Si Si2 0.487249 0.768600 0.715423
Si Si3 0.583635 0.612771 0.641526
Si Si4 0.759107 0.761874 0.022438
Si Si5 0.973758 0.611906 0.883996
Si Si6 0.696856 0.893446 0.129700
Si Si7 0.985784 0.886902 0.898661
Si Si8 0.804177 0.111528 0.387265
O O1 0.500000 0.149906 0.500000
O O2 0.577933 0.153527 0.710951
O O3 0.816812 0.144164 0.749732
O O4 0.615541 0.000000 0.643450
O O5 0.497502 0.675486 0.661605
O O6 0.308539 0.814589 0.628745
O O7 0.593355 0.749256 0.865098
O O8 0.500000 0.626314 0.500000
O O9 0.574817 0.500000 0.657968
O O10 0.779687 0.637540 0.752722
O O11 0.740160 0.795190 0.106571
O O12 0.892356 0.678581 0.081875
O O13 0.846489 0.857986 0.042144
O O14 0.996986 0.500000 0.874377
O O15 0.000000 0.619186 0.000000
O O16 0.739249 0.885094 0.252795
O O17 0.766664 0.000000 0.145320
O O18 0.500000 0.900586 0.000000
O O19 0.972682 0.000000 0.897975
O O20 0.000000 0.843571 0.000000
O O21 0.000000 0.133679 0.500000
O O22 0.786327 0.000000 0.406986
#
# Coordination Sequence:
#
# PCOD9144568 Si02
#       8
#     4   4   4   4   4   4   4   4
#     4  10  21  33  46  73 112 143 172 216 271 332
#     4  12  21  34  59  81 104 147 191 227 277 335
#     4  10  22  39  59  87 120 150 184 228 278 339
#     4  12  21  32  57  83 107 144 192 231 271 327
#     4  10  20  36  57  84 117 148 181 223 275 337
#     4  10  21  37  56  80 109 144 191 241 283 326
#     4  10  19  30  46  73 107 139 174 216 264 327
#     4  10  23  41  59  82 113 148 191 242 289 334
#
# _framework density 17.916788
#
# number of rings (size 3 to 8) (size 9 to 14) (size 15 to 20)
#    0.000    1.500    3.750    2.250    0.000    3.000 
#    0.000    3.750    0.000    1.500    0.000    0.000 
#    0.000    0.000    0.000    0.000    0.000    0.000 
#
# Total GULP energy -178281.290632 kJ/mol
# GULP energy per Si atom -5571.290332 kJ/mol
# Density = 1.787601 g / cm^3
# Si number density = 17.916788 Si / 1000 Ang^3
#
#
#
# Elastic Constant Matrix: (Units=GPa)
#
#
# Indices 1 2 3 4 5 6 
#
# 1 57.1778 43.0630 10.9076 0.0000 12.0057 0.0000
# 2 43.0630 114.9031 23.7698 0.0000 6.3257 0.0000
# 3 10.9076 23.7698 95.3560 0.0000 16.7539 0.0000
# 4 0.0000 0.0000 0.0000 10.4870 0.0000 10.8679
# 5 12.0057 6.3257 16.7539 0.0000 24.9606 0.0000
# 6 0.0000 0.0000 0.0000 10.8679 0.0000 22.8028
#
#
#
# Elastic Compliance Matrix: (Units=1/GPa)
#
#
# Indices 1 2 3 4 5 6 
#
# 1 0.026980 -0.009763 0.001352 0.000000 -0.011411 0.000000
# 2 -0.009763 0.012727 -0.002623 0.000000 0.003232 0.000000
# 3 0.001352 -0.002623 0.012452 0.000000 -0.008344 0.000000
# 4 0.000000 0.000000 0.000000 0.188418 0.000000 -0.089800
# 5 -0.011411 0.003232 -0.008344 0.000000 0.050333 0.000000
# 6 0.000000 0.000000 0.000000 -0.089800 0.000000 0.086653
#
#
# Mechanical properties :
#
#
# Convention : Reuss Voigt Hill
#
# Bulk Modulus (GPa) = 33.23284 46.99086 40.11185
# Shear Modulus (GPa) = 12.20517 24.29650 18.25084
#
# Velocity S-wave (km/s) = 2.61284 3.68649 3.19508
# Velocity P-wave (km/s) = 5.26225 6.66367 6.00399
#
# Compressibility (1/GPa) = 0.03009072
#
# Stress axis : x y z
#
# Youngs Moduli (GPa) = 37.06409 78.57431 80.30671
#
# Poissons Ratio (x) = 0.76713 -0.10860
# Poissons Ratio (y) = 0.36186 0.21068
# Poissons Ratio (z) = -0.05012 0.20614
#
# Static dielectric constant tensor:
#      x y z
#    x 1.515400 0.000000 -0.008550 
#    y 0.000000 1.650820 0.000000 
#    z -0.008550 0.000000 1.633770 
# 
# From -- ./inp_files/51674.got.cif
#   From: 2010.05.17/outbox.cif.g08.bks.cpg/sg10_26_cif.got.tgz:51674.got - 2010.06.03 11:33:40.
