data_PCOD9144368
_publ_section_title
;
Structure prediction by ZEFSAII (Michael W. Deem and Ramdas Pophale) SiO2 
 PCOD9144368
Probable space group: P 2/M
;
_chemical_formula_sum "Si O2"
_cell_formula_units_Z 32
_cell_length_a 20.911551
_cell_length_b 9.095284
_cell_length_c 11.088735
_cell_angle_alpha 90.000000
_cell_angle_beta 126.665860
_cell_angle_gamma 90.000000
_cell_volume 1691.726453
_symmetry_space_group_name_H-M "P 2/M"
_symmetry_group_IT_number 10
_symmetry_cell_setting 'monoclinic'
loop_
_space_group_symop_operation_xyz
x,y,z
-x,y,-z
-x,-y,-z
x,-y,z
loop_
_atom_site_type_symbol
_atom_site_label
_atom_site_fract_x
_atom_site_fract_y
_atom_site_fract_z
Si Si1 0.259618 0.675788 0.356002
Si Si2 0.122112 0.171896 0.074704
Si Si3 0.172556 0.324036 0.506705
Si Si4 0.450763 0.666754 0.818950
Si Si5 0.595546 0.174237 0.861020
Si Si6 0.692436 0.825535 0.215017
Si Si7 0.969544 0.827530 0.770491
Si Si8 0.408506 0.677187 0.386483
O O1 0.255432 0.500000 0.347806
O O2 0.202247 0.739304 0.187630
O O3 0.222929 0.720055 0.442987
O O4 0.350304 0.719686 0.430453
O O5 0.075195 0.181454 0.150004
O O6 0.139416 0.000000 0.073430
O O7 0.059684 0.222207 0.902022
O O8 0.172825 0.500000 0.517773
O O9 0.221897 0.248474 0.668990
O O10 0.083876 0.263864 0.382369
O O11 0.434925 0.500000 0.757718
O O12 0.510473 0.753448 0.799557
O O13 0.370296 0.750179 0.763658
O O14 0.500000 0.656896 0.000000
O O15 0.624479 0.251852 0.772708
O O16 0.586541 0.000000 0.834823
O O17 0.654985 0.198688 0.040390
O O18 0.696260 0.000000 0.240856
O O19 0.970908 0.000000 0.738705
O O20 0.500000 0.725595 0.500000
O O21 0.408179 0.500000 0.376316
#
# Coordination Sequence:
#
# PCOD9144368 Si02
#       8
#     4   4   4   4   4   4   4   4
#     4   9  19  33  47  70 100 130 166 207 246 288
#     4   8  14  26  46  68  93 129 166 197 236 293
#     4  10  19  29  46  74 105 133 165 199 242 297
#     4   9  17  30  49  70  91 119 156 197 243 294
#     4  10  21  36  52  72  95 123 165 210 250 294
#     4  10  20  33  49  71 100 129 159 202 251 295
#     4   8  14  26  43  67  99 131 161 194 239 291
#     4  10  22  38  54  70  95 133 171 209 252 290
#
# _framework density 18.915590000000002
#
# number of rings (size 3 to 8) (size 9 to 14) (size 15 to 20)
#    0.000    2.750    0.000    2.250    1.750    4.750 
#    0.000    2.500    0.000    0.000    0.000    0.875 
#    0.000    7.000    0.000    0.000    0.000    0.000 
#
# Total GULP energy -178419.446495 kJ/mol
# GULP energy per Si atom -5575.607703 kJ/mol
# Density = 1.887254 g / cm^3
# Si number density = 18.915590 Si / 1000 Ang^3
#
#
#
# Elastic Constant Matrix: (Units=GPa)
#
#
# Indices 1 2 3 4 5 6 
#
# 1 21.2750 -0.0097 5.6557 0.0000 4.3746 0.0000
# 2 -0.0097 37.0938 37.3237 0.0000 6.5674 0.0000
# 3 5.6557 37.3237 93.2068 0.0000 23.5823 0.0000
# 4 0.0000 0.0000 0.0000 29.7936 0.0000 5.9336
# 5 4.3746 6.5674 23.5823 0.0000 25.0832 0.0000
# 6 0.0000 0.0000 0.0000 5.9336 0.0000 16.6649
#
#
#
# Elastic Compliance Matrix: (Units=1/GPa)
#
#
# Indices 1 2 3 4 5 6 
#
# 1 0.049203 0.004150 -0.002888 0.000000 -0.006952 0.000000
# 2 0.004150 0.046401 -0.020437 0.000000 0.006341 0.000000
# 3 -0.002888 -0.020437 0.023102 0.000000 -0.015865 0.000000
# 4 0.000000 0.000000 0.000000 0.036126 0.000000 -0.012863
# 5 -0.006952 0.006341 -0.015865 0.000000 0.054335 0.000000
# 6 0.000000 0.000000 0.000000 -0.012863 0.000000 0.064586
#
#
# Mechanical properties :
#
#
# Convention : Reuss Voigt Hill
#
# Bulk Modulus (GPa) = 12.44485 26.39056 19.41771
# Shear Modulus (GPa) = 14.75418 21.54875 18.15146
#
# Velocity S-wave (km/s) = 2.79588 3.37887 3.10111
# Velocity P-wave (km/s) = 4.12505 5.40411 4.80731
#
# Compressibility (1/GPa) = 0.08035452
#
# Stress axis : x y z
#
# Youngs Moduli (GPa) = 20.32410 21.55149 43.28680
#
# Poissons Ratio (x) = -0.08944 0.12503
# Poissons Ratio (y) = -0.08435 0.88464
# Poissons Ratio (z) = 0.05871 0.44044
#
# Static dielectric constant tensor:
#      x y z
#    x 1.667800 0.000000 0.003850 
#    y 0.000000 1.625290 0.000000 
#    z 0.003850 0.000000 1.700180 
# 
# From -- ./inp_files/55335.got.cif
#   From: 2010.05.17/outbox.cif.g08.bks.cpg/sg10_28_cif.got.tgz:55335.got - 2010.06.03 11:33:40.
