data_PCOD9144783
_publ_section_title
;
Structure prediction by ZEFSAII (Michael W. Deem and Ramdas Pophale) SiO2 
 PCOD9144783
Probable space group: P 2/M
;
_chemical_formula_sum "Si O2"
_cell_formula_units_Z 32
_cell_length_a 15.360069
_cell_length_b 19.598416
_cell_length_c 20.963944
_cell_angle_alpha 90.000000
_cell_angle_beta 160.631490
_cell_angle_gamma 90.000000
_cell_volume 2092.943714
_symmetry_space_group_name_H-M "P 2/M"
_symmetry_group_IT_number 10
_symmetry_cell_setting 'monoclinic'
loop_
_space_group_symop_operation_xyz
x,y,z
-x,y,-z
-x,-y,-z
x,-y,z
loop_
_atom_site_type_symbol
_atom_site_label
_atom_site_fract_x
_atom_site_fract_y
_atom_site_fract_z
Si Si1 0.251501 0.920787 0.625751
Si Si2 0.953134 0.308770 0.572241
Si Si3 0.140571 0.578913 0.916703
Si Si4 0.812387 0.582590 0.812387
Si Si5 0.570437 0.308770 0.189543
Si Si6 0.245109 0.578912 0.468976
Si Si7 0.068592 0.838324 0.693915
Si Si8 0.430109 0.838325 0.055435
O O1 0.485825 0.883071 0.825568
O O2 0.000000 0.917960 0.500000
O O3 0.155199 0.883073 0.494943
O O4 0.310992 0.000000 0.655495
O O5 0.757647 0.292145 0.378823
O O6 0.840550 0.371744 0.533732
O O7 0.234685 0.324673 0.734685
O O8 0.983550 0.240778 0.635271
O O9 0.217066 0.500000 0.983265
O O10 0.946179 0.603277 0.838707
O O11 0.977955 0.579594 0.738976
O O12 0.386722 0.628256 0.079901
O O13 0.804580 0.500000 0.804578
O O14 0.516294 0.603277 0.623764
O O15 0.000000 0.603318 0.000000
O O16 0.409559 0.240778 0.061281
O O17 0.281876 0.500000 0.515674
O O18 0.318132 0.841391 0.818131
O O19 0.181001 0.859758 0.840499
#
# Coordination Sequence:
#
# PCOD9144783 Si02
#       8
#     4   4   4   4   4   4   4   4
#     4   9  16  26  40  60  85 112 147 186 219 258
#     4  10  19  31  46  63  87 120 157 193 229 272
#     4  10  20  32  46  65  88 115 150 192 235 277
#     4   9  17  31  49  65  83 109 143 184 233 284
#     4  10  19  31  46  63  87 120 157 193 229 272
#     4  10  20  32  46  65  88 115 150 192 235 277
#     4   9  16  27  42  59  83 116 150 183 223 269
#     4   9  16  27  42  59  83 116 150 183 223 269
#
# _framework density 15.28947
#
# number of rings (size 3 to 8) (size 9 to 14) (size 15 to 20)
#    0.000    2.500    1.250    1.875    0.000    5.500 
#    0.000    5.000    0.000    0.000    0.000    0.000 
#    0.000    0.000    0.000    2.250    0.000   10.000 
#
# Total GULP energy -178264.654359 kJ/mol
# GULP energy per Si atom -5570.770449 kJ/mol
# Density = 1.525467 g / cm^3
# Si number density = 15.289470 Si / 1000 Ang^3
#
#
#
# Elastic Constant Matrix: (Units=GPa)
#
#
# Indices 1 2 3 4 5 6 
#
# 1 53.6328 34.8216 24.0936 0.0000 -9.2527 0.0000
# 2 34.8216 76.0935 38.6041 0.0000 -4.7522 0.0000
# 3 24.0936 38.6041 71.8229 0.0000 -13.6050 0.0000
# 4 0.0000 0.0000 0.0000 10.0529 0.0000 -7.7609
# 5 -9.2527 -4.7522 -13.6050 0.0000 23.9190 0.0000
# 6 0.0000 0.0000 0.0000 -7.7609 0.0000 3.8771
#
#
#
# Elastic Compliance Matrix: (Units=1/GPa)
#
#
# Indices 1 2 3 4 5 6 
#
# 1 0.028268 -0.011522 -0.001851 0.000000 0.007593 0.000000
# 2 -0.011522 0.022866 -0.009424 0.000000 -0.005275 0.000000
# 3 -0.001851 -0.009424 0.021428 0.000000 0.009600 0.000000
# 4 0.000000 0.000000 0.000000 -0.182399 0.000000 -0.365117
# 5 0.007593 -0.005275 0.009600 0.000000 0.049157 0.000000
# 6 0.000000 0.000000 0.000000 -0.365117 0.000000 -0.472946
#
#
# Mechanical properties :
#
#
# Convention : Reuss Voigt Hill
#
# Bulk Modulus (GPa) = 37.08336 44.06530 40.57433
# Shear Modulus (GPa) = -10.43751 14.50513 2.03381
#
# Velocity S-wave (km/s) = -2.61561 3.08344 1.15460
# Velocity P-wave (km/s) = 3.89679 6.44671 5.32658
#
# Compressibility (1/GPa) = 0.02696628
#
# Stress axis : x y z
#
# Youngs Moduli (GPa) = 35.37583 43.73238 46.66789
#
# Poissons Ratio (x) = 0.50391 0.08639
# Poissons Ratio (y) = 0.40762 0.43981
# Poissons Ratio (z) = 0.06549 0.41215
#
# Static dielectric constant tensor:
#      x y z
#    x 1.496960 0.000000 -0.031490 
#    y 0.000000 1.499800 0.000000 
#    z -0.031490 0.000000 1.522010 
# 
# From -- ./inp_files/67754.got.cif
#   From: 2010.05.17/outbox.cif.g08.bks.cpg/sg10_34_cif.got.tgz:67754.got - 2010.06.03 11:33:40.
