data_PCOD9144082
_publ_section_title
;
Structure prediction by ZEFSAII (Michael W. Deem and Ramdas Pophale) SiO2 
 PCOD9144082
Probable space group: P 2/M
;
_chemical_formula_sum "Si O2"
_cell_formula_units_Z 25
_cell_length_a 11.574008
_cell_length_b 16.375008
_cell_length_c 14.683355
_cell_angle_alpha 90.000000
_cell_angle_beta 29.403241
_cell_angle_gamma 90.000000
_cell_volume 1366.251168
_symmetry_space_group_name_H-M "P 2/M"
_symmetry_group_IT_number 10
_symmetry_cell_setting 'monoclinic'
loop_
_space_group_symop_operation_xyz
x,y,z
-x,y,-z
-x,-y,-z
x,-y,z
loop_
_atom_site_type_symbol
_atom_site_label
_atom_site_fract_x
_atom_site_fract_y
_atom_site_fract_z
Si Si1 0.045698 0.707427 0.077155
Si Si2 0.719844 0.593512 0.418447
Si Si3 0.891879 0.000000 0.753663
Si Si4 0.292832 0.852139 0.709842
Si Si5 0.475938 0.000000 0.165420
Si Si6 0.542114 0.725699 0.677552
Si Si7 0.000000 0.000000 0.000000
Si Si8 0.821427 0.870734 0.539172
O O1 0.925474 0.640780 0.223833
O O2 0.915777 0.793797 0.186572
O O3 0.326916 0.709647 0.893833
O O4 0.000000 0.689129 0.000000
O O5 0.500000 0.593737 0.500000
O O6 0.779344 0.500000 0.399229
O O7 0.633985 0.645868 0.563586
O O8 0.054931 0.079223 0.627160
O O9 0.699233 0.000000 0.802690
O O10 0.742273 0.000000 0.948310
O O11 0.500000 0.878160 0.500000
O O12 0.425757 0.788732 0.685442
O O13 0.175549 0.927987 0.839275
O O14 0.408053 0.921620 0.271730
O O15 0.756542 0.777980 0.568700
O O16 0.000000 0.878556 0.500000
#
# Coordination Sequence:
#
# PCOD9144082 Si02
#       8
#     4   4   2   4   2   4   1   4
#     4  10  18  35  54  75 108 134 166 217 263 313
#     4  11  21  35  59  85 105 133 171 218 277 333
#     4   8  15  32  54  71 101 134 178 238 271 293
#     4  11  20  37  50  70 103 143 180 214 250 299
#     4   8  15  32  51  74 100 134 179 233 274 299
#     4  11  20  35  56  75 109 140 172 218 270 318
#     4  12  22  32  50  72 110 154 188 202 236 312
#     4   9  19  33  51  77 106 139 184 224 260 311
#
# _framework density 18.298245999999999
#
# number of rings (size 3 to 8) (size 9 to 14) (size 15 to 20)
#    0.000    1.920    7.200    1.200    0.000    3.520 
#    0.000    0.000    0.000    0.480    0.000    1.120 
#    0.000    0.000    0.000    0.000    0.000    0.000 
#
# Total GULP energy -139196.539394 kJ/mol
# GULP energy per Si atom -5567.861576 kJ/mol
# Density = 1.825660 g / cm^3
# Si number density = 18.298246 Si / 1000 Ang^3
#
#
#
# Elastic Constant Matrix: (Units=GPa)
#
#
# Indices 1 2 3 4 5 6 
#
# 1 5.5077 13.2047 14.0444 0.0000 -1.3169 0.0000
# 2 13.2047 140.4588 69.1406 0.0000 2.2799 0.0000
# 3 14.0444 69.1406 181.1310 0.0000 4.6900 0.0000
# 4 0.0000 0.0000 0.0000 21.4769 0.0000 13.3984
# 5 -1.3169 2.2799 4.6900 0.0000 8.5326 0.0000
# 6 0.0000 0.0000 0.0000 13.3984 0.0000 14.0100
#
#
#
# Elastic Compliance Matrix: (Units=1/GPa)
#
#
# Indices 1 2 3 4 5 6 
#
# 1 0.283291 -0.019728 -0.015930 0.000000 0.057749 0.000000
# 2 -0.019728 0.010143 -0.002225 0.000000 -0.004532 0.000000
# 3 -0.015930 -0.002225 0.007764 0.000000 -0.006132 0.000000
# 4 0.000000 0.000000 0.000000 0.115428 0.000000 -0.110389
# 5 0.057749 -0.004532 -0.006132 0.000000 0.130691 0.000000
# 6 0.000000 0.000000 0.000000 -0.110389 0.000000 0.176947
#
#
# Mechanical properties :
#
#
# Convention : Reuss Voigt Hill
#
# Bulk Modulus (GPa) = 4.43594 57.76411 31.10003
# Shear Modulus (GPa) = 5.71315 24.18443 14.94879
#
# Velocity S-wave (km/s) = 1.76890 3.63944 2.86134
# Velocity P-wave (km/s) = 2.56934 7.02120 5.28672
#
# Compressibility (1/GPa) = 0.22543116
#
# Stress axis : x y z
#
# Youngs Moduli (GPa) = 3.52994 98.59143 128.79938
#
# Poissons Ratio (x) = 1.94504 2.05181
# Poissons Ratio (y) = 0.06964 0.28654
# Poissons Ratio (z) = 0.05623 0.21933
#
# Static dielectric constant tensor:
#      x y z
#    x 1.726200 0.000000 0.013470 
#    y 0.000000 1.612800 0.000000 
#    z 0.013470 0.000000 1.680250 
# 
# From -- ./inp_files/65053.got.cif
#   From: 2010.05.17/outbox.cif.g08.bks.cpg/sg10_33_cif.got.tgz:65053.got - 2010.06.03 11:33:40.
