data_PCOD9144064
_publ_section_title
;
Structure prediction by ZEFSAII (Michael W. Deem and Ramdas Pophale) SiO2 
 PCOD9144064
Probable space group: P 2/M
;
_chemical_formula_sum "Si O2"
_cell_formula_units_Z 24
_cell_length_a 12.516313
_cell_length_b 8.028493
_cell_length_c 11.810954
_cell_angle_alpha 90.000000
_cell_angle_beta 111.787433
_cell_angle_gamma 90.000000
_cell_volume 1102.069016
_symmetry_space_group_name_H-M "P 2/M"
_symmetry_group_IT_number 10
_symmetry_cell_setting 'monoclinic'
loop_
_space_group_symop_operation_xyz
x,y,z
-x,y,-z
-x,-y,-z
x,-y,z
loop_
_atom_site_type_symbol
_atom_site_label
_atom_site_fract_x
_atom_site_fract_y
_atom_site_fract_z
Si Si1 0.175715 0.703924 0.296932
Si Si2 0.032726 0.698481 0.636478
Si Si3 0.479873 0.807091 0.807983
Si Si4 0.739578 0.805180 0.159035
Si Si5 0.389612 0.697986 0.537380
Si Si6 0.737389 0.693932 0.909737
O O1 0.177919 0.500000 0.292705
O O2 0.055377 0.760950 0.302285
O O3 0.277336 0.751219 0.423612
O O4 0.204465 0.762063 0.181583
O O5 0.014837 0.500000 0.624722
O O6 0.000000 0.766566 0.500000
O O7 0.163100 0.728686 0.723519
O O8 0.388767 0.740428 0.864061
O O9 0.413222 0.792707 0.662689
O O10 0.599601 0.711850 0.843132
O O11 0.509059 0.000000 0.845136
O O12 0.735162 0.000000 0.182500
O O13 0.769681 0.778174 0.040237
O O14 0.500000 0.718763 0.500000
O O15 0.378743 0.500000 0.558785
O O16 0.767644 0.500000 0.932205
#
# Coordination Sequence:
#
# PCOD9144064 Si02
#       6
#     4   4   4   4   4   4
#     4   9  19  36  59  90 121 148 189 248 297 336
#     4  10  21  40  66  90 114 150 197 242 288 350
#     4  11  23  38  57  85 123 159 194 242 296 350
#     4  11  25  42  58  83 121 159 197 243 294 347
#     4  10  18  34  60  88 118 151 192 240 289 344
#     4  11  22  39  62  87 117 154 198 245 295 350
#
# _framework density 21.77722
#
# number of rings (size 3 to 8) (size 9 to 14) (size 15 to 20)
#    0.000    1.667    1.667    3.000    0.000    7.333 
#    0.000    5.833    0.000    0.000    0.000    0.000 
#    0.000    0.000    0.000    0.000    0.000    0.000 
#
# Total GULP energy -134172.496046 kJ/mol
# GULP energy per Si atom -5590.520669 kJ/mol
# Density = 2.172765 g / cm^3
# Si number density = 21.777220 Si / 1000 Ang^3
#
#
#
# Elastic Constant Matrix: (Units=GPa)
#
#
# Indices 1 2 3 4 5 6 
#
# 1 103.9417 6.4509 25.5024 0.0000 -15.3359 0.0000
# 2 6.4509 11.7897 -5.0295 0.0000 -7.8125 0.0000
# 3 25.5024 -5.0295 99.3550 0.0000 -19.1921 0.0000
# 4 0.0000 0.0000 0.0000 38.2038 0.0000 -32.1967
# 5 -15.3359 -7.8125 -19.1921 0.0000 27.6409 0.0000
# 6 0.0000 0.0000 0.0000 -32.1967 0.0000 -10.5971
#
#
#
# Elastic Compliance Matrix: (Units=1/GPa)
#
#
# Indices 1 2 3 4 5 6 
#
# 1 0.010987 -0.005184 -0.002527 0.000000 0.002876 0.000000
# 2 -0.005184 0.122765 0.015813 0.000000 0.042802 0.000000
# 3 -0.002527 0.015813 0.013982 0.000000 0.012776 0.000000
# 4 0.000000 0.000000 0.000000 0.007352 0.000000 -0.022336
# 5 0.002876 0.042802 0.012776 0.000000 0.058742 0.000000
# 6 0.000000 0.000000 0.000000 -0.022336 0.000000 -0.026503
#
#
# Mechanical properties :
#
#
# Convention : Reuss Voigt Hill
#
# Bulk Modulus (GPa) = 6.09984 29.88157 17.99071
# Shear Modulus (GPa) = 22.14685 23.59370 22.87027
#
# Velocity S-wave (km/s) = 3.19246 3.29509 3.24418
# Velocity P-wave (km/s) = 4.04922 5.31301 4.72357
#
# Compressibility (1/GPa) = 0.16393860
#
# Stress axis : x y z
#
# Youngs Moduli (GPa) = 91.01808 8.14564 71.52144
#
# Poissons Ratio (x) = 0.04222 0.18073
# Poissons Ratio (y) = 0.47181 -1.13097
# Poissons Ratio (z) = 0.23000 -0.12881
#
# Static dielectric constant tensor:
#      x y z
#    x 1.801800 0.000000 -0.026080 
#    y 0.000000 1.773750 0.000000 
#    z -0.026080 0.000000 1.771030 
# 
# From -- ./inp_files/45014.got.cif
#   From: 2010.05.17/outbox.cif.g08.bks.cpg/sg10_23_cif.got.tgz:45014.got - 2010.06.03 11:33:40.
