data_PCOD9144396
_publ_section_title
;
Structure prediction by ZEFSAII (Michael W. Deem and Ramdas Pophale) SiO2 
 PCOD9144396
Probable space group: P 2/M
;
_chemical_formula_sum "Si O2"
_cell_formula_units_Z 30
_cell_length_a 13.984733
_cell_length_b 21.192400
_cell_length_c 11.090018
_cell_angle_alpha 90.000000
_cell_angle_beta 150.312667
_cell_angle_gamma 90.000000
_cell_volume 1627.817188
_symmetry_space_group_name_H-M "P 2/M"
_symmetry_group_IT_number 10
_symmetry_cell_setting 'monoclinic'
loop_
_space_group_symop_operation_xyz
x,y,z
-x,y,-z
-x,-y,-z
x,-y,z
loop_
_atom_site_type_symbol
_atom_site_label
_atom_site_fract_x
_atom_site_fract_y
_atom_site_fract_z
Si Si1 0.727657 0.218531 0.405254
Si Si2 0.000000 0.824823 0.500000
Si Si3 0.218738 0.685854 0.093025
Si Si4 0.949670 0.569865 0.802802
Si Si5 0.404067 0.879157 0.018041
Si Si6 0.654344 0.666204 0.494978
Si Si7 0.954724 0.820435 0.089291
Si Si8 0.637565 0.073054 0.766349
O O1 0.870823 0.217280 0.448307
O O2 0.519802 0.187352 0.155922
O O3 0.708720 0.284854 0.450659
O O4 0.843644 0.172264 0.622147
O O5 0.173344 0.866916 0.748813
O O6 0.428979 0.671976 0.271694
O O7 0.242513 0.685501 0.265379
O O8 0.143728 0.754925 0.975011
O O9 0.081424 0.628217 0.904236
O O10 0.977942 0.500000 0.781487
O O11 0.732912 0.596479 0.553977
O O12 0.000000 0.564940 0.000000
O O13 0.442106 0.915529 0.184979
O O14 0.500000 0.907264 0.000000
O O15 0.813652 0.878533 0.951135
O O16 0.000000 0.812523 0.000000
O O17 0.500000 0.086996 0.500000
O O18 0.694416 0.000000 0.817792
#
# Coordination Sequence:
#
# PCOD9144396 Si02
#       8
#     4   2   4   4   4   4   4   4
#     4  11  20  35  59  89 114 146 194 251 294 348
#     4  10  22  40  61  88 115 152 200 248 304 356
#     4  10  19  30  49  84 114 154 198 229 289 354
#     4   9  17  31  46  72 120 163 194 231 281 350
#     4  10  22  41  66  87 115 158 201 249 308 365
#     4  10  19  29  49  81 114 149 196 238 285 349
#     4  12  20  34  60  84 120 156 194 245 298 357
#     4  11  25  42  61  91 126 158 200 254 312 364
#
# _framework density 18.429587999999999
#
# number of rings (size 3 to 8) (size 9 to 14) (size 15 to 20)
#    0.000    1.600    4.000    2.000    1.867    1.067 
#    0.000    3.667    0.000    0.000    0.000    0.467 
#    0.000    5.867    0.000    0.133    0.000    0.000 
#
# Total GULP energy -167150.106588 kJ/mol
# GULP energy per Si atom -5571.670220 kJ/mol
# Density = 1.838764 g / cm^3
# Si number density = 18.429588 Si / 1000 Ang^3
#
#
#
# Elastic Constant Matrix: (Units=GPa)
#
#
# Indices 1 2 3 4 5 6 
#
# 1 82.2147 29.9517 28.9116 0.0000 0.1496 0.0000
# 2 29.9517 102.0297 39.3465 0.0000 5.0120 0.0000
# 3 28.9116 39.3465 98.6879 0.0000 7.5564 0.0000
# 4 0.0000 0.0000 0.0000 15.9430 0.0000 6.0582
# 5 0.1496 5.0120 7.5564 0.0000 26.4928 0.0000
# 6 0.0000 0.0000 0.0000 6.0582 0.0000 14.3627
#
#
#
# Elastic Compliance Matrix: (Units=1/GPa)
#
#
# Indices 1 2 3 4 5 6 
#
# 1 0.014373 -0.003099 -0.003081 0.000000 0.001384 0.000000
# 2 -0.003099 0.012271 -0.003893 0.000000 -0.001194 0.000000
# 3 -0.003081 -0.003893 0.012810 0.000000 -0.002900 0.000000
# 4 0.000000 0.000000 0.000000 0.074696 0.000000 -0.031507
# 5 0.001384 -0.001194 -0.002900 0.000000 0.038791 0.000000
# 6 0.000000 0.000000 0.000000 -0.031507 0.000000 0.082914
#
#
# Mechanical properties :
#
#
# Convention : Reuss Voigt Hill
#
# Bulk Modulus (GPa) = 51.79409 53.26132 52.52770
# Shear Modulus (GPa) = 19.05217 23.67454 21.36336
#
# Velocity S-wave (km/s) = 3.21874 3.58801 3.40838
# Velocity P-wave (km/s) = 6.47908 6.79174 6.63725
#
# Compressibility (1/GPa) = 0.01930722
#
# Stress axis : x y z
#
# Youngs Moduli (GPa) = 69.57328 81.49449 78.06556
#
# Poissons Ratio (x) = 0.25257 0.24053
# Poissons Ratio (y) = 0.21562 0.30391
# Poissons Ratio (z) = 0.21436 0.31726
#
# Static dielectric constant tensor:
#      x y z
#    x 1.677350 0.000000 -0.012900 
#    y 0.000000 1.623450 0.000000 
#    z -0.012900 0.000000 1.670300 
# 
# From -- ./inp_files/51888.got.cif
#   From: 2010.05.17/outbox.cif.g08.bks.cpg/sg10_26_cif.got.tgz:51888.got - 2010.06.03 11:33:40.
