data_PCOD9144144
_publ_section_title
;
Structure prediction by ZEFSAII (Michael W. Deem and Ramdas Pophale) SiO2 
 PCOD9144144
Probable space group: P 2/M
;
_chemical_formula_sum "Si O2"
_cell_formula_units_Z 24
_cell_length_a 14.633917
_cell_length_b 11.344727
_cell_length_c 23.712909
_cell_angle_alpha 90.000000
_cell_angle_beta 161.796506
_cell_angle_gamma 90.000000
_cell_volume 1229.817179
_symmetry_space_group_name_H-M "P 2/M"
_symmetry_group_IT_number 10
_symmetry_cell_setting 'monoclinic'
loop_
_space_group_symop_operation_xyz
x,y,z
-x,y,-z
-x,-y,-z
x,-y,z
loop_
_atom_site_type_symbol
_atom_site_label
_atom_site_fract_x
_atom_site_fract_y
_atom_site_fract_z
Si Si1 0.216960 0.239999 0.294227
Si Si2 0.662534 0.500000 0.780934
Si Si3 0.636781 0.862139 0.931052
Si Si4 0.666175 0.751963 0.827311
Si Si5 0.606593 0.136476 0.430326
Si Si6 0.739060 0.500000 0.690880
Si Si7 0.739349 0.856817 0.185006
O O1 0.500000 0.226470 0.500000
O O2 0.358178 0.207785 0.317125
O O3 0.107260 0.374733 0.228374
O O4 0.942932 0.156234 0.144166
O O5 0.549450 0.622589 0.740833
O O6 0.640290 0.500000 0.699283
O O7 0.000000 0.500000 0.000000
O O8 0.613069 0.000000 0.901839
O O9 0.656501 0.781690 0.887408
O O10 0.376002 0.828824 0.820205
O O11 0.467783 0.846829 0.678555
O O12 0.000000 0.762085 0.000000
O O13 0.930933 0.183232 0.632982
O O14 0.586869 0.000000 0.435554
O O15 0.500000 0.500000 0.500000
O O16 0.746209 0.000000 0.185843
O O17 0.500000 0.814128 0.000000
#
# Coordination Sequence:
#
# PCOD9144144 Si02
#       7
#     4   2   4   4   4   2   4
#     4  11  21  34  57  85 112 149 194 240 288 343
#     4  10  18  36  58  79 116 158 195 238 291 347
#     4  11  22  36  56  85 120 152 187 239 292 344
#     4  11  21  35  57  85 115 150 192 239 289 339
#     4  11  21  34  56  84 116 151 186 232 290 343
#     4  10  20  36  56  84 115 148 197 248 292 340
#     4   9  20  38  56  78 115 158 194 229 280 350
#
# _framework density 19.515094999999999
#
# number of rings (size 3 to 8) (size 9 to 14) (size 15 to 20)
#    0.000    1.500    3.333    3.000    0.000    4.000 
#    0.000    2.500    0.000    5.000    0.000    8.167 
#    0.000    0.000    0.000    0.000    0.000    0.000 
#
# Total GULP energy -133808.330124 kJ/mol
# GULP energy per Si atom -5575.347089 kJ/mol
# Density = 1.947068 g / cm^3
# Si number density = 19.515095 Si / 1000 Ang^3
#
#
#
# Elastic Constant Matrix: (Units=GPa)
#
#
# Indices 1 2 3 4 5 6 
#
# 1 56.7059 11.8184 5.2614 0.0000 -11.7785 0.0000
# 2 11.8184 52.7923 -2.2723 0.0000 -3.8836 0.0000
# 3 5.2614 -2.2723 60.0299 0.0000 -4.0310 0.0000
# 4 0.0000 0.0000 0.0000 11.6480 0.0000 -15.4092
# 5 -11.7785 -3.8836 -4.0310 0.0000 36.1630 0.0000
# 6 0.0000 0.0000 0.0000 -15.4092 0.0000 13.8538
#
#
#
# Elastic Compliance Matrix: (Units=1/GPa)
#
#
# Indices 1 2 3 4 5 6 
#
# 1 0.019840 -0.004075 -0.001500 0.000000 0.005857 0.000000
# 2 -0.004075 0.019975 0.001177 0.000000 0.000949 0.000000
# 3 -0.001500 0.001177 0.016937 0.000000 0.001526 0.000000
# 4 0.000000 0.000000 0.000000 -0.182106 0.000000 -0.202552
# 5 0.005857 0.000949 0.001526 0.000000 0.029832 0.000000
# 6 0.000000 0.000000 0.000000 -0.202552 0.000000 -0.153111
#
#
# Mechanical properties :
#
#
# Convention : Reuss Voigt Hill
#
# Bulk Modulus (GPa) = 20.85257 22.12700 21.48979
# Shear Modulus (GPa) = -22.33625 22.64767 0.15571
#
# Velocity S-wave (km/s) = -3.38681 3.41034 0.28278
# Velocity P-wave (km/s) = 2.14136 5.18365 3.33802
#
# Compressibility (1/GPa) = 0.04795571
#
# Stress axis : x y z
#
# Youngs Moduli (GPa) = 50.40342 50.06281 59.04291
#
# Poissons Ratio (x) = 0.20401 0.08855
# Poissons Ratio (y) = 0.20540 -0.06949
# Poissons Ratio (z) = 0.07560 -0.05892
#
# Static dielectric constant tensor:
#      x y z
#    x 1.743360 0.000000 -0.095960 
#    y 0.000000 1.695120 0.000000 
#    z -0.095960 0.000000 1.765280 
# 
# From -- ./inp_files/88141.got.cif
#   From: 2010.05.17/outbox.cif.g08.bks.cpg/sg10_45_cif.got.tgz:88141.got - 2010.06.03 11:33:40.
