data_PCOD9144091
_publ_section_title
;
Structure prediction by ZEFSAII (Michael W. Deem and Ramdas Pophale) SiO2 
 PCOD9144091
Probable space group: P 2/M
;
_chemical_formula_sum "Si O2"
_cell_formula_units_Z 24
_cell_length_a 11.482109
_cell_length_b 16.113355
_cell_length_c 9.472041
_cell_angle_alpha 90.000000
_cell_angle_beta 38.881671
_cell_angle_gamma 90.000000
_cell_volume 1100.051631
_symmetry_space_group_name_H-M "P 2/M"
_symmetry_group_IT_number 10
_symmetry_cell_setting 'monoclinic'
loop_
_space_group_symop_operation_xyz
x,y,z
-x,y,-z
-x,-y,-z
x,-y,z
loop_
_atom_site_type_symbol
_atom_site_label
_atom_site_fract_x
_atom_site_fract_y
_atom_site_fract_z
Si Si1 0.469886 0.908152 0.292643
Si Si2 0.284480 0.679295 0.597263
Si Si3 0.058019 0.500000 0.284246
Si Si4 0.193496 0.500000 0.733763
Si Si5 0.543495 0.261654 0.111784
Si Si6 0.929490 0.680272 0.728549
Si Si7 0.779319 0.144832 0.219201
O O1 0.457896 0.830410 0.200141
O O2 0.302489 0.897669 0.562514
O O3 0.657498 0.893111 0.207568
O O4 0.469409 0.000000 0.231872
O O5 0.286556 0.589219 0.668261
O O6 0.449308 0.689697 0.329249
O O7 0.274398 0.757741 0.710869
O O8 0.098132 0.687740 0.677889
O O9 0.154050 0.587598 0.167459
O O10 0.000000 0.500000 0.500000
O O11 0.870051 0.500000 0.369924
O O12 0.000000 0.500000 0.000000
O O13 0.500000 0.300006 0.000000
O O14 0.764615 0.257295 0.913654
O O15 0.000000 0.686845 0.500000
O O16 0.000000 0.135673 0.000000
#
# Coordination Sequence:
#
# PCOD9144091 Si02
#       7
#     4   4   2   2   4   4   4
#     4  10  23  39  57  85 114 143 187 239 293 355
#     4  10  21  36  57  87 117 156 194 232 283 343
#     4   8  18  33  55  83 112 153 196 241 278 322
#     4  10  20  35  57  85 125 160 193 237 288 332
#     4  11  22  37  59  84 112 152 194 238 291 345
#     4  10  18  35  57  81 116 149 193 237 279 333
#     4  10  19  36  62  84 111 147 190 232 285 344
#
# _framework density 21.817157999999999
#
# number of rings (size 3 to 8) (size 9 to 14) (size 15 to 20)
#    0.000    2.000    1.667    2.500    0.000    3.667 
#    0.000    0.833    0.000   12.500    0.000    0.000 
#    0.000    0.000    0.000    0.000    0.000    0.000 
#
# Total GULP energy -134074.468218 kJ/mol
# GULP energy per Si atom -5586.436176 kJ/mol
# Density = 2.176750 g / cm^3
# Si number density = 21.817158 Si / 1000 Ang^3
#
#
#
# Elastic Constant Matrix: (Units=GPa)
#
#
# Indices 1 2 3 4 5 6 
#
# 1 59.9702 -17.4041 24.9856 0.0000 -10.4434 0.0000
# 2 -17.4041 130.2569 25.3532 0.0000 1.7895 0.0000
# 3 24.9856 25.3532 130.1066 0.0000 -21.9880 0.0000
# 4 0.0000 0.0000 0.0000 1.5853 0.0000 -6.1973
# 5 -10.4434 1.7895 -21.9880 0.0000 28.3201 0.0000
# 6 0.0000 0.0000 0.0000 -6.1973 0.0000 19.6889
#
#
#
# Elastic Compliance Matrix: (Units=1/GPa)
#
#
# Indices 1 2 3 4 5 6 
#
# 1 0.019950 0.003341 -0.003769 0.000000 0.004219 0.000000
# 2 0.003341 0.008636 -0.002542 0.000000 -0.001287 0.000000
# 3 -0.003769 -0.002542 0.010011 0.000000 0.006543 0.000000
# 4 0.000000 0.000000 0.000000 -2.736984 0.000000 -0.861499
# 5 0.004219 -0.001287 0.006543 0.000000 0.042028 0.000000
# 6 0.000000 0.000000 0.000000 -0.861499 0.000000 -0.220377
#
#
# Mechanical properties :
#
#
# Convention : Reuss Voigt Hill
#
# Bulk Modulus (GPa) = 30.62157 42.91146 36.76652
# Shear Modulus (GPa) = -1.74831 29.07882 13.66526
#
# Velocity S-wave (km/s) = -0.89615 3.65477 2.50542
# Velocity P-wave (km/s) = 3.60489 6.12545 5.02575
#
# Compressibility (1/GPa) = 0.03265672
#
# Stress axis : x y z
#
# Youngs Moduli (GPa) = 50.12609 115.79390 99.89006
#
# Poissons Ratio (x) = -0.38689 0.37650
# Poissons Ratio (y) = -0.16748 0.25392
# Poissons Ratio (z) = 0.18893 0.29435
#
# Static dielectric constant tensor:
#      x y z
#    x 1.779180 0.000000 -0.019640 
#    y 0.000000 1.851140 0.000000 
#    z -0.019640 0.000000 1.731000 
# 
# From -- ./inp_files/51559.got.cif
#   From: 2010.05.17/outbox.cif.g08.bks.cpg/sg10_26_cif.got.tgz:51559.got - 2010.06.03 11:33:40.
