data_PCOD9144487
_publ_section_title
;
Structure prediction by ZEFSAII (Michael W. Deem and Ramdas Pophale) SiO2 
 PCOD9144487
Probable space group: P 2/M
;
_chemical_formula_sum "Si O2"
_cell_formula_units_Z 32
_cell_length_a 19.157718
_cell_length_b 7.377187
_cell_length_c 12.658506
_cell_angle_alpha 90.000000
_cell_angle_beta 42.205095
_cell_angle_gamma 90.000000
_cell_volume 1201.844466
_symmetry_space_group_name_H-M "P 2/M"
_symmetry_group_IT_number 10
_symmetry_cell_setting 'monoclinic'
loop_
_space_group_symop_operation_xyz
x,y,z
-x,y,-z
-x,-y,-z
x,-y,z
loop_
_atom_site_type_symbol
_atom_site_label
_atom_site_fract_x
_atom_site_fract_y
_atom_site_fract_z
Si Si1 0.996292 0.280468 0.334982
Si Si2 0.168464 0.720376 0.294948
Si Si3 0.729731 0.788665 0.106466
Si Si4 0.821561 0.721899 0.383458
Si Si5 0.888109 0.282289 0.085112
Si Si6 0.395268 0.706045 0.314454
Si Si7 0.379703 0.291721 0.989449
Si Si8 0.392317 0.211234 0.559345
O O1 0.007406 0.500000 0.314523
O O2 0.909149 0.240701 0.522846
O O3 0.932073 0.219449 0.305484
O O4 0.105499 0.215644 0.261014
O O5 0.174617 0.500000 0.283874
O O6 0.286937 0.787748 0.165012
O O7 0.848654 0.776530 0.013846
O O8 0.678066 0.707256 0.060412
O O9 0.679347 0.706200 0.268713
O O10 0.702150 0.000000 0.130746
O O11 0.819725 0.500000 0.389827
O O12 0.816543 0.771881 0.266112
O O13 0.721131 0.785465 0.561996
O O14 0.893023 0.500000 0.074771
O O15 0.000000 0.218944 0.000000
O O16 0.388328 0.500000 0.281385
O O17 0.503714 0.786887 0.149601
O O18 0.406405 0.699823 0.429673
O O19 0.395119 0.500000 0.004024
O O20 0.500000 0.212154 0.500000
O O21 0.366951 0.000000 0.567856
#
# Coordination Sequence:
#
# PCOD9144487 Si02
#       8
#     4   4   4   4   4   4   4   4
#     4   8  14  27  48  71  96 126 158 201 249 295
#     4   8  15  28  47  73  99 121 156 205 253 295
#     4  11  22  34  49  70  99 135 170 205 247 290
#     4   9  17  29  45  68  99 131 164 196 241 297
#     4  10  21  34  50  73 101 134 169 205 245 291
#     4  10  19  30  45  69 100 132 161 201 249 292
#     4  10  20  31  48  74 103 129 164 208 250 296
#     4  10  19  32  47  64  91 128 169 204 235 282
#
# _framework density 26.62574
#
# number of rings (size 3 to 8) (size 9 to 14) (size 15 to 20)
#    0.000    2.500    2.500    1.125    1.750    1.000 
#    0.000    0.625    0.000    3.750    0.000    3.500 
#    0.000    2.000    0.000    0.000    0.000    0.000 
#
# Total GULP energy -178609.195350 kJ/mol
# GULP energy per Si atom -5581.537355 kJ/mol
# Density = 2.656514 g / cm^3
# Si number density = 26.625740 Si / 1000 Ang^3
#
#
#
# Elastic Constant Matrix: (Units=GPa)
#
#
# Indices 1 2 3 4 5 6 
#
# 1 57.8204 -0.6043 5.1843 0.0000 -4.3839 0.0000
# 2 -0.6043 100.8370 -1.5073 0.0000 -2.8070 0.0000
# 3 5.1843 -1.5073 110.2665 0.0000 -35.0655 0.0000
# 4 0.0000 0.0000 0.0000 -11.5112 0.0000 -2.7633
# 5 -4.3839 -2.8070 -35.0655 0.0000 59.4263 0.0000
# 6 0.0000 0.0000 0.0000 -2.7633 0.0000 27.6900
#
#
#
# Elastic Compliance Matrix: (Units=1/GPa)
#
#
# Indices 1 2 3 4 5 6 
#
# 1 0.017417 0.000125 -0.000501 0.000000 0.000995 0.000000
# 2 0.000125 0.009942 0.000348 0.000000 0.000684 0.000000
# 3 -0.000501 0.000348 0.011191 0.000000 0.006583 0.000000
# 4 0.000000 0.000000 0.000000 -0.084840 0.000000 -0.008466
# 5 0.000995 0.000684 0.006583 0.000000 0.020817 0.000000
# 6 0.000000 0.000000 0.000000 -0.008466 0.000000 0.035269
#
#
# Mechanical properties :
#
#
# Convention : Reuss Voigt Hill
#
# Bulk Modulus (GPa) = 25.97938 30.56325 28.27132
# Shear Modulus (GPa) = 220.42135 32.84445 126.63290
#
# Velocity S-wave (km/s) = 9.10850 3.51602 6.90388
# Velocity P-wave (km/s) = 10.97261 5.29027 8.61351
#
# Compressibility (1/GPa) = 0.03849206
#
# Stress axis : x y z
#
# Youngs Moduli (GPa) = 57.41656 100.58365 89.36100
#
# Poissons Ratio (x) = -0.01253 0.04474
# Poissons Ratio (y) = -0.00715 -0.03105
# Poissons Ratio (z) = 0.02875 -0.03495
#
# Static dielectric constant tensor:
#      x y z
#    x 2.095270 0.000000 -0.056770 
#    y 0.000000 2.038950 0.000000 
#    z -0.056770 0.000000 2.273490 
# 
# From -- ./inp_files/69998.got.cif
#   From: 2010.05.17/outbox.cif.g08.bks.cpg/sg10_35_cif.got.tgz:69998.got - 2010.06.03 11:33:40.
