data_PCOD9144650
_publ_section_title
;
Structure prediction by ZEFSAII (Michael W. Deem and Ramdas Pophale) SiO2 
 PCOD9144650
Probable space group: P 2/M
;
_chemical_formula_sum "Si O2"
_cell_formula_units_Z 32
_cell_length_a 12.335578
_cell_length_b 7.648134
_cell_length_c 18.016546
_cell_angle_alpha 90.000000
_cell_angle_beta 133.302316
_cell_angle_gamma 90.000000
_cell_volume 1236.988831
_symmetry_space_group_name_H-M "P 2/M"
_symmetry_group_IT_number 10
_symmetry_cell_setting 'monoclinic'
loop_
_space_group_symop_operation_xyz
x,y,z
-x,y,-z
-x,-y,-z
x,-y,z
loop_
_atom_site_type_symbol
_atom_site_label
_atom_site_fract_x
_atom_site_fract_y
_atom_site_fract_z
Si Si1 0.602141 0.206185 0.700042
Si Si2 0.962273 0.696749 0.214455
Si Si3 0.854263 0.707312 0.521748
Si Si4 0.345837 0.713447 0.968101
Si Si5 0.179670 0.714313 0.663328
Si Si6 0.950564 0.207024 0.896733
Si Si7 0.702685 0.201193 0.592091
Si Si8 0.504768 0.707517 0.817898
O O1 0.774621 0.228212 0.804418
O O2 0.607667 0.278543 0.616721
O O3 0.520687 0.269139 0.736463
O O4 0.569221 0.000000 0.678629
O O5 0.971711 0.500000 0.250241
O O6 0.965923 0.688579 0.126871
O O7 0.121693 0.784653 0.303881
O O8 0.798629 0.777241 0.145702
O O9 0.864842 0.500000 0.519525
O O10 0.830559 0.772924 0.427611
O O11 0.718616 0.738460 0.514437
O O12 0.021186 0.768583 0.624873
O O13 0.330665 0.500000 0.958364
O O14 0.370266 0.773884 0.065462
O O15 0.500000 0.756432 0.000000
O O16 0.183302 0.500000 0.666951
O O17 0.341433 0.774499 0.764565
O O18 0.983636 0.000000 0.903288
O O19 0.000000 0.264603 0.000000
O O20 0.663425 0.000000 0.570734
O O21 0.504791 0.500000 0.829761
#
# Coordination Sequence:
#
# PCOD9144650 Si02
#       8
#     4   4   4   4   4   4   4   4
#     4   9  19  34  49  70 103 140 176 216 263 313
#     4  10  19  30  48  74 100 134 176 218 258 303
#     4   9  17  34  59  84 107 133 173 218 262 318
#     4   9  19  32  48  75 108 139 173 213 260 311
#     4   8  17  33  56  85 110 135 169 214 268 317
#     4   9  17  30  48  67  94 135 174 216 267 306
#     4  10  21  36  54  77 107 141 177 222 271 314
#     4  10  19  33  55  78 106 141 175 214 259 314
#
# _framework density 25.86927
#
# number of rings (size 3 to 8) (size 9 to 14) (size 15 to 20)
#    0.000    2.750    0.000    3.000    1.750    2.750 
#    0.000    3.750    0.000    5.625    0.000    0.000 
#    0.000    0.000    0.000    0.000    0.000    0.000 
#
# Total GULP energy -178547.204819 kJ/mol
# GULP energy per Si atom -5579.600151 kJ/mol
# Density = 2.581039 g / cm^3
# Si number density = 25.869270 Si / 1000 Ang^3
#
#
#
# Elastic Constant Matrix: (Units=GPa)
#
#
# Indices 1 2 3 4 5 6 
#
# 1 165.8500 6.4608 40.1601 0.0000 -0.8501 0.0000
# 2 6.4608 24.4676 -2.3136 0.0000 11.3776 0.0000
# 3 40.1601 -2.3136 84.3962 0.0000 10.7294 0.0000
# 4 0.0000 0.0000 0.0000 3.4341 0.0000 -20.4012
# 5 -0.8501 11.3776 10.7294 0.0000 55.4228 0.0000
# 6 0.0000 0.0000 0.0000 -20.4012 0.0000 19.1143
#
#
#
# Elastic Compliance Matrix: (Units=1/GPa)
#
#
# Indices 1 2 3 4 5 6 
#
# 1 0.007017 -0.002837 -0.003593 0.000000 0.001386 0.000000
# 2 -0.002837 0.046842 0.003960 0.000000 -0.010426 0.000000
# 3 -0.003593 0.003960 0.014125 0.000000 -0.003602 0.000000
# 4 0.000000 0.000000 0.000000 -0.054523 0.000000 -0.058194
# 5 0.001386 -0.010426 -0.003602 0.000000 0.020902 0.000000
# 6 0.000000 0.000000 0.000000 -0.058194 0.000000 -0.009796
#
#
# Mechanical properties :
#
#
# Convention : Reuss Voigt Hill
#
# Bulk Modulus (GPa) = 15.86204 40.36981 28.11593
# Shear Modulus (GPa) = 98.96441 30.95467 64.95954
#
# Velocity S-wave (km/s) = 6.19182 3.46292 5.01649
# Velocity P-wave (km/s) = 7.56724 5.62390 6.66676
#
# Compressibility (1/GPa) = 0.06304358
#
# Stress axis : x y z
#
# Youngs Moduli (GPa) = 142.50666 21.34828 70.79550
#
# Poissons Ratio (x) = 0.06056 0.25437
# Poissons Ratio (y) = 0.40429 -0.28032
# Poissons Ratio (z) = 0.51204 -0.08453
#
# Static dielectric constant tensor:
#      x y z
#    x 2.083160 0.000000 -0.021340 
#    y 0.000000 1.965610 0.000000 
#    z -0.021340 0.000000 2.150970 
# 
# From -- ./inp_files/83598.got.cif
#   From: 2010.05.17/outbox.cif.g08.bks.cpg/sg10_42_cif.got.tgz:83598.got - 2010.06.03 11:33:40.
