data_PCOD9144930
_publ_section_title
;
Structure prediction by ZEFSAII (Michael W. Deem and Ramdas Pophale) SiO2 
 PCOD9144930
Probable space group: P 2/M
;
_chemical_formula_sum "Si O2"
_cell_formula_units_Z 32
_cell_length_a 15.500667
_cell_length_b 8.464653
_cell_length_c 15.471611
_cell_angle_alpha 90.000000
_cell_angle_beta 79.088048
_cell_angle_gamma 90.000000
_cell_volume 1993.291687
_symmetry_space_group_name_H-M "P 2/M"
_symmetry_group_IT_number 10
_symmetry_cell_setting 'monoclinic'
loop_
_space_group_symop_operation_xyz
x,y,z
-x,y,-z
-x,-y,-z
x,-y,z
loop_
_atom_site_type_symbol
_atom_site_label
_atom_site_fract_x
_atom_site_fract_y
_atom_site_fract_z
Si Si1 0.556255 0.814979 0.108165
Si Si2 0.302892 0.810631 0.580295
Si Si3 0.888131 0.192184 0.437099
Si Si4 0.747893 0.309783 0.746281
Si Si5 0.423345 0.688441 0.709970
Si Si6 0.917850 0.190572 0.630003
Si Si7 0.372936 0.312348 0.077176
Si Si8 0.380059 0.308794 0.385810
O O1 0.592276 0.767800 0.194530
O O2 0.465475 0.721429 0.107810
O O3 0.536280 0.000000 0.108582
O O4 0.619636 0.770817 0.016694
O O5 0.201660 0.755627 0.590315
O O6 0.353213 0.736930 0.651457
O O7 0.350983 0.762741 0.482295
O O8 0.303911 0.000000 0.588016
O O9 0.890147 0.239982 0.537732
O O10 0.980882 0.241887 0.378085
O O11 0.887910 0.000000 0.437167
O O12 0.745290 0.500000 0.747010
O O13 0.846279 0.254496 0.709561
O O14 0.703718 0.256454 0.844151
O O15 0.686246 0.257304 0.677790
O O16 0.423669 0.500000 0.721111
O O17 0.520730 0.735544 0.658400
O O18 0.915885 0.000000 0.632517
O O19 0.365265 0.500000 0.065372
O O20 0.376436 0.500000 0.392938
#
# Coordination Sequence:
#
# PCOD9144930 Si02
#       8
#     4   4   4   4   4   4   4   4
#     4  11  21  33  50  75  98 122 164 213 243 278
#     4  11  21  33  49  72  97 128 169 213 244 278
#     4   8  16  30  47  68  96 127 161 199 247 292
#     4  10  19  31  48  73 100 129 163 198 238 287
#     4  11  22  37  51  66  95 138 171 199 243 297
#     4   9  16  30  50  69  93 129 163 197 243 294
#     4  10  19  34  52  70  99 135 161 192 247 303
#     4  10  20  34  47  65  97 136 171 198 234 288
#
# _framework density 16.053847000000001
#
# number of rings (size 3 to 8) (size 9 to 14) (size 15 to 20)
#    0.000    2.000    2.500    4.125    0.000    3.500 
#    0.000    2.500    0.000    0.000    0.000    0.875 
#    0.000    7.000    0.000    0.000    0.000    0.000 
#
# Total GULP energy -178560.733251 kJ/mol
# GULP energy per Si atom -5580.022914 kJ/mol
# Density = 1.601731 g / cm^3
# Si number density = 16.053847 Si / 1000 Ang^3
#
#
#
# Elastic Constant Matrix: (Units=GPa)
#
#
# Indices 1 2 3 4 5 6 
#
# 1 94.1334 8.8891 59.8365 0.0000 -11.9034 0.0000
# 2 8.8891 12.2874 6.0150 0.0000 -0.1006 0.0000
# 3 59.8365 6.0150 106.8254 0.0000 -13.5130 0.0000
# 4 0.0000 0.0000 0.0000 17.3230 0.0000 1.3466
# 5 -11.9034 -0.1006 -13.5130 0.0000 25.3896 0.0000
# 6 0.0000 0.0000 0.0000 1.3466 0.0000 23.6534
#
#
#
# Elastic Compliance Matrix: (Units=1/GPa)
#
#
# Indices 1 2 3 4 5 6 
#
# 1 0.017496 -0.008272 -0.008900 0.000000 0.003433 0.000000
# 2 -0.008272 0.087731 -0.000807 0.000000 -0.003960 0.000000
# 3 -0.008900 -0.000807 0.014864 0.000000 0.003735 0.000000
# 4 0.000000 0.000000 0.000000 0.057983 0.000000 -0.003301
# 5 0.003433 -0.003960 0.003735 0.000000 0.042968 0.000000
# 6 0.000000 0.000000 0.000000 -0.003301 0.000000 0.042465
#
#
# Mechanical properties :
#
#
# Convention : Reuss Voigt Hill
#
# Bulk Modulus (GPa) = 11.88602 40.30303 26.09452
# Shear Modulus (GPa) = 15.26668 22.50690 18.88679
#
# Velocity S-wave (km/s) = 3.08712 3.74834 3.43368
# Velocity P-wave (km/s) = 4.48631 6.62517 5.65773
#
# Compressibility (1/GPa) = 0.08413244
#
# Stress axis : x y z
#
# Youngs Moduli (GPa) = 57.15663 11.39845 67.27576
#
# Poissons Ratio (x) = 0.09429 0.59875
# Poissons Ratio (y) = 0.47281 0.05431
# Poissons Ratio (z) = 0.50869 0.00920
#
# Static dielectric constant tensor:
#      x y z
#    x 1.534390 0.000000 -0.013150 
#    y 0.000000 1.550650 0.000000 
#    z -0.013150 0.000000 1.525470 
# 
# From -- ./inp_files/66051.got.cif
#   From: 2010.05.17/outbox.cif.g08.bks.cpg/sg10_34_cif.got.tgz:66051.got - 2010.06.03 11:33:40.
