data_PCOD9144528
_publ_section_title
;
Structure prediction by ZEFSAII (Michael W. Deem and Ramdas Pophale) SiO2 
 PCOD9144528
Probable space group: P 2/M
;
_chemical_formula_sum "Si O2"
_cell_formula_units_Z 32
_cell_length_a 24.577971
_cell_length_b 8.420544
_cell_length_c 16.997494
_cell_angle_alpha 90.000000
_cell_angle_beta 28.736851
_cell_angle_gamma 90.000000
_cell_volume 1691.314178
_symmetry_space_group_name_H-M "P 2/M"
_symmetry_group_IT_number 10
_symmetry_cell_setting 'monoclinic'
loop_
_space_group_symop_operation_xyz
x,y,z
-x,y,-z
-x,-y,-z
x,-y,z
loop_
_atom_site_type_symbol
_atom_site_label
_atom_site_fract_x
_atom_site_fract_y
_atom_site_fract_z
Si Si1 0.768691 0.811686 0.979432
Si Si2 0.529767 0.678077 0.230782
Si Si3 0.903120 0.193525 0.957507
Si Si4 0.188156 0.183340 0.770570
Si Si5 0.982083 0.310954 0.612101
Si Si6 0.591230 0.682090 0.447295
Si Si7 0.700558 0.808961 0.531006
Si Si8 0.119518 0.191335 0.576674
O O1 0.873177 0.767728 0.790742
O O2 0.760990 0.000000 0.996223
O O3 0.652560 0.751586 0.089183
O O4 0.804353 0.750848 0.021981
O O5 0.544130 0.500000 0.182523
O O6 0.474219 0.674132 0.387619
O O7 0.430521 0.762078 0.307462
O O8 0.897424 0.251696 0.055178
O O9 0.896845 0.000000 0.969877
O O10 0.019391 0.231910 0.765577
O O11 0.304778 0.200268 0.672329
O O12 0.226347 0.252726 0.637666
O O13 0.156045 0.000000 0.796863
O O14 0.965289 0.500000 0.633382
O O15 0.000000 0.257133 0.500000
O O16 0.087097 0.268078 0.535240
O O17 0.500000 0.736083 0.500000
O O18 0.628676 0.500000 0.380764
O O19 0.764247 0.759501 0.529374
O O20 0.706098 0.000000 0.518456
O O21 0.117919 0.000000 0.569578
#
# Coordination Sequence:
#
# PCOD9144528 Si02
#       8
#     4   4   4   4   4   4   4   4
#     4  10  19  32  52  77 104 131 163 204 249 296
#     4  10  19  30  46  68  97 134 172 209 249 293
#     4   8  15  27  44  69  97 127 166 212 256 291
#     4   9  16  26  41  62  91 128 170 212 248 282
#     4  10  21  37  58  83 106 126 152 190 241 301
#     4   9  17  27  38  56  86 125 168 212 254 291
#     4   9  18  31  47  69  98 136 178 213 245 284
#     4   9  18  33  52  74 101 132 167 205 246 295
#
# _framework density 18.920199
#
# number of rings (size 3 to 8) (size 9 to 14) (size 15 to 20)
#    0.000    2.750    0.000    2.625    0.000    2.750 
#    0.000    5.000    0.000    0.750    0.000   12.250 
#    0.000    0.000    0.000    0.000    0.000    0.000 
#
# Total GULP energy -178238.739287 kJ/mol
# GULP energy per Si atom -5569.960603 kJ/mol
# Density = 1.887714 g / cm^3
# Si number density = 18.920199 Si / 1000 Ang^3
#
#
#
# Elastic Constant Matrix: (Units=GPa)
#
#
# Indices 1 2 3 4 5 6 
#
# 1 112.7649 10.4869 32.7493 0.0000 -16.7008 0.0000
# 2 10.4869 16.1502 3.6780 0.0000 -4.0888 0.0000
# 3 32.7493 3.6780 33.1272 0.0000 -8.3923 0.0000
# 4 0.0000 0.0000 0.0000 4.7960 0.0000 11.6180
# 5 -16.7008 -4.0888 -8.3923 0.0000 28.4671 0.0000
# 6 0.0000 0.0000 0.0000 11.6180 0.0000 4.9707
#
#
#
# Elastic Compliance Matrix: (Units=1/GPa)
#
#
# Indices 1 2 3 4 5 6 
#
# 1 0.013248 -0.005039 -0.011619 0.000000 0.003623 0.000000
# 2 -0.005039 0.067006 -0.000831 0.000000 0.006423 0.000000
# 3 -0.011619 -0.000831 0.043238 0.000000 0.005811 0.000000
# 4 0.000000 0.000000 0.000000 -0.044725 0.000000 0.104537
# 5 0.003623 0.006423 0.005811 0.000000 0.039889 0.000000
# 6 0.000000 0.000000 0.000000 0.104537 0.000000 -0.043154
#
#
# Mechanical properties :
#
#
# Convention : Reuss Voigt Hill
#
# Bulk Modulus (GPa) = 11.29771 28.43011 19.86391
# Shear Modulus (GPa) = 35.71840 15.32197 25.52019
#
# Velocity S-wave (km/s) = 4.34965 2.84882 3.67663
# Velocity P-wave (km/s) = 5.58660 5.08724 5.34276
#
# Compressibility (1/GPa) = 0.08851351
#
# Stress axis : x y z
#
# Youngs Moduli (GPa) = 75.48515 14.92397 23.12796
#
# Poissons Ratio (x) = 0.07520 0.26873
# Poissons Ratio (y) = 0.38036 0.01922
# Poissons Ratio (z) = 0.87708 0.01240
#
# Static dielectric constant tensor:
#      x y z
#    x 1.694310 0.000000 -0.011120 
#    y 0.000000 1.679060 0.000000 
#    z -0.011120 0.000000 1.667600 
# 
# From -- ./inp_files/79929.got.cif
#   From: 2010.05.17/outbox.cif.g08.bks.cpg/sg10_40_cif.got.tgz:79929.got - 2010.06.03 11:33:40.
