data_PCOD9144596
_publ_section_title
;
Structure prediction by ZEFSAII (Michael W. Deem and Ramdas Pophale) SiO2 
 PCOD9144596
Probable space group: P 2/M
;
_chemical_formula_sum "Si O2"
_cell_formula_units_Z 28
_cell_length_a 14.981757
_cell_length_b 8.950931
_cell_length_c 17.799556
_cell_angle_alpha 90.000000
_cell_angle_beta 131.685931
_cell_angle_gamma 90.000000
_cell_volume 1782.564745
_symmetry_space_group_name_H-M "P 2/M"
_symmetry_group_IT_number 10
_symmetry_cell_setting 'monoclinic'
loop_
_space_group_symop_operation_xyz
x,y,z
-x,y,-z
-x,-y,-z
x,-y,z
loop_
_atom_site_type_symbol
_atom_site_label
_atom_site_fract_x
_atom_site_fract_y
_atom_site_fract_z
Si Si1 0.918308 0.821519 0.382711
Si Si2 0.659192 0.321928 0.227767
Si Si3 0.677900 0.327104 0.065830
Si Si4 0.037206 0.326180 0.748328
Si Si5 0.810319 0.181219 0.909266
Si Si6 0.031911 0.180495 0.139625
Si Si7 0.577863 0.822028 0.863274
O O1 0.786484 0.751319 0.317070
O O2 0.974382 0.757167 0.337371
O O3 0.000000 0.785279 0.500000
O O4 0.907497 0.000000 0.370432
O O5 0.668486 0.500000 0.240220
O O6 0.633262 0.290584 0.124697
O O7 0.549900 0.256777 0.213865
O O8 0.645280 0.500000 0.030290
O O9 0.821567 0.317490 0.151937
O O10 0.630833 0.221218 0.974471
O O11 0.006831 0.500000 0.722929
O O12 0.967623 0.252572 0.778480
O O13 0.860852 0.226192 0.856316
O O14 0.679119 0.230262 0.860938
O O15 0.809812 0.000000 0.909379
O O16 0.909947 0.224435 0.027053
O O17 0.031657 0.000000 0.145880
O O18 0.563981 0.000000 0.849792
#
# Coordination Sequence:
#
# PCOD9144596 Si02
#       7
#     4   4   4   4   4   4   4
#     4  10  21  37  56  76  94 116 153 198 239 284
#     4  10  21  34  47  66  95 127 156 190 237 289
#     4   9  18  30  41  59  92 129 161 192 229 276
#     4  10  19  30  47  72 100 128 158 194 240 288
#     4   8  16  27  43  66  93 129 169 207 238 267
#     4   9  15  29  47  64  92 130 170 204 236 274
#     4  11  19  28  44  67  93 127 168 201 232 272
#
# _framework density 15.707705000000001
#
# number of rings (size 3 to 8) (size 9 to 14) (size 15 to 20)
#    0.000    2.429    1.429    3.857    0.000    5.714 
#    0.000    2.857    0.000    0.000    0.000    1.000 
#    0.000    8.000    0.000    0.000    0.000    0.000 
#
# Total GULP energy -156130.423836 kJ/mol
# GULP energy per Si atom -5576.086566 kJ/mol
# Density = 1.567195 g / cm^3
# Si number density = 15.707705 Si / 1000 Ang^3
#
#
#
# Elastic Constant Matrix: (Units=GPa)
#
#
# Indices 1 2 3 4 5 6 
#
# 1 152.8772 47.5276 55.2730 0.0000 -14.6807 0.0000
# 2 47.5276 49.5572 41.1889 0.0000 -6.8337 0.0000
# 3 55.2730 41.1889 75.6517 0.0000 -11.7350 0.0000
# 4 0.0000 0.0000 0.0000 -9.3961 0.0000 11.9840
# 5 -14.6807 -6.8337 -11.7350 0.0000 14.4146 0.0000
# 6 0.0000 0.0000 0.0000 11.9840 0.0000 12.5575
#
#
#
# Elastic Compliance Matrix: (Units=1/GPa)
#
#
# Indices 1 2 3 4 5 6 
#
# 1 0.010142 -0.006440 -0.003176 0.000000 0.004691 0.000000
# 2 -0.006440 0.040968 -0.017860 0.000000 -0.001677 0.000000
# 3 -0.003176 -0.017860 0.026837 0.000000 0.010146 0.000000
# 4 0.000000 0.000000 0.000000 -0.048001 0.000000 0.045809
# 5 0.004691 -0.001677 0.010146 0.000000 0.081616 0.000000
# 6 0.000000 0.000000 0.000000 0.045809 0.000000 0.035917
#
#
# Mechanical properties :
#
#
# Convention : Reuss Voigt Hill
#
# Bulk Modulus (GPa) = 43.48882 62.89613 53.19248
# Shear Modulus (GPa) = 23.79864 12.45497 18.12681
#
# Velocity S-wave (km/s) = 3.89664 2.81894 3.40075
# Velocity P-wave (km/s) = 6.92759 7.12206 7.02550
#
# Compressibility (1/GPa) = 0.02299441
#
# Stress axis : x y z
#
# Youngs Moduli (GPa) = 98.59872 24.40931 37.26216
#
# Poissons Ratio (x) = 0.15720 0.11835
# Poissons Ratio (y) = 0.63499 0.66550
# Poissons Ratio (z) = 0.31316 0.43595
#
# Static dielectric constant tensor:
#      x y z
#    x 1.553010 0.000000 0.002500 
#    y 0.000000 1.522310 0.000000 
#    z 0.002500 0.000000 1.494980 
# 
# From -- ./inp_files/66651.got.cif
#   From: 2010.05.17/outbox.cif.g08.bks.cpg/sg10_34_cif.got.tgz:66651.got - 2010.06.03 11:33:40.
