data_PCOD9144097
_publ_section_title
;
Structure prediction by ZEFSAII (Michael W. Deem and Ramdas Pophale) SiO2 
 PCOD9144097
Probable space group: P 2/M
;
_chemical_formula_sum "Si O2"
_cell_formula_units_Z 28
_cell_length_a 14.874957
_cell_length_b 17.252264
_cell_length_c 9.430437
_cell_angle_alpha 90.000000
_cell_angle_beta 141.205142
_cell_angle_gamma 90.000000
_cell_volume 1516.275732
_symmetry_space_group_name_H-M "P 2/M"
_symmetry_group_IT_number 10
_symmetry_cell_setting 'monoclinic'
loop_
_space_group_symop_operation_xyz
x,y,z
-x,y,-z
-x,-y,-z
x,-y,z
loop_
_atom_site_type_symbol
_atom_site_label
_atom_site_fract_x
_atom_site_fract_y
_atom_site_fract_z
Si Si1 0.655024 0.333354 0.616706
Si Si2 0.344665 0.500000 0.381300
Si Si3 0.041450 0.671525 0.884541
Si Si4 0.066086 0.816720 0.427109
Si Si5 0.627394 0.833088 0.542872
Si Si6 0.953134 0.500000 0.108182
Si Si7 0.646414 0.909244 0.267974
Si Si8 0.108407 0.086080 0.000917
O O1 0.500000 0.336961 0.500000
O O2 0.676230 0.417055 0.568757
O O3 0.649232 0.255457 0.518340
O O4 0.784422 0.323342 0.889619
O O5 0.500000 0.500000 0.500000
O O6 0.220169 0.500000 0.109818
O O7 0.002410 0.584720 0.782107
O O8 0.964655 0.739326 0.703251
O O9 0.000000 0.677786 0.000000
O O10 0.227782 0.850461 0.626316
O O11 0.000000 0.803845 0.500000
O O12 0.975570 0.883544 0.237225
O O13 0.500000 0.837015 0.500000
O O14 0.614349 0.888845 0.392654
O O15 0.767485 0.856587 0.801711
O O16 0.000000 0.500000 0.000000
O O17 0.691602 0.000000 0.312164
O O18 0.500000 0.899433 0.000000
O O19 0.166696 0.000000 0.050577
O O20 0.000000 0.084522 0.000000
#
# Coordination Sequence:
#
# PCOD9144097 Si02
#       8
#     4   2   4   4   4   2   4   4
#     4   9  17  29  52  81 117 145 184 228 273 331
#     4   8  14  26  44  77 113 150 175 219 276 322
#     4  10  18  35  58  86 117 151 193 241 285 343
#     4  12  25  39  59  86 116 157 197 239 294 349
#     4  11  22  37  61  90 114 148 189 239 294 347
#     4   8  16  28  53  85 115 146 186 236 289 332
#     4  11  26  45  60  81 116 152 191 242 299 357
#     4  11  22  39  61  83 110 147 196 245 293 346
#
# _framework density 18.466297999999998
#
# number of rings (size 3 to 8) (size 9 to 14) (size 15 to 20)
#    0.000    1.714    2.857    2.143    2.000    2.286 
#    0.000    0.357    0.000    0.000    0.000    2.000 
#    0.000    0.000    0.000    0.000    0.000    0.000 
#
# Total GULP energy -155999.432648 kJ/mol
# GULP energy per Si atom -5571.408309 kJ/mol
# Density = 1.842427 g / cm^3
# Si number density = 18.466298 Si / 1000 Ang^3
#
#
#
# Elastic Constant Matrix: (Units=GPa)
#
#
# Indices 1 2 3 4 5 6 
#
# 1 77.4872 39.2468 37.5198 0.0000 8.9890 0.0000
# 2 39.2468 154.8267 38.8293 0.0000 12.3057 0.0000
# 3 37.5198 38.8293 77.4315 0.0000 14.2150 0.0000
# 4 0.0000 0.0000 0.0000 481.7480 0.0000 -248.5535
# 5 8.9890 12.3057 14.2150 0.0000 30.1906 0.0000
# 6 0.0000 0.0000 0.0000 -248.5535 0.0000 158.7040
#
#
#
# Elastic Compliance Matrix: (Units=1/GPa)
#
#
# Indices 1 2 3 4 5 6 
#
# 1 0.017807 -0.002655 -0.007139 0.000000 -0.000858 0.000000
# 2 -0.002655 0.007837 -0.002411 0.000000 -0.001269 0.000000
# 3 -0.007139 -0.002411 0.018622 0.000000 -0.005660 0.000000
# 4 0.000000 0.000000 0.000000 0.010813 0.000000 0.016935
# 5 -0.000858 -0.001269 -0.005660 0.000000 0.036560 0.000000
# 6 0.000000 0.000000 0.000000 0.016935 0.000000 0.032824
#
#
# Mechanical properties :
#
#
# Convention : Reuss Voigt Hill
#
# Bulk Modulus (GPa) = 50.36333 60.10411 55.23372
# Shear Modulus (GPa) = 32.15585 147.07183 89.61384
#
# Velocity S-wave (km/s) = 4.17745 8.93400 6.97378
# Velocity P-wave (km/s) = 7.11340 11.79154 9.73758
#
# Compressibility (1/GPa) = 0.01985571
#
# Stress axis : x y z
#
# Youngs Moduli (GPa) = 56.15901 127.59500 53.70020
#
# Poissons Ratio (x) = 0.33878 0.38338
# Poissons Ratio (y) = 0.14911 0.12945
# Poissons Ratio (z) = 0.40094 0.30759
#
# Static dielectric constant tensor:
#      x y z
#    x 1.545910 0.000000 0.065030 
#    y 0.000000 1.710460 0.000000 
#    z 0.065030 0.000000 1.607840 
# 
# From -- ./inp_files/30210.got.cif
#   From: 2010.05.17/outbox.cif.g08.bks.cpg/sg10_16_cif.got.tgz:30210.got - 2010.06.03 11:33:40.
