data_PCOD9144682
_publ_section_title
;
Structure prediction by ZEFSAII (Michael W. Deem and Ramdas Pophale) SiO2 
 PCOD9144682
Probable space group: P 2/M
;
_chemical_formula_sum "Si O2"
_cell_formula_units_Z 30
_cell_length_a 17.609871
_cell_length_b 9.679602
_cell_length_c 28.810259
_cell_angle_alpha 90.000000
_cell_angle_beta 22.124193
_cell_angle_gamma 90.000000
_cell_volume 1849.519756
_symmetry_space_group_name_H-M "P 2/M"
_symmetry_group_IT_number 10
_symmetry_cell_setting 'monoclinic'
loop_
_space_group_symop_operation_xyz
x,y,z
-x,y,-z
-x,-y,-z
x,-y,z
loop_
_atom_site_type_symbol
_atom_site_label
_atom_site_fract_x
_atom_site_fract_y
_atom_site_fract_z
Si Si1 0.244402 0.167779 0.191237
Si Si2 0.504395 0.661520 0.311800
Si Si3 0.106989 0.836563 0.889401
Si Si4 0.708967 0.167731 0.937775
Si Si5 0.890767 0.840648 0.460123
Si Si6 0.230809 0.165772 0.994946
Si Si7 0.555568 0.653393 0.763894
Si Si8 0.000000 0.754914 0.500000
O O1 0.201911 0.212899 0.162216
O O2 0.079038 0.208978 0.322466
O O3 0.245876 0.000000 0.191054
O O4 0.473456 0.210385 0.072748
O O5 0.498773 0.500000 0.327930
O O6 0.695951 0.742104 0.223316
O O7 0.299745 0.742182 0.440011
O O8 0.515058 0.667819 0.249524
O O9 0.157990 0.000000 0.856050
O O10 0.000000 0.819289 0.000000
O O11 0.947545 0.799096 0.939632
O O12 0.710999 0.000000 0.935437
O O13 0.810034 0.209136 0.928852
O O14 0.948286 0.835731 0.482070
O O15 0.843391 0.000000 0.474940
O O16 0.437598 0.234187 0.860447
O O17 0.254750 0.000000 0.980090
O O18 0.503327 0.500000 0.810025
O O19 0.796602 0.671251 0.626596
#
# Coordination Sequence:
#
# PCOD9144682 Si02
#       8
#     4   4   4   4   4   4   4   2
#     4   8  14  26  46  71  99 127 154 189 235 282
#     4  10  21  34  48  67  94 130 165 193 232 289
#     4  10  19  32  49  71  97 124 155 200 247 285
#     4   8  14  26  45  72 100 123 153 193 236 283
#     4  10  19  31  49  72  97 127 161 198 237 282
#     4  10  19  30  49  73  96 121 155 199 243 283
#     4  10  20  32  45  64  95 131 162 192 229 279
#     4  10  20  30  44  70  98 130 160 192 228 280
#
# _framework density 16.220426
#
# number of rings (size 3 to 8) (size 9 to 14) (size 15 to 20)
#    0.000    2.533    1.333    2.400    0.000    5.067 
#    0.000    0.000    0.000    1.600    0.000    8.400 
#    0.000    0.000    0.000    0.000    0.000    0.000 
#
# Total GULP energy -167107.784954 kJ/mol
# GULP energy per Si atom -5570.259498 kJ/mol
# Density = 1.618351 g / cm^3
# Si number density = 16.220426 Si / 1000 Ang^3
#
#
#
# Elastic Constant Matrix: (Units=GPa)
#
#
# Indices 1 2 3 4 5 6 
#
# 1 107.6015 24.5589 46.0505 0.0000 -2.1874 0.0000
# 2 24.5589 43.0356 34.6901 0.0000 -4.7161 0.0000
# 3 46.0505 34.6901 88.5308 0.0000 2.4585 0.0000
# 4 0.0000 0.0000 0.0000 2.7186 0.0000 -3.2670
# 5 -2.1874 -4.7161 2.4585 0.0000 24.3446 0.0000
# 6 0.0000 0.0000 0.0000 -3.2670 0.0000 2.1622
#
#
#
# Elastic Compliance Matrix: (Units=1/GPa)
#
#
# Indices 1 2 3 4 5 6 
#
# 1 0.012196 -0.002474 -0.005407 0.000000 0.001163 0.000000
# 2 -0.002474 0.036072 -0.013072 0.000000 0.008086 0.000000
# 3 -0.005407 -0.013072 0.019368 0.000000 -0.004974 0.000000
# 4 0.000000 0.000000 0.000000 -0.450914 0.000000 -0.681312
# 5 0.001163 0.008086 -0.004974 0.000000 0.043250 0.000000
# 6 0.000000 0.000000 0.000000 -0.681312 0.000000 -0.566944
#
#
# Mechanical properties :
#
#
# Convention : Reuss Voigt Hill
#
# Bulk Modulus (GPa) = 38.86507 49.97410 44.41958
# Shear Modulus (GPa) = -5.83777 14.76964 4.46593
#
# Velocity S-wave (km/s) = -1.89917 3.02082 1.66110
# Velocity P-wave (km/s) = 4.38218 6.56075 5.57884
#
# Compressibility (1/GPa) = 0.02573005
#
# Stress axis : x y z
#
# Youngs Moduli (GPa) = 81.99566 27.72264 51.63125
#
# Poissons Ratio (x) = 0.06859 0.27915
# Poissons Ratio (y) = 0.20287 0.67492
# Poissons Ratio (z) = 0.44332 0.36239
#
# Static dielectric constant tensor:
#      x y z
#    x 1.560740 0.000000 0.003170 
#    y 0.000000 1.542190 0.000000 
#    z 0.003170 0.000000 1.525950 
# 
# From -- ./inp_files/95492.got.cif
#   From: 2010.05.17/outbox.cif.g08.bks.cpg/sg10_48_cif.got.tgz:95492.got - 2010.06.03 11:33:40.
