data_PCOD9144549
_publ_section_title
;
Structure prediction by ZEFSAII (Michael W. Deem and Ramdas Pophale) SiO2 
 PCOD9144549
Probable space group: P 2/M
;
_chemical_formula_sum "Si O2"
_cell_formula_units_Z 32
_cell_length_a 15.137876
_cell_length_b 11.484043
_cell_length_c 16.689668
_cell_angle_alpha 90.000000
_cell_angle_beta 155.198769
_cell_angle_gamma 90.000000
_cell_volume 1217.054423
_symmetry_space_group_name_H-M "P 2/M"
_symmetry_group_IT_number 10
_symmetry_cell_setting 'monoclinic'
loop_
_space_group_symop_operation_xyz
x,y,z
-x,y,-z
-x,-y,-z
x,-y,z
loop_
_atom_site_type_symbol
_atom_site_label
_atom_site_fract_x
_atom_site_fract_y
_atom_site_fract_z
Si Si1 0.524310 0.374586 0.221729
Si Si2 0.966487 0.377166 0.148516
Si Si3 0.910160 0.124484 0.742913
Si Si4 0.225323 0.627454 0.732882
Si Si5 0.311097 0.124892 0.279006
Si Si6 0.708603 0.374458 0.728825
Si Si7 0.327450 0.875065 0.596642
Si Si8 0.113343 0.874313 0.680339
O O1 0.621079 0.500000 0.329235
O O2 0.593644 0.369726 0.185609
O O3 0.590963 0.248675 0.308996
O O4 0.282023 0.383108 0.045658
O O5 0.047933 0.500000 0.252207
O O6 0.010745 0.249716 0.218646
O O7 0.088761 0.375388 0.163374
O O8 0.881052 0.126972 0.814202
O O9 0.687671 0.120419 0.511677
O O10 0.016721 0.000000 0.812224
O O11 0.235148 0.500000 0.782618
O O12 0.229340 0.750291 0.782920
O O13 0.000000 0.627732 0.500000
O O14 0.500000 0.123065 0.500000
O O15 0.301060 0.252978 0.231472
O O16 0.298243 0.000000 0.225774
O O17 0.500000 0.372641 0.500000
O O18 0.702925 0.500000 0.766938
O O19 0.084297 0.876314 0.423443
O O20 0.418942 0.000000 0.701204
O O21 0.000000 0.874418 0.500000
O O22 0.227382 0.000000 0.781939
#
# Coordination Sequence:
#
# PCOD9144549 Si02
#       8
#     4   4   4   4   4   4   4   4
#     4  10  19  30  46  70  97 124 156 198 242 281
#     4   9  18  31  46  68  98 126 154 194 239 282
#     4   9  18  31  46  68  98 126 154 194 239 282
#     4   9  15  25  42  64  86 112 153 196 228 269
#     4   8  13  23  41  64  87 112 145 183 221 265
#     4   8  13  23  41  64  87 112 145 183 221 265
#     4  10  19  30  46  70  97 124 156 198 242 281
#     4   9  15  25  42  64  86 112 153 196 228 269
#
# _framework density 26.292992000000002
#
# number of rings (size 3 to 8) (size 9 to 14) (size 15 to 20)
#    0.000    3.000    2.500    0.000    0.000    1.000 
#    0.000    0.000    0.000    0.750    0.000   19.250 
#    0.000   92.000    0.000    0.000    0.000    0.000 
#
# Total GULP energy -178299.591913 kJ/mol
# GULP energy per Si atom -5571.862247 kJ/mol
# Density = 2.623315 g / cm^3
# Si number density = 26.292992 Si / 1000 Ang^3
#
#
#
# Elastic Constant Matrix: (Units=GPa)
#
#
# Indices 1 2 3 4 5 6 
#
# 1 56.1399 18.9623 9.3859 0.0000 30.9999 0.0000
# 2 18.9623 425.5943 51.1428 0.0000 2.0494 0.0000
# 3 9.3859 51.1428 77.5593 0.0000 17.3105 0.0000
# 4 0.0000 0.0000 0.0000 1.1921 0.0000 -41.0536
# 5 30.9999 2.0494 17.3105 0.0000 26.5545 0.0000
# 6 0.0000 0.0000 0.0000 -41.0536 0.0000 -64.0818
#
#
#
# Elastic Compliance Matrix: (Units=1/GPa)
#
#
# Indices 1 2 3 4 5 6 
#
# 1 0.060204 -0.003833 0.012712 0.000000 -0.078273 0.000000
# 2 -0.003833 0.002821 -0.002746 0.000000 0.006047 0.000000
# 3 0.012712 -0.002746 0.019228 0.000000 -0.027162 0.000000
# 4 0.000000 0.000000 0.000000 0.036373 0.000000 -0.023302
# 5 -0.078273 0.006047 -0.027162 0.000000 0.146275 0.000000
# 6 0.000000 0.000000 0.000000 -0.023302 0.000000 -0.000677
#
#
# Mechanical properties :
#
#
# Convention : Reuss Voigt Hill
#
# Bulk Modulus (GPa) = 10.57997 79.80839 45.19418
# Shear Modulus (GPa) = 17.63883 24.71981 21.17932
#
# Velocity S-wave (km/s) = 2.59290 3.06954 2.84123
# Velocity P-wave (km/s) = 3.60511 6.55608 5.29051
#
# Compressibility (1/GPa) = 0.09451820
#
# Stress axis : x y z
#
# Youngs Moduli (GPa) = 16.61028 354.44432 52.00681
#
# Poissons Ratio (x) = 1.35858 -0.66109
# Poissons Ratio (y) = 0.06367 0.14282
# Poissons Ratio (z) = -0.21114 0.97337
#
# Static dielectric constant tensor:
#      x y z
#    x 2.454100 0.000000 0.040400 
#    y 0.000000 2.113020 0.000000 
#    z 0.040400 0.000000 2.140470 
# 
# From -- ./inp_files/90217.got.cif
#   From: 2010.05.17/outbox.cif.g08.bks.cpg/sg10_46_cif.got.tgz:90217.got - 2010.06.03 11:33:40.
