data_PCOD9144262
_publ_section_title
;
Structure prediction by ZEFSAII (Michael W. Deem and Ramdas Pophale) SiO2 
 PCOD9144262
Probable space group: P 2/M
;
_chemical_formula_sum "Si O2"
_cell_formula_units_Z 32
_cell_length_a 17.210465
_cell_length_b 7.491979
_cell_length_c 24.607346
_cell_angle_alpha 90.000000
_cell_angle_beta 150.609787
_cell_angle_gamma 90.000000
_cell_volume 1557.107522
_symmetry_space_group_name_H-M "P 2/M"
_symmetry_group_IT_number 10
_symmetry_cell_setting 'monoclinic'
loop_
_space_group_symop_operation_xyz
x,y,z
-x,y,-z
-x,-y,-z
x,-y,z
loop_
_atom_site_type_symbol
_atom_site_label
_atom_site_fract_x
_atom_site_fract_y
_atom_site_fract_z
Si Si1 0.108223 0.718536 0.016414
Si Si2 0.098963 0.716646 0.890130
Si Si3 0.037195 0.216312 0.583766
Si Si4 0.739875 0.790067 0.471192
Si Si5 0.467351 0.282395 0.103949
Si Si6 0.723630 0.299194 0.184665
Si Si7 0.465937 0.290751 0.223756
Si Si8 0.022669 0.285279 0.296183
O O1 0.106985 0.500000 0.017191
O O2 0.291074 0.778853 0.131195
O O3 0.051885 0.773590 0.921915
O O4 0.000000 0.780075 0.000000
O O5 0.095682 0.500000 0.888422
O O6 0.994116 0.776771 0.775748
O O7 0.281927 0.765390 0.990428
O O8 0.188523 0.302915 0.703178
O O9 0.000000 0.261661 0.500000
O O10 0.886316 0.280609 0.525381
O O11 0.053484 0.000000 0.598092
O O12 0.581821 0.724604 0.345697
O O13 0.809455 0.759720 0.573713
O O14 0.732661 0.000000 0.458863
O O15 0.478563 0.500000 0.107508
O O16 0.559016 0.216412 0.105618
O O17 0.523372 0.221904 0.199095
O O18 0.693537 0.500000 0.145282
O O19 0.864100 0.219663 0.232447
O O20 0.444504 0.500000 0.200399
O O21 0.011604 0.500000 0.291447
#
# Coordination Sequence:
#
# PCOD9144262 Si02
#       8
#     4   4   4   4   4   4   4   4
#     4   8  14  26  47  74  96 110 129 166 217 263
#     4   8  14  25  42  64  89 114 139 172 214 257
#     4   9  17  27  37  51  75 109 147 184 218 247
#     4  10  19  29  42  60  85 117 149 180 213 251
#     4   8  14  24  39  62  88 111 139 179 223 256
#     4   9  16  24  36  56  81 110 144 178 209 245
#     4   9  16  27  45  67  89 111 138 175 216 257
#     4   9  17  28  42  61  85 116 152 181 206 243
#
# _framework density 20.550926
#
# number of rings (size 3 to 8) (size 9 to 14) (size 15 to 20)
#    0.000    3.250    0.000    2.625    0.000    1.250 
#    0.000    2.500    0.000    4.875    0.000    8.750 
#    0.000    0.000    0.000    0.000    0.000    0.000 
#
# Total GULP energy -178150.850921 kJ/mol
# GULP energy per Si atom -5567.214091 kJ/mol
# Density = 2.050415 g / cm^3
# Si number density = 20.550926 Si / 1000 Ang^3
#
#
#
# Elastic Constant Matrix: (Units=GPa)
#
#
# Indices 1 2 3 4 5 6 
#
# 1 91.4902 -0.3843 40.3468 0.0000 -8.4845 0.0000
# 2 -0.3843 53.4771 -8.7796 0.0000 3.2615 0.0000
# 3 40.3468 -8.7796 89.6718 0.0000 -23.4998 0.0000
# 4 0.0000 0.0000 0.0000 77.6382 0.0000 -4.8275
# 5 -8.4845 3.2615 -23.4998 0.0000 24.3258 0.0000
# 6 0.0000 0.0000 0.0000 -4.8275 0.0000 -2.7479
#
#
#
# Elastic Compliance Matrix: (Units=1/GPa)
#
#
# Indices 1 2 3 4 5 6 
#
# 1 0.013723 -0.000902 -0.006664 0.000000 -0.001530 0.000000
# 2 -0.000902 0.019083 0.002037 0.000000 -0.000905 0.000000
# 3 -0.006664 0.002037 0.018302 0.000000 0.015084 0.000000
# 4 0.000000 0.000000 0.000000 0.011612 0.000000 -0.020399
# 5 -0.001530 -0.000905 0.015084 0.000000 0.055268 0.000000
# 6 0.000000 0.000000 0.000000 -0.020399 0.000000 -0.328073
#
#
# Mechanical properties :
#
#
# Convention : Reuss Voigt Hill
#
# Bulk Modulus (GPa) = 24.96864 33.00056 28.98460
# Shear Modulus (GPa) = -26.92857 33.40695 3.23919
#
# Velocity S-wave (km/s) = -3.62378 4.03621 1.25682
# Velocity P-wave (km/s) = 2.30933 6.14932 4.02996
#
# Compressibility (1/GPa) = 0.04005023
#
# Stress axis : x y z
#
# Youngs Moduli (GPa) = 72.86919 52.40334 54.63748
#
# Poissons Ratio (x) = 0.04727 0.36410
# Poissons Ratio (y) = 0.06574 -0.11130
# Poissons Ratio (z) = 0.48560 -0.10674
#
# Static dielectric constant tensor:
#      x y z
#    x 1.755630 0.000000 -0.031040 
#    y 0.000000 1.776580 0.000000 
#    z -0.031040 0.000000 1.810100 
# 
# From -- ./inp_files/78537.got.cif
#   From: 2010.05.17/outbox.cif.g08.bks.cpg/sg10_40_cif.got.tgz:78537.got - 2010.06.03 11:33:40.
