data_PCOD9144345
_publ_section_title
;
Structure prediction by ZEFSAII (Michael W. Deem and Ramdas Pophale) SiO2 
 PCOD9144345
Probable space group: P 2/M
;
_chemical_formula_sum "Si O2"
_cell_formula_units_Z 28
_cell_length_a 18.601580
_cell_length_b 13.331915
_cell_length_c 6.153801
_cell_angle_alpha 90.000000
_cell_angle_beta 113.236355
_cell_angle_gamma 90.000000
_cell_volume 1402.319817
_symmetry_space_group_name_H-M "P 2/M"
_symmetry_group_IT_number 10
_symmetry_cell_setting 'monoclinic'
loop_
_space_group_symop_operation_xyz
x,y,z
-x,y,-z
-x,-y,-z
x,-y,z
loop_
_atom_site_type_symbol
_atom_site_label
_atom_site_fract_x
_atom_site_fract_y
_atom_site_fract_z
Si Si1 0.579337 0.800186 0.972225
Si Si2 0.000000 0.241320 0.500000
Si Si3 0.892544 0.884082 0.044154
Si Si4 0.500000 0.692956 0.500000
Si Si5 0.251382 0.801104 0.876862
Si Si6 0.135100 0.266565 0.364004
Si Si7 0.758588 0.614509 0.811465
Si Si8 0.384719 0.391398 0.694800
O O1 0.664163 0.852243 0.062983
O O2 0.603319 0.698946 0.127774
O O3 0.500000 0.839670 0.000000
O O4 0.555553 0.766352 0.703237
O O5 0.064466 0.300022 0.435837
O O6 0.049202 0.172373 0.723075
O O7 0.892441 0.827094 0.814754
O O8 0.911703 0.000000 0.045146
O O9 0.806829 0.868909 0.049694
O O10 0.543877 0.622806 0.384231
O O11 0.206145 0.771104 0.602081
O O12 0.258819 0.697082 0.024638
O O13 0.164940 0.348955 0.228710
O O14 0.764568 0.500000 0.899909
O O15 0.690681 0.617258 0.548628
O O16 0.384786 0.500000 0.803335
#
# Coordination Sequence:
#
# PCOD9144345 Si02
#       8
#     4   2   4   2   4   4   4   4
#     4  10  20  31  48  74 106 147 192 231 277 324
#     4  10  21  38  63  90 122 142 163 212 277 338
#     4  10  22  38  63  92 116 140 170 215 276 343
#     4  10  19  30  44  66 107 144 188 234 287 318
#     4  10  20  37  55  79 115 150 189 229 277 325
#     4  10  21  37  58  83 115 146 182 223 274 331
#     4  10  20  34  54  77 109 154 198 233 270 318
#     4  10  19  29  45  70 104 143 188 236 279 323
#
# _framework density 19.966913999999999
#
# number of rings (size 3 to 8) (size 9 to 14) (size 15 to 20)
#    0.000    2.000    2.857    0.857    0.000    7.714 
#    0.000    0.357    0.000   11.571    0.000    1.500 
#    0.000    0.000    0.000    0.000    0.000    0.000 
#
# Total GULP energy -156168.676710 kJ/mol
# GULP energy per Si atom -5577.452740 kJ/mol
# Density = 1.992147 g / cm^3
# Si number density = 19.966914 Si / 1000 Ang^3
#
#
#
# Elastic Constant Matrix: (Units=GPa)
#
#
# Indices 1 2 3 4 5 6 
#
# 1 129.5650 -4.4060 9.7774 0.0000 9.0498 0.0000
# 2 -4.4060 19.1780 1.8273 0.0000 -1.3200 0.0000
# 3 9.7774 1.8273 87.9729 0.0000 3.0233 0.0000
# 4 0.0000 0.0000 0.0000 5.2843 0.0000 1.1808
# 5 9.0498 -1.3200 3.0233 0.0000 28.0586 0.0000
# 6 0.0000 0.0000 0.0000 1.1808 0.0000 2.7381
#
#
#
# Elastic Compliance Matrix: (Units=1/GPa)
#
#
# Indices 1 2 3 4 5 6 
#
# 1 0.008010 0.001755 -0.000844 0.000000 -0.002410 0.000000
# 2 0.001755 0.052818 -0.001363 0.000000 0.002066 0.000000
# 3 -0.000844 -0.001363 0.011525 0.000000 -0.001034 0.000000
# 4 0.000000 0.000000 0.000000 0.209420 0.000000 -0.090315
# 5 -0.002410 0.002066 -0.001034 0.000000 0.036625 0.000000
# 6 0.000000 0.000000 0.000000 -0.090315 0.000000 0.404168
#
#
# Mechanical properties :
#
#
# Convention : Reuss Voigt Hill
#
# Bulk Modulus (GPa) = 13.99611 27.90146 20.94879
# Shear Modulus (GPa) = 6.69087 22.51736 14.60412
#
# Velocity S-wave (km/s) = 1.83255 3.36182 2.70740
# Velocity P-wave (km/s) = 3.39154 5.39196 4.50421
#
# Compressibility (1/GPa) = 0.07144841
#
# Stress axis : x y z
#
# Youngs Moduli (GPa) = 124.84689 18.93284 86.76970
#
# Poissons Ratio (x) = -0.03322 0.07322
# Poissons Ratio (y) = -0.21907 0.11828
# Poissons Ratio (z) = 0.10535 0.02581
#
# Static dielectric constant tensor:
#      x y z
#    x 1.789000 0.000000 0.020830 
#    y 0.000000 1.676720 0.000000 
#    z 0.020830 0.000000 1.691270 
# 
# From -- ./inp_files/11486.got.cif
#   From: 2010.05.17/outbox.cif.g08.bks.cpg/sg10_6_cif.got.tgz:11486.got - 2010.06.03 11:33:40.
