data_PCOD9144467
_publ_section_title
;
Structure prediction by ZEFSAII (Michael W. Deem and Ramdas Pophale) SiO2 
 PCOD9144467
Probable space group: P 2/M
;
_chemical_formula_sum "Si O2"
_cell_formula_units_Z 32
_cell_length_a 24.654816
_cell_length_b 8.485333
_cell_length_c 17.234058
_cell_angle_alpha 90.000000
_cell_angle_beta 150.834713
_cell_angle_gamma 90.000000
_cell_volume 1757.041347
_symmetry_space_group_name_H-M "P 2/M"
_symmetry_group_IT_number 10
_symmetry_cell_setting 'monoclinic'
loop_
_space_group_symop_operation_xyz
x,y,z
-x,y,-z
-x,-y,-z
x,-y,z
loop_
_atom_site_type_symbol
_atom_site_label
_atom_site_fract_x
_atom_site_fract_y
_atom_site_fract_z
Si Si1 0.806165 0.679410 0.766577
Si Si2 0.237150 0.687665 0.971949
Si Si3 0.116905 0.309701 0.975400
Si Si4 0.715449 0.189501 0.494507
Si Si5 0.548478 0.324700 0.476520
Si Si6 0.474706 0.820068 0.235580
Si Si7 0.021495 0.809779 0.613714
Si Si8 0.902100 0.809231 0.615810
O O1 0.844930 0.500000 0.799407
O O2 0.873342 0.749726 0.923514
O O3 0.786516 0.762540 0.659632
O O4 0.681021 0.672801 0.644320
O O5 0.229759 0.500000 0.963434
O O6 0.138003 0.754739 0.795395
O O7 0.210847 0.740013 0.028813
O O8 0.355563 0.737518 0.085059
O O9 0.122990 0.500000 0.988618
O O10 0.001407 0.258529 0.792549
O O11 0.587812 0.250000 0.338590
O O12 0.785294 0.240346 0.506957
O O13 0.706996 0.000000 0.484955
O O14 0.500000 0.303034 0.500000
O O15 0.512034 0.500000 0.402214
O O16 0.508101 0.192939 0.367636
O O17 0.461074 0.000000 0.193145
O O18 0.000000 0.751059 0.500000
O O19 0.928187 0.761451 0.560172
O O20 0.022592 0.000000 0.612744
O O21 0.907683 0.000000 0.626649
#
# Coordination Sequence:
#
# PCOD9144467 Si02
#       8
#     4   4   4   4   4   4   4   4
#     4   9  17  28  42  61  88 124 165 204 238 272
#     4  10  19  32  51  74 100 127 156 192 238 287
#     4   9  18  31  46  67  94 124 160 202 243 280
#     4   9  19  33  46  64  93 129 166 199 232 273
#     4   9  16  27  42  59  84 121 163 205 247 284
#     4  10  19  30  45  66  93 125 162 200 234 274
#     4   9  18  34  57  82 102 119 145 186 236 288
#     4   9  18  33  51  70  94 124 155 190 236 286
#
# _framework density 18.212433999999998
#
# number of rings (size 3 to 8) (size 9 to 14) (size 15 to 20)
#    0.000    2.750    0.000    1.500    0.000    5.000 
#    0.000    5.000    0.000    0.750    0.000    5.250 
#    0.000    0.000    0.000    0.000    0.000    0.000 
#
# Total GULP energy -178191.721080 kJ/mol
# GULP energy per Si atom -5568.491284 kJ/mol
# Density = 1.817098 g / cm^3
# Si number density = 18.212434 Si / 1000 Ang^3
#
#
#
# Elastic Constant Matrix: (Units=GPa)
#
#
# Indices 1 2 3 4 5 6 
#
# 1 115.4652 14.7933 41.5491 0.0000 22.0500 0.0000
# 2 14.7933 3.8195 4.1057 0.0000 3.2441 0.0000
# 3 41.5491 4.1057 40.0337 0.0000 13.5879 0.0000
# 4 0.0000 0.0000 0.0000 5.8346 0.0000 2.4055
# 5 22.0500 3.2441 13.5879 0.0000 21.7209 0.0000
# 6 0.0000 0.0000 0.0000 2.4055 0.0000 10.9178
#
#
#
# Elastic Compliance Matrix: (Units=1/GPa)
#
#
# Indices 1 2 3 4 5 6 
#
# 1 0.025381 -0.076759 -0.017286 0.000000 -0.003488 0.000000
# 2 -0.076759 0.544807 0.031690 0.000000 -0.023271 0.000000
# 3 -0.017286 0.031690 0.044841 0.000000 -0.015236 0.000000
# 4 0.000000 0.000000 0.000000 0.188515 0.000000 -0.041535
# 5 -0.003488 -0.023271 -0.015236 0.000000 0.062586 0.000000
# 6 0.000000 0.000000 0.000000 -0.041535 0.000000 0.100745
#
#
# Mechanical properties :
#
#
# Convention : Reuss Voigt Hill
#
# Bulk Modulus (GPa) = 2.03949 31.13496 16.58723
# Shear Modulus (GPa) = 3.98398 14.28601 9.13499
#
# Velocity S-wave (km/s) = 1.48063 2.80377 2.24203
# Velocity P-wave (km/s) = 2.01129 5.25491 3.97865
#
# Compressibility (1/GPa) = 0.49031793
#
# Stress axis : x y z
#
# Youngs Moduli (GPa) = 39.39922 1.83551 22.30123
#
# Poissons Ratio (x) = 0.14089 0.38550
# Poissons Ratio (y) = 3.02426 -0.70672
# Poissons Ratio (z) = 0.68105 -0.05817
#
# Static dielectric constant tensor:
#      x y z
#    x 1.664470 0.000000 0.027240 
#    y 0.000000 1.646540 0.000000 
#    z 0.027240 0.000000 1.626650 
# 
# From -- ./inp_files/79964.got.cif
#   From: 2010.05.17/outbox.cif.g08.bks.cpg/sg10_40_cif.got.tgz:79964.got - 2010.06.03 11:33:40.
