data_PCOD9144084
_publ_section_title
;
Structure prediction by ZEFSAII (Michael W. Deem and Ramdas Pophale) SiO2 
 PCOD9144084
Probable space group: P 2/M
;
_chemical_formula_sum "Si O2"
_cell_formula_units_Z 15
_cell_length_a 7.069054
_cell_length_b 12.537295
_cell_length_c 6.625021
_cell_angle_alpha 90.000000
_cell_angle_beta 97.713874
_cell_angle_gamma 90.000000
_cell_volume 581.841191
_symmetry_space_group_name_H-M "P 2/M"
_symmetry_group_IT_number 10
_symmetry_cell_setting 'monoclinic'
loop_
_space_group_symop_operation_xyz
x,y,z
-x,y,-z
-x,-y,-z
x,-y,z
loop_
_atom_site_type_symbol
_atom_site_label
_atom_site_fract_x
_atom_site_fract_y
_atom_site_fract_z
Si Si1 0.165864 0.846911 0.304433
Si Si2 0.303813 0.383862 0.343758
Si Si3 0.500000 0.302749 0.000000
Si Si4 0.260093 0.883442 0.841641
Si Si5 0.500000 0.000000 0.500000
O O1 0.180042 0.721734 0.355167
O O2 0.332013 0.907683 0.443706
O O3 0.945566 0.880054 0.289760
O O4 0.215556 0.873699 0.075934
O O5 0.500000 0.379026 0.500000
O O6 0.215469 0.500000 0.370030
O O7 0.363861 0.372843 0.117410
O O8 0.611960 0.221113 0.164751
O O9 0.357116 0.000000 0.814138
#
# Coordination Sequence:
#
# PCOD9144084 Si02
#       5
#     4   4   2   4   1
#     4  10  19  32  59  87 115 155 195 238 293 348
#     4  10  21  39  61  84 116 156 197 242 290 342
#     4  10  22  36  60  86 116 155 199 238 288 348
#     4  10  18  35  54  85 122 154 192 236 293 355
#     4  12  16  30  58  90 120 146 192 250 284 350
#
# _framework density 25.78023
#
# number of rings (size 3 to 8) (size 9 to 14) (size 15 to 20)
#    0.000    1.867    4.000    1.600    0.000    0.000 
#    0.000   13.333    0.000   11.200    0.000    0.000 
#    0.000    0.000    0.000    0.000    0.000    0.000 
#
# Total GULP energy -83811.833786 kJ/mol
# GULP energy per Si atom -5587.455586 kJ/mol
# Density = 2.572155 g / cm^3
# Si number density = 25.780230 Si / 1000 Ang^3
#
#
#
# Elastic Constant Matrix: (Units=GPa)
#
#
# Indices 1 2 3 4 5 6 
#
# 1 107.7022 39.6638 19.1340 0.0000 39.0924 0.0000
# 2 39.6638 248.3628 38.5374 0.0000 29.2759 0.0000
# 3 19.1340 38.5374 116.2392 0.0000 25.5203 0.0000
# 4 0.0000 0.0000 0.0000 58.9691 0.0000 -5.8260
# 5 39.0924 29.2759 25.5203 0.0000 48.0024 0.0000
# 6 0.0000 0.0000 0.0000 -5.8260 0.0000 25.1046
#
#
#
# Elastic Compliance Matrix: (Units=1/GPa)
#
#
# Indices 1 2 3 4 5 6 
#
# 1 0.013391 -0.000962 0.000430 0.000000 -0.010548 0.000000
# 2 -0.000962 0.004506 -0.001024 0.000000 -0.001421 0.000000
# 3 0.000430 -0.001024 0.009976 0.000000 -0.005030 0.000000
# 4 0.000000 0.000000 0.000000 0.017356 0.000000 0.004028
# 5 -0.010548 -0.001421 -0.005030 0.000000 0.032963 0.000000
# 6 0.000000 0.000000 0.000000 0.004028 0.000000 0.040768
#
#
# Mechanical properties :
#
#
# Convention : Reuss Voigt Hill
#
# Bulk Modulus (GPa) = 40.38381 74.10827 57.24604
# Shear Modulus (GPa) = 38.36570 51.41316 44.88943
#
# Velocity S-wave (km/s) = 3.86188 4.47059 4.17734
# Velocity P-wave (km/s) = 5.96525 7.44693 6.74689
#
# Compressibility (1/GPa) = 0.02476240
#
# Stress axis : x y z
#
# Youngs Moduli (GPa) = 74.67619 221.91111 100.24267
#
# Poissons Ratio (x) = 0.21349 -0.04314
# Poissons Ratio (y) = 0.07184 0.10262
# Poissons Ratio (z) = -0.03214 0.22718
#
# Static dielectric constant tensor:
#      x y z
#    x 1.891040 0.000000 -0.004240 
#    y 0.000000 1.945140 0.000000 
#    z -0.004240 0.000000 2.025690 
# 
# From -- ./inp_files/16822.got.cif
#   From: 2010.05.17/outbox.cif.g08.bks.cpg/sg10_9_cif.got.tgz:16822.got - 2010.06.03 11:33:40.
