data_PCOD9144710
_publ_section_title
;
Structure prediction by ZEFSAII (Michael W. Deem and Ramdas Pophale) SiO2 
 PCOD9144710
Probable space group: P 2/M
;
_chemical_formula_sum "Si O2"
_cell_formula_units_Z 30
_cell_length_a 11.830957
_cell_length_b 9.176914
_cell_length_c 23.208221
_cell_angle_alpha 90.000000
_cell_angle_beta 42.507758
_cell_angle_gamma 90.000000
_cell_volume 1702.573621
_symmetry_space_group_name_H-M "P 2/M"
_symmetry_group_IT_number 10
_symmetry_cell_setting 'monoclinic'
loop_
_space_group_symop_operation_xyz
x,y,z
-x,y,-z
-x,-y,-z
x,-y,z
loop_
_atom_site_type_symbol
_atom_site_label
_atom_site_fract_x
_atom_site_fract_y
_atom_site_fract_z
Si Si1 0.921993 0.675577 0.726166
Si Si2 0.065549 0.827319 0.567764
Si Si3 0.122489 0.668078 0.130743
Si Si4 0.500000 0.755035 0.000000
Si Si5 0.951922 0.675456 0.081147
Si Si6 0.570953 0.165411 0.845535
Si Si7 0.271329 0.827038 0.381097
Si Si8 0.427815 0.672624 0.796236
O O1 0.914037 0.500000 0.727709
O O2 0.948091 0.727799 0.782326
O O3 0.741708 0.742585 0.777266
O O4 0.052599 0.736388 0.630956
O O5 0.211688 0.787231 0.467972
O O6 0.891589 0.805476 0.598144
O O7 0.077693 0.000000 0.575422
O O8 0.069449 0.500000 0.149755
O O9 0.055314 0.735278 0.096688
O O10 0.323825 0.672078 0.059650
O O11 0.518342 0.836275 0.932175
O O12 0.984036 0.500000 0.066673
O O13 0.754080 0.696692 0.162712
O O14 0.000000 0.733812 0.000000
O O15 0.440907 0.245904 0.852785
O O16 0.599230 0.000000 0.815058
O O17 0.424966 0.736890 0.298408
O O18 0.308723 0.000000 0.366384
O O19 0.449721 0.500000 0.797058
#
# Coordination Sequence:
#
# PCOD9144710 Si02
#       8
#     4   4   4   2   4   4   4   4
#     4  10  19  30  49  77 105 132 167 210 254 304
#     4   9  17  31  51  75 105 141 171 200 255 317
#     4   9  18  32  50  76 106 133 164 212 268 309
#     4  10  20  32  52  74  95 130 177 214 247 308
#     4   9  18  33  52  73 102 139 174 211 256 305
#     4  11  21  33  48  69 102 138 168 205 259 308
#     4   9  18  32  51  75 105 140 171 205 256 310
#     4  11  21  32  52  79 102 132 177 216 251 301
#
# _framework density 17.620384000000001
#
# number of rings (size 3 to 8) (size 9 to 14) (size 15 to 20)
#    0.000    2.267    1.333    3.200    0.000    3.200 
#    0.000    1.333    0.000   16.000    0.000    5.600 
#    0.000    0.000    0.000    0.000    0.000    0.000 
#
# Total GULP energy -167164.291063 kJ/mol
# GULP energy per Si atom -5572.143035 kJ/mol
# Density = 1.758028 g / cm^3
# Si number density = 17.620384 Si / 1000 Ang^3
#
#
#
# Elastic Constant Matrix: (Units=GPa)
#
#
# Indices 1 2 3 4 5 6 
#
# 1 105.1050 28.4751 41.1054 0.0000 23.6911 0.0000
# 2 28.4751 51.7065 36.0656 0.0000 6.5437 0.0000
# 3 41.1054 36.0656 108.8438 0.0000 28.0656 0.0000
# 4 0.0000 0.0000 0.0000 8.5598 0.0000 11.4599
# 5 23.6911 6.5437 28.0656 0.0000 24.8485 0.0000
# 6 0.0000 0.0000 0.0000 11.4599 0.0000 1.2803
#
#
#
# Elastic Compliance Matrix: (Units=1/GPa)
#
#
# Indices 1 2 3 4 5 6 
#
# 1 0.013777 -0.005922 -0.000361 0.000000 -0.011168 0.000000
# 2 -0.005922 0.027975 -0.009297 0.000000 0.008780 0.000000
# 3 -0.000361 -0.009297 0.016485 0.000000 -0.015827 0.000000
# 4 0.000000 0.000000 0.000000 -0.010636 0.000000 0.095205
# 5 -0.011168 0.008780 -0.015827 0.000000 0.066456 0.000000
# 6 0.000000 0.000000 0.000000 0.095205 0.000000 -0.071112
#
#
# Mechanical properties :
#
#
# Convention : Reuss Voigt Hill
#
# Bulk Modulus (GPa) = 36.93091 52.99420 44.96255
# Shear Modulus (GPa) = 60.14589 17.60500 38.87544
#
# Velocity S-wave (km/s) = 5.84879 3.16433 4.70220
# Velocity P-wave (km/s) = 8.16185 6.59480 7.41981
#
# Compressibility (1/GPa) = 0.02707759
#
# Stress axis : x y z
#
# Youngs Moduli (GPa) = 72.58340 35.74650 60.65942
#
# Poissons Ratio (x) = 0.21169 0.02190
# Poissons Ratio (y) = 0.42984 0.56394
# Poissons Ratio (z) = 0.02620 0.33233
#
# Static dielectric constant tensor:
#      x y z
#    x 1.613850 0.000000 0.035120 
#    y 0.000000 1.595770 0.000000 
#    z 0.035120 0.000000 1.623870 
# 
# From -- ./inp_files/56636.got.cif
#   From: 2010.05.17/outbox.cif.g08.bks.cpg/sg10_29_cif.got.tgz:56636.got - 2010.06.03 11:33:40.
