data_PCOD9144184
_publ_section_title
;
Structure prediction by ZEFSAII (Michael W. Deem and Ramdas Pophale) SiO2 
 PCOD9144184
Probable space group: P 2/M
;
_chemical_formula_sum "Si O2"
_cell_formula_units_Z 21
_cell_length_a 8.256083
_cell_length_b 16.277500
_cell_length_c 9.743587
_cell_angle_alpha 90.000000
_cell_angle_beta 133.267489
_cell_angle_gamma 90.000000
_cell_volume 953.473238
_symmetry_space_group_name_H-M "P 2/M"
_symmetry_group_IT_number 10
_symmetry_cell_setting 'monoclinic'
loop_
_space_group_symop_operation_xyz
x,y,z
-x,y,-z
-x,-y,-z
x,-y,z
loop_
_atom_site_type_symbol
_atom_site_label
_atom_site_fract_x
_atom_site_fract_y
_atom_site_fract_z
Si Si1 0.306358 0.593426 0.054879
Si Si2 0.165945 0.345067 0.258265
Si Si3 0.798524 0.847349 0.784165
Si Si4 0.251183 0.670866 0.609524
Si Si5 0.000000 0.000000 0.500000
Si Si6 0.302385 0.137097 0.584110
O O1 0.303362 0.500000 0.004832
O O2 0.243756 0.596937 0.181071
O O3 0.550027 0.633153 0.186158
O O4 0.099069 0.643496 0.872191
O O5 0.207646 0.252081 0.231551
O O6 0.284381 0.357015 0.471238
O O7 0.810035 0.875665 0.632467
O O8 0.563966 0.874708 0.710122
O O9 0.000000 0.871330 0.000000
O O10 0.266446 0.769817 0.613856
O O11 0.000000 0.646645 0.500000
O O12 0.191751 0.071949 0.617539
#
# Coordination Sequence:
#
# PCOD9144184 Si02
#       6
#     4   4   4   4   1   4
#     4  11  22  37  60  90 121 157 205 259 298 338
#     4  10  19  36  61  87 117 156 205 251 293 344
#     4  10  18  38  67  91 116 157 206 244 290 356
#     4  11  22  38  59  86 120 165 204 237 301 372
#     4  12  24  46  62  92 134 156 192 248 310 362
#     4  10  22  39  65  89 121 161 195 248 306 360
#
# _framework density 22.024740000000001
#
# number of rings (size 3 to 8) (size 9 to 14) (size 15 to 20)
#    0.000    1.524    4.762    1.714    0.000    4.952 
#    0.000    4.762    0.000    0.000    0.000    0.000 
#    0.000    0.000    0.000    0.000    0.000    0.000 
#
# Total GULP energy -117130.437549 kJ/mol
# GULP energy per Si atom -5577.639883 kJ/mol
# Density = 2.197461 g / cm^3
# Si number density = 22.024740 Si / 1000 Ang^3
#
#
#
# Elastic Constant Matrix: (Units=GPa)
#
#
# Indices 1 2 3 4 5 6 
#
# 1 68.0612 14.0272 19.0775 0.0000 32.4170 0.0000
# 2 14.0272 45.6900 15.3908 0.0000 13.3163 0.0000
# 3 19.0775 15.3908 139.6721 0.0000 24.1449 0.0000
# 4 0.0000 0.0000 0.0000 11.9903 0.0000 21.1336
# 5 32.4170 13.3163 24.1449 0.0000 41.8864 0.0000
# 6 0.0000 0.0000 0.0000 21.1336 0.0000 20.4104
#
#
#
# Elastic Compliance Matrix: (Units=1/GPa)
#
#
# Indices 1 2 3 4 5 6 
#
# 1 0.023453 -0.002116 0.000057 0.000000 -0.017511 0.000000
# 2 -0.002116 0.024591 -0.001502 0.000000 -0.005314 0.000000
# 3 0.000057 -0.001502 0.008044 0.000000 -0.004203 0.000000
# 4 0.000000 0.000000 0.000000 -0.101091 0.000000 0.104673
# 5 -0.017511 -0.005314 -0.004203 0.000000 0.041539 0.000000
# 6 0.000000 0.000000 0.000000 0.104673 0.000000 -0.059387
#
#
# Mechanical properties :
#
#
# Convention : Reuss Voigt Hill
#
# Bulk Modulus (GPa) = 20.42230 38.93493 29.67862
# Shear Modulus (GPa) = -126.88418 28.51925 -49.18246
#
# Velocity S-wave (km/s) = -7.59835 3.60234 -4.73065
# Velocity P-wave (km/s) = 8.22723 5.91766 4.04158
#
# Compressibility (1/GPa) = 0.04896607
#
# Stress axis : x y z
#
# Youngs Moduli (GPa) = 42.63809 40.66519 124.31625
#
# Poissons Ratio (x) = 0.08604 -0.00707
# Poissons Ratio (y) = 0.09022 0.18673
# Poissons Ratio (z) = -0.00242 0.06108
#
# Static dielectric constant tensor:
#      x y z
#    x 1.891800 0.000000 -0.012270 
#    y 0.000000 1.740380 0.000000 
#    z -0.012270 0.000000 1.806240 
# 
# From -- ./inp_files/43347.got.cif
#   From: 2010.05.17/outbox.cif.g08.bks.cpg/sg10_22_cif.got.tgz:43347.got - 2010.06.03 11:33:40.
