data_PCOD9144280
_publ_section_title
;
Structure prediction by ZEFSAII (Michael W. Deem and Ramdas Pophale) SiO2 
 PCOD9144280
Probable space group: P 2/M
;
_chemical_formula_sum "Si O2"
_cell_formula_units_Z 32
_cell_length_a 30.831135
_cell_length_b 9.040831
_cell_length_c 16.367534
_cell_angle_alpha 90.000000
_cell_angle_beta 150.369399
_cell_angle_gamma 90.000000
_cell_volume 2255.615183
_symmetry_space_group_name_H-M "P 2/M"
_symmetry_group_IT_number 10
_symmetry_cell_setting 'monoclinic'
loop_
_space_group_symop_operation_xyz
x,y,z
-x,y,-z
-x,-y,-z
x,-y,z
loop_
_atom_site_type_symbol
_atom_site_label
_atom_site_fract_x
_atom_site_fract_y
_atom_site_fract_z
Si Si1 0.502415 0.670285 0.603148
Si Si2 0.970820 0.322934 0.584303
Si Si3 0.678693 0.175739 0.689460
Si Si4 0.017885 0.177572 0.225077
Si Si5 0.141888 0.676886 0.759307
Si Si6 0.158740 0.323852 0.134887
Si Si7 0.683112 0.175287 0.891863
Si Si8 0.100922 0.169397 0.196987
O O1 0.500000 0.671411 0.500000
O O2 0.498046 0.500000 0.622748
O O3 0.416832 0.760742 0.489835
O O4 0.594418 0.745226 0.776385
O O5 0.969011 0.500000 0.595972
O O6 0.900091 0.289738 0.397838
O O7 0.957154 0.235462 0.645118
O O8 0.066129 0.287321 0.701505
O O9 0.754999 0.258255 0.765857
O O10 0.691176 0.201907 0.807250
O O11 0.682830 0.000000 0.682349
O O12 0.089971 0.214261 0.273397
O O13 0.006458 0.000000 0.204950
O O14 0.926386 0.253512 0.048961
O O15 0.156343 0.500000 0.787116
O O16 0.230778 0.761038 0.924339
O O17 0.155881 0.500000 0.123182
O O18 0.152470 0.272993 0.219154
O O19 0.675500 0.000000 0.891286
O O20 0.133083 0.000000 0.243748
O O21 0.000000 0.168539 0.000000
#
# Coordination Sequence:
#
# PCOD9144280 Si02
#       8
#     4   4   4   4   4   4   4   4
#     4   9  17  29  44  61  82 109 140 174 210 248
#     4   9  18  31  45  61  83 111 144 180 215 249
#     4  10  19  30  43  61  87 114 141 174 210 249
#     4  10  19  30  44  61  83 112 143 175 214 254
#     4   9  18  31  44  60  84 113 143 178 216 249
#     4  11  20  28  42  63  85 111 144 176 207 248
#     4  10  19  29  43  62  83 112 146 176 209 250
#     4   8  16  30  43  57  81 110 138 171 211 251
#
# _framework density 14.186818000000001
#
# number of rings (size 3 to 8) (size 9 to 14) (size 15 to 20)
#    0.000    2.500    0.000    4.875    0.000    8.750 
#    0.000    1.250    0.000    0.000    0.000    0.000 
#    0.000    1.000    0.000   10.500    0.000    5.750 
#
# Total GULP energy -178392.811152 kJ/mol
# GULP energy per Si atom -5574.775348 kJ/mol
# Density = 1.415453 g / cm^3
# Si number density = 14.186818 Si / 1000 Ang^3
#
#
#
# Elastic Constant Matrix: (Units=GPa)
#
#
# Indices 1 2 3 4 5 6 
#
# 1 75.1388 54.3136 32.0634 0.0000 -1.9513 0.0000
# 2 54.3136 81.7364 44.0430 0.0000 6.2021 0.0000
# 3 32.0634 44.0430 75.2680 0.0000 9.1407 0.0000
# 4 0.0000 0.0000 0.0000 17.5253 0.0000 5.9739
# 5 -1.9513 6.2021 9.1407 0.0000 22.6492 0.0000
# 6 0.0000 0.0000 0.0000 5.9739 0.0000 21.2171
#
#
#
# Elastic Compliance Matrix: (Units=1/GPa)
#
#
# Indices 1 2 3 4 5 6 
#
# 1 0.027027 -0.017291 -0.002369 0.000000 0.008019 0.000000
# 2 -0.017291 0.028942 -0.008860 0.000000 -0.005839 0.000000
# 3 -0.002369 -0.008860 0.020200 0.000000 -0.005930 0.000000
# 4 0.000000 0.000000 0.000000 0.063118 0.000000 -0.017772
# 5 0.008019 -0.005839 -0.005930 0.000000 0.048835 0.000000
# 6 0.000000 0.000000 0.000000 -0.017772 0.000000 0.052136
#
#
# Mechanical properties :
#
#
# Convention : Reuss Voigt Hill
#
# Bulk Modulus (GPa) = 52.28147 54.77590 53.52869
# Shear Modulus (GPa) = 16.46505 19.05986 17.76246
#
# Velocity S-wave (km/s) = 3.41044 3.66934 3.54226
# Velocity P-wave (km/s) = 7.24156 7.52638 7.38534
#
# Compressibility (1/GPa) = 0.01912723
#
# Stress axis : x y z
#
# Youngs Moduli (GPa) = 37.00051 34.55227 49.50540
#
# Poissons Ratio (x) = 0.59745 0.11728
# Poissons Ratio (y) = 0.63978 0.43863
# Poissons Ratio (z) = 0.08766 0.30614
#
# Static dielectric constant tensor:
#      x y z
#    x 1.466250 0.000000 -0.008340 
#    y 0.000000 1.471170 0.000000 
#    z -0.008340 0.000000 1.446030 
# 
# From -- ./inp_files/72184.got.cif
#   From: 2010.05.17/outbox.cif.g08.bks.cpg/sg10_37_cif.got.tgz:72184.got - 2010.06.03 11:33:40.
