data_PCOD9144344
_publ_section_title
;
Structure prediction by ZEFSAII (Michael W. Deem and Ramdas Pophale) SiO2 
 PCOD9144344
Probable space group: P 2/M
;
_chemical_formula_sum "Si O2"
_cell_formula_units_Z 32
_cell_length_a 5.348553
_cell_length_b 15.341101
_cell_length_c 23.306540
_cell_angle_alpha 90.000000
_cell_angle_beta 119.691545
_cell_angle_gamma 90.000000
_cell_volume 1661.279737
_symmetry_space_group_name_H-M "P 2/M"
_symmetry_group_IT_number 10
_symmetry_cell_setting 'monoclinic'
loop_
_space_group_symop_operation_xyz
x,y,z
-x,y,-z
-x,-y,-z
x,-y,z
loop_
_atom_site_type_symbol
_atom_site_label
_atom_site_fract_x
_atom_site_fract_y
_atom_site_fract_z
Si Si1 0.322156 0.596745 0.661868
Si Si2 0.344856 0.398693 0.042795
Si Si3 0.846583 0.273694 0.272707
Si Si4 0.671837 0.604774 0.464939
Si Si5 0.255299 0.904229 0.147148
Si Si6 0.909862 0.597590 0.794796
Si Si7 0.948903 0.095234 0.236347
Si Si8 0.287562 0.719093 0.137659
O O1 0.176573 0.500000 0.642498
O O2 0.139404 0.677289 0.665049
O O3 0.444655 0.617034 0.612763
O O4 0.579127 0.588378 0.736491
O O5 0.392910 0.500000 0.064600
O O6 0.434775 0.330193 0.101687
O O7 0.500000 0.383764 0.000000
O O8 0.000000 0.387096 0.000000
O O9 0.998397 0.180755 0.280750
O O10 0.517353 0.259281 0.214180
O O11 0.957469 0.343427 0.239338
O O12 0.500000 0.639866 0.500000
O O13 0.683995 0.500000 0.473768
O O14 0.000000 0.636738 0.500000
O O15 0.604889 0.905997 0.184178
O O16 0.161107 0.813312 0.107075
O O17 0.127958 0.897784 0.197523
O O18 0.158688 0.000000 0.114264
O O19 0.029267 0.500000 0.811470
O O20 0.917647 0.648336 0.855662
O O21 0.017533 0.000000 0.269931
#
# Coordination Sequence:
#
# PCOD9144344 Si02
#       8
#     4   4   4   4   4   4   4   4
#     4   9  19  31  43  67 102 135 164 203 244 284
#     4  10  23  39  54  72  95 128 168 210 247 282
#     4  10  19  30  48  73 100 130 161 198 247 299
#     4   9  18  31  47  64  87 129 176 206 233 274
#     4   9  17  30  50  74  97 123 156 195 240 292
#     4  10  19  29  45  70 100 132 161 196 242 293
#     4   9  17  30  47  70 100 128 158 194 238 293
#     4  10  20  34  51  72  97 127 168 198 246 298
#
# _framework density 19.262257000000002
#
# number of rings (size 3 to 8) (size 9 to 14) (size 15 to 20)
#    0.000    2.500    1.250    0.750    3.500    1.500 
#    0.000    0.000    0.000    0.750    0.000    0.000 
#    0.000    1.000    0.000    0.125    0.000    0.125 
#
# Total GULP energy -178186.209309 kJ/mol
# GULP energy per Si atom -5568.319041 kJ/mol
# Density = 1.921842 g / cm^3
# Si number density = 19.262257 Si / 1000 Ang^3
#
#
#
# Elastic Constant Matrix: (Units=GPa)
#
#
# Indices 1 2 3 4 5 6 
#
# 1 91.4419 28.2936 22.6168 0.0000 -25.5596 0.0000
# 2 28.2936 164.8448 34.2338 0.0000 -32.4641 0.0000
# 3 22.6168 34.2338 53.3737 0.0000 -17.0905 0.0000
# 4 0.0000 0.0000 0.0000 -0.1692 0.0000 -7.6548
# 5 -25.5596 -32.4641 -17.0905 0.0000 29.8686 0.0000
# 6 0.0000 0.0000 0.0000 -7.6548 0.0000 15.5548
#
#
#
# Elastic Compliance Matrix: (Units=1/GPa)
#
#
# Indices 1 2 3 4 5 6 
#
# 1 0.014693 0.000279 -0.002794 0.000000 0.011278 0.000000
# 2 0.000279 0.008074 -0.002951 0.000000 0.007326 0.000000
# 3 -0.002794 -0.002951 0.024511 0.000000 0.008426 0.000000
# 4 0.000000 0.000000 0.000000 -0.254047 0.000000 -0.125021
# 5 0.011278 0.007326 0.008426 0.000000 0.055915 0.000000
# 6 0.000000 0.000000 0.000000 -0.125021 0.000000 0.002764
#
#
# Mechanical properties :
#
#
# Convention : Reuss Voigt Hill
#
# Bulk Modulus (GPa) = 27.51301 53.32766 40.42033
# Shear Modulus (GPa) = -39.98613 24.01859 -7.98377
#
# Velocity S-wave (km/s) = -4.56113 3.53501 -2.03808
# Velocity P-wave (km/s) = 3.66389 6.66385 3.93591
#
# Compressibility (1/GPa) = 0.03634645
#
# Stress axis : x y z
#
# Youngs Moduli (GPa) = 68.05969 123.85408 40.79841
#
# Poissons Ratio (x) = -0.03462 0.11399
# Poissons Ratio (y) = -0.01902 0.12041
# Poissons Ratio (z) = 0.19015 0.36552
#
# Static dielectric constant tensor:
#      x y z
#    x 1.755270 0.000000 0.039760 
#    y 0.000000 1.762480 0.000000 
#    z 0.039760 0.000000 1.694020 
# 
# From -- ./inp_files/13299.got.cif
#   From: 2010.05.17/outbox.cif.g08.bks.cpg/sg10_7_cif.got.tgz:13299.got - 2010.06.03 11:33:40.
