data_PCOD9144661
_publ_section_title
;
Structure prediction by ZEFSAII (Michael W. Deem and Ramdas Pophale) SiO2 
 PCOD9144661
Probable space group: P 2/M
;
_chemical_formula_sum "Si O2"
_cell_formula_units_Z 28
_cell_length_a 14.049575
_cell_length_b 20.466609
_cell_length_c 5.275243
_cell_angle_alpha 90.000000
_cell_angle_beta 101.443088
_cell_angle_gamma 90.000000
_cell_volume 1486.728955
_symmetry_space_group_name_H-M "P 2/M"
_symmetry_group_IT_number 10
_symmetry_cell_setting 'monoclinic'
loop_
_space_group_symop_operation_xyz
x,y,z
-x,y,-z
-x,-y,-z
x,-y,z
loop_
_atom_site_type_symbol
_atom_site_label
_atom_site_fract_x
_atom_site_fract_y
_atom_site_fract_z
Si Si1 0.612356 0.079535 0.060610
Si Si2 0.717569 0.578162 0.173451
Si Si3 0.268648 0.921086 0.376187
Si Si4 0.884538 0.427539 0.902573
Si Si5 0.390201 0.420224 0.386736
Si Si6 0.934363 0.699073 0.711540
Si Si7 0.067212 0.846501 0.287331
O O1 0.670655 0.099207 0.343150
O O2 0.609897 0.000000 0.058206
O O3 0.500000 0.101362 0.000000
O O4 0.672134 0.099615 0.843069
O O5 0.704705 0.500000 0.179133
O O6 0.827514 0.586699 0.132620
O O7 0.651618 0.602201 0.904241
O O8 0.677077 0.602443 0.417140
O O9 0.160040 0.893081 0.323304
O O10 0.263521 0.000000 0.372696
O O11 0.851067 0.500000 0.792659
O O12 0.869599 0.364984 0.718097
O O13 0.000000 0.432604 0.000000
O O14 0.500000 0.400142 0.500000
O O15 0.389831 0.500000 0.378274
O O16 0.892652 0.771910 0.670207
O O17 0.000000 0.688948 0.500000
O O18 0.000000 0.701820 0.000000
O O19 0.000000 0.858110 0.500000
O O20 0.000000 0.852356 0.000000
#
# Coordination Sequence:
#
# PCOD9144661 Si02
#       7
#     4   4   4   4   4   4   4
#     4   9  17  30  48  73 106 138 171 216 260 298
#     4   9  17  27  41  64  89 113 143 177 221 274
#     4  10  19  30  48  75 104 139 180 212 250 302
#     4   9  18  32  50  73 101 127 154 196 247 302
#     4   9  16  27  42  60  85 115 145 179 218 263
#     4   9  19  34  50  68  93 129 168 201 242 296
#     4  10  20  34  50  70 101 136 172 215 254 297
#
# _framework density 18.833290999999999
#
# number of rings (size 3 to 8) (size 9 to 14) (size 15 to 20)
#    0.000    2.714    0.000    1.714    0.000    6.571 
#    0.000    4.286    0.000    0.000    0.000    4.000 
#    0.000    0.000    0.000    0.000    0.000    0.143 
#
# Total GULP energy -156018.695077 kJ/mol
# GULP energy per Si atom -5572.096253 kJ/mol
# Density = 1.879043 g / cm^3
# Si number density = 18.833291 Si / 1000 Ang^3
#
#
#
# Elastic Constant Matrix: (Units=GPa)
#
#
# Indices 1 2 3 4 5 6 
#
# 1 141.6880 34.3918 64.5844 0.0000 1.0857 0.0000
# 2 34.3918 45.3175 27.6550 0.0000 -6.7163 0.0000
# 3 64.5844 27.6550 144.3294 0.0000 -9.1884 0.0000
# 4 0.0000 0.0000 0.0000 -1.0075 0.0000 -1.7189
# 5 1.0857 -6.7163 -9.1884 0.0000 29.4798 0.0000
# 6 0.0000 0.0000 0.0000 -1.7189 0.0000 2.4937
#
#
#
# Elastic Compliance Matrix: (Units=1/GPa)
#
#
# Indices 1 2 3 4 5 6 
#
# 1 0.010157 -0.005940 -0.003588 0.000000 -0.002846 0.000000
# 2 -0.005940 0.029005 -0.002515 0.000000 0.006043 0.000000
# 3 -0.003588 -0.002515 0.009170 0.000000 0.002417 0.000000
# 4 0.000000 0.000000 0.000000 -0.456129 0.000000 -0.314406
# 5 -0.002846 0.006043 0.002417 0.000000 0.036157 0.000000
# 6 0.000000 0.000000 0.000000 -0.314406 0.000000 0.184290
#
#
# Mechanical properties :
#
#
# Convention : Reuss Voigt Hill
#
# Bulk Modulus (GPa) = 41.24456 64.95528 53.09992
# Shear Modulus (GPa) = -32.22021 19.84011 -6.19005
#
# Velocity S-wave (km/s) = -4.14068 3.24922 -1.81491
# Velocity P-wave (km/s) = 0.95550 6.97432 4.88509
#
# Compressibility (1/GPa) = 0.02424562
#
# Stress axis : x y z
#
# Youngs Moduli (GPa) = 98.45490 34.47688 109.05277
#
# Poissons Ratio (x) = 0.20481 0.39128
# Poissons Ratio (y) = 0.58486 0.27424
# Poissons Ratio (z) = 0.35325 0.08670
#
# Static dielectric constant tensor:
#      x y z
#    x 1.655820 0.000000 0.012510 
#    y 0.000000 1.665910 0.000000 
#    z 0.012510 0.000000 1.684780 
# 
# From -- ./inp_files/7564.got.cif
#   From: 2010.05.17/outbox.cif.g08.bks.cpg/sg10_4_cif.got.tgz:7564.got - 2010.06.03 11:33:40.
