data_PCOD9144070
_publ_section_title
;
Structure prediction by ZEFSAII (Michael W. Deem and Ramdas Pophale) SiO2 
 PCOD9144070
Probable space group: P 2/M
;
_chemical_formula_sum "Si O2"
_cell_formula_units_Z 24
_cell_length_a 17.804937
_cell_length_b 7.795342
_cell_length_c 25.011762
_cell_angle_alpha 90.000000
_cell_angle_beta 21.877831
_cell_angle_gamma 90.000000
_cell_volume 1293.588860
_symmetry_space_group_name_H-M "P 2/M"
_symmetry_group_IT_number 10
_symmetry_cell_setting 'monoclinic'
loop_
_space_group_symop_operation_xyz
x,y,z
-x,y,-z
-x,-y,-z
x,-y,z
loop_
_atom_site_type_symbol
_atom_site_label
_atom_site_fract_x
_atom_site_fract_y
_atom_site_fract_z
Si Si1 0.014576 0.793989 0.929770
Si Si2 0.275837 0.296052 0.658763
Si Si3 0.878554 0.500000 0.663276
Si Si4 0.109241 0.707838 0.154883
Si Si5 0.306559 0.500000 0.332745
Si Si6 0.736839 0.195988 0.831974
Si Si7 0.380160 0.800147 0.878763
O O1 0.194880 0.731761 0.772459
O O2 0.033048 0.000000 0.919681
O O3 0.807258 0.754590 0.035988
O O4 0.000000 0.728495 0.000000
O O5 0.500000 0.225837 0.500000
O O6 0.284692 0.500000 0.643851
O O7 0.099040 0.232116 0.735702
O O8 0.777098 0.500000 0.672294
O O9 0.809957 0.333144 0.740925
O O10 0.117782 0.500000 0.496823
O O11 0.113275 0.500000 0.152529
O O12 0.143858 0.774364 0.191475
O O13 0.290971 0.771409 0.997070
O O14 0.441570 0.669142 0.250017
O O15 0.762580 0.000000 0.796900
O O16 0.500000 0.224614 0.000000
O O17 0.432541 0.000000 0.836977
#
# Coordination Sequence:
#
# PCOD9144070 Si02
#       7
#     4   4   2   4   2   4   4
#     4   9  19  36  56  82 114 150 196 243 285 340
#     4   9  19  35  54  84 117 153 193 236 294 349
#     4  11  25  42  60  84 121 152 187 243 285 349
#     4  10  18  34  61  86 117 152 192 242 290 350
#     4  11  24  42  61  84 112 158 198 226 295 346
#     4  11  23  39  62  91 118 150 191 239 297 345
#     4  10  20  37  61  87 115 150 197 242 283 342
#
# _framework density 18.553035000000001
#
# number of rings (size 3 to 8) (size 9 to 14) (size 15 to 20)
#    0.000    2.000    1.667    1.750    1.167    4.000 
#    3.000    1.667    0.000    0.000    0.000    0.000 
#    0.000    0.000    0.000    0.000    0.000    0.000 
#
# Total GULP energy -134012.045795 kJ/mol
# GULP energy per Si atom -5583.835241 kJ/mol
# Density = 1.851081 g / cm^3
# Si number density = 18.553035 Si / 1000 Ang^3
#
#
#
# Elastic Constant Matrix: (Units=GPa)
#
#
# Indices 1 2 3 4 5 6 
#
# 1 65.2038 26.1958 42.7488 0.0000 11.3332 0.0000
# 2 26.1958 95.5303 77.5346 0.0000 1.3969 0.0000
# 3 42.7488 77.5346 140.0511 0.0000 -5.3224 0.0000
# 4 0.0000 0.0000 0.0000 -11.4864 0.0000 -5.4502
# 5 11.3332 1.3969 -5.3224 0.0000 22.3867 0.0000
# 6 0.0000 0.0000 0.0000 -5.4502 0.0000 17.9536
#
#
#
# Elastic Compliance Matrix: (Units=1/GPa)
#
#
# Indices 1 2 3 4 5 6 
#
# 1 0.022428 0.000003 -0.007346 0.000000 -0.013101 0.000000
# 2 0.000003 0.019322 -0.010842 0.000000 -0.003785 0.000000
# 3 -0.007346 -0.010842 0.015693 0.000000 0.008126 0.000000
# 4 0.000000 0.000000 0.000000 -0.076098 0.000000 -0.023101
# 5 -0.013101 -0.003785 0.008126 0.000000 0.053470 0.000000
# 6 0.000000 0.000000 0.000000 -0.023101 0.000000 0.048686
#
#
# Mechanical properties :
#
#
# Convention : Reuss Voigt Hill
#
# Bulk Modulus (GPa) = 47.44893 65.97150 56.71022
# Shear Modulus (GPa) = 39.40293 16.05786 27.73039
#
# Velocity S-wave (km/s) = 4.61347 2.94515 3.87027
# Velocity P-wave (km/s) = 7.34909 6.87028 7.11371
#
# Compressibility (1/GPa) = 0.02107529
#
# Stress axis : x y z
#
# Youngs Moduli (GPa) = 44.58672 51.75557 63.72141
#
# Poissons Ratio (x) = -0.00017 0.46807
# Poissons Ratio (y) = -0.00015 0.69084
# Poissons Ratio (z) = 0.32752 0.56111
#
# Static dielectric constant tensor:
#      x y z
#    x 1.643110 0.000000 -0.013290 
#    y 0.000000 1.641290 0.000000 
#    z -0.013290 0.000000 1.619260 
# 
# From -- ./inp_files/90025.got.cif
#   From: 2010.05.17/outbox.cif.g08.bks.cpg/sg10_46_cif.got.tgz:90025.got - 2010.06.03 11:33:40.
