data_PCOD9144312
_publ_section_title
;
Structure prediction by ZEFSAII (Michael W. Deem and Ramdas Pophale) SiO2 
 PCOD9144312
Probable space group: P 2/M
;
_chemical_formula_sum "Si O2"
_cell_formula_units_Z 32
_cell_length_a 27.263899
_cell_length_b 14.008950
_cell_length_c 5.160094
_cell_angle_alpha 90.000000
_cell_angle_beta 78.661609
_cell_angle_gamma 90.000000
_cell_volume 1932.374487
_symmetry_space_group_name_H-M "P 2/M"
_symmetry_group_IT_number 10
_symmetry_cell_setting 'monoclinic'
loop_
_space_group_symop_operation_xyz
x,y,z
-x,y,-z
-x,-y,-z
x,-y,z
loop_
_atom_site_type_symbol
_atom_site_label
_atom_site_fract_x
_atom_site_fract_y
_atom_site_fract_z
Si Si1 0.725323 0.608526 0.306330
Si Si2 0.719650 0.886005 0.741647
Si Si3 0.882800 0.115464 0.189027
Si Si4 0.773747 0.805003 0.185617
Si Si5 0.608549 0.195155 0.951939
Si Si6 0.558290 0.112676 0.506533
Si Si7 0.655129 0.391703 0.877460
Si Si8 0.944323 0.884285 0.624556
O O1 0.745226 0.500000 0.283932
O O2 0.765165 0.691992 0.226652
O O3 0.694632 0.622970 0.603605
O O4 0.685691 0.616798 0.113161
O O5 0.739142 0.854875 0.439645
O O6 0.663510 0.848790 0.844729
O O7 0.721344 0.000000 0.763508
O O8 0.754727 0.839252 0.924944
O O9 0.830151 0.162825 0.178525
O O10 0.904846 0.143496 0.444375
O O11 0.876202 0.000000 0.192094
O O12 0.923424 0.141060 0.927504
O O13 0.571792 0.151847 0.775168
O O14 0.614519 0.308594 0.913297
O O15 0.590453 0.166542 0.255644
O O16 0.500000 0.124376 0.500000
O O17 0.570201 0.000000 0.484085
O O18 0.635635 0.500000 0.875510
O O19 0.000000 0.849484 0.500000
O O20 0.946576 0.000000 0.615885
#
# Coordination Sequence:
#
# PCOD9144312 Si02
#       8
#     4   4   4   4   4   4   4   4
#     4  10  19  35  54  74 102 137 175 213 251 294
#     4  12  23  33  50  76 108 144 170 202 241 303
#     4  10  19  29  44  66  98 137 165 200 256 304
#     4  12  21  35  48  74 111 140 170 207 251 312
#     4  12  21  38  59  80 104 136 179 212 252 305
#     4  11  24  40  58  80 107 138 172 214 259 302
#     4  10  20  36  57  80 102 130 172 215 256 299
#     4   9  17  30  46  64  88 126 178 221 247 284
#
# _framework density 16.559939
#
# number of rings (size 3 to 8) (size 9 to 14) (size 15 to 20)
#    0.000    1.250    2.500    5.250    0.000    3.500 
#    0.000    0.000    0.000    2.250    0.000    0.000 
#    0.000    3.000    0.000    0.000    0.000    0.000 
#
# Total GULP energy -178768.943299 kJ/mol
# GULP energy per Si atom -5586.529478 kJ/mol
# Density = 1.652225 g / cm^3
# Si number density = 16.559939 Si / 1000 Ang^3
#
#
#
# Elastic Constant Matrix: (Units=GPa)
#
#
# Indices 1 2 3 4 5 6 
#
# 1 36.5982 11.3000 -18.2125 0.0000 3.0776 0.0000
# 2 11.3000 95.9992 -8.5797 0.0000 -9.9303 0.0000
# 3 -18.2125 -8.5797 35.4924 0.0000 1.8839 0.0000
# 4 0.0000 0.0000 0.0000 13.6885 0.0000 -4.8289
# 5 3.0776 -9.9303 1.8839 0.0000 23.5606 0.0000
# 6 0.0000 0.0000 0.0000 -4.8289 0.0000 -6.6325
#
#
#
# Elastic Compliance Matrix: (Units=1/GPa)
#
#
# Indices 1 2 3 4 5 6 
#
# 1 0.038838 -0.003677 0.019475 0.000000 -0.008180 0.000000
# 2 -0.003677 0.011447 0.000601 0.000000 0.005257 0.000000
# 3 0.019475 0.000601 0.038599 0.000000 -0.005377 0.000000
# 4 0.000000 0.000000 0.000000 0.058125 0.000000 -0.042319
# 5 -0.008180 0.005257 -0.005377 0.000000 0.046158 0.000000
# 6 0.000000 0.000000 0.000000 -0.042319 0.000000 -0.119961
#
#
# Mechanical properties :
#
#
# Convention : Reuss Voigt Hill
#
# Bulk Modulus (GPa) = 8.21816 15.23392 11.72604
# Shear Modulus (GPa) = 61.75135 18.36212 40.05673
#
# Velocity S-wave (km/s) = 6.11315 3.33352 4.92356
# Velocity P-wave (km/s) = 7.40276 4.90262 6.27840
#
# Compressibility (1/GPa) = 0.12168170
#
# Stress axis : x y z
#
# Youngs Moduli (GPa) = 25.74779 87.35826 25.90737
#
# Poissons Ratio (x) = 0.32124 -0.50454
# Poissons Ratio (y) = 0.09468 -0.01557
# Poissons Ratio (z) = -0.50143 -0.05252
#
# Static dielectric constant tensor:
#      x y z
#    x 1.533780 0.000000 0.005010 
#    y 0.000000 1.557080 0.000000 
#    z 0.005010 0.000000 1.555520 
# 
# From -- ./inp_files/13233.got.cif
#   From: 2010.05.17/outbox.cif.g08.bks.cpg/sg10_7_cif.got.tgz:13233.got - 2010.06.03 11:33:40.
