data_PCOD9144221
_publ_section_title
;
Structure prediction by ZEFSAII (Michael W. Deem and Ramdas Pophale) SiO2 
 PCOD9144221
Probable space group: P 2/M
;
_chemical_formula_sum "Si O2"
_cell_formula_units_Z 32
_cell_length_a 20.416525
_cell_length_b 9.295334
_cell_length_c 14.243949
_cell_angle_alpha 90.000000
_cell_angle_beta 46.827668
_cell_angle_gamma 90.000000
_cell_volume 1971.437063
_symmetry_space_group_name_H-M "P 2/M"
_symmetry_group_IT_number 10
_symmetry_cell_setting 'monoclinic'
loop_
_space_group_symop_operation_xyz
x,y,z
-x,y,-z
-x,-y,-z
x,-y,z
loop_
_atom_site_type_symbol
_atom_site_label
_atom_site_fract_x
_atom_site_fract_y
_atom_site_fract_z
Si Si1 0.395276 0.669480 0.126061
Si Si2 0.191416 0.333990 0.636251
Si Si3 0.121879 0.164581 0.421948
Si Si4 0.855728 0.828469 0.929663
Si Si5 0.298649 0.833791 0.381963
Si Si6 0.893392 0.827796 0.105429
Si Si7 0.983056 0.664269 0.328596
Si Si8 0.745239 0.172754 0.866497
O O1 0.372844 0.500000 0.155247
O O2 0.369818 0.748908 0.248178
O O3 0.335486 0.742516 0.102886
O O4 0.500000 0.684304 0.000000
O O5 0.216537 0.500000 0.627993
O O6 0.269372 0.247952 0.505066
O O7 0.158809 0.255794 0.762373
O O8 0.104706 0.334297 0.652454
O O9 0.208932 0.165344 0.405201
O O10 0.047924 0.259452 0.545442
O O11 0.164593 0.210570 0.281277
O O12 0.091981 0.000000 0.444587
O O13 0.768591 0.795656 0.951576
O O14 0.939832 0.748383 0.801467
O O15 0.871339 0.000000 0.905839
O O16 0.853142 0.794956 0.042277
O O17 0.324124 0.000000 0.373203
O O18 0.887650 0.000000 0.127751
O O19 0.000000 0.791039 0.000000
O O20 0.009557 0.500000 0.319575
O O21 0.731573 0.000000 0.868095
#
# Coordination Sequence:
#
# PCOD9144221 Si02
#       8
#     4   4   4   4   4   4   4   4
#     4  10  20  34  54  80 107 130 152 186 237 296
#     4  10  19  30  46  68  98 131 166 212 255 290
#     4   8  15  28  44  61  86 121 159 196 235 278
#     4  10  20  33  47  64  91 126 168 211 248 285
#     4   9  17  30  50  74  99 128 163 199 237 287
#     4  10  19  31  48  68  91 128 175 218 255 290
#     4  10  19  28  41  63  89 123 164 203 245 286
#     4   9  19  34  50  69  93 126 163 200 239 286
#
# _framework density 16.231815000000001
#
# number of rings (size 3 to 8) (size 9 to 14) (size 15 to 20)
#    0.000    2.500    1.250    2.250    0.000    6.750 
#    0.000    2.500    0.000    0.000    0.000    0.875 
#    0.000    7.000    0.000    0.000    0.000    0.000 
#
# Total GULP energy -178452.914857 kJ/mol
# GULP energy per Si atom -5576.653589 kJ/mol
# Density = 1.619487 g / cm^3
# Si number density = 16.231815 Si / 1000 Ang^3
#
#
#
# Elastic Constant Matrix: (Units=GPa)
#
#
# Indices 1 2 3 4 5 6 
#
# 1 65.3788 46.6282 47.1119 0.0000 19.4468 0.0000
# 2 46.6282 87.0135 71.4963 0.0000 11.6825 0.0000
# 3 47.1119 71.4963 105.4177 0.0000 16.8999 0.0000
# 4 0.0000 0.0000 0.0000 20.7497 0.0000 -11.9803
# 5 19.4468 11.6825 16.8999 0.0000 25.7342 0.0000
# 6 0.0000 0.0000 0.0000 -11.9803 0.0000 -13.5612
#
#
#
# Elastic Compliance Matrix: (Units=1/GPa)
#
#
# Indices 1 2 3 4 5 6 
#
# 1 0.030604 -0.011569 -0.003314 0.000000 -0.015699 0.000000
# 2 -0.011569 0.030333 -0.016314 0.000000 0.005686 0.000000
# 3 -0.003314 -0.016314 0.022848 0.000000 -0.005094 0.000000
# 4 0.000000 0.000000 0.000000 0.031915 0.000000 -0.028194
# 5 -0.015699 0.005686 -0.005094 0.000000 0.051486 0.000000
# 6 0.000000 0.000000 0.000000 -0.028194 0.000000 -0.048832
#
#
# Mechanical properties :
#
#
# Convention : Reuss Voigt Hill
#
# Bulk Modulus (GPa) = 46.74736 65.36476 56.05606
# Shear Modulus (GPa) = 26.61288 12.75613 19.68450
#
# Velocity S-wave (km/s) = 4.05353 2.80638 3.48618
# Velocity P-wave (km/s) = 7.12534 7.13148 7.12841
#
# Compressibility (1/GPa) = 0.02139158
#
# Stress axis : x y z
#
# Youngs Moduli (GPa) = 32.67509 32.96717 43.76729
#
# Poissons Ratio (x) = 0.38141 0.14505
# Poissons Ratio (y) = 0.37803 0.71401
# Poissons Ratio (z) = 0.10829 0.53782
#
# Static dielectric constant tensor:
#      x y z
#    x 1.561180 0.000000 0.015540 
#    y 0.000000 1.549060 0.000000 
#    z 0.015540 0.000000 1.522720 
# 
# From -- ./inp_files/66180.got.cif
#   From: 2010.05.17/outbox.cif.g08.bks.cpg/sg10_34_cif.got.tgz:66180.got - 2010.06.03 11:33:40.
