data_PCOD9144764
_publ_section_title
;
Structure prediction by ZEFSAII (Michael W. Deem and Ramdas Pophale) SiO2 
 PCOD9144764
Probable space group: P 2/M
;
_chemical_formula_sum "Si O2"
_cell_formula_units_Z 28
_cell_length_a 19.121465
_cell_length_b 13.013743
_cell_length_c 22.929174
_cell_angle_alpha 90.000000
_cell_angle_beta 162.835567
_cell_angle_gamma 90.000000
_cell_volume 1683.848728
_symmetry_space_group_name_H-M "P 2/M"
_symmetry_group_IT_number 10
_symmetry_cell_setting 'monoclinic'
loop_
_space_group_symop_operation_xyz
x,y,z
-x,y,-z
-x,-y,-z
x,-y,z
loop_
_atom_site_type_symbol
_atom_site_label
_atom_site_fract_x
_atom_site_fract_y
_atom_site_fract_z
Si Si1 0.799074 0.875095 0.795715
Si Si2 0.213837 0.385126 0.533154
Si Si3 0.423854 0.380769 0.070193
Si Si4 0.744409 0.876195 0.620544
Si Si5 0.999443 0.774292 0.715396
Si Si6 0.167526 0.331284 0.685791
Si Si7 0.786020 0.115600 0.225178
O O1 0.835289 0.844161 0.757218
O O2 0.533216 0.846077 0.602884
O O3 0.804045 0.000000 0.799998
O O4 0.000000 0.838079 0.000000
O O5 0.258060 0.500000 0.545819
O O6 0.398545 0.364665 0.733050
O O7 0.201717 0.294635 0.476719
O O8 0.948835 0.381499 0.350274
O O9 0.353314 0.500000 0.014445
O O10 0.572198 0.357846 0.129121
O O11 0.206058 0.303694 0.899258
O O12 0.891646 0.830934 0.684840
O O13 0.754428 0.000000 0.625919
O O14 0.112851 0.851166 0.757546
O O15 0.141181 0.209172 0.674809
O O16 0.000000 0.367200 0.500000
O O17 0.866645 0.000000 0.304170
O O18 0.500000 0.115784 0.000000
#
# Coordination Sequence:
#
# PCOD9144764 Si02
#       7
#     4   4   4   4   4   4   4
#     4   8  15  31  54  76  99 127 156 190 236 285
#     4   9  19  32  47  68  92 120 161 214 260 291
#     4  10  19  32  48  67  91 121 162 213 261 293
#     4   9  18  31  49  76 106 131 157 191 231 282
#     4  11  20  31  48  71  99 131 164 198 239 288
#     4   9  17  31  48  65  85 117 168 218 254 291
#     4  10  19  31  44  61  93 135 172 201 230 272
#
# _framework density 16.628571999999998
#
# number of rings (size 3 to 8) (size 9 to 14) (size 15 to 20)
#    0.000    2.571    1.429    2.143    0.000    3.143 
#    0.000    2.143    0.000    1.714    0.000    8.000 
#    0.000   13.714    0.000    0.000    0.000    0.000 
#
# Total GULP energy -155992.397602 kJ/mol
# GULP energy per Si atom -5571.157057 kJ/mol
# Density = 1.659072 g / cm^3
# Si number density = 16.628572 Si / 1000 Ang^3
#
#
#
# Elastic Constant Matrix: (Units=GPa)
#
#
# Indices 1 2 3 4 5 6 
#
# 1 101.6049 17.7984 35.1838 0.0000 2.6273 0.0000
# 2 17.7984 67.9267 13.1895 0.0000 -1.4183 0.0000
# 3 35.1838 13.1895 62.6708 0.0000 -11.4148 0.0000
# 4 0.0000 0.0000 0.0000 19.0354 0.0000 -4.3675
# 5 2.6273 -1.4183 -11.4148 0.0000 14.9317 0.0000
# 6 0.0000 0.0000 0.0000 -4.3675 0.0000 -0.6202
#
#
#
# Elastic Compliance Matrix: (Units=1/GPa)
#
#
# Indices 1 2 3 4 5 6 
#
# 1 0.013504 -0.002013 -0.008858 0.000000 -0.009339 0.000000
# 2 -0.002013 0.015667 -0.002128 0.000000 0.000216 0.000000
# 3 -0.008858 -0.002128 0.025122 0.000000 0.020562 0.000000
# 4 0.000000 0.000000 0.000000 0.020084 0.000000 -0.141428
# 5 -0.009339 0.000216 0.020562 0.000000 0.084355 0.000000
# 6 0.000000 0.000000 0.000000 -0.141428 0.000000 -0.616399
#
#
# Mechanical properties :
#
#
# Convention : Reuss Voigt Hill
#
# Bulk Modulus (GPa) = 35.34253 40.50507 37.92380
# Shear Modulus (GPa) = -11.84168 17.73807 2.94820
#
# Velocity S-wave (km/s) = -2.67147 3.26961 1.33297
# Velocity P-wave (km/s) = 3.43287 6.21815 5.02245
#
# Compressibility (1/GPa) = 0.02829452
#
# Stress axis : x y z
#
# Youngs Moduli (GPa) = 74.05378 63.82878 39.80497
#
# Poissons Ratio (x) = 0.12850 0.35261
# Poissons Ratio (y) = 0.14909 0.08469
# Poissons Ratio (z) = 0.65600 0.13580
#
# Static dielectric constant tensor:
#      x y z
#    x 1.551320 0.000000 -0.019040 
#    y 0.000000 1.563560 0.000000 
#    z -0.019040 0.000000 1.584100 
# 
# From -- ./inp_files/85844.got.cif
#   From: 2010.05.17/outbox.cif.g08.bks.cpg/sg10_43_cif.got.tgz:85844.got - 2010.06.03 11:33:40.
