data_PCOD9144437
_publ_section_title
;
Structure prediction by ZEFSAII (Michael W. Deem and Ramdas Pophale) SiO2 
 PCOD9144437
Probable space group: P 2/M
;
_chemical_formula_sum "Si O2"
_cell_formula_units_Z 32
_cell_length_a 16.914708
_cell_length_b 8.606162
_cell_length_c 24.373982
_cell_angle_alpha 90.000000
_cell_angle_beta 150.369588
_cell_angle_gamma 90.000000
_cell_volume 1754.211213
_symmetry_space_group_name_H-M "P 2/M"
_symmetry_group_IT_number 10
_symmetry_cell_setting 'monoclinic'
loop_
_space_group_symop_operation_xyz
x,y,z
-x,y,-z
-x,-y,-z
x,-y,z
loop_
_atom_site_type_symbol
_atom_site_label
_atom_site_fract_x
_atom_site_fract_y
_atom_site_fract_z
Si Si1 0.976524 0.687491 0.235162
Si Si2 0.959915 0.686330 0.100827
Si Si3 0.508972 0.314264 0.285921
Si Si4 0.761023 0.321328 0.523996
Si Si5 0.619660 0.187439 0.024276
Si Si6 0.398687 0.185370 0.110413
Si Si7 0.227461 0.822351 0.189204
Si Si8 0.487256 0.172245 0.556544
O O1 0.987290 0.500000 0.242431
O O2 0.021873 0.734900 0.199640
O O3 0.794915 0.739298 0.134935
O O4 0.088254 0.747936 0.352188
O O5 0.950997 0.500000 0.094872
O O6 0.068229 0.740645 0.115200
O O7 0.782708 0.756223 0.990080
O O8 0.508071 0.500000 0.289866
O O9 0.665023 0.253929 0.413623
O O10 0.506954 0.261594 0.222153
O O11 0.343929 0.253615 0.214205
O O12 0.799796 0.500000 0.534222
O O13 0.621997 0.307055 0.485566
O O14 0.636253 0.000000 0.036818
O O15 0.500000 0.237231 0.000000
O O16 0.557396 0.226359 0.925670
O O17 0.402561 0.000000 0.118689
O O18 0.341900 0.821275 0.311688
O O19 0.193658 0.000000 0.152839
O O20 0.500000 0.183896 0.500000
O O21 0.418864 0.000000 0.529369
#
# Coordination Sequence:
#
# PCOD9144437 Si02
#       8
#     4   4   4   4   4   4   4   4
#     4   9  18  32  51  77 105 131 162 201 246 294
#     4  10  19  31  48  71  99 130 167 210 254 296
#     4  10  20  34  50  69  97 134 174 209 243 284
#     4   9  18  31  47  68  96 130 165 202 241 284
#     4   9  19  36  58  83 106 126 151 190 243 299
#     4  10  20  35  54  74  98 127 160 200 246 295
#     4  10  19  30  44  65  95 131 173 214 250 288
#     4   9  17  27  40  61  90 125 166 210 250 287
#
# _framework density 18.241816
#
# number of rings (size 3 to 8) (size 9 to 14) (size 15 to 20)
#    0.000    2.500    0.000    2.250    0.000    3.500 
#    0.000    2.500    0.000    0.750    0.000    5.250 
#    0.000    0.000    0.000    0.000    0.000    0.000 
#
# Total GULP energy -178274.550888 kJ/mol
# GULP energy per Si atom -5571.079715 kJ/mol
# Density = 1.820030 g / cm^3
# Si number density = 18.241816 Si / 1000 Ang^3
#
#
#
# Elastic Constant Matrix: (Units=GPa)
#
#
# Indices 1 2 3 4 5 6 
#
# 1 62.1633 14.7241 36.1122 0.0000 -14.8329 0.0000
# 2 14.7241 27.8418 13.4091 0.0000 -8.1439 0.0000
# 3 36.1122 13.4091 93.3965 0.0000 -28.2893 0.0000
# 4 0.0000 0.0000 0.0000 12.6676 0.0000 2.9619
# 5 -14.8329 -8.1439 -28.2893 0.0000 23.8126 0.0000
# 6 0.0000 0.0000 0.0000 2.9619 0.0000 12.5158
#
#
#
# Elastic Compliance Matrix: (Units=1/GPa)
#
#
# Indices 1 2 3 4 5 6 
#
# 1 0.022575 -0.007727 -0.006499 0.000000 0.003698 0.000000
# 2 -0.007727 0.042929 -0.000292 0.000000 0.009522 0.000000
# 3 -0.006499 -0.000292 0.018754 0.000000 0.018131 0.000000
# 4 0.000000 0.000000 0.000000 0.083566 0.000000 -0.019776
# 5 0.003698 0.009522 0.018131 0.000000 0.069095 0.000000
# 6 0.000000 0.000000 0.000000 -0.019776 0.000000 0.084579
#
#
# Mechanical properties :
#
#
# Convention : Reuss Voigt Hill
#
# Bulk Modulus (GPa) = 18.10845 34.65472 26.38158
# Shear Modulus (GPa) = 13.55235 17.74294 15.64765
#
# Velocity S-wave (km/s) = 2.72863 3.12212 2.93198
# Velocity P-wave (km/s) = 4.45821 5.65999 5.09466
#
# Compressibility (1/GPa) = 0.05522284
#
# Stress axis : x y z
#
# Youngs Moduli (GPa) = 44.29718 23.29418 53.32274
#
# Poissons Ratio (x) = 0.17999 0.34655
# Poissons Ratio (y) = 0.34227 0.01555
# Poissons Ratio (z) = 0.28789 0.00679
#
# Static dielectric constant tensor:
#      x y z
#    x 1.606570 0.000000 -0.032220 
#    y 0.000000 1.654750 0.000000 
#    z -0.032220 0.000000 1.672970 
# 
# From -- ./inp_files/89955.got.cif
#   From: 2010.05.17/outbox.cif.g08.bks.cpg/sg10_45_cif.got.tgz:89955.got - 2010.06.03 11:33:40.
