data_PCOD9144849
_publ_section_title
;
Structure prediction by ZEFSAII (Michael W. Deem and Ramdas Pophale) SiO2 
 PCOD9144849
Probable space group: P 2/M
;
_chemical_formula_sum "Si O2"
_cell_formula_units_Z 28
_cell_length_a 11.856589
_cell_length_b 13.580140
_cell_length_c 13.624077
_cell_angle_alpha 90.000000
_cell_angle_beta 42.842030
_cell_angle_gamma 90.000000
_cell_volume 1491.649652
_symmetry_space_group_name_H-M "P 2/M"
_symmetry_group_IT_number 10
_symmetry_cell_setting 'monoclinic'
loop_
_space_group_symop_operation_xyz
x,y,z
-x,y,-z
-x,-y,-z
x,-y,z
loop_
_atom_site_type_symbol
_atom_site_label
_atom_site_fract_x
_atom_site_fract_y
_atom_site_fract_z
Si Si1 0.370045 0.616556 0.810322
Si Si2 0.800315 0.243660 0.947063
Si Si3 0.174905 0.111182 0.443449
Si Si4 0.826047 0.269387 0.233233
Si Si5 0.319956 0.115619 0.795548
Si Si6 0.690520 0.110944 0.848637
Si Si7 0.635495 0.750183 0.550972
O O1 0.365857 0.500000 0.814835
O O2 0.319419 0.666209 0.945949
O O3 0.237514 0.659971 0.814405
O O4 0.547499 0.659524 0.662194
O O5 0.739154 0.158989 0.062461
O O6 0.782624 0.194693 0.851895
O O7 0.986215 0.279743 0.851617
O O8 0.302973 0.124114 0.272263
O O9 0.208269 0.197629 0.497586
O O10 0.000000 0.117205 0.500000
O O11 0.191411 0.000000 0.474038
O O12 0.809853 0.159142 0.199931
O O13 0.696162 0.279244 0.404778
O O14 0.492561 0.165967 0.651097
O O15 0.332950 0.000000 0.789257
O O16 0.758390 0.000000 0.825095
O O17 0.500000 0.112968 0.000000
#
# Coordination Sequence:
#
# PCOD9144849 Si02
#       7
#     4   4   4   4   4   4   4
#     4  10  21  38  58  78 101 132 172 216 265 325
#     4  10  20  34  52  76 105 133 170 218 266 307
#     4  10  20  33  52  79 109 142 177 211 249 295
#     4  10  21  33  50  78 105 134 169 213 264 313
#     4  10  19  31  47  70 105 144 173 202 250 314
#     4  10  19  32  52  76 103 140 180 211 245 297
#     4  10  20  35  53  75 105 137 175 217 258 303
#
# _framework density 18.771165
#
# number of rings (size 3 to 8) (size 9 to 14) (size 15 to 20)
#    0.000    2.286    0.000    6.857    0.000    6.857 
#    0.000    0.000    0.000    4.286    0.000    0.000 
#    0.000    0.000    0.000    0.000    0.000    0.000 
#
# Total GULP energy -156157.076482 kJ/mol
# GULP energy per Si atom -5577.038446 kJ/mol
# Density = 1.872844 g / cm^3
# Si number density = 18.771165 Si / 1000 Ang^3
#
#
#
# Elastic Constant Matrix: (Units=GPa)
#
#
# Indices 1 2 3 4 5 6 
#
# 1 39.0610 14.4278 -10.6787 0.0000 -1.4010 0.0000
# 2 14.4278 129.0368 6.7411 0.0000 4.7518 0.0000
# 3 -10.6787 6.7411 56.5659 0.0000 -1.4313 0.0000
# 4 0.0000 0.0000 0.0000 9.7165 0.0000 -0.5211
# 5 -1.4010 4.7518 -1.4313 0.0000 21.0635 0.0000
# 6 0.0000 0.0000 0.0000 -0.5211 0.0000 15.2893
#
#
#
# Elastic Compliance Matrix: (Units=1/GPa)
#
#
# Indices 1 2 3 4 5 6 
#
# 1 0.028674 -0.003631 0.005925 0.000000 0.003129 0.000000
# 2 -0.003631 0.008329 -0.001735 0.000000 -0.002238 0.000000
# 3 0.005925 -0.001735 0.019056 0.000000 0.002080 0.000000
# 4 0.000000 0.000000 0.000000 0.103106 0.000000 0.003514
# 5 0.003129 -0.002238 0.002080 0.000000 0.048330 0.000000
# 6 0.000000 0.000000 0.000000 0.003514 0.000000 0.065525
#
#
# Mechanical properties :
#
#
# Convention : Reuss Voigt Hill
#
# Bulk Modulus (GPa) = 17.48913 27.29380 22.39146
# Shear Modulus (GPa) = 17.18447 23.49210 20.33828
#
# Velocity S-wave (km/s) = 3.02896 3.54149 3.29520
# Velocity P-wave (km/s) = 4.64435 5.59417 5.14124
#
# Compressibility (1/GPa) = 0.05717838
#
# Stress axis : x y z
#
# Youngs Moduli (GPa) = 34.87466 120.06614 52.47580
#
# Poissons Ratio (x) = 0.43594 -0.31092
# Poissons Ratio (y) = 0.12662 0.09103
# Poissons Ratio (z) = -0.20663 0.20827
#
# Static dielectric constant tensor:
#      x y z
#    x 1.704010 0.000000 -0.010090 
#    y 0.000000 1.630280 0.000000 
#    z -0.010090 0.000000 1.732690 
# 
# From -- ./inp_files/64899.got.cif
#   From: 2010.05.17/outbox.cif.g08.bks.cpg/sg10_33_cif.got.tgz:64899.got - 2010.06.03 11:33:40.
