data_PCOD9144697
_publ_section_title
;
Structure prediction by ZEFSAII (Michael W. Deem and Ramdas Pophale) SiO2 
 PCOD9144697
Probable space group: P 2/M
;
_chemical_formula_sum "Si O2"
_cell_formula_units_Z 32
_cell_length_a 24.441290
_cell_length_b 7.415499
_cell_length_c 24.423248
_cell_angle_alpha 90.000000
_cell_angle_beta 19.212919
_cell_angle_gamma 90.000000
_cell_volume 1456.695748
_symmetry_space_group_name_H-M "P 2/M"
_symmetry_group_IT_number 10
_symmetry_cell_setting 'monoclinic'
loop_
_space_group_symop_operation_xyz
x,y,z
-x,y,-z
-x,-y,-z
x,-y,z
loop_
_atom_site_type_symbol
_atom_site_label
_atom_site_fract_x
_atom_site_fract_y
_atom_site_fract_z
Si Si1 0.143634 0.712319 0.119005
Si Si2 0.063752 0.782155 0.068991
Si Si3 0.712847 0.219622 0.352577
Si Si4 0.505441 0.721042 0.168571
Si Si5 0.600393 0.281862 0.958292
Si Si6 0.344350 0.780379 0.719001
Si Si7 0.848225 0.293786 0.471304
Si Si8 0.983205 0.208561 0.577215
O O1 0.152729 0.500000 0.124535
O O2 0.325955 0.783002 0.961619
O O3 0.102126 0.732030 0.094838
O O4 0.994925 0.790189 0.296538
O O5 0.881617 0.718899 0.221852
O O6 0.061729 0.000000 0.067651
O O7 0.210485 0.718835 0.889889
O O8 0.708326 0.271763 0.292826
O O9 0.536349 0.276577 0.545370
O O10 0.713614 0.000000 0.352900
O O11 0.499562 0.500000 0.175154
O O12 0.335371 0.786983 0.356357
O O13 0.517406 0.773973 0.093626
O O14 0.603086 0.500000 0.954943
O O15 0.790715 0.221059 0.775864
O O16 0.500000 0.219686 0.000000
O O17 0.344089 0.000000 0.720284
O O18 0.831161 0.500000 0.468032
O O19 0.908736 0.295616 0.477068
O O20 0.000000 0.284930 0.500000
O O21 0.035389 0.000000 0.525563
#
# Coordination Sequence:
#
# PCOD9144697 Si02
#       8
#     4   4   4   4   4   4   4   4
#     4  10  21  37  53  74 106 140 174 216 264 316
#     4  10  19  30  49  76 102 132 175 217 255 306
#     4   8  14  26  46  73 104 134 168 216 261 303
#     4   9  18  35  57  80 100 127 174 224 264 305
#     4  10  19  34  58  84 106 133 177 223 258 308
#     4   8  14  26  46  73 103 134 169 213 265 304
#     4  10  20  38  62  78  97 135 181 225 261 303
#     4  11  23  36  52  80 117 143 165 206 267 330
#
# _framework density 21.967523
#
# number of rings (size 3 to 8) (size 9 to 14) (size 15 to 20)
#    0.000    2.500    1.250    2.250    0.000    5.250 
#    0.000    1.250    0.000    1.500    0.000    1.750 
#    0.000    0.000    0.000    0.000    0.000    0.000 
#
# Total GULP energy -178762.283381 kJ/mol
# GULP energy per Si atom -5586.321356 kJ/mol
# Density = 2.191752 g / cm^3
# Si number density = 21.967523 Si / 1000 Ang^3
#
#
#
# Elastic Constant Matrix: (Units=GPa)
#
#
# Indices 1 2 3 4 5 6 
#
# 1 125.5762 -7.0966 101.6283 0.0000 -14.8229 0.0000
# 2 -7.0966 71.2620 2.6328 0.0000 -1.3522 0.0000
# 3 101.6283 2.6328 214.2667 0.0000 -26.5110 0.0000
# 4 0.0000 0.0000 0.0000 -31.3523 0.0000 17.6242
# 5 -14.8229 -1.3522 -26.5110 0.0000 20.6907 0.0000
# 6 0.0000 0.0000 0.0000 17.6242 0.0000 1.2857
#
#
#
# Elastic Compliance Matrix: (Units=1/GPa)
#
#
# Indices 1 2 3 4 5 6 
#
# 1 0.013145 0.001566 -0.006033 0.000000 0.001790 0.000000
# 2 0.001566 0.014238 -0.000789 0.000000 0.001042 0.000000
# 3 -0.006033 -0.000789 0.008315 0.000000 0.006281 0.000000
# 4 0.000000 0.000000 0.000000 -0.003664 0.000000 0.050223
# 5 0.001790 0.001042 0.006281 0.000000 0.057729 0.000000
# 6 0.000000 0.000000 0.000000 0.050223 0.000000 0.089343
#
#
# Mechanical properties :
#
#
# Convention : Reuss Voigt Hill
#
# Bulk Modulus (GPa) = 39.70302 67.27045 53.48674
# Shear Modulus (GPa) = 25.25085 19.05417 22.15251
#
# Velocity S-wave (km/s) = 3.39405 2.94832 3.17901
# Velocity P-wave (km/s) = 5.78551 6.50226 6.15433
#
# Compressibility (1/GPa) = 0.02518700
#
# Stress axis : x y z
#
# Youngs Moduli (GPa) = 76.07281 70.23672 120.26093
#
# Poissons Ratio (x) = -0.10998 0.72550
# Poissons Ratio (y) = -0.11912 0.09486
# Poissons Ratio (z) = 0.45892 0.05540
#
# Static dielectric constant tensor:
#      x y z
#    x 1.740850 0.000000 -0.003680 
#    y 0.000000 1.837140 0.000000 
#    z -0.003680 0.000000 1.798000 
# 
# From -- ./inp_files/90584.got.cif
#   From: 2010.05.17/outbox.cif.g08.bks.cpg/sg10_46_cif.got.tgz:90584.got - 2010.06.03 11:33:40.
