data_PCOD9144728
_publ_section_title
;
Structure prediction by ZEFSAII (Michael W. Deem and Ramdas Pophale) SiO2 
 PCOD9144728
Probable space group: P 2/M
;
_chemical_formula_sum "Si O2"
_cell_formula_units_Z 28
_cell_length_a 16.674793
_cell_length_b 9.306191
_cell_length_c 14.571354
_cell_angle_alpha 90.000000
_cell_angle_beta 40.967874
_cell_angle_gamma 90.000000
_cell_volume 1482.500857
_symmetry_space_group_name_H-M "P 2/M"
_symmetry_group_IT_number 10
_symmetry_cell_setting 'monoclinic'
loop_
_space_group_symop_operation_xyz
x,y,z
-x,y,-z
-x,-y,-z
x,-y,z
loop_
_atom_site_type_symbol
_atom_site_label
_atom_site_fract_x
_atom_site_fract_y
_atom_site_fract_z
Si Si1 0.717895 0.828877 0.170494
Si Si2 0.879062 0.664705 0.669880
Si Si3 0.042268 0.328888 0.066593
Si Si4 0.640160 0.337218 0.415006
Si Si5 0.931935 0.328525 0.347830
Si Si6 0.258771 0.170119 0.356177
Si Si7 0.447585 0.829467 0.336190
O O1 0.707266 0.756187 0.280115
O O2 0.590498 0.797539 0.227941
O O3 0.729874 0.000000 0.168566
O O4 0.834474 0.758703 0.022283
O O5 0.837535 0.500000 0.706292
O O6 0.935646 0.701624 0.719639
O O7 0.777477 0.761493 0.709644
O O8 0.000000 0.672386 0.500000
O O9 0.066608 0.500000 0.050970
O O10 0.942870 0.296302 0.230932
O O11 0.000000 0.295896 0.000000
O O12 0.500000 0.345698 0.500000
O O13 0.689339 0.500000 0.378490
O O14 0.627974 0.260892 0.523395
O O15 0.908853 0.500000 0.380707
O O16 0.833613 0.238612 0.489200
O O17 0.392382 0.199068 0.283478
O O18 0.240231 0.000000 0.367833
O O19 0.431070 0.000000 0.369690
#
# Coordination Sequence:
#
# PCOD9144728 Si02
#       7
#     4   4   4   4   4   4   4
#     4  10  20  35  52  69  99 136 170 206 250 302
#     4   8  15  30  50  72 100 133 165 200 254 308
#     4  10  22  38  54  74 100 132 173 216 250 289
#     4   9  17  29  47  70  94 126 168 207 244 290
#     4   9  19  35  52  72 103 138 166 204 257 303
#     4  10  19  30  50  80 107 129 163 208 251 300
#     4   9  19  33  48  72 104 135 162 203 259 302
#
# _framework density 18.887006
#
# number of rings (size 3 to 8) (size 9 to 14) (size 15 to 20)
#    0.000    2.714    0.000    2.143    2.000    6.857 
#    0.000    0.000    0.000    0.857    0.000    6.000 
#    0.000    0.000    0.000    0.000    0.000    0.000 
#
# Total GULP energy -156140.305072 kJ/mol
# GULP energy per Si atom -5576.439467 kJ/mol
# Density = 1.884402 g / cm^3
# Si number density = 18.887006 Si / 1000 Ang^3
#
#
#
# Elastic Constant Matrix: (Units=GPa)
#
#
# Indices 1 2 3 4 5 6 
#
# 1 104.4037 40.5143 1.0015 0.0000 0.5922 0.0000
# 2 40.5143 45.3437 10.6863 0.0000 -8.8864 0.0000
# 3 1.0015 10.6863 29.9249 0.0000 -3.2794 0.0000
# 4 0.0000 0.0000 0.0000 19.6799 0.0000 -0.4607
# 5 0.5922 -8.8864 -3.2794 0.0000 23.1590 0.0000
# 6 0.0000 0.0000 0.0000 -0.4607 0.0000 24.1073
#
#
#
# Elastic Compliance Matrix: (Units=1/GPa)
#
#
# Indices 1 2 3 4 5 6 
#
# 1 0.016020 -0.016628 0.004731 0.000000 -0.006120 0.000000
# 2 -0.016628 0.042956 -0.013134 0.000000 0.015048 0.000000
# 3 0.004731 -0.013134 0.037973 0.000000 0.000216 0.000000
# 4 0.000000 0.000000 0.000000 0.050836 0.000000 0.000972
# 5 -0.006120 0.015048 0.000216 0.000000 0.049141 0.000000
# 6 0.000000 0.000000 0.000000 0.000972 0.000000 0.041500
#
#
# Mechanical properties :
#
#
# Convention : Reuss Voigt Hill
#
# Bulk Modulus (GPa) = 21.32839 31.56406 26.44623
# Shear Modulus (GPa) = 16.44106 21.88724 19.16415
#
# Velocity S-wave (km/s) = 2.95362 3.40788 3.18885
# Velocity P-wave (km/s) = 4.79051 5.67743 5.25272
#
# Compressibility (1/GPa) = 0.04688586
#
# Stress axis : x y z
#
# Youngs Moduli (GPa) = 62.42089 23.27984 26.33480
#
# Poissons Ratio (x) = 0.38711 -0.12460
# Poissons Ratio (y) = 1.03796 0.34588
# Poissons Ratio (z) = -0.29533 0.30576
#
# Static dielectric constant tensor:
#      x y z
#    x 1.720040 0.000000 -0.005170 
#    y 0.000000 1.630560 0.000000 
#    z -0.005170 0.000000 1.636630 
# 
# From -- ./inp_files/68609.got.cif
#   From: 2010.05.17/outbox.cif.g08.bks.cpg/sg10_35_cif.got.tgz:68609.got - 2010.06.03 11:33:40.
