data_PCOD9144187
_publ_section_title
;
Structure prediction by ZEFSAII (Michael W. Deem and Ramdas Pophale) SiO2 
 PCOD9144187
Probable space group: P 2/M
;
_chemical_formula_sum "Si O2"
_cell_formula_units_Z 28
_cell_length_a 18.620388
_cell_length_b 17.117627
_cell_length_c 10.538291
_cell_angle_alpha 90.000000
_cell_angle_beta 21.444012
_cell_angle_gamma 90.000000
_cell_volume 1228.001798
_symmetry_space_group_name_H-M "P 2/M"
_symmetry_group_IT_number 10
_symmetry_cell_setting 'monoclinic'
loop_
_space_group_symop_operation_xyz
x,y,z
-x,y,-z
-x,-y,-z
x,-y,z
loop_
_atom_site_type_symbol
_atom_site_label
_atom_site_fract_x
_atom_site_fract_y
_atom_site_fract_z
Si Si1 0.632780 0.173207 0.151576
Si Si2 0.989858 0.247906 0.689085
Si Si3 0.314185 0.000000 0.402703
Si Si4 0.265590 0.747521 0.646576
Si Si5 0.436124 0.000000 0.753159
Si Si6 0.735521 0.835042 0.601725
Si Si7 0.346034 0.585877 0.435061
Si Si8 0.197249 0.411112 0.391941
O O1 0.500000 0.170520 0.500000
O O2 0.479454 0.215526 0.312748
O O3 0.672383 0.082831 0.051288
O O4 0.827830 0.224229 0.852152
O O5 0.172017 0.190542 0.417315
O O6 0.066452 0.337418 0.563437
O O7 0.867860 0.227625 0.018399
O O8 0.203773 0.079675 0.549121
O O9 0.394152 0.000000 0.416217
O O10 0.500000 0.000000 0.000000
O O11 0.209026 0.773394 0.598887
O O12 0.273365 0.654651 0.641407
O O13 0.500000 0.000000 0.500000
O O14 0.500000 0.834010 0.000000
O O15 0.306209 0.500000 0.551779
O O16 0.239045 0.592731 0.474624
O O17 0.580499 0.595146 0.028956
O O18 0.125535 0.500000 0.481038
#
# Coordination Sequence:
#
# PCOD9144187 Si02
#       8
#     4   4   2   4   2   4   4   4
#     4   9  21  37  58  81 120 158 198 241 307 368
#     4  11  22  36  57  91 116 154 202 249 303 364
#     4  10  22  39  65  90 121 166 214 262 314 363
#     4  11  20  36  58  85 117 153 196 253 292 366
#     4  10  18  39  64  87 122 173 207 251 319 382
#     4  11  22  38  59  83 121 154 197 253 310 355
#     4   9  18  33  56  83 114 155 194 237 301 365
#     4   9  18  34  55  82 118 153 192 243 300 363
#
# _framework density 22.801269999999999
#
# number of rings (size 3 to 8) (size 9 to 14) (size 15 to 20)
#    0.000    2.000    2.857    2.143    0.000    1.143 
#    0.000    7.143    0.000    6.000    0.000    0.000 
#    0.000    0.000    0.000    0.000    0.000    0.000 
#
# Total GULP energy -156373.501000 kJ/mol
# GULP energy per Si atom -5584.767893 kJ/mol
# Density = 2.274937 g / cm^3
# Si number density = 22.801270 Si / 1000 Ang^3
#
#
#
# Elastic Constant Matrix: (Units=GPa)
#
#
# Indices 1 2 3 4 5 6 
#
# 1 113.5568 38.1966 14.2181 0.0000 -29.4227 0.0000
# 2 38.1966 173.1135 25.9019 0.0000 -33.5477 0.0000
# 3 14.2181 25.9019 59.8911 0.0000 -19.4200 0.0000
# 4 0.0000 0.0000 0.0000 -0.2018 0.0000 -5.2524
# 5 -29.4227 -33.5477 -19.4200 0.0000 40.9566 0.0000
# 6 0.0000 0.0000 0.0000 -5.2524 0.0000 25.1524
#
#
#
# Elastic Compliance Matrix: (Units=1/GPa)
#
#
# Indices 1 2 3 4 5 6 
#
# 1 0.010983 -0.001074 0.000154 0.000000 0.007084 0.000000
# 2 -0.001074 0.007066 -0.001388 0.000000 0.004358 0.000000
# 3 0.000154 -0.001388 0.020003 0.000000 0.008459 0.000000
# 4 0.000000 0.000000 0.000000 -0.770075 0.000000 -0.160809
# 5 0.007084 0.004358 0.008459 0.000000 0.037086 0.000000
# 6 0.000000 0.000000 0.000000 -0.160809 0.000000 0.006177
#
#
# Mechanical properties :
#
#
# Convention : Reuss Voigt Hill
#
# Bulk Modulus (GPa) = 29.90654 55.91051 42.90853
# Shear Modulus (GPa) = -7.42944 31.06443 11.81750
#
# Velocity S-wave (km/s) = -1.80705 3.69507 2.27905
# Velocity P-wave (km/s) = 2.96492 6.54055 5.07787
#
# Compressibility (1/GPa) = 0.03343750
#
# Stress axis : x y z
#
# Youngs Moduli (GPa) = 91.04568 141.52939 49.99157
#
# Poissons Ratio (x) = 0.15196 -0.00769
# Poissons Ratio (y) = 0.09775 0.06937
# Poissons Ratio (z) = -0.01401 0.19640
#
# Static dielectric constant tensor:
#      x y z
#    x 1.840810 0.000000 0.018910 
#    y 0.000000 1.844820 0.000000 
#    z 0.018910 0.000000 1.913390 
# 
# From -- ./inp_files/56101.got.cif
#   From: 2010.05.17/outbox.cif.g08.bks.cpg/sg10_29_cif.got.tgz:56101.got - 2010.06.03 11:33:40.
