data_PCOD9144784
_publ_section_title
;
Structure prediction by ZEFSAII (Michael W. Deem and Ramdas Pophale) SiO2 
 PCOD9144784
Probable space group: P 2/M
;
_chemical_formula_sum "Si O2"
_cell_formula_units_Z 28
_cell_length_a 33.147960
_cell_length_b 7.304973
_cell_length_c 32.265986
_cell_angle_alpha 90.000000
_cell_angle_beta 170.704408
_cell_angle_gamma 90.000000
_cell_volume 1262.024840
_symmetry_space_group_name_H-M "P 2/M"
_symmetry_group_IT_number 10
_symmetry_cell_setting 'monoclinic'
loop_
_space_group_symop_operation_xyz
x,y,z
-x,y,-z
-x,-y,-z
x,-y,z
loop_
_atom_site_type_symbol
_atom_site_label
_atom_site_fract_x
_atom_site_fract_y
_atom_site_fract_z
Si Si1 0.238150 0.776713 0.714443
Si Si2 0.471797 0.276336 0.423610
Si Si3 0.050742 0.282101 0.143984
Si Si4 0.191954 0.223278 0.572209
Si Si5 0.616426 0.223833 0.853158
Si Si6 0.668343 0.776959 0.001271
Si Si7 0.093815 0.782013 0.285336
O O1 0.214461 0.719578 0.642736
O O2 0.000000 0.718971 0.500000
O O3 0.238165 0.000000 0.714632
O O4 0.500000 0.719041 0.000000
O O5 0.500000 0.222420 0.500000
O O6 0.470900 0.500000 0.421858
O O7 0.706867 0.213528 0.634748
O O8 0.210458 0.213384 0.139220
O O9 0.047996 0.500000 0.134797
O O10 0.071621 0.250508 0.214019
O O11 0.930696 0.281244 0.287076
O O12 0.191908 0.000000 0.571978
O O13 0.430764 0.281219 0.787505
O O14 0.355571 0.286294 0.568982
O O15 0.615883 0.000000 0.851978
O O16 0.642651 0.279141 0.927511
O O17 0.852137 0.286229 0.065048
O O18 0.668608 0.000000 0.001890
O O19 0.096658 0.000000 0.294421
#
# Coordination Sequence:
#
# PCOD9144784 Si02
#       7
#     4   4   4   4   4   4   4
#     4   9  15  21  27  36  53  78 109 146 194 249
#     4   9  17  30  49  71  92 115 145 179 212 247
#     4  10  19  31  49  71  92 115 145 179 212 247
#     4   9  15  21  30  43  59  82 113 155 204 245
#     4   9  17  28  42  59  79 106 137 170 211 258
#     4   9  15  23  34  48  65  85 117 159 201 242
#     4  10  19  31  46  64  88 116 143 172 214 261
#
# _framework density 22.186565999999999
#
# number of rings (size 3 to 8) (size 9 to 14) (size 15 to 20)
#    0.000    2.714    0.000    3.000    0.000    8.571 
#    0.000    0.000    0.000    2.571    0.000    0.000 
#    0.000    0.000    0.000    0.000    0.000    0.000 
#
# Total GULP energy -156571.996812 kJ/mol
# GULP energy per Si atom -5591.857029 kJ/mol
# Density = 2.213607 g / cm^3
# Si number density = 22.186566 Si / 1000 Ang^3
#
#
#
# Elastic Constant Matrix: (Units=GPa)
#
#
# Indices 1 2 3 4 5 6 
#
# 1 220.4408 -2.1881 142.7378 0.0000 -6.8255 0.0000
# 2 -2.1881 91.5709 9.4685 0.0000 1.4913 0.0000
# 3 142.7378 9.4685 262.5192 0.0000 -7.9972 0.0000
# 4 0.0000 0.0000 0.0000 -20.9520 0.0000 -6.0232
# 5 -6.8255 1.4913 -7.9972 0.0000 50.5583 0.0000
# 6 0.0000 0.0000 0.0000 -6.0232 0.0000 17.2278
#
#
#
# Elastic Compliance Matrix: (Units=1/GPa)
#
#
# Indices 1 2 3 4 5 6 
#
# 1 0.007036 0.000559 -0.003836 0.000000 0.000327 0.000000
# 2 0.000559 0.011013 -0.000712 0.000000 -0.000362 0.000000
# 3 -0.003836 -0.000712 0.005934 0.000000 0.000442 0.000000
# 4 0.000000 0.000000 0.000000 -0.043369 0.000000 -0.015163
# 5 0.000327 -0.000362 0.000442 0.000000 0.019904 0.000000
# 6 0.000000 0.000000 0.000000 -0.015163 0.000000 0.052744
#
#
# Mechanical properties :
#
#
# Convention : Reuss Voigt Hill
#
# Bulk Modulus (GPa) = 62.47790 97.17414 79.82602
# Shear Modulus (GPa) = 75.10355 37.66766 56.38561
#
# Velocity S-wave (km/s) = 5.82447 4.12487 5.04673
# Velocity P-wave (km/s) = 8.57053 8.15964 8.36761
#
# Compressibility (1/GPa) = 0.01600566
#
# Stress axis : x y z
#
# Youngs Moduli (GPa) = 142.13265 90.79825 168.52175
#
# Poissons Ratio (x) = -0.05079 0.64640
# Poissons Ratio (y) = -0.07951 0.12006
# Poissons Ratio (z) = 0.54518 0.06469
#
# Static dielectric constant tensor:
#      x y z
#    x 1.736950 0.000000 0.004830 
#    y 0.000000 1.898340 0.000000 
#    z 0.004830 0.000000 1.759600 
# 
# From -- ./inp_files/13084.got.cif
#   From: 2010.05.17/outbox.cif.g08.bks.cpg/sg10_7_cif.got.tgz:13084.got - 2010.06.03 11:33:40.
