data_PCOD9144329
_publ_section_title
;
Structure prediction by ZEFSAII (Michael W. Deem and Ramdas Pophale) SiO2 
 PCOD9144329
Probable space group: P 2/M
;
_chemical_formula_sum "Si O2"
_cell_formula_units_Z 28
_cell_length_a 25.189395
_cell_length_b 14.566611
_cell_length_c 23.001002
_cell_angle_alpha 90.000000
_cell_angle_beta 168.907101
_cell_angle_gamma 90.000000
_cell_volume 1623.786280
_symmetry_space_group_name_H-M "P 2/M"
_symmetry_group_IT_number 10
_symmetry_cell_setting 'monoclinic'
loop_
_space_group_symop_operation_xyz
x,y,z
-x,y,-z
-x,-y,-z
x,-y,z
loop_
_atom_site_type_symbol
_atom_site_label
_atom_site_fract_x
_atom_site_fract_y
_atom_site_fract_z
Si Si1 0.479940 0.111496 0.239858
Si Si2 0.490331 0.201324 0.059889
Si Si3 0.684770 0.398287 0.140832
Si Si4 0.921134 0.110047 0.297664
Si Si5 0.916400 0.890389 0.087276
Si Si6 0.816275 0.597066 0.860500
Si Si7 0.183604 0.200819 0.139544
O O1 0.793598 0.144676 0.575608
O O2 0.490641 0.000000 0.251748
O O3 0.287025 0.135208 0.978344
O O4 0.335869 0.143680 0.144554
O O5 0.786834 0.160732 0.396629
O O6 0.500000 0.198692 0.000000
O O7 0.427210 0.306760 0.010774
O O8 0.242020 0.141211 0.819732
O O9 0.673302 0.500000 0.099793
O O10 0.000000 0.381990 0.500000
O O11 0.500000 0.404258 0.000000
O O12 0.966009 0.000000 0.345991
O O13 0.917713 0.000000 0.094491
O O14 0.885988 0.867214 0.987095
O O15 0.500000 0.596994 0.500000
O O16 0.868463 0.500000 0.948432
O O17 0.864634 0.696937 0.938927
O O18 0.000000 0.596315 0.000000
O O19 0.500000 0.192285 0.500000
O O20 0.000000 0.188961 0.000000
#
# Coordination Sequence:
#
# PCOD9144329 Si02
#       7
#     4   4   4   4   4   4   4
#     4   9  19  35  51  66  85 121 173 208 223 254
#     4  11  21  33  50  77 106 130 159 196 250 310
#     4   9  17  31  50  71  98 130 163 200 239 286
#     4  11  22  35  51  71 100 135 169 205 240 285
#     4  10  19  32  49  67  91 122 157 197 232 269
#     4   8  14  25  40  59  86 117 146 176 211 260
#     4  10  19  29  44  70  98 120 145 181 235 293
#
# _framework density 17.243648
#
# number of rings (size 3 to 8) (size 9 to 14) (size 15 to 20)
#    0.000    2.286    0.000    4.286    0.000    4.571 
#    0.000    0.000    0.000    0.000    0.000    6.000 
#    0.000    0.000    0.000    0.000    0.000    0.000 
#
# Total GULP energy -155909.310740 kJ/mol
# GULP energy per Si atom -5568.189669 kJ/mol
# Density = 1.720440 g / cm^3
# Si number density = 17.243648 Si / 1000 Ang^3
#
#
#
# Elastic Constant Matrix: (Units=GPa)
#
#
# Indices 1 2 3 4 5 6 
#
# 1 40.3740 4.0812 8.1057 0.0000 9.2437 0.0000
# 2 4.0812 61.6839 23.8435 0.0000 2.8522 0.0000
# 3 8.1057 23.8435 80.7737 0.0000 19.3260 0.0000
# 4 0.0000 0.0000 0.0000 17.5851 0.0000 9.9672
# 5 9.2437 2.8522 19.3260 0.0000 31.0912 0.0000
# 6 0.0000 0.0000 0.0000 9.9672 0.0000 -0.1245
#
#
#
# Elastic Compliance Matrix: (Units=1/GPa)
#
#
# Indices 1 2 3 4 5 6 
#
# 1 0.026715 -0.001217 -0.000526 0.000000 -0.007504 0.000000
# 2 -0.001217 0.018459 -0.005883 0.000000 0.002325 0.000000
# 3 -0.000526 -0.005883 0.016450 0.000000 -0.009529 0.000000
# 4 0.000000 0.000000 0.000000 0.001226 0.000000 0.098166
# 5 -0.007504 0.002325 -0.009529 0.000000 0.040104 0.000000
# 6 0.000000 0.000000 0.000000 0.098166 0.000000 -0.173195
#
#
# Mechanical properties :
#
#
# Convention : Reuss Voigt Hill
#
# Bulk Modulus (GPa) = 21.56537 28.32137 24.94337
# Shear Modulus (GPa) = -126.48111 19.49711 -53.49200
#
# Velocity S-wave (km/s) = -8.57372 3.36621 -5.57572
# Velocity P-wave (km/s) = 9.24544 5.61858 5.19181
#
# Compressibility (1/GPa) = 0.04637063
#
# Stress axis : x y z
#
# Youngs Moduli (GPa) = 37.43191 54.17492 60.79203
#
# Poissons Ratio (x) = 0.06594 0.03199
# Poissons Ratio (y) = 0.04556 0.35764
# Poissons Ratio (z) = 0.01970 0.31871
#
# Static dielectric constant tensor:
#      x y z
#    x 1.571550 0.000000 0.017540 
#    y 0.000000 1.654970 0.000000 
#    z 0.017540 0.000000 1.579600 
# 
# From -- ./inp_files/91287.got.cif
#   From: 2010.05.17/outbox.cif.g08.bks.cpg/sg10_46_cif.got.tgz:91287.got - 2010.06.03 11:33:40.
