data_PCOD9144546
_publ_section_title
;
Structure prediction by ZEFSAII (Michael W. Deem and Ramdas Pophale) SiO2 
 PCOD9144546
Probable space group: P 2/M
;
_chemical_formula_sum "Si O2"
_cell_formula_units_Z 28
_cell_length_a 17.739103
_cell_length_b 12.629486
_cell_length_c 23.348100
_cell_angle_alpha 90.000000
_cell_angle_beta 164.344655
_cell_angle_gamma 90.000000
_cell_volume 1411.534189
_symmetry_space_group_name_H-M "P 2/M"
_symmetry_group_IT_number 10
_symmetry_cell_setting 'monoclinic'
loop_
_space_group_symop_operation_xyz
x,y,z
-x,y,-z
-x,-y,-z
x,-y,z
loop_
_atom_site_type_symbol
_atom_site_label
_atom_site_fract_x
_atom_site_fract_y
_atom_site_fract_z
Si Si1 0.805972 0.628598 0.200040
Si Si2 0.466305 0.222013 0.408108
Si Si3 0.126607 0.228918 0.983480
Si Si4 0.151214 0.000000 0.018628
Si Si5 0.566380 0.000000 0.649291
Si Si6 0.824328 0.625855 0.081214
Si Si7 0.327154 0.617958 0.219993
Si Si8 0.823841 0.627024 0.425068
O O1 0.802856 0.500000 0.196880
O O2 0.041607 0.665759 0.417096
O O3 0.500000 0.660707 0.000000
O O4 0.853792 0.657851 0.168932
O O5 0.500000 0.229732 0.500000
O O6 0.508518 0.327756 0.402414
O O7 0.588027 0.111890 0.473417
O O8 0.127106 0.210973 0.157360
O O9 0.030804 0.295812 0.858149
O O10 0.331277 0.303999 0.169203
O O11 0.227362 0.110594 0.044049
O O12 0.297964 0.000000 0.188439
O O13 0.815611 0.000000 0.784063
O O14 0.892026 0.500000 0.123099
O O15 0.499389 0.641459 0.825946
O O16 0.427095 0.500000 0.278821
O O17 0.000000 0.607165 0.000000
O O18 0.864921 0.500000 0.456681
O O19 0.000000 0.668691 0.500000
#
# Coordination Sequence:
#
# PCOD9144546 Si02
#       8
#     4   4   4   2   2   4   4   4
#     4   9  15  26  45  69  98 128 159 192 228 282
#     4  10  19  31  49  70  93 122 161 205 248 288
#     4  10  19  33  49  68  93 123 160 201 248 290
#     4   9  16  30  54  70  84 116 163 209 243 283
#     4   9  15  30  52  74  86 108 163 216 247 280
#     4  10  19  30  46  70 103 133 155 193 244 291
#     4   9  17  30  47  63  87 125 159 186 225 289
#     4   9  15  26  46  70  96 128 162 192 230 284
#
# _framework density 19.836572
#
# number of rings (size 3 to 8) (size 9 to 14) (size 15 to 20)
#    0.000    2.571    2.857    0.643    0.000    0.857 
#    2.571    0.000    0.000    0.000    0.000    1.000 
#    0.000    0.000    0.000    0.000    0.000    0.000 
#
# Total GULP energy -156016.824368 kJ/mol
# GULP energy per Si atom -5572.029442 kJ/mol
# Density = 1.979142 g / cm^3
# Si number density = 19.836572 Si / 1000 Ang^3
#
#
#
# Elastic Constant Matrix: (Units=GPa)
#
#
# Indices 1 2 3 4 5 6 
#
# 1 75.2493 29.8913 25.2461 0.0000 -22.9710 0.0000
# 2 29.8913 129.3112 14.3144 0.0000 -13.2043 0.0000
# 3 25.2461 14.3144 49.4805 0.0000 -18.1898 0.0000
# 4 0.0000 0.0000 0.0000 6.4068 0.0000 -4.2709
# 5 -22.9710 -13.2043 -18.1898 0.0000 41.5526 0.0000
# 6 0.0000 0.0000 0.0000 -4.2709 0.0000 11.3203
#
#
#
# Elastic Compliance Matrix: (Units=1/GPa)
#
#
# Indices 1 2 3 4 5 6 
#
# 1 0.018546 -0.002927 -0.006184 0.000000 0.006615 0.000000
# 2 -0.002927 0.008568 -0.000690 0.000000 0.000802 0.000000
# 3 -0.006184 -0.000690 0.026490 0.000000 0.007958 0.000000
# 4 0.000000 0.000000 0.000000 0.208532 0.000000 0.078675
# 5 0.006615 0.000802 0.007958 0.000000 0.031462 0.000000
# 6 0.000000 0.000000 0.000000 0.078675 0.000000 0.118019
#
#
# Mechanical properties :
#
#
# Convention : Reuss Voigt Hill
#
# Bulk Modulus (GPa) = 29.40982 43.66051 36.53516
# Shear Modulus (GPa) = 11.29806 24.16190 17.72998
#
# Velocity S-wave (km/s) = 2.38913 3.49384 2.99290
# Velocity P-wave (km/s) = 4.74013 6.19143 5.51374
#
# Compressibility (1/GPa) = 0.03400225
#
# Stress axis : x y z
#
# Youngs Moduli (GPa) = 53.91991 116.71012 37.74942
#
# Poissons Ratio (x) = 0.34161 0.23344
# Poissons Ratio (y) = 0.15782 0.02606
# Poissons Ratio (z) = 0.33344 0.08057
#
# Static dielectric constant tensor:
#      x y z
#    x 1.717350 0.000000 0.008710 
#    y 0.000000 1.740880 0.000000 
#    z 0.008710 0.000000 1.817940 
# 
# From -- ./inp_files/90170.got.cif
#   From: 2010.05.17/outbox.cif.g08.bks.cpg/sg10_46_cif.got.tgz:90170.got - 2010.06.03 11:33:40.
