data_PCOD9144860
_publ_section_title
;
Structure prediction by ZEFSAII (Michael W. Deem and Ramdas Pophale) SiO2 
 PCOD9144860
Probable space group: P 2/M
;
_chemical_formula_sum "Si O2"
_cell_formula_units_Z 32
_cell_length_a 14.096504
_cell_length_b 9.350702
_cell_length_c 11.412430
_cell_angle_alpha 90.000000
_cell_angle_beta 73.649912
_cell_angle_gamma 90.000000
_cell_volume 1443.463151
_symmetry_space_group_name_H-M "P 2/M"
_symmetry_group_IT_number 10
_symmetry_cell_setting 'monoclinic'
loop_
_space_group_symop_operation_xyz
x,y,z
-x,y,-z
-x,-y,-z
x,-y,z
loop_
_atom_site_type_symbol
_atom_site_label
_atom_site_fract_x
_atom_site_fract_y
_atom_site_fract_z
Si Si1 0.314078 0.828931 0.017121
Si Si2 0.593354 0.334889 0.559067
Si Si3 0.987148 0.332796 0.222284
Si Si4 0.114274 0.659686 0.502984
Si Si5 0.448086 0.328838 0.802764
Si Si6 0.825436 0.829597 0.732264
Si Si7 0.681054 0.839836 0.341092
Si Si8 0.856740 0.160119 0.107796
O O1 0.409082 0.745366 0.934714
O O2 0.218737 0.792431 0.967996
O O3 0.330631 0.000000 0.997642
O O4 0.274742 0.798194 0.160772
O O5 0.500000 0.326519 0.500000
O O6 0.625117 0.500000 0.546723
O O7 0.552936 0.298246 0.702503
O O8 0.671532 0.231185 0.471168
O O9 0.011839 0.500000 0.201152
O O10 0.903234 0.322566 0.353195
O O11 0.941166 0.265209 0.122022
O O12 0.082608 0.245519 0.232823
O O13 0.152380 0.500000 0.465562
O O14 0.170544 0.769911 0.400646
O O15 0.000000 0.663761 0.500000
O O16 0.439154 0.500000 0.814455
O O17 0.374236 0.263316 0.731284
O O18 0.839869 0.000000 0.729074
O O19 0.787281 0.854121 0.246428
O O20 0.636019 0.000000 0.358351
O O21 0.891014 0.000000 0.064755
#
# Coordination Sequence:
#
# PCOD9144860 Si02
#       8
#     4   4   4   4   4   4   4   4
#     4   9  19  32  43  60  87 116 144 175 210 248
#     4   8  14  23  35  54  78 104 138 175 206 241
#     4  10  20  32  46  64  85 110 141 177 215 252
#     4   8  16  31  47  64  85 104 130 174 219 254
#     4   9  16  25  38  56  79 109 142 174 207 244
#     4  10  19  31  48  66  84 109 141 176 214 254
#     4   9  16  25  38  56  79 109 141 173 210 247
#     4   9  18  31  43  58  85 117 146 175 207 246
#
# _framework density 22.168904999999999
#
# number of rings (size 3 to 8) (size 9 to 14) (size 15 to 20)
#    0.000    3.000    0.000    3.750    0.000    9.500 
#    0.000    2.500    0.000    0.000    0.000    0.000 
#    0.000    1.000    0.000   11.000    0.000   10.125 
#
# Total GULP energy -178418.806001 kJ/mol
# GULP energy per Si atom -5575.587688 kJ/mol
# Density = 2.211845 g / cm^3
# Si number density = 22.168905 Si / 1000 Ang^3
#
#
#
# Elastic Constant Matrix: (Units=GPa)
#
#
# Indices 1 2 3 4 5 6 
#
# 1 46.0129 14.7286 30.5399 0.0000 8.3345 0.0000
# 2 14.7286 73.2903 77.9392 0.0000 -8.4868 0.0000
# 3 30.5399 77.9392 144.4957 0.0000 -39.1550 0.0000
# 4 0.0000 0.0000 0.0000 14.1937 0.0000 5.7068
# 5 8.3345 -8.4868 -39.1550 0.0000 27.8571 0.0000
# 6 0.0000 0.0000 0.0000 5.7068 0.0000 7.4122
#
#
#
# Elastic Compliance Matrix: (Units=1/GPa)
#
#
# Indices 1 2 3 4 5 6 
#
# 1 0.067729 0.042830 -0.063593 0.000000 -0.096600 0.000000
# 2 0.042830 0.072544 -0.073758 0.000000 -0.094385 0.000000
# 3 -0.063593 -0.073758 0.095639 0.000000 0.130982 0.000000
# 4 0.000000 0.000000 0.000000 0.102041 0.000000 -0.078563
# 5 -0.096600 -0.094385 0.130982 0.000000 0.220148 0.000000
# 6 0.000000 0.000000 0.000000 -0.078563 0.000000 0.195399
#
#
# Mechanical properties :
#
#
# Convention : Reuss Voigt Hill
#
# Bulk Modulus (GPa) = 21.33571 56.69047 39.01309
# Shear Modulus (GPa) = 5.21830 19.26536 12.24183
#
# Velocity S-wave (km/s) = 1.53590 2.95112 2.35246
# Velocity P-wave (km/s) = 3.57636 6.10244 5.00151
#
# Compressibility (1/GPa) = 0.04686978
#
# Stress axis : x y z
#
# Youngs Moduli (GPa) = 14.76468 13.78469 10.45602
#
# Poissons Ratio (x) = -0.59040 0.66493
# Poissons Ratio (y) = -0.63237 0.77122
# Poissons Ratio (z) = 0.93893 1.01673
#
# Static dielectric constant tensor:
#      x y z
#    x 1.849160 0.000000 -0.018460 
#    y 0.000000 1.772980 0.000000 
#    z -0.018460 0.000000 1.867010 
# 
# From -- ./inp_files/54802.got.cif
#   From: 2010.05.17/outbox.cif.g08.bks.cpg/sg10_28_cif.got.tgz:54802.got - 2010.06.03 11:33:40.
