data_PCOD9144590
_publ_section_title
;
Structure prediction by ZEFSAII (Michael W. Deem and Ramdas Pophale) SiO2 
 PCOD9144590
Probable space group: P 2/M
;
_chemical_formula_sum "Si O2"
_cell_formula_units_Z 24
_cell_length_a 19.172352
_cell_length_b 9.299542
_cell_length_c 25.195264
_cell_angle_alpha 90.000000
_cell_angle_beta 161.032286
_cell_angle_gamma 90.000000
_cell_volume 1460.112789
_symmetry_space_group_name_H-M "P 2/M"
_symmetry_group_IT_number 10
_symmetry_cell_setting 'monoclinic'
loop_
_space_group_symop_operation_xyz
x,y,z
-x,y,-z
-x,-y,-z
x,-y,z
loop_
_atom_site_type_symbol
_atom_site_label
_atom_site_fract_x
_atom_site_fract_y
_atom_site_fract_z
Si Si1 0.986306 0.670983 0.329497
Si Si2 0.826774 0.672391 0.830730
Si Si3 0.669423 0.671148 0.507286
Si Si4 0.593586 0.163766 0.007158
Si Si5 0.132753 0.172834 0.648008
Si Si6 0.242455 0.164960 0.324943
O O1 0.964478 0.500000 0.320186
O O2 0.794850 0.731590 0.154580
O O3 0.960050 0.748205 0.367139
O O4 0.208428 0.703277 0.459393
O O5 0.839254 0.500000 0.831410
O O6 0.583887 0.705736 0.675224
O O7 0.858728 0.752455 0.797831
O O8 0.000000 0.712370 0.000000
O O9 0.687957 0.500000 0.530429
O O10 0.780698 0.754252 0.635932
O O11 0.657225 0.000000 0.039353
O O12 0.500000 0.160598 0.000000
O O13 0.385518 0.209280 0.823931
O O14 0.000000 0.207374 0.500000
O O15 0.124443 0.000000 0.650978
O O16 0.500000 0.165953 0.500000
O O17 0.170911 0.000000 0.276147
#
# Coordination Sequence:
#
# PCOD9144590 Si02
#       6
#     4   4   4   4   4   4
#     4  10  19  30  47  71  96 121 153 195 236 274
#     4   9  17  31  51  70  92 126 160 189 229 281
#     4   9  18  32  48  68  94 123 156 193 234 279
#     4   8  15  29  48  67  88 117 152 186 221 269
#     4   9  18  33  51  69  92 124 158 189 227 280
#     4   9  17  29  47  70  92 117 153 193 229 269
#
# _framework density 16.437086999999998
#
# number of rings (size 3 to 8) (size 9 to 14) (size 15 to 20)
#    0.000    3.000    0.000    2.000    0.000    7.000 
#    0.000    1.667    0.000    6.000    0.000    0.000 
#    0.000    0.000    0.000    0.000    0.000    0.000 
#
# Total GULP energy -133655.095689 kJ/mol
# GULP energy per Si atom -5568.962320 kJ/mol
# Density = 1.639968 g / cm^3
# Si number density = 16.437087 Si / 1000 Ang^3
#
#
#
# Elastic Constant Matrix: (Units=GPa)
#
#
# Indices 1 2 3 4 5 6 
#
# 1 83.2501 48.2244 53.0358 0.0000 -9.5461 0.0000
# 2 48.2244 49.5783 42.6813 0.0000 -6.3788 0.0000
# 3 53.0358 42.6813 103.1054 0.0000 -25.7253 0.0000
# 4 0.0000 0.0000 0.0000 20.6726 0.0000 -0.3674
# 5 -9.5461 -6.3788 -25.7253 0.0000 27.7727 0.0000
# 6 0.0000 0.0000 0.0000 -0.3674 0.0000 3.2338
#
#
#
# Elastic Compliance Matrix: (Units=1/GPa)
#
#
# Indices 1 2 3 4 5 6 
#
# 1 0.029119 -0.023940 -0.005128 0.000000 -0.000240 0.000000
# 2 -0.023940 0.051882 -0.010720 0.000000 -0.006242 0.000000
# 3 -0.005128 -0.010720 0.020445 0.000000 0.014713 0.000000
# 4 0.000000 0.000000 0.000000 0.048471 0.000000 0.005506
# 5 -0.000240 -0.006242 0.014713 0.000000 0.048119 0.000000
# 6 0.000000 0.000000 0.000000 0.005506 0.000000 0.309859
#
#
# Mechanical properties :
#
#
# Convention : Reuss Voigt Hill
#
# Bulk Modulus (GPa) = 45.72449 58.20187 51.96318
# Shear Modulus (GPa) = 8.40672 16.46865 12.43768
#
# Velocity S-wave (km/s) = 2.26398 3.16875 2.75377
# Velocity P-wave (km/s) = 5.89172 6.99097 6.46475
#
# Compressibility (1/GPa) = 0.02187012
#
# Stress axis : x y z
#
# Youngs Moduli (GPa) = 34.34143 19.27441 48.91103
#
# Poissons Ratio (x) = 0.46144 0.25082
# Poissons Ratio (y) = 0.82214 0.52433
# Poissons Ratio (z) = 0.17611 0.20662
#
# Static dielectric constant tensor:
#      x y z
#    x 1.539560 0.000000 0.005780 
#    y 0.000000 1.551800 0.000000 
#    z 0.005780 0.000000 1.567980 
# 
# From -- ./inp_files/31221.got.cif
#   From: 2010.05.17/outbox.cif.g08.bks.cpg/sg10_16_cif.got.tgz:31221.got - 2010.06.03 11:33:40.
