data_PCOD9144632
_publ_section_title
;
Structure prediction by ZEFSAII (Michael W. Deem and Ramdas Pophale) SiO2 
 PCOD9144632
Probable space group: P 2/M
;
_chemical_formula_sum "Si O2"
_cell_formula_units_Z 26
_cell_length_a 20.986234
_cell_length_b 11.596372
_cell_length_c 7.285536
_cell_angle_alpha 90.000000
_cell_angle_beta 140.754797
_cell_angle_gamma 90.000000
_cell_volume 1121.695928
_symmetry_space_group_name_H-M "P 2/M"
_symmetry_group_IT_number 10
_symmetry_cell_setting 'monoclinic'
loop_
_space_group_symop_operation_xyz
x,y,z
-x,y,-z
-x,-y,-z
x,-y,z
loop_
_atom_site_type_symbol
_atom_site_label
_atom_site_fract_x
_atom_site_fract_y
_atom_site_fract_z
Si Si1 0.318904 0.335481 0.047090
Si Si2 0.108521 0.290990 0.696953
Si Si3 0.104150 0.872891 0.344319
Si Si4 0.585027 0.293269 0.371702
Si Si5 0.779849 0.864185 0.764060
Si Si6 0.424332 0.870914 0.157510
Si Si7 0.625961 0.500000 0.170670
O O1 0.209343 0.364326 0.885248
O O2 0.398786 0.350016 0.389723
O O3 0.327931 0.198907 0.016322
O O4 0.344549 0.402949 0.921272
O O5 0.096543 0.221542 0.482124
O O6 0.000000 0.345696 0.500000
O O7 0.140107 0.201585 0.927838
O O8 0.186309 0.851671 0.370738
O O9 0.120132 0.000000 0.462370
O O10 0.000000 0.875329 0.000000
O O11 0.675189 0.201550 0.553793
O O12 0.484596 0.214924 0.157624
O O13 0.600304 0.397888 0.265432
O O14 0.773926 0.000000 0.794729
O O15 0.500000 0.881445 0.500000
O O16 0.404012 0.000000 0.042131
#
# Coordination Sequence:
#
# PCOD9144632 Si02
#       7
#     4   4   4   4   4   4   2
#     4  10  24  41  64  93 123 164 209 258 310 361
#     4  11  21  36  58  87 123 163 207 252 308 369
#     4  10  19  30  47  79 120 159 194 237 295 362
#     4  10  22  40  66  92 122 167 208 251 306 366
#     4  10  20  35  58  90 125 160 200 248 310 378
#     4   9  19  40  66  97 135 166 196 242 307 379
#     4  12  24  45  65  89 125 161 214 271 305 352
#
# _framework density 23.179188
#
# number of rings (size 3 to 8) (size 9 to 14) (size 15 to 20)
#    0.000    1.846    1.538    2.308    0.000    6.769 
#    0.000    5.000    0.000    3.692    0.000    0.000 
#    0.000    0.000    0.000    0.000    0.000    0.000 
#
# Total GULP energy -144854.780352 kJ/mol
# GULP energy per Si atom -5571.337706 kJ/mol
# Density = 2.312643 g / cm^3
# Si number density = 23.179188 Si / 1000 Ang^3
#
#
#
# Elastic Constant Matrix: (Units=GPa)
#
#
# Indices 1 2 3 4 5 6 
#
# 1 140.2668 62.7448 34.5504 0.0000 2.8864 0.0000
# 2 62.7448 139.9379 23.5702 0.0000 0.2778 0.0000
# 3 34.5504 23.5702 64.8011 0.0000 9.6735 0.0000
# 4 0.0000 0.0000 0.0000 -66.5280 0.0000 -57.6583
# 5 2.8864 0.2778 9.6735 0.0000 50.0966 0.0000
# 6 0.0000 0.0000 0.0000 -57.6583 0.0000 -8.2145
#
#
#
# Elastic Compliance Matrix: (Units=1/GPa)
#
#
# Indices 1 2 3 4 5 6 
#
# 1 0.009741 -0.003716 -0.003873 0.000000 0.000207 0.000000
# 2 -0.003716 0.009042 -0.001372 0.000000 0.000429 0.000000
# 3 -0.003873 -0.001372 0.018495 0.000000 -0.003340 0.000000
# 4 0.000000 0.000000 0.000000 0.002957 0.000000 -0.020755
# 5 0.000207 0.000429 -0.003340 0.000000 0.020592 0.000000
# 6 0.000000 0.000000 0.000000 -0.020755 0.000000 0.023948
#
#
# Mechanical properties :
#
#
# Convention : Reuss Voigt Hill
#
# Bulk Modulus (GPa) = 51.66217 65.19297 58.42757
# Shear Modulus (GPa) = 45.80887 10.01351 27.91119
#
# Velocity S-wave (km/s) = 4.45037 2.08073 3.47385
# Velocity P-wave (km/s) = 6.98171 5.82746 6.43054
#
# Compressibility (1/GPa) = 0.01935652
#
# Stress axis : x y z
#
# Youngs Moduli (GPa) = 102.65680 110.59141 54.06991
#
# Poissons Ratio (x) = 0.41093 0.20942
# Poissons Ratio (y) = 0.38145 0.07417
# Poissons Ratio (z) = 0.39761 0.15171
#
# Static dielectric constant tensor:
#      x y z
#    x 1.892420 0.000000 0.010980 
#    y 0.000000 1.852480 0.000000 
#    z 0.010980 0.000000 1.947570 
# 
# From -- ./inp_files/34926.got.cif
#   From: 2010.05.17/outbox.cif.g08.bks.cpg/sg10_18_cif.got.tgz:34926.got - 2010.06.03 11:33:40.
