data_PCOD9144729
_publ_section_title
;
Structure prediction by ZEFSAII (Michael W. Deem and Ramdas Pophale) SiO2 
 PCOD9144729
Probable space group: P 2/M
;
_chemical_formula_sum "Si O2"
_cell_formula_units_Z 28
_cell_length_a 11.703931
_cell_length_b 16.434267
_cell_length_c 7.144122
_cell_angle_alpha 90.000000
_cell_angle_beta 61.329842
_cell_angle_gamma 90.000000
_cell_volume 1205.665088
_symmetry_space_group_name_H-M "P 2/M"
_symmetry_group_IT_number 10
_symmetry_cell_setting 'monoclinic'
loop_
_space_group_symop_operation_xyz
x,y,z
-x,y,-z
-x,-y,-z
x,-y,z
loop_
_atom_site_type_symbol
_atom_site_label
_atom_site_fract_x
_atom_site_fract_y
_atom_site_fract_z
Si Si1 0.182468 0.414002 0.148957
Si Si2 0.654124 0.910510 0.356626
Si Si3 0.728333 0.409126 0.488569
Si Si4 0.453060 0.355885 0.819798
Si Si5 0.828549 0.229901 0.312815
Si Si6 0.625510 0.182952 0.027114
Si Si7 0.103667 0.239498 0.176492
O O1 0.119310 0.500000 0.155110
O O2 0.226351 0.413222 0.330372
O O3 0.093064 0.336841 0.193695
O O4 0.315243 0.401588 0.925498
O O5 0.500000 0.910039 0.500000
O O6 0.718481 0.838190 0.424667
O O7 0.667283 0.890670 0.125891
O O8 0.706141 0.000000 0.362963
O O9 0.757520 0.500000 0.388189
O O10 0.572495 0.393872 0.615310
O O11 0.786421 0.323725 0.370386
O O12 0.421734 0.260808 0.809880
O O13 0.500000 0.357255 0.000000
O O14 0.958479 0.209337 0.328588
O O15 0.865554 0.220629 0.064632
O O16 0.500000 0.163987 0.000000
O O17 0.760920 0.214954 0.826968
#
# Coordination Sequence:
#
# PCOD9144729 Si02
#       7
#     4   4   4   4   4   4   4
#     4   9  17  30  49  75 107 142 184 229 270 317
#     4  10  21  37  59  84 108 138 175 218 273 327
#     4  10  19  30  50  80 109 144 188 228 268 317
#     4   8  14  27  48  73 103 139 175 217 267 314
#     4  10  21  38  54  75 112 148 183 225 264 320
#     4   9  17  33  58  83 105 135 178 223 269 319
#     4   9  20  36  53  75 106 148 185 217 272 324
#
# _framework density 23.223694999999999
#
# number of rings (size 3 to 8) (size 9 to 14) (size 15 to 20)
#    0.000    2.714    0.000    2.143    0.000    3.714 
#    0.000    8.571    0.000    9.000    0.000    4.000 
#    0.000    0.000    0.000    0.000    0.000    0.000 
#
# Total GULP energy -156269.308820 kJ/mol
# GULP energy per Si atom -5581.046744 kJ/mol
# Density = 2.317084 g / cm^3
# Si number density = 23.223695 Si / 1000 Ang^3
#
#
#
# Elastic Constant Matrix: (Units=GPa)
#
#
# Indices 1 2 3 4 5 6 
#
# 1 130.2464 49.3383 25.4291 0.0000 -16.5743 0.0000
# 2 49.3383 123.8250 23.6600 0.0000 -17.2254 0.0000
# 3 25.4291 23.6600 40.9818 0.0000 -12.1168 0.0000
# 4 0.0000 0.0000 0.0000 15.2637 0.0000 8.1614
# 5 -16.5743 -17.2254 -12.1168 0.0000 31.0275 0.0000
# 6 0.0000 0.0000 0.0000 8.1614 0.0000 3.1157
#
#
#
# Elastic Compliance Matrix: (Units=1/GPa)
#
#
# Indices 1 2 3 4 5 6 
#
# 1 0.009777 -0.002876 -0.003770 0.000000 0.002154 0.000000
# 2 -0.002876 0.010249 -0.003283 0.000000 0.002871 0.000000
# 3 -0.003770 -0.003283 0.031091 0.000000 0.008305 0.000000
# 4 0.000000 0.000000 0.000000 -0.163538 0.000000 0.428382
# 5 0.002154 0.002871 0.008305 0.000000 0.038218 0.000000
# 6 0.000000 0.000000 0.000000 0.428382 0.000000 -0.801172
#
#
# Mechanical properties :
#
#
# Convention : Reuss Voigt Hill
#
# Bulk Modulus (GPa) = 31.99034 54.65644 43.32339
# Shear Modulus (GPa) = -5.91647 22.98975 8.53664
#
# Velocity S-wave (km/s) = -1.59785 3.14972 1.91933
# Velocity P-wave (km/s) = 3.22500 6.06742 4.85871
#
# Compressibility (1/GPa) = 0.03125943
#
# Stress axis : x y z
#
# Youngs Moduli (GPa) = 102.27851 97.57429 32.16338
#
# Poissons Ratio (x) = 0.28061 0.12124
# Poissons Ratio (y) = 0.29413 0.10561
# Poissons Ratio (z) = 0.38554 0.32038
#
# Static dielectric constant tensor:
#      x y z
#    x 1.927930 0.000000 0.007850 
#    y 0.000000 1.863680 0.000000 
#    z 0.007850 0.000000 2.006300 
# 
# From -- ./inp_files/25183.got.cif
#   From: 2010.05.17/outbox.cif.g08.bks.cpg/sg10_13_cif.got.tgz:25183.got - 2010.06.03 11:33:40.
