data_PCOD9145848
_publ_section_title
;
Structure prediction by ZEFSAII (Michael W. Deem and Ramdas Pophale) SiO2 
 PCOD9145848
Probable space group: P 2/M
;
_chemical_formula_sum "Si O2"
_cell_formula_units_Z 28
_cell_length_a 20.099518
_cell_length_b 11.636574
_cell_length_c 15.810502
_cell_angle_alpha 90.000000
_cell_angle_beta 161.535865
_cell_angle_gamma 90.000000
_cell_volume 1171.168970
_symmetry_space_group_name_H-M "P 2/M"
_symmetry_group_IT_number 10
_symmetry_cell_setting 'monoclinic'
loop_
_space_group_symop_operation_xyz
x,y,z
-x,y,-z
-x,-y,-z
x,-y,z
loop_
_atom_site_type_symbol
_atom_site_label
_atom_site_fract_x
_atom_site_fract_y
_atom_site_fract_z
Si Si1 0.257269 0.375709 0.557829
Si Si2 0.306433 0.370773 0.332561
Si Si3 0.752589 0.874989 0.801155
Si Si4 0.192312 0.122139 0.666696
Si Si5 0.771432 0.628166 0.272606
Si Si6 0.952471 0.192699 0.211129
Si Si7 0.394011 0.629655 0.146929
O O1 0.188708 0.500000 0.442044
O O2 0.226335 0.377373 0.621530
O O3 0.490501 0.358277 0.803282
O O4 0.112598 0.273805 0.353460
O O5 0.500000 0.374940 0.500000
O O6 0.207559 0.500000 0.207249
O O7 0.191644 0.249884 0.172860
O O8 0.421354 0.360332 0.561552
O O9 0.500000 0.873449 0.500000
O O10 0.834853 0.875391 0.996680
O O11 0.812118 0.000000 0.834309
O O12 0.000000 0.119241 0.500000
O O13 0.309892 0.239837 0.831406
O O14 0.305147 0.000000 0.812137
O O15 0.086203 0.131907 0.445770
O O16 0.684696 0.500000 0.148028
O O17 0.000000 0.629691 0.500000
O O18 0.782081 0.276235 0.050046
O O19 0.304354 0.500000 0.045880
#
# Coordination Sequence:
#
# PCOD9145848 Si02
#       7
#     4   4   4   4   4   4   4
#     4   9  19  32  51  84 116 144 186 232 278 336
#     4   9  16  30  52  76 104 144 186 229 276 326
#     4  10  19  32  53  81 111 148 190 232 280 339
#     4   9  18  32  53  82 111 142 185 230 273 330
#     4   8  14  28  52  78 105 138 175 220 274 326
#     4  11  19  33  58  80 105 152 191 227 280 341
#     4  10  19  33  54  82 116 149 185 235 283 330
#
# _framework density 23.907737000000001
#
# number of rings (size 3 to 8) (size 9 to 14) (size 15 to 20)
#    0.000    2.571    2.857    0.857    0.000    1.143 
#    0.000    0.714    0.000   30.000    0.000   59.000 
#    0.000    0.000    0.000    0.000    0.000    0.000 
#
# Total GULP energy -156064.473921 kJ/mol
# GULP energy per Si atom -5573.731211 kJ/mol
# Density = 2.385332 g / cm^3
# Si number density = 23.907737 Si / 1000 Ang^3
#
#
#
# Elastic Constant Matrix: (Units=GPa)
#
#
# Indices 1 2 3 4 5 6 
#
# 1 75.9701 44.3778 27.4386 0.0000 -3.8132 0.0000
# 2 44.3778 248.2153 43.6797 0.0000 -11.6903 0.0000
# 3 27.4386 43.6797 39.0194 0.0000 1.7550 0.0000
# 4 0.0000 0.0000 0.0000 -20.5170 0.0000 8.3081
# 5 -3.8132 -11.6903 1.7550 0.0000 53.7355 0.0000
# 6 0.0000 0.0000 0.0000 8.3081 0.0000 2.8664
#
#
#
# Elastic Compliance Matrix: (Units=1/GPa)
#
#
# Indices 1 2 3 4 5 6 
#
# 1 0.018045 -0.001140 -0.011476 0.000000 0.001407 0.000000
# 2 -0.001140 0.005178 -0.005049 0.000000 0.001211 0.000000
# 3 -0.011476 -0.005049 0.039494 0.000000 -0.003203 0.000000
# 4 0.000000 0.000000 0.000000 -0.022423 0.000000 0.064991
# 5 0.001407 0.001211 -0.003203 0.000000 0.019077 0.000000
# 6 0.000000 0.000000 0.000000 0.064991 0.000000 0.160496
#
#
# Mechanical properties :
#
#
# Convention : Reuss Voigt Hill
#
# Bulk Modulus (GPa) = 36.51428 66.02189 51.26808
# Shear Modulus (GPa) = 18.91593 23.73089 21.32341
#
# Velocity S-wave (km/s) = 2.81589 3.15398 2.98972
# Velocity P-wave (km/s) = 5.08709 6.39833 5.78001
#
# Compressibility (1/GPa) = 0.02738655
#
# Stress axis : x y z
#
# Youngs Moduli (GPa) = 55.41815 193.11769 25.32016
#
# Poissons Ratio (x) = 0.22024 0.29057
# Poissons Ratio (y) = 0.06320 0.12784
# Poissons Ratio (z) = 0.63596 0.97507
#
# Static dielectric constant tensor:
#      x y z
#    x 1.829370 0.000000 0.004090 
#    y 0.000000 1.954690 0.000000 
#    z 0.004090 0.000000 1.864500 
# 
# From -- ./inp_files/79571.got.cif
#   From: 2010.05.17/outbox.cif.g08.bks.cpg/sg10_40_cif.got.tgz:79571.got - 2010.06.03 11:33:40.
