data_PCOD9145075
_publ_section_title
;
Structure prediction by ZEFSAII (Michael W. Deem and Ramdas Pophale) SiO2 
 PCOD9145075
Probable space group: P 2/M
;
_chemical_formula_sum "Si O2"
_cell_formula_units_Z 32
_cell_length_a 22.912736
_cell_length_b 7.480899
_cell_length_c 11.455695
_cell_angle_alpha 90.000000
_cell_angle_beta 132.931881
_cell_angle_gamma 90.000000
_cell_volume 1437.674480
_symmetry_space_group_name_H-M "P 2/M"
_symmetry_group_IT_number 10
_symmetry_cell_setting 'monoclinic'
loop_
_space_group_symop_operation_xyz
x,y,z
-x,y,-z
-x,-y,-z
x,-y,z
loop_
_atom_site_type_symbol
_atom_site_label
_atom_site_fract_x
_atom_site_fract_y
_atom_site_fract_z
Si Si1 0.423778 0.204170 0.703043
Si Si2 0.456438 0.219025 0.322581
Si Si3 0.000258 0.281042 0.863710
Si Si4 0.830038 0.709141 0.561573
Si Si5 0.704706 0.215387 0.999418
Si Si6 0.169293 0.288689 0.001697
Si Si7 0.673412 0.206112 0.213076
Si Si8 0.273269 0.290423 0.350307
O O1 0.496577 0.282187 0.729103
O O2 0.386489 0.285385 0.770695
O O3 0.350934 0.201676 0.510966
O O4 0.446153 0.000000 0.761281
O O5 0.500000 0.278293 0.500000
O O6 0.364919 0.273745 0.184237
O O7 0.459394 0.000000 0.326883
O O8 0.997387 0.500000 0.859455
O O9 0.919736 0.220474 0.689445
O O10 0.081074 0.221642 0.909848
O O11 0.000000 0.228378 0.000000
O O12 0.832129 0.500000 0.531958
O O13 0.761872 0.793461 0.389124
O O14 0.795611 0.720543 0.645852
O O15 0.791630 0.266278 0.071226
O O16 0.703569 0.000000 0.002741
O O17 0.681386 0.284897 0.095534
O O18 0.165782 0.500000 0.022491
O O19 0.234099 0.212955 0.181020
O O20 0.648414 0.000000 0.164579
O O21 0.293797 0.500000 0.363494
#
# Coordination Sequence:
#
# PCOD9145075 Si02
#       8
#     4   4   4   4   4   4   4   4
#     4   9  17  30  50  73  96 127 167 206 239 281
#     4   9  17  30  50  75  99 124 160 204 248 294
#     4   9  15  28  51  78 103 126 158 201 247 294
#     4   9  16  29  52  76  98 127 160 199 245 292
#     4  10  21  36  51  68  97 136 169 201 246 293
#     4  10  19  31  50  75 101 128 162 202 246 296
#     4   9  19  34  50  70  98 132 170 207 241 282
#     4   9  16  27  46  74 103 127 153 192 248 303
#
# _framework density 22.258167
#
# number of rings (size 3 to 8) (size 9 to 14) (size 15 to 20)
#    0.000    2.750    1.250    0.750    0.000    2.500 
#    0.000    4.375    0.000    6.750    0.000    4.375 
#    0.000    0.000    0.000    0.000    0.000    0.000 
#
# Total GULP energy -178552.128637 kJ/mol
# GULP energy per Si atom -5579.754020 kJ/mol
# Density = 2.220751 g / cm^3
# Si number density = 22.258167 Si / 1000 Ang^3
#
#
#
# Elastic Constant Matrix: (Units=GPa)
#
#
# Indices 1 2 3 4 5 6 
#
# 1 151.6018 3.9299 45.3247 0.0000 18.2043 0.0000
# 2 3.9299 62.1783 -0.5855 0.0000 -0.3454 0.0000
# 3 45.3247 -0.5855 53.6662 0.0000 1.7718 0.0000
# 4 0.0000 0.0000 0.0000 6.3084 0.0000 -1.4556
# 5 18.2043 -0.3454 1.7718 0.0000 32.6402 0.0000
# 6 0.0000 0.0000 0.0000 -1.4556 0.0000 10.0792
#
#
#
# Elastic Compliance Matrix: (Units=1/GPa)
#
#
# Indices 1 2 3 4 5 6 
#
# 1 0.009577 -0.000707 -0.007934 0.000000 -0.004918 0.000000
# 2 -0.000707 0.016138 0.000756 0.000000 0.000524 0.000000
# 3 -0.007934 0.000756 0.025242 0.000000 0.003063 0.000000
# 4 0.000000 0.000000 0.000000 0.163982 0.000000 0.023682
# 5 -0.004918 0.000524 0.003063 0.000000 0.033219 0.000000
# 6 0.000000 0.000000 0.000000 0.023682 0.000000 0.102635
#
#
# Mechanical properties :
#
#
# Convention : Reuss Voigt Hill
#
# Bulk Modulus (GPa) = 28.42033 40.53160 34.47596
# Shear Modulus (GPa) = 13.21734 24.39071 18.80403
#
# Velocity S-wave (km/s) = 2.43949 3.31389 2.90972
# Velocity P-wave (km/s) = 4.55313 5.73514 5.17797
#
# Compressibility (1/GPa) = 0.03518609
#
# Stress axis : x y z
#
# Youngs Moduli (GPa) = 104.41515 61.96735 39.61722
#
# Poissons Ratio (x) = 0.04383 0.31432
# Poissons Ratio (y) = 0.07386 -0.02996
# Poissons Ratio (z) = 0.82842 -0.04686
#
# Static dielectric constant tensor:
#      x y z
#    x 1.828910 0.000000 -0.005980 
#    y 0.000000 1.874620 0.000000 
#    z -0.005980 0.000000 1.810350 
# 
# From -- ./inp_files/55323.got.cif
#   From: 2010.05.17/outbox.cif.g08.bks.cpg/sg10_28_cif.got.tgz:55323.got - 2010.06.03 11:33:40.
