data_PCOD9145068
_publ_section_title
;
Structure prediction by ZEFSAII (Michael W. Deem and Ramdas Pophale) SiO2 
 PCOD9145068
Probable space group: P 2/M
;
_chemical_formula_sum "Si O2"
_cell_formula_units_Z 32
_cell_length_a 13.449378
_cell_length_b 7.431891
_cell_length_c 27.454491
_cell_angle_alpha 90.000000
_cell_angle_beta 32.113859
_cell_angle_gamma 90.000000
_cell_volume 1458.823447
_symmetry_space_group_name_H-M "P 2/M"
_symmetry_group_IT_number 10
_symmetry_cell_setting 'monoclinic'
loop_
_space_group_symop_operation_xyz
x,y,z
-x,y,-z
-x,-y,-z
x,-y,z
loop_
_atom_site_type_symbol
_atom_site_label
_atom_site_fract_x
_atom_site_fract_y
_atom_site_fract_z
Si Si1 0.541090 0.784030 0.240934
Si Si2 0.323503 0.280109 0.538653
Si Si3 0.469081 0.713530 0.376040
Si Si4 0.047582 0.282050 0.252074
Si Si5 0.473924 0.792760 0.065776
Si Si6 0.960359 0.792981 0.080375
Si Si7 0.364378 0.779392 0.900543
Si Si8 0.106628 0.282484 0.788081
O O1 0.421328 0.740633 0.338839
O O2 0.752628 0.712766 0.163346
O O3 0.506621 0.726977 0.199269
O O4 0.544395 0.000000 0.239073
O O5 0.500000 0.225865 0.500000
O O6 0.324334 0.500000 0.540104
O O7 0.351453 0.220580 0.471105
O O8 0.122070 0.223424 0.642742
O O9 0.477114 0.500000 0.379055
O O10 0.680007 0.783219 0.296579
O O11 0.057183 0.500000 0.250411
O O12 0.256325 0.212212 0.171339
O O13 0.983689 0.228495 0.224661
O O14 0.576012 0.712905 0.070992
O O15 0.537441 0.000000 0.035459
O O16 0.500000 0.714750 0.000000
O O17 0.003117 0.787188 0.120054
O O18 0.939478 0.000000 0.074299
O O19 0.150011 0.722144 0.977916
O O20 0.363841 0.000000 0.902428
O O21 0.107602 0.500000 0.789471
#
# Coordination Sequence:
#
# PCOD9145068 Si02
#       8
#     4   4   4   4   4   4   4   4
#     4   9  17  29  47  70  95 122 156 198 242 286
#     4   9  15  28  51  75  99 130 162 191 237 302
#     4   9  16  28  47  71  98 125 153 185 232 294
#     4  10  19  31  50  74  98 127 165 203 238 283
#     4  10  21  36  52  70  96 132 169 202 240 286
#     4   9  16  27  46  69  91 119 159 200 235 278
#     4   9  17  31  49  66  89 126 165 196 235 291
#     4   9  16  26  42  67  98 126 150 184 234 290
#
# _framework density 21.935483999999999
#
# number of rings (size 3 to 8) (size 9 to 14) (size 15 to 20)
#    0.000    2.750    1.250    1.125    0.000    3.250 
#    0.000    2.500    0.000    4.500    0.000    5.250 
#    0.000    0.000    0.000    0.000    0.000    0.000 
#
# Total GULP energy -178340.952276 kJ/mol
# GULP energy per Si atom -5573.154759 kJ/mol
# Density = 2.188556 g / cm^3
# Si number density = 21.935484 Si / 1000 Ang^3
#
#
#
# Elastic Constant Matrix: (Units=GPa)
#
#
# Indices 1 2 3 4 5 6 
#
# 1 84.5379 1.3085 39.8266 0.0000 28.3086 0.0000
# 2 1.3085 67.6103 -1.6386 0.0000 2.9718 0.0000
# 3 39.8266 -1.6386 131.0970 0.0000 31.4162 0.0000
# 4 0.0000 0.0000 0.0000 14.8101 0.0000 1.7868
# 5 28.3086 2.9718 31.4162 0.0000 43.0731 0.0000
# 6 0.0000 0.0000 0.0000 1.7868 0.0000 8.2291
#
#
#
# Elastic Compliance Matrix: (Units=1/GPa)
#
#
# Indices 1 2 3 4 5 6 
#
# 1 0.015992 -0.000007 -0.002835 0.000000 -0.008442 0.000000
# 2 -0.000007 0.014865 0.000524 0.000000 -0.001403 0.000000
# 3 -0.002835 0.000524 0.009765 0.000000 -0.005295 0.000000
# 4 0.000000 0.000000 0.000000 0.069338 0.000000 -0.015055
# 5 -0.008442 -0.001403 -0.005295 0.000000 0.032723 0.000000
# 6 0.000000 0.000000 0.000000 -0.015055 0.000000 0.124789
#
#
# Mechanical properties :
#
#
# Convention : Reuss Voigt Hill
#
# Bulk Modulus (GPa) = 27.78929 40.24869 34.01899
# Shear Modulus (GPa) = 17.59922 29.47235 23.53578
#
# Velocity S-wave (km/s) = 2.83559 3.66948 3.27915
# Velocity P-wave (km/s) = 4.83910 6.02843 5.46621
#
# Compressibility (1/GPa) = 0.03598509
#
# Stress axis : x y z
#
# Youngs Moduli (GPa) = 62.53266 67.27135 102.40958
#
# Poissons Ratio (x) = 0.00048 0.29036
# Poissons Ratio (y) = 0.00045 -0.05369
# Poissons Ratio (z) = 0.17730 -0.03527
#
# Static dielectric constant tensor:
#      x y z
#    x 1.830980 0.000000 0.040930 
#    y 0.000000 1.845040 0.000000 
#    z 0.040930 0.000000 1.832680 
# 
# From -- ./inp_files/93111.got.cif
#   From: 2010.05.17/outbox.cif.g08.bks.cpg/sg10_47_cif.got.tgz:93111.got - 2010.06.03 11:33:40.
