data_PCOD9145226
_publ_section_title
;
Structure prediction by ZEFSAII (Michael W. Deem and Ramdas Pophale) SiO2 
 PCOD9145226
Probable space group: P 2/M
;
_chemical_formula_sum "Si O2"
_cell_formula_units_Z 32
_cell_length_a 14.739466
_cell_length_b 7.590203
_cell_length_c 23.592746
_cell_angle_alpha 90.000000
_cell_angle_beta 37.260434
_cell_angle_gamma 90.000000
_cell_volume 1598.026512
_symmetry_space_group_name_H-M "P 2/M"
_symmetry_group_IT_number 10
_symmetry_cell_setting 'monoclinic'
loop_
_space_group_symop_operation_xyz
x,y,z
-x,y,-z
-x,-y,-z
x,-y,z
loop_
_atom_site_type_symbol
_atom_site_label
_atom_site_fract_x
_atom_site_fract_y
_atom_site_fract_z
Si Si1 0.375821 0.713973 0.697982
Si Si2 0.956789 0.800215 0.306550
Si Si3 0.577449 0.202008 0.198563
Si Si4 0.006849 0.215178 0.587762
Si Si5 0.942039 0.295198 0.187341
Si Si6 0.114339 0.794481 0.990692
Si Si7 0.757054 0.785093 0.619696
Si Si8 0.616800 0.712288 0.492044
O O1 0.378274 0.500000 0.699561
O O2 0.364939 0.791449 0.765503
O O3 0.229851 0.767713 0.734592
O O4 0.529844 0.768837 0.591672
O O5 0.991383 0.722574 0.227786
O O6 0.776828 0.796091 0.402871
O O7 0.010457 0.719178 0.339469
O O8 0.011614 0.000000 0.277138
O O9 0.717464 0.282727 0.094978
O O10 0.410524 0.281212 0.285268
O O11 0.555790 0.000000 0.189842
O O12 0.869293 0.260875 0.615107
O O13 0.159006 0.273219 0.479792
O O14 0.012956 0.000000 0.587246
O O15 0.940196 0.500000 0.173883
O O16 0.042923 0.212155 0.088325
O O17 0.133691 0.000000 0.965353
O O18 0.000000 0.718959 0.000000
O O19 0.751152 0.000000 0.619567
O O20 0.500000 0.750220 0.500000
O O21 0.638984 0.500000 0.481402
#
# Coordination Sequence:
#
# PCOD9145226 Si02
#       8
#     4   4   4   4   4   4   4   4
#     4  10  20  32  47  67  97 134 169 202 239 291
#     4  11  21  32  50  76 102 131 169 213 256 296
#     4  10  19  31  52  76 100 128 162 206 258 305
#     4   8  15  28  48  76 107 131 159 202 250 300
#     4  11  22  36  51  68  96 139 178 203 242 304
#     4  10  20  34  50  74 104 129 162 216 263 292
#     4   8  14  28  50  76 104 132 160 197 249 308
#     4  10  19  33  46  63  98 138 170 199 235 290
#
# _framework density 20.024698999999998
#
# number of rings (size 3 to 8) (size 9 to 14) (size 15 to 20)
#    0.000    2.250    2.500    2.250    0.000    3.000 
#    0.000    0.000    0.000    2.250    0.000   11.375 
#    0.000    0.000    0.000    0.000    0.000    0.000 
#
# Total GULP energy -178510.706297 kJ/mol
# GULP energy per Si atom -5578.459572 kJ/mol
# Density = 1.997912 g / cm^3
# Si number density = 20.024699 Si / 1000 Ang^3
#
#
#
# Elastic Constant Matrix: (Units=GPa)
#
#
# Indices 1 2 3 4 5 6 
#
# 1 84.5099 -1.8293 44.3168 0.0000 4.3357 0.0000
# 2 -1.8293 40.1804 3.0566 0.0000 -4.3572 0.0000
# 3 44.3168 3.0566 131.5454 0.0000 0.6079 0.0000
# 4 0.0000 0.0000 0.0000 -3.8985 0.0000 24.2964
# 5 4.3357 -4.3572 0.6079 0.0000 32.3281 0.0000
# 6 0.0000 0.0000 0.0000 24.2964 0.0000 22.8387
#
#
#
# Elastic Compliance Matrix: (Units=1/GPa)
#
#
# Indices 1 2 3 4 5 6 
#
# 1 0.014510 0.000845 -0.004900 0.000000 -0.001740 0.000000
# 2 0.000845 0.025354 -0.000889 0.000000 0.003321 0.000000
# 3 -0.004900 -0.000889 0.009272 0.000000 0.000363 0.000000
# 4 0.000000 0.000000 0.000000 -0.033618 0.000000 0.035764
# 5 -0.001740 0.003321 0.000363 0.000000 0.031607 0.000000
# 6 0.000000 0.000000 0.000000 0.035764 0.000000 0.005739
#
#
# Mechanical properties :
#
#
# Convention : Reuss Voigt Hill
#
# Bulk Modulus (GPa) = 25.47965 38.59155 32.03560
# Shear Modulus (GPa) = 65.93380 24.29976 45.11678
#
# Velocity S-wave (km/s) = 5.74436 3.48730 4.75179
# Velocity P-wave (km/s) = 7.53317 5.96060 6.79255
#
# Compressibility (1/GPa) = 0.03924701
#
# Stress axis : x y z
#
# Youngs Moduli (GPa) = 68.91799 39.44166 107.85548
#
# Poissons Ratio (x) = -0.03332 0.52848
# Poissons Ratio (y) = -0.05821 0.09589
# Poissons Ratio (z) = 0.33769 0.03507
#
# Static dielectric constant tensor:
#      x y z
#    x 1.709940 0.000000 -0.006350 
#    y 0.000000 1.745520 0.000000 
#    z -0.006350 0.000000 1.719160 
# 
# From -- ./inp_files/84734.got.cif
#   From: 2010.05.17/outbox.cif.g08.bks.cpg/sg10_43_cif.got.tgz:84734.got - 2010.06.03 11:33:40.
