data_PCOD9145674
_publ_section_title
;
Structure prediction by ZEFSAII (Michael W. Deem and Ramdas Pophale) SiO2 
 PCOD9145674
Probable space group: P 2/M
;
_chemical_formula_sum "Si O2"
_cell_formula_units_Z 28
_cell_length_a 18.575045
_cell_length_b 7.912602
_cell_length_c 15.997401
_cell_angle_alpha 90.000000
_cell_angle_beta 141.968679
_cell_angle_gamma 90.000000
_cell_volume 1448.586070
_symmetry_space_group_name_H-M "P 2/M"
_symmetry_group_IT_number 10
_symmetry_cell_setting 'monoclinic'
loop_
_space_group_symop_operation_xyz
x,y,z
-x,y,-z
-x,-y,-z
x,-y,z
loop_
_atom_site_type_symbol
_atom_site_label
_atom_site_fract_x
_atom_site_fract_y
_atom_site_fract_z
Si Si1 0.872175 0.806754 0.404395
Si Si2 0.035313 0.204244 0.166010
Si Si3 0.558724 0.203099 0.639793
Si Si4 0.589075 0.700781 0.334311
Si Si5 0.181389 0.206227 0.142605
Si Si6 0.850308 0.303518 0.566214
Si Si7 0.393902 0.797711 0.843161
O O1 0.872550 0.804879 0.504952
O O2 0.740962 0.734761 0.263189
O O3 0.000000 0.728038 0.500000
O O4 0.874192 0.000000 0.373496
O O5 0.135940 0.256774 0.192529
O O6 0.057951 0.277450 0.277046
O O7 0.036873 0.000000 0.172959
O O8 0.914722 0.257532 0.012960
O O9 0.500000 0.266467 0.500000
O O10 0.494033 0.240148 0.667322
O O11 0.690821 0.268002 0.761584
O O12 0.563030 0.000000 0.636689
O O13 0.578757 0.500000 0.319836
O O14 0.721870 0.744901 0.481536
O O15 0.575234 0.765784 0.226337
O O16 0.181018 0.000000 0.142325
O O17 0.846684 0.500000 0.537268
O O18 0.387440 0.000000 0.848479
O O19 0.500000 0.734894 0.000000
#
# Coordination Sequence:
#
# PCOD9145674 Si02
#       7
#     4   4   4   4   4   4   4
#     4   9  18  34  55  78 101 127 166 211 255 304
#     4   9  16  31  53  72  95 130 169 207 250 298
#     4  10  19  32  52  77 103 133 172 216 257 297
#     4  10  21  35  51  74 105 139 173 208 250 307
#     4   8  16  30  49  74 100 127 165 212 254 292
#     4  10  20  33  50  73 101 132 167 204 247 298
#     4   9  18  35  58  80 102 133 172 216 262 307
#
# _framework density 19.329193
#
# number of rings (size 3 to 8) (size 9 to 14) (size 15 to 20)
#    0.000    2.714    0.000    2.571    0.000    3.714 
#    2.571    2.857    0.000    0.000    0.000    0.000 
#    0.000    0.000    0.000    0.000    0.000    0.000 
#
# Total GULP energy -155953.915434 kJ/mol
# GULP energy per Si atom -5569.782694 kJ/mol
# Density = 1.928520 g / cm^3
# Si number density = 19.329193 Si / 1000 Ang^3
#
#
#
# Elastic Constant Matrix: (Units=GPa)
#
#
# Indices 1 2 3 4 5 6 
#
# 1 112.0135 5.9768 66.3967 0.0000 32.1976 0.0000
# 2 5.9768 20.1278 7.0681 0.0000 4.4917 0.0000
# 3 66.3967 7.0681 117.8710 0.0000 4.2011 0.0000
# 4 0.0000 0.0000 0.0000 -53.1370 0.0000 77.8929
# 5 32.1976 4.4917 4.2011 0.0000 27.5108 0.0000
# 6 0.0000 0.0000 0.0000 77.8929 0.0000 -92.5174
#
#
#
# Elastic Compliance Matrix: (Units=1/GPa)
#
#
# Indices 1 2 3 4 5 6 
#
# 1 0.023966 0.003306 -0.012749 0.000000 -0.026642 0.000000
# 2 0.003306 0.052958 -0.004617 0.000000 -0.011810 0.000000
# 3 -0.012749 -0.004617 0.015468 0.000000 0.013312 0.000000
# 4 0.000000 0.000000 0.000000 0.080366 0.000000 0.067662
# 5 -0.026642 -0.011810 0.013312 0.000000 0.067426 0.000000
# 6 0.000000 0.000000 0.000000 0.067662 0.000000 0.046158
#
#
# Mechanical properties :
#
#
# Convention : Reuss Voigt Hill
#
# Bulk Modulus (GPa) = 15.55891 45.43285 30.49588
# Shear Modulus (GPa) = 14.88610 -12.25734 1.31438
#
# Velocity S-wave (km/s) = 2.77814 -2.52094 0.82551
# Velocity P-wave (km/s) = 4.28459 3.88359 4.08901
#
# Compressibility (1/GPa) = 0.06427185
#
# Stress axis : x y z
#
# Youngs Moduli (GPa) = 41.72561 18.88297 64.65128
#
# Poissons Ratio (x) = -0.06242 0.82422
# Poissons Ratio (y) = -0.13793 0.29848
# Poissons Ratio (z) = 0.53195 0.08718
#
# Static dielectric constant tensor:
#      x y z
#    x 1.673100 0.000000 0.043210 
#    y 0.000000 1.705600 0.000000 
#    z 0.043210 0.000000 1.689350 
# 
# From -- ./inp_files/68713.got.cif
#   From: 2010.05.17/outbox.cif.g08.bks.cpg/sg10_35_cif.got.tgz:68713.got - 2010.06.03 11:33:40.
