data_PCOD9145450
_publ_section_title
;
Structure prediction by ZEFSAII (Michael W. Deem and Ramdas Pophale) SiO2 
 PCOD9145450
Probable space group: P 2/M
;
_chemical_formula_sum "Si O2"
_cell_formula_units_Z 32
_cell_length_a 14.513740
_cell_length_b 15.219502
_cell_length_c 9.702620
_cell_angle_alpha 90.000000
_cell_angle_beta 71.201510
_cell_angle_gamma 90.000000
_cell_volume 2028.905407
_symmetry_space_group_name_H-M "P 2/M"
_symmetry_group_IT_number 10
_symmetry_cell_setting 'monoclinic'
loop_
_space_group_symop_operation_xyz
x,y,z
-x,y,-z
-x,-y,-z
x,-y,z
loop_
_atom_site_type_symbol
_atom_site_label
_atom_site_fract_x
_atom_site_fract_y
_atom_site_fract_z
Si Si1 0.992258 0.728118 0.343358
Si Si2 0.797371 0.279817 0.901387
Si Si3 0.173501 0.598923 0.608890
Si Si4 0.303744 0.604983 0.278288
Si Si5 0.496550 0.606446 0.660930
Si Si6 0.942023 0.901729 0.237572
Si Si7 0.714614 0.398055 0.166922
Si Si8 0.841897 0.900300 0.001697
O O1 0.913183 0.663918 0.316988
O O2 0.949064 0.825803 0.345768
O O3 0.000000 0.706353 0.500000
O O4 0.095556 0.718118 0.218427
O O5 0.724886 0.328131 0.829153
O O6 0.783865 0.178343 0.955825
O O7 0.785962 0.338806 0.043025
O O8 0.134661 0.500000 0.625929
O O9 0.224176 0.615445 0.437990
O O10 0.254220 0.604068 0.688634
O O11 0.304039 0.500000 0.238552
O O12 0.407577 0.626641 0.297464
O O13 0.500000 0.637772 0.500000
O O14 0.491642 0.500000 0.655785
O O15 0.396841 0.634164 0.783483
O O16 0.049843 0.902147 0.117511
O O17 0.922636 0.000000 0.299392
O O18 0.865353 0.882192 0.151777
O O19 0.719595 0.500000 0.119019
O O20 0.802434 0.000000 0.007623
#
# Coordination Sequence:
#
# PCOD9145450 Si02
#       8
#     4   4   4   4   4   4   4   4
#     4  11  21  32  45  67 100 140 170 192 237 287
#     4  11  21  32  47  74 104 129 159 205 240 282
#     4  10  20  33  48  66  94 137 176 197 224 283
#     4  10  19  32  50  71  98 130 164 201 244 290
#     4   9  16  31  54  73  93 126 163 203 254 297
#     4   8  15  29  49  69  90 120 163 208 246 284
#     4  10  20  33  51  75  98 123 164 212 249 282
#     4   8  15  30  50  69  92 126 160 197 247 292
#
# _framework density 15.772050999999999
#
# number of rings (size 3 to 8) (size 9 to 14) (size 15 to 20)
#    0.000    2.375    2.500    1.875    0.000    3.500 
#    0.000    3.125    0.000    0.000    0.000    1.750 
#    0.000    1.000    0.000    0.000    0.000    0.000 
#
# Total GULP energy -178156.391718 kJ/mol
# GULP energy per Si atom -5567.387241 kJ/mol
# Density = 1.573615 g / cm^3
# Si number density = 15.772051 Si / 1000 Ang^3
#
#
#
# Elastic Constant Matrix: (Units=GPa)
#
#
# Indices 1 2 3 4 5 6 
#
# 1 61.3638 38.7342 10.1793 0.0000 7.2131 0.0000
# 2 38.7342 75.7608 23.8347 0.0000 7.1344 0.0000
# 3 10.1793 23.8347 37.5237 0.0000 3.5452 0.0000
# 4 0.0000 0.0000 0.0000 1.1206 0.0000 32.2922
# 5 7.2131 7.1344 3.5452 0.0000 20.0833 0.0000
# 6 0.0000 0.0000 0.0000 32.2922 0.0000 -19.2078
#
#
#
# Elastic Compliance Matrix: (Units=1/GPa)
#
#
# Indices 1 2 3 4 5 6 
#
# 1 0.024548 -0.012694 0.001841 0.000000 -0.004632 0.000000
# 2 -0.012694 0.023395 -0.011250 0.000000 -0.001766 0.000000
# 3 0.001841 -0.011250 0.033540 0.000000 -0.002586 0.000000
# 4 0.000000 0.000000 0.000000 0.018047 0.000000 0.030341
# 5 -0.004632 -0.001766 -0.002586 0.000000 0.052540 0.000000
# 6 0.000000 0.000000 0.000000 0.030341 0.000000 -0.001053
#
#
# Mechanical properties :
#
#
# Convention : Reuss Voigt Hill
#
# Bulk Modulus (GPa) = 26.82495 35.57162 31.19828
# Shear Modulus (GPa) = 24.07920 7.19257 15.63589
#
# Velocity S-wave (km/s) = 3.91154 2.13781 3.15201
# Velocity P-wave (km/s) = 6.11923 5.35688 5.75070
#
# Compressibility (1/GPa) = 0.03727873
#
# Stress axis : x y z
#
# Youngs Moduli (GPa) = 40.73680 42.74448 29.81476
#
# Poissons Ratio (x) = 0.54258 -0.05490
# Poissons Ratio (y) = 0.51710 0.33541
# Poissons Ratio (z) = -0.07501 0.48087
#
# Static dielectric constant tensor:
#      x y z
#    x 1.527240 0.000000 0.007660 
#    y 0.000000 1.533210 0.000000 
#    z 0.007660 0.000000 1.535250 
# 
# From -- ./inp_files/29077.got.cif
#   From: 2010.05.17/outbox.cif.g08.bks.cpg/sg10_15_cif.got.tgz:29077.got - 2010.06.03 11:33:40.
