data_PCOD9145829
_publ_section_title
;
Structure prediction by ZEFSAII (Michael W. Deem and Ramdas Pophale) SiO2 
 PCOD9145829
Probable space group: P 2/M
;
_chemical_formula_sum "Si O2"
_cell_formula_units_Z 28
_cell_length_a 15.399667
_cell_length_b 9.482139
_cell_length_c 12.195913
_cell_angle_alpha 90.000000
_cell_angle_beta 119.710114
_cell_angle_gamma 90.000000
_cell_volume 1546.763125
_symmetry_space_group_name_H-M "P 2/M"
_symmetry_group_IT_number 10
_symmetry_cell_setting 'monoclinic'
loop_
_space_group_symop_operation_xyz
x,y,z
-x,y,-z
-x,-y,-z
x,-y,z
loop_
_atom_site_type_symbol
_atom_site_label
_atom_site_fract_x
_atom_site_fract_y
_atom_site_fract_z
Si Si1 0.007441 0.669037 0.873336
Si Si2 0.683118 0.843391 0.752283
Si Si3 0.615186 0.829191 0.086645
Si Si4 0.503136 0.339639 0.370312
Si Si5 0.203609 0.837209 0.956197
Si Si6 0.319477 0.169223 0.627702
Si Si7 0.829931 0.165706 0.644597
O O1 0.006600 0.500000 0.862474
O O2 0.108583 0.736968 0.888448
O O3 0.916380 0.738637 0.749283
O O4 0.000000 0.701814 0.000000
O O5 0.600995 0.729021 0.729430
O O6 0.736314 0.821654 0.669642
O O7 0.635882 0.000000 0.723353
O O8 0.766822 0.841188 0.897670
O O9 0.697135 0.788692 0.046837
O O10 0.662391 0.793084 0.234220
O O11 0.609066 0.000000 0.076708
O O12 0.500000 0.777990 0.000000
O O13 0.500000 0.337644 0.500000
O O14 0.513767 0.500000 0.339374
O O15 0.592890 0.246231 0.382592
O O16 0.180972 0.000000 0.908237
O O17 0.214390 0.204263 0.502576
O O18 0.330343 0.000000 0.624452
O O19 0.859912 0.000000 0.663545
#
# Coordination Sequence:
#
# PCOD9145829 Si02
#       7
#     4   4   4   4   4   4   4
#     4  11  23  37  56  83 116 151 184 228 284 339
#     4  10  19  32  53  80 108 141 181 228 279 328
#     4   9  18  35  60  87 113 144 185 231 277 326
#     4  11  22  32  47  76 113 148 181 221 276 339
#     4  10  20  36  60  85 110 144 187 233 278 329
#     4  10  20  36  57  80 110 146 187 233 279 329
#     4  10  20  34  55  82 109 141 183 231 280 330
#
# _framework density 18.102319000000001
#
# number of rings (size 3 to 8) (size 9 to 14) (size 15 to 20)
#    0.000    1.857    2.857    1.714    0.000    5.143 
#    0.000    1.429    0.000    6.000    0.000    0.000 
#    0.000    0.000    0.000    0.000    0.000    0.000 
#
# Total GULP energy -156127.441624 kJ/mol
# GULP energy per Si atom -5575.980058 kJ/mol
# Density = 1.806112 g / cm^3
# Si number density = 18.102319 Si / 1000 Ang^3
#
#
#
# Elastic Constant Matrix: (Units=GPa)
#
#
# Indices 1 2 3 4 5 6 
#
# 1 77.0836 32.6389 39.3425 0.0000 9.6434 0.0000
# 2 32.6389 45.1322 42.9646 0.0000 15.1812 0.0000
# 3 39.3425 42.9646 112.1996 0.0000 12.8356 0.0000
# 4 0.0000 0.0000 0.0000 -1.7824 0.0000 -27.2631
# 5 9.6434 15.1812 12.8356 0.0000 28.3698 0.0000
# 6 0.0000 0.0000 0.0000 -27.2631 0.0000 -41.3564
#
#
#
# Elastic Compliance Matrix: (Units=1/GPa)
#
#
# Indices 1 2 3 4 5 6 
#
# 1 0.019061 -0.012017 -0.002190 0.000000 0.000942 0.000000
# 2 -0.012017 0.047960 -0.012321 0.000000 -0.016005 0.000000
# 3 -0.002190 -0.012321 0.014299 0.000000 0.000868 0.000000
# 4 0.000000 0.000000 0.000000 0.061766 0.000000 -0.040718
# 5 0.000942 -0.016005 0.000868 0.000000 0.043101 0.000000
# 6 0.000000 0.000000 0.000000 -0.040718 0.000000 0.002662
#
#
# Mechanical properties :
#
#
# Convention : Reuss Voigt Hill
#
# Bulk Modulus (GPa) = 35.37858 51.58973 43.48415
# Shear Modulus (GPa) = 19.89445 5.01080 12.45262
#
# Velocity S-wave (km/s) = 3.31871 1.66555 2.62563
# Velocity P-wave (km/s) = 5.85416 5.67975 5.76762
#
# Compressibility (1/GPa) = 0.02826569
#
# Stress axis : x y z
#
# Youngs Moduli (GPa) = 52.46335 20.85055 69.93362
#
# Poissons Ratio (x) = 0.25056 0.15314
# Poissons Ratio (y) = 0.63044 0.86164
# Poissons Ratio (z) = 0.11489 0.25690
#
# Static dielectric constant tensor:
#      x y z
#    x 1.601680 0.000000 -0.005860 
#    y 0.000000 1.612460 0.000000 
#    z -0.005860 0.000000 1.653060 
# 
# From -- ./inp_files/49616.got.cif
#   From: 2010.05.17/outbox.cif.g08.bks.cpg/sg10_25_cif.got.tgz:49616.got - 2010.06.03 11:33:40.
