data_PCOD9145733
_publ_section_title
;
Structure prediction by ZEFSAII (Michael W. Deem and Ramdas Pophale) SiO2 
 PCOD9145733
Probable space group: P 2/M
;
_chemical_formula_sum "Si O2"
_cell_formula_units_Z 28
_cell_length_a 13.469776
_cell_length_b 23.096379
_cell_length_c 5.230096
_cell_angle_alpha 90.000000
_cell_angle_beta 78.921748
_cell_angle_gamma 90.000000
_cell_volume 1596.778928
_symmetry_space_group_name_H-M "P 2/M"
_symmetry_group_IT_number 10
_symmetry_cell_setting 'monoclinic'
loop_
_space_group_symop_operation_xyz
x,y,z
-x,y,-z
-x,-y,-z
x,-y,z
loop_
_atom_site_type_symbol
_atom_site_label
_atom_site_fract_x
_atom_site_fract_y
_atom_site_fract_z
Si Si1 0.211122 0.734068 0.338958
Si Si2 0.877673 0.065913 0.056584
Si Si3 0.877375 0.139083 0.556547
Si Si4 0.356730 0.565071 0.348854
Si Si5 0.115371 0.317349 0.886577
Si Si6 0.216991 0.564513 0.918028
Si Si7 0.438830 0.309497 0.280965
O O1 0.180719 0.800600 0.392358
O O2 0.146993 0.699207 0.584297
O O3 0.327213 0.717468 0.330631
O O4 0.182489 0.715501 0.065471
O O5 0.850273 0.105302 0.311374
O O6 0.839446 0.000000 0.090767
O O7 0.851370 0.098010 0.807819
O O8 0.000000 0.062482 0.000000
O O9 0.000000 0.149486 0.500000
O O10 0.402178 0.500000 0.310315
O O11 0.297709 0.569691 0.646927
O O12 0.428196 0.620345 0.290632
O O13 0.276558 0.570311 0.156051
O O14 0.136982 0.384880 0.922464
O O15 0.000000 0.302065 0.000000
O O16 0.173032 0.500000 0.927555
O O17 0.500000 0.291543 0.500000
O O18 0.500000 0.292719 0.000000
#
# Coordination Sequence:
#
# PCOD9145733 Si02
#       7
#     4   4   4   4   4   4   4
#     4  12  24  40  55  81 116 145 187 236 268 325
#     4   9  17  30  50  79 115 151 184 216 251 301
#     4  10  19  32  52  79 113 152 183 213 261 314
#     4  10  20  37  58  78 103 132 172 231 293 349
#     4  12  22  36  58  80 107 148 184 222 276 330
#     4  10  19  35  55  76 104 137 175 224 275 330
#     4  12  24  39  60  80 105 142 185 231 295 343
#
# _framework density 17.535301
#
# number of rings (size 3 to 8) (size 9 to 14) (size 15 to 20)
#    0.000    1.286    2.857    4.286    0.000    3.714 
#    0.000    0.000    0.000    4.286    0.000    0.000 
#    0.000   11.429    0.000    0.000    0.000    0.000 
#
# Total GULP energy -156437.791780 kJ/mol
# GULP energy per Si atom -5587.063992 kJ/mol
# Density = 1.749539 g / cm^3
# Si number density = 17.535301 Si / 1000 Ang^3
#
#
#
# Elastic Constant Matrix: (Units=GPa)
#
#
# Indices 1 2 3 4 5 6 
#
# 1 51.0694 7.5034 10.0727 0.0000 -5.8629 0.0000
# 2 7.5034 98.6792 8.0420 0.0000 -1.8515 0.0000
# 3 10.0727 8.0420 69.1283 0.0000 2.2739 0.0000
# 4 0.0000 0.0000 0.0000 37.2059 0.0000 9.5835
# 5 -5.8629 -1.8515 2.2739 0.0000 22.2390 0.0000
# 6 0.0000 0.0000 0.0000 9.5835 0.0000 11.0869
#
#
#
# Elastic Compliance Matrix: (Units=1/GPa)
#
#
# Indices 1 2 3 4 5 6 
#
# 1 0.021038 -0.001238 -0.003111 0.000000 0.005761 0.000000
# 2 -0.001238 0.010325 -0.001042 0.000000 0.000640 0.000000
# 3 -0.003111 -0.001042 0.015121 0.000000 -0.002453 0.000000
# 4 0.000000 0.000000 0.000000 0.034576 0.000000 -0.029887
# 5 0.005761 0.000640 -0.002453 0.000000 0.046789 0.000000
# 6 0.000000 0.000000 0.000000 -0.029887 0.000000 0.116031
#
#
# Mechanical properties :
#
#
# Convention : Reuss Voigt Hill
#
# Bulk Modulus (GPa) = 28.00928 30.01255 29.01091
# Shear Modulus (GPa) = 18.75729 26.99027 22.87378
#
# Velocity S-wave (km/s) = 3.27416 3.92752 3.61562
# Velocity P-wave (km/s) = 5.50465 6.14165 5.83185
#
# Compressibility (1/GPa) = 0.03570246
#
# Stress axis : x y z
#
# Youngs Moduli (GPa) = 47.53273 96.85327 66.13300
#
# Poissons Ratio (x) = 0.11991 0.20574
# Poissons Ratio (y) = 0.05885 0.06890
# Poissons Ratio (z) = 0.14787 0.10090
#
# Static dielectric constant tensor:
#      x y z
#    x 1.572860 0.000000 0.005670 
#    y 0.000000 1.598310 0.000000 
#    z 0.005670 0.000000 1.596850 
# 
# From -- ./inp_files/7899.got.cif
#   From: 2010.05.17/outbox.cif.g08.bks.cpg/sg10_4_cif.got.tgz:7899.got - 2010.06.03 11:33:40.
