data_PCOD9145119
_publ_section_title
;
Structure prediction by ZEFSAII (Michael W. Deem and Ramdas Pophale) SiO2 
 PCOD9145119
Probable space group: P 2/M
;
_chemical_formula_sum "Si O2"
_cell_formula_units_Z 16
_cell_length_a 5.138763
_cell_length_b 10.925917
_cell_length_c 14.092227
_cell_angle_alpha 90.000000
_cell_angle_beta 78.975066
_cell_angle_gamma 90.000000
_cell_volume 776.615246
_symmetry_space_group_name_H-M "P 2/M"
_symmetry_group_IT_number 10
_symmetry_cell_setting 'monoclinic'
loop_
_space_group_symop_operation_xyz
x,y,z
-x,y,-z
-x,-y,-z
x,-y,z
loop_
_atom_site_type_symbol
_atom_site_label
_atom_site_fract_x
_atom_site_fract_y
_atom_site_fract_z
Si Si1 0.369215 0.248368 0.113662
Si Si2 0.349740 0.853714 0.733895
Si Si3 0.787444 0.500000 0.929754
Si Si4 0.933201 0.854596 0.608878
Si Si5 0.790181 0.000000 0.931534
O O1 0.595066 0.225092 0.175691
O O2 0.210533 0.374890 0.130584
O O3 0.500000 0.249362 0.000000
O O4 0.194054 0.124638 0.128624
O O5 0.626534 0.842892 0.656738
O O6 0.120939 0.807847 0.679893
O O7 0.319902 0.000000 0.760288
O O8 0.500000 0.500000 0.000000
O O9 0.000000 0.500000 0.000000
O O10 0.000000 0.804599 0.500000
O O11 0.995164 0.000000 0.601786
O O12 0.500000 0.000000 0.000000
O O13 0.000000 0.000000 0.000000
#
# Coordination Sequence:
#
# PCOD9145119 Si02
#       5
#     4   4   2   4   2
#     4  10  21  37  53  79 110 145 178 220 259 315
#     4  10  19  31  50  78 104 137 174 212 263 317
#     4  10  22  38  54  72 103 148 189 218 254 306
#     4   9  18  32  50  74 106 136 170 217 266 313
#     4  10  20  32  50  72 101 138 171 210 260 298
#
# _framework density 20.602221
#
# number of rings (size 3 to 8) (size 9 to 14) (size 15 to 20)
#    0.000    2.250    1.250    1.500    0.000   11.000 
#    0.000    0.000    0.000    0.000    0.000    5.250 
#    0.000    0.000    0.000    0.000    0.000    0.000 
#
# Total GULP energy -89380.389314 kJ/mol
# GULP energy per Si atom -5586.274332 kJ/mol
# Density = 2.055533 g / cm^3
# Si number density = 20.602221 Si / 1000 Ang^3
#
#
#
# Elastic Constant Matrix: (Units=GPa)
#
#
# Indices 1 2 3 4 5 6 
#
# 1 98.5476 23.4524 35.6161 0.0000 25.9416 0.0000
# 2 23.4524 135.6775 20.8886 0.0000 13.4453 0.0000
# 3 35.6161 20.8886 132.4353 0.0000 9.1849 0.0000
# 4 0.0000 0.0000 0.0000 1.4919 0.0000 3.9608
# 5 25.9416 13.4453 9.1849 0.0000 34.4929 0.0000
# 6 0.0000 0.0000 0.0000 3.9608 0.0000 15.1443
#
#
#
# Elastic Compliance Matrix: (Units=1/GPa)
#
#
# Indices 1 2 3 4 5 6 
#
# 1 0.013891 -0.001032 -0.002930 0.000000 -0.009265 0.000000
# 2 -0.001032 0.007881 -0.000822 0.000000 -0.002077 0.000000
# 3 -0.002930 -0.000822 0.008449 0.000000 0.000274 0.000000
# 4 0.000000 0.000000 0.000000 2.192873 0.000000 -0.573519
# 5 -0.009265 -0.002077 0.000274 0.000000 0.036696 0.000000
# 6 0.000000 0.000000 0.000000 -0.573519 0.000000 0.216028
#
#
# Mechanical properties :
#
#
# Convention : Reuss Voigt Hill
#
# Bulk Modulus (GPa) = 48.41690 58.50827 53.46258
# Shear Modulus (GPa) = 2.00620 29.33936 15.67278
#
# Velocity S-wave (km/s) = 0.98787 3.77780 2.76113
# Velocity P-wave (km/s) = 4.98528 6.89128 6.01426
#
# Compressibility (1/GPa) = 0.02065395
#
# Stress axis : x y z
#
# Youngs Moduli (GPa) = 71.99007 126.88574 118.35024
#
# Poissons Ratio (x) = 0.13092 0.34681
# Poissons Ratio (y) = 0.07428 0.09723
# Poissons Ratio (z) = 0.21096 0.10424
#
# Static dielectric constant tensor:
#      x y z
#    x 1.750380 0.000000 0.006920 
#    y 0.000000 1.806410 0.000000 
#    z 0.006920 0.000000 1.739690 
# 
# From -- ./inp_files/6240.got.cif
#   From: 2010.05.17/outbox.cif.g08.bks.cpg/sg10_4_cif.got.tgz:6240.got - 2010.06.03 11:33:40.
