data_PCOD9145548
_publ_section_title
;
Structure prediction by ZEFSAII (Michael W. Deem and Ramdas Pophale) SiO2 
 PCOD9145548
Probable space group: P 2/M
;
_chemical_formula_sum "Si O2"
_cell_formula_units_Z 32
_cell_length_a 15.917437
_cell_length_b 8.607526
_cell_length_c 27.929797
_cell_angle_alpha 90.000000
_cell_angle_beta 28.677665
_cell_angle_gamma 90.000000
_cell_volume 1836.340866
_symmetry_space_group_name_H-M "P 2/M"
_symmetry_group_IT_number 10
_symmetry_cell_setting 'monoclinic'
loop_
_space_group_symop_operation_xyz
x,y,z
-x,y,-z
-x,-y,-z
x,-y,z
loop_
_atom_site_type_symbol
_atom_site_label
_atom_site_fract_x
_atom_site_fract_y
_atom_site_fract_z
Si Si1 0.811376 0.185170 0.647813
Si Si2 0.556914 0.311782 0.854862
Si Si3 0.189059 0.687408 0.076265
Si Si4 0.189058 0.187408 0.734677
Si Si5 0.189437 0.312939 0.186437
Si Si6 0.810559 0.187061 0.375875
Si Si7 0.811389 0.685169 0.540800
Si Si8 0.443087 0.188217 0.411776
O O1 0.659655 0.241175 0.758959
O O2 0.784115 0.250013 0.607942
O O3 0.999996 0.249987 0.570386
O O4 0.820167 0.000000 0.641872
O O5 0.562945 0.500000 0.848502
O O6 0.661657 0.265912 0.850741
O O7 0.355185 0.263721 0.961802
O O8 0.183497 0.500000 0.078878
O O9 0.219661 0.737227 0.116379
O O10 0.000001 0.750000 0.155698
O O11 0.219663 0.237226 0.663960
O O12 0.355183 0.236279 0.683015
O O13 0.183494 0.000000 0.737628
O O14 0.183923 0.500000 0.189166
O O15 0.999997 0.250001 0.296270
O O16 0.661649 0.234087 0.487604
O O17 0.816075 0.000000 0.373089
O O18 0.820203 0.500000 0.537930
O O19 0.659663 0.741176 0.581379
O O20 0.437056 0.000000 0.411447
#
# Coordination Sequence:
#
# PCOD9145548 Si02
#       8
#     4   4   4   4   4   4   4   4
#     4  11  22  37  56  78 104 131 161 199 247 300
#     4  10  19  32  51  74 101 134 171 208 249 296
#     4   9  18  32  49  70 100 137 174 211 248 289
#     4   9  18  32  49  70 100 137 174 211 248 289
#     4   9  17  29  46  70 101 136 170 204 245 292
#     4   9  17  29  46  70 101 136 170 204 245 292
#     4  11  22  37  56  78 104 131 161 199 247 300
#     4  10  19  32  51  74 101 134 171 208 249 296
#
# _framework density 17.42596
#
# number of rings (size 3 to 8) (size 9 to 14) (size 15 to 20)
#    0.000    2.250    0.000    4.500    0.000    7.000 
#    0.000    0.000    0.000    8.250    0.000    5.250 
#    0.000    0.000    0.000    0.000    0.000    0.000 
#
# Total GULP energy -178601.638314 kJ/mol
# GULP energy per Si atom -5581.301197 kJ/mol
# Density = 1.738630 g / cm^3
# Si number density = 17.425960 Si / 1000 Ang^3
#
#
#
# Elastic Constant Matrix: (Units=GPa)
#
#
# Indices 1 2 3 4 5 6 
#
# 1 101.8989 34.5773 76.3148 0.0000 -26.4705 0.0000
# 2 34.5773 48.3543 43.6621 0.0000 -6.7574 0.0000
# 3 76.3148 43.6621 160.3345 0.0000 -16.9775 0.0000
# 4 0.0000 0.0000 0.0000 26.1407 0.0000 -2.4144
# 5 -26.4705 -6.7574 -16.9775 0.0000 23.5356 0.0000
# 6 0.0000 0.0000 0.0000 -2.4144 0.0000 22.8931
#
#
#
# Elastic Compliance Matrix: (Units=1/GPa)
#
#
# Indices 1 2 3 4 5 6 
#
# 1 0.021714 -0.007181 -0.006509 0.000000 0.017665 0.000000
# 2 -0.007181 0.029958 -0.005072 0.000000 -0.003134 0.000000
# 3 -0.006509 -0.005072 0.010596 0.000000 -0.001133 0.000000
# 4 0.000000 0.000000 0.000000 0.038631 0.000000 0.004074
# 5 0.017665 -0.003134 -0.001133 0.000000 0.060639 0.000000
# 6 0.000000 0.000000 0.000000 0.004074 0.000000 0.044111
#
#
# Mechanical properties :
#
#
# Convention : Reuss Voigt Hill
#
# Bulk Modulus (GPa) = 40.41483 68.85512 54.63497
# Shear Modulus (GPa) = 19.88695 24.91610 22.40152
#
# Velocity S-wave (km/s) = 3.38187 3.78541 3.58931
# Velocity P-wave (km/s) = 6.20419 7.66188 6.97124
#
# Compressibility (1/GPa) = 0.02474339
#
# Stress axis : x y z
#
# Youngs Moduli (GPa) = 46.05272 33.38061 94.37229
#
# Poissons Ratio (x) = 0.23971 0.61430
# Poissons Ratio (y) = 0.33072 0.47864
# Poissons Ratio (z) = 0.29977 0.16930
#
# Static dielectric constant tensor:
#      x y z
#    x 1.583030 0.000000 -0.002580 
#    y 0.000000 1.591720 0.000000 
#    z -0.002580 0.000000 1.586490 
# 
# From -- ./inp_files/93127.got.cif
#   From: 2010.05.17/outbox.cif.g08.bks.cpg/sg10_47_cif.got.tgz:93127.got - 2010.06.03 11:33:40.
