data_PCOD9145761
_publ_section_title
;
Structure prediction by ZEFSAII (Michael W. Deem and Ramdas Pophale) SiO2 
 PCOD9145761
Probable space group: P 2/M
;
_chemical_formula_sum "Si O2"
_cell_formula_units_Z 32
_cell_length_a 18.265945
_cell_length_b 10.794837
_cell_length_c 17.811245
_cell_angle_alpha 90.000000
_cell_angle_beta 151.398854
_cell_angle_gamma 90.000000
_cell_volume 1681.219755
_symmetry_space_group_name_H-M "P 2/M"
_symmetry_group_IT_number 10
_symmetry_cell_setting 'monoclinic'
loop_
_space_group_symop_operation_xyz
x,y,z
-x,y,-z
-x,-y,-z
x,-y,z
loop_
_atom_site_type_symbol
_atom_site_label
_atom_site_fract_x
_atom_site_fract_y
_atom_site_fract_z
Si Si1 0.676665 0.359615 0.824017
Si Si2 0.772584 0.855894 0.448239
Si Si3 0.394388 0.355604 0.471462
Si Si4 0.630766 0.852743 0.173504
Si Si5 0.888766 0.752096 0.707254
Si Si6 0.126346 0.859590 0.733103
Si Si7 0.828080 0.362714 0.113997
Si Si8 0.896772 0.137755 0.981522
O O1 0.726233 0.500000 0.845783
O O2 0.502717 0.347108 0.641694
O O3 0.701776 0.351660 0.935465
O O4 0.778138 0.251081 0.879186
O O5 0.657974 0.802048 0.281962
O O6 0.795748 0.798730 0.551072
O O7 0.943306 0.850850 0.566210
O O8 0.733489 0.000000 0.423773
O O9 0.500000 0.302952 0.500000
O O10 0.367558 0.500000 0.429986
O O11 0.232920 0.295398 0.342253
O O12 0.787808 0.843984 0.268087
O O13 0.597626 0.000000 0.152967
O O14 0.500000 0.801792 0.000000
O O15 0.009825 0.652546 0.784039
O O16 0.995920 0.849075 0.847877
O O17 0.181147 0.751566 0.837814
O O18 0.163290 0.000000 0.793520
O O19 0.820714 0.500000 0.141778
O O20 0.825984 0.000000 0.917518
O O21 0.000000 0.148889 0.000000
#
# Coordination Sequence:
#
# PCOD9145761 Si02
#       8
#     4   4   4   4   4   4   4   4
#     4   9  19  34  51  73  99 131 172 212 255 309
#     4   9  17  30  48  70  97 129 167 209 249 295
#     4  10  20  34  52  74 100 132 174 222 266 312
#     4   9  17  29  47  73 101 128 164 208 248 290
#     4  10  19  32  53  75 101 134 174 213 259 313
#     4   9  17  30  51  75  99 130 167 205 247 296
#     4   9  18  32  51  75 103 134 169 212 258 303
#     4  10  20  34  52  75 103 133 167 211 261 311
#
# _framework density 19.033799999999999
#
# number of rings (size 3 to 8) (size 9 to 14) (size 15 to 20)
#    0.000    2.625    0.000    1.875    0.000    6.250 
#    0.000    1.250    0.000   10.500    0.000    0.000 
#    0.000    0.000    0.000    0.000    0.000    0.000 
#
# Total GULP energy -178209.444889 kJ/mol
# GULP energy per Si atom -5569.045153 kJ/mol
# Density = 1.899048 g / cm^3
# Si number density = 19.033800 Si / 1000 Ang^3
#
#
#
# Elastic Constant Matrix: (Units=GPa)
#
#
# Indices 1 2 3 4 5 6 
#
# 1 39.8664 7.9919 13.4777 0.0000 -9.5567 0.0000
# 2 7.9919 86.5904 11.3403 0.0000 -6.2681 0.0000
# 3 13.4777 11.3403 44.8952 0.0000 -22.5499 0.0000
# 4 0.0000 0.0000 0.0000 12.8736 0.0000 -4.7405
# 5 -9.5567 -6.2681 -22.5499 0.0000 29.0805 0.0000
# 6 0.0000 0.0000 0.0000 -4.7405 0.0000 13.7668
#
#
#
# Elastic Compliance Matrix: (Units=1/GPa)
#
#
# Indices 1 2 3 4 5 6 
#
# 1 0.028457 -0.001529 -0.005937 0.000000 0.004418 0.000000
# 2 -0.001529 0.012029 -0.002505 0.000000 0.000148 0.000000
# 3 -0.005937 -0.002505 0.038390 0.000000 0.027278 0.000000
# 4 0.000000 0.000000 0.000000 0.088958 0.000000 0.030632
# 5 0.004418 0.000148 0.027278 0.000000 0.057023 0.000000
# 6 0.000000 0.000000 0.000000 0.030632 0.000000 0.083186
#
#
# Mechanical properties :
#
#
# Convention : Reuss Voigt Hill
#
# Bulk Modulus (GPa) = 16.96863 26.33020 21.64942
# Shear Modulus (GPa) = 14.38307 20.38030 17.38168
#
# Velocity S-wave (km/s) = 2.75191 3.27577 3.02520
# Velocity P-wave (km/s) = 4.36253 5.30763 4.85812
#
# Compressibility (1/GPa) = 0.05893227
#
# Stress axis : x y z
#
# Youngs Moduli (GPa) = 35.14113 83.13572 26.04813
#
# Poissons Ratio (x) = 0.12712 0.15466
# Poissons Ratio (y) = 0.05373 0.06526
# Poissons Ratio (z) = 0.20865 0.20827
#
# Static dielectric constant tensor:
#      x y z
#    x 1.674140 0.000000 -0.022770 
#    y 0.000000 1.658630 0.000000 
#    z -0.022770 0.000000 1.690590 
# 
# From -- ./inp_files/78945.got.cif
#   From: 2010.05.17/outbox.cif.g08.bks.cpg/sg10_40_cif.got.tgz:78945.got - 2010.06.03 11:33:40.
