data_PCOD9145060
_publ_section_title
;
Structure prediction by ZEFSAII (Michael W. Deem and Ramdas Pophale) SiO2 
 PCOD9145060
Probable space group: P 2/M
;
_chemical_formula_sum "Si O2"
_cell_formula_units_Z 26
_cell_length_a 5.253443
_cell_length_b 34.003807
_cell_length_c 7.072557
_cell_angle_alpha 90.000000
_cell_angle_beta 82.420872
_cell_angle_gamma 90.000000
_cell_volume 1252.383120
_symmetry_space_group_name_H-M "P 2/M"
_symmetry_group_IT_number 10
_symmetry_cell_setting 'monoclinic'
loop_
_space_group_symop_operation_xyz
x,y,z
-x,y,-z
-x,-y,-z
x,-y,z
loop_
_atom_site_type_symbol
_atom_site_label
_atom_site_fract_x
_atom_site_fract_y
_atom_site_fract_z
Si Si1 0.728639 0.415173 0.130367
Si Si2 0.274869 0.500000 0.865408
Si Si3 0.573896 0.955325 0.767708
Si Si4 0.771341 0.663101 0.369729
Si Si5 0.927585 0.916170 0.222587
Si Si6 0.226471 0.167001 0.632490
Si Si7 0.774026 0.252116 0.365651
O O1 0.698312 0.457596 0.237951
O O2 0.749384 0.376050 0.250268
O O3 0.500000 0.411508 0.000000
O O4 0.000000 0.417797 0.000000
O O5 0.500000 0.500000 0.000000
O O6 0.000000 0.500000 0.000000
O O7 0.308050 0.943730 0.695325
O O8 0.804769 0.925330 0.700881
O O9 0.653662 0.000000 0.722362
O O10 0.500000 0.953053 0.000000
O O11 0.500000 0.665983 0.500000
O O12 0.802140 0.705507 0.262100
O O13 0.000000 0.659301 0.500000
O O14 0.828584 0.871617 0.241531
O O15 0.000000 0.925500 0.000000
O O16 0.500000 0.163605 0.500000
O O17 0.215179 0.209672 0.736259
O O18 0.000000 0.167420 0.500000
O O19 0.500000 0.251753 0.500000
O O20 0.000000 0.252220 0.500000
#
# Coordination Sequence:
#
# PCOD9145060 Si02
#       7
#     4   2   4   4   4   4   4
#     4  10  19  33  52  74 101 135 173 209 251 304
#     4   8  16  30  48  68  96 136 172 200 242 308
#     4   9  17  30  49  71  94 123 157 189 227 281
#     4  10  19  33  52  75 101 130 167 213 257 295
#     4  10  19  31  50  74  96 118 153 200 238 268
#     4  10  19  33  52  71  94 128 163 191 230 291
#     4   8  16  30  49  69  92 126 163 193 232 294
#
# _framework density 20.760421000000001
#
# number of rings (size 3 to 8) (size 9 to 14) (size 15 to 20)
#    0.000    2.615    0.000    2.308    0.000    1.846 
#    0.000    1.538    0.000   12.000    0.000    0.000 
#    0.000    0.000    0.000    0.000    0.000    0.000 
#
# Total GULP energy -144820.280017 kJ/mol
# GULP energy per Si atom -5570.010770 kJ/mol
# Density = 2.071317 g / cm^3
# Si number density = 20.760421 Si / 1000 Ang^3
#
#
#
# Elastic Constant Matrix: (Units=GPa)
#
#
# Indices 1 2 3 4 5 6 
#
# 1 162.9313 35.6775 17.6985 0.0000 -5.5041 0.0000
# 2 35.6775 174.9693 2.4635 0.0000 -17.2368 0.0000
# 3 17.6985 2.4635 14.0338 0.0000 -1.1784 0.0000
# 4 0.0000 0.0000 0.0000 25.1428 0.0000 0.8042
# 5 -5.5041 -17.2368 -1.1784 0.0000 16.2094 0.0000
# 6 0.0000 0.0000 0.0000 0.8042 0.0000 33.3375
#
#
#
# Elastic Compliance Matrix: (Units=1/GPa)
#
#
# Indices 1 2 3 4 5 6 
#
# 1 0.007436 -0.001345 -0.009105 0.000000 0.000432 0.000000
# 2 -0.001345 0.006632 0.001093 0.000000 0.006675 0.000000
# 3 -0.009105 0.001093 0.082891 0.000000 0.004097 0.000000
# 4 0.000000 0.000000 0.000000 0.039804 0.000000 -0.000960
# 5 0.000432 0.006675 0.004097 0.000000 0.069235 0.000000
# 6 0.000000 0.000000 0.000000 -0.000960 0.000000 0.030019
#
#
# Mechanical properties :
#
#
# Convention : Reuss Voigt Hill
#
# Bulk Modulus (GPa) = 12.78050 51.51259 32.14654
# Shear Modulus (GPa) = 17.80544 34.67761 26.24152
#
# Velocity S-wave (km/s) = 2.93176 4.09145 3.55916
# Velocity P-wave (km/s) = 4.19879 6.86926 5.69283
#
# Compressibility (1/GPa) = 0.07824421
#
# Stress axis : x y z
#
# Youngs Moduli (GPa) = 134.48420 150.78872 12.06397
#
# Poissons Ratio (x) = 0.20288 0.10984
# Poissons Ratio (y) = 0.18094 -0.01319
# Poissons Ratio (z) = 1.22449 -0.16483
#
# Static dielectric constant tensor:
#      x y z
#    x 1.417490 0.000000 0.599650 
#    y 0.000000 1.838850 0.000000 
#    z 0.599650 0.000000 0.611680 
# 
# From -- ./inp_files/15718.got.cif
#   From: 2010.05.17/outbox.cif.g08.bks.cpg/sg10_8_cif.got.tgz:15718.got - 2010.06.03 11:33:40.
