data_PCOD9145277
_publ_section_title
;
Structure prediction by ZEFSAII (Michael W. Deem and Ramdas Pophale) SiO2 
 PCOD9145277
Probable space group: P 2/M
;
_chemical_formula_sum "Si O2"
_cell_formula_units_Z 18
_cell_length_a 5.404738
_cell_length_b 19.770997
_cell_length_c 7.806972
_cell_angle_alpha 90.000000
_cell_angle_beta 59.477074
_cell_angle_gamma 90.000000
_cell_volume 718.627475
_symmetry_space_group_name_H-M "P 2/M"
_symmetry_group_IT_number 10
_symmetry_cell_setting 'monoclinic'
loop_
_space_group_symop_operation_xyz
x,y,z
-x,y,-z
-x,-y,-z
x,-y,z
loop_
_atom_site_type_symbol
_atom_site_label
_atom_site_fract_x
_atom_site_fract_y
_atom_site_fract_z
Si Si1 0.344915 0.423108 0.741750
Si Si2 0.438560 0.854011 0.774927
Si Si3 0.849978 0.644202 0.740039
Si Si4 0.929332 0.797890 0.776647
Si Si5 0.650932 0.000000 0.631867
O O1 0.500000 0.418025 0.500000
O O2 0.382520 0.500000 0.788299
O O3 0.520408 0.373177 0.806770
O O4 0.016349 0.407147 0.806719
O O5 0.732060 0.812615 0.682672
O O6 0.232082 0.835442 0.690163
O O7 0.530698 0.931728 0.758210
O O8 0.251271 0.829436 0.002309
O O9 0.926503 0.717425 0.790508
O O10 0.000000 0.641744 0.500000
O O11 0.500000 0.000000 0.500000
O O12 0.000000 0.000000 0.500000
#
# Coordination Sequence:
#
# PCOD9145277 Si02
#       5
#     4   4   4   4   2
#     4   9  17  30  49  78 119 162 202 248 300 349
#     4  10  23  41  62  88 117 158 197 237 296 366
#     4  10  19  31  52  85 120 154 201 253 295 341
#     4  10  21  38  61  88 120 160 202 244 293 359
#     4  12  26  44  66  94 123 150 190 248 305 359
#
# _framework density 25.047747000000001
#
# number of rings (size 3 to 8) (size 9 to 14) (size 15 to 20)
#    0.000    2.000    0.000    3.333    0.000    8.889 
#    0.000    0.000    0.000    0.000    0.000   62.222 
#    0.000    0.000    0.000    0.000    0.000    4.444 
#
# Total GULP energy -100673.628020 kJ/mol
# GULP energy per Si atom -5592.979334 kJ/mol
# Density = 2.499074 g / cm^3
# Si number density = 25.047747 Si / 1000 Ang^3
#
#
#
# Elastic Constant Matrix: (Units=GPa)
#
#
# Indices 1 2 3 4 5 6 
#
# 1 222.1447 42.1991 33.0978 0.0000 -26.8015 0.0000
# 2 42.1991 117.0413 -11.5934 0.0000 -0.7829 0.0000
# 3 33.0978 -11.5934 86.4143 0.0000 2.8673 0.0000
# 4 0.0000 0.0000 0.0000 35.8763 0.0000 3.0803
# 5 -26.8015 -0.7829 2.8673 0.0000 45.5537 0.0000
# 6 0.0000 0.0000 0.0000 3.0803 0.0000 53.1683
#
#
#
# Elastic Compliance Matrix: (Units=1/GPa)
#
#
# Indices 1 2 3 4 5 6 
#
# 1 0.005757 -0.002313 -0.002632 0.000000 0.003513 0.000000
# 2 -0.002313 0.009589 0.002217 0.000000 -0.001335 0.000000
# 3 -0.002632 0.002217 0.012955 0.000000 -0.002326 0.000000
# 4 0.000000 0.000000 0.000000 0.028013 0.000000 -0.001623
# 5 0.003513 -0.001335 -0.002326 0.000000 0.024142 0.000000
# 6 0.000000 0.000000 0.000000 -0.001623 0.000000 0.018902
#
#
# Mechanical properties :
#
#
# Convention : Reuss Voigt Hill
#
# Bulk Modulus (GPa) = 43.77529 61.44523 52.61026
# Shear Modulus (GPa) = 44.47276 51.04613 47.75945
#
# Velocity S-wave (km/s) = 4.21826 4.51927 4.37136
# Velocity P-wave (km/s) = 6.42181 7.19835 6.82114
#
# Compressibility (1/GPa) = 0.02284394
#
# Stress axis : x y z
#
# Youngs Moduli (GPa) = 173.70542 104.29156 77.19195
#
# Poissons Ratio (x) = 0.24121 0.20315
# Poissons Ratio (y) = 0.40175 -0.17110
# Poissons Ratio (z) = 0.45716 -0.23117
#
# Static dielectric constant tensor:
#      x y z
#    x 2.765210 0.000000 0.127690 
#    y 0.000000 1.931090 0.000000 
#    z 0.127690 0.000000 2.014990 
# 
# From -- ./inp_files/14661.got.cif
#   From: 2010.05.17/outbox.cif.g08.bks.cpg/sg10_8_cif.got.tgz:14661.got - 2010.06.03 11:33:40.
