data_PCOD9145690
_publ_section_title
;
Structure prediction by ZEFSAII (Michael W. Deem and Ramdas Pophale) SiO2 
 PCOD9145690
Probable space group: P 2/M
;
_chemical_formula_sum "Si O2"
_cell_formula_units_Z 32
_cell_length_a 14.965391
_cell_length_b 13.504432
_cell_length_c 9.442159
_cell_angle_alpha 90.000000
_cell_angle_beta 56.996785
_cell_angle_gamma 90.000000
_cell_volume 1600.336371
_symmetry_space_group_name_H-M "P 2/M"
_symmetry_group_IT_number 10
_symmetry_cell_setting 'monoclinic'
loop_
_space_group_symop_operation_xyz
x,y,z
-x,y,-z
-x,-y,-z
x,-y,z
loop_
_atom_site_type_symbol
_atom_site_label
_atom_site_fract_x
_atom_site_fract_y
_atom_site_fract_z
Si Si1 0.905717 0.887352 0.734079
Si Si2 0.821003 0.180038 0.090258
Si Si3 0.290313 0.117287 0.281007
Si Si4 0.878830 0.882326 0.344769
Si Si5 0.410496 0.778511 0.673260
Si Si6 0.550085 0.286477 0.815309
Si Si7 0.319353 0.614537 0.538330
Si Si8 0.872324 0.610925 0.103214
O O1 0.802687 0.845072 0.744398
O O2 0.025658 0.845311 0.635580
O O3 0.910728 0.000000 0.675564
O O4 0.875251 0.884750 0.925107
O O5 0.876380 0.165396 0.193609
O O6 0.695899 0.159019 0.211044
O O7 0.833887 0.296549 0.043244
O O8 0.234814 0.130148 0.482286
O O9 0.392408 0.185505 0.185054
O O10 0.310709 0.000000 0.240042
O O11 0.896143 0.000000 0.314153
O O12 0.500000 0.831011 0.500000
O O13 0.460613 0.741440 0.776559
O O14 0.375278 0.684758 0.606586
O O15 0.639135 0.347908 0.649699
O O16 0.500000 0.333798 0.000000
O O17 0.350092 0.500000 0.527887
O O18 0.193986 0.621361 0.691069
O O19 0.845420 0.500000 0.074069
O O20 0.000000 0.616974 0.000000
#
# Coordination Sequence:
#
# PCOD9145690 Si02
#       8
#     4   4   4   4   4   4   4   4
#     4  10  20  33  51  76 105 135 169 213 265 319
#     4  11  19  31  52  78 106 134 169 216 268 313
#     4  10  21  37  54  72 101 142 181 214 257 316
#     4  10  19  32  52  78 104 132 170 216 264 315
#     4   9  19  34  52  73 103 137 176 221 262 305
#     4  11  22  36  54  77 107 142 183 228 264 303
#     4   9  19  36  58  82 108 139 175 218 270 321
#     4   9  17  30  51  80 109 136 168 206 253 315
#
# _framework density 19.995795999999999
#
# number of rings (size 3 to 8) (size 9 to 14) (size 15 to 20)
#    0.000    2.125    0.000    4.875    0.000    5.250 
#    0.000    1.250    0.000    8.625    0.000    0.000 
#    0.000   38.000    0.000    0.000    0.000    0.000 
#
# Total GULP energy -178348.982813 kJ/mol
# GULP energy per Si atom -5573.405713 kJ/mol
# Density = 1.995028 g / cm^3
# Si number density = 19.995796 Si / 1000 Ang^3
#
#
#
# Elastic Constant Matrix: (Units=GPa)
#
#
# Indices 1 2 3 4 5 6 
#
# 1 75.8169 5.7233 33.4703 0.0000 -8.3419 0.0000
# 2 5.7233 46.0128 16.0621 0.0000 -7.9972 0.0000
# 3 33.4703 16.0621 88.0989 0.0000 -9.0441 0.0000
# 4 0.0000 0.0000 0.0000 19.7363 0.0000 -4.2540
# 5 -8.3419 -7.9972 -9.0441 0.0000 38.4136 0.0000
# 6 0.0000 0.0000 0.0000 -4.2540 0.0000 11.2319
#
#
#
# Elastic Compliance Matrix: (Units=1/GPa)
#
#
# Indices 1 2 3 4 5 6 
#
# 1 0.016019 0.000461 -0.005947 0.000000 0.002175 0.000000
# 2 0.000461 0.023818 -0.004097 0.000000 0.004094 0.000000
# 3 -0.005947 -0.004097 0.014487 0.000000 0.001266 0.000000
# 4 0.000000 0.000000 0.000000 0.055172 0.000000 0.020896
# 5 0.002175 0.004094 0.001266 0.000000 0.027655 0.000000
# 6 0.000000 0.000000 0.000000 0.020896 0.000000 0.096946
#
#
# Mechanical properties :
#
#
# Convention : Reuss Voigt Hill
#
# Bulk Modulus (GPa) = 28.44273 35.60445 32.02359
# Shear Modulus (GPa) = 18.86911 24.18787 21.52849
#
# Velocity S-wave (km/s) = 3.07523 3.48177 3.28480
# Velocity P-wave (km/s) = 5.18311 5.83166 5.51692
#
# Compressibility (1/GPa) = 0.03515837
#
# Stress axis : x y z
#
# Youngs Moduli (GPa) = 62.42399 41.98577 69.02607
#
# Poissons Ratio (x) = -0.01937 0.41049
# Poissons Ratio (y) = -0.02880 0.28283
# Poissons Ratio (z) = 0.37123 0.17203
#
# Static dielectric constant tensor:
#      x y z
#    x 1.732970 0.000000 -0.036230 
#    y 0.000000 1.713930 0.000000 
#    z -0.036230 0.000000 1.763590 
# 
# From -- ./inp_files/29506.got.cif
#   From: 2010.05.17/outbox.cif.g08.bks.cpg/sg10_15_cif.got.tgz:29506.got - 2010.06.03 11:33:40.
