data_PCOD9145730
_publ_section_title
;
Structure prediction by ZEFSAII (Michael W. Deem and Ramdas Pophale) SiO2 
 PCOD9145730
Probable space group: P 2/M
;
_chemical_formula_sum "Si O2"
_cell_formula_units_Z 28
_cell_length_a 14.703369
_cell_length_b 9.097636
_cell_length_c 14.546980
_cell_angle_alpha 90.000000
_cell_angle_beta 59.704184
_cell_angle_gamma 90.000000
_cell_volume 1680.144334
_symmetry_space_group_name_H-M "P 2/M"
_symmetry_group_IT_number 10
_symmetry_cell_setting 'monoclinic'
loop_
_space_group_symop_operation_xyz
x,y,z
-x,y,-z
-x,-y,-z
x,-y,z
loop_
_atom_site_type_symbol
_atom_site_label
_atom_site_fract_x
_atom_site_fract_y
_atom_site_fract_z
Si Si1 0.266433 0.673399 0.937875
Si Si2 0.503281 0.677361 0.106863
Si Si3 0.073836 0.828240 0.694406
Si Si4 0.113902 0.324056 0.486359
Si Si5 0.105820 0.822874 0.889547
Si Si6 0.828999 0.835968 0.849559
Si Si7 0.295541 0.829817 0.275586
O O1 0.265543 0.500000 0.921419
O O2 0.385285 0.718417 0.903940
O O3 0.208551 0.756787 0.885173
O O4 0.198579 0.714532 0.062275
O O5 0.493641 0.500000 0.114114
O O6 0.407300 0.749838 0.210497
O O7 0.500000 0.720427 0.000000
O O8 0.117495 0.732057 0.589260
O O9 0.100281 0.781286 0.785020
O O10 0.947196 0.821125 0.753705
O O11 0.104363 0.000000 0.667259
O O12 0.121536 0.500000 0.477711
O O13 0.209667 0.251060 0.382133
O O14 0.000000 0.281517 0.500000
O O15 0.108230 0.000000 0.892167
O O16 0.000000 0.777050 0.000000
O O17 0.751528 0.827231 0.803468
O O18 0.820584 0.000000 0.896961
O O19 0.306434 0.000000 0.297995
#
# Coordination Sequence:
#
# PCOD9145730 Si02
#       7
#     4   4   4   4   4   4   4
#     4  11  22  34  53  80 112 149 183 222 271 326
#     4  10  21  37  54  77 113 149 180 222 277 329
#     4  10  20  36  56  78 110 149 185 224 268 319
#     4  11  23  36  54  81 114 148 180 221 275 329
#     4  10  20  36  56  79 110 147 183 224 275 321
#     4  10  19  32  52  79 112 145 181 224 265 318
#     4  11  22  35  56  82 109 145 187 228 268 319
#
# _framework density 16.665234000000002
#
# number of rings (size 3 to 8) (size 9 to 14) (size 15 to 20)
#    0.000    1.571    4.286    1.286    0.000    4.000 
#    0.000    0.000    0.000    0.857    0.000    6.000 
#    0.000    0.000    0.000    0.000    0.000    0.000 
#
# Total GULP energy -156252.048724 kJ/mol
# GULP energy per Si atom -5580.430312 kJ/mol
# Density = 1.662730 g / cm^3
# Si number density = 16.665234 Si / 1000 Ang^3
#
#
#
# Elastic Constant Matrix: (Units=GPa)
#
#
# Indices 1 2 3 4 5 6 
#
# 1 90.7501 32.7978 35.7457 0.0000 -3.0164 0.0000
# 2 32.7978 39.3677 41.2805 0.0000 -3.7148 0.0000
# 3 35.7457 41.2805 94.8893 0.0000 -2.8806 0.0000
# 4 0.0000 0.0000 0.0000 30.0812 0.0000 -2.6854
# 5 -3.0164 -3.7148 -2.8806 0.0000 26.4415 0.0000
# 6 0.0000 0.0000 0.0000 -2.6854 0.0000 22.8650
#
#
#
# Elastic Compliance Matrix: (Units=1/GPa)
#
#
# Indices 1 2 3 4 5 6 
#
# 1 0.015775 -0.012712 -0.000413 0.000000 -0.000031 0.000000
# 2 -0.012712 0.057460 -0.020074 0.000000 0.004435 0.000000
# 3 -0.000413 -0.020074 0.019404 0.000000 -0.000753 0.000000
# 4 0.000000 0.000000 0.000000 0.033596 0.000000 0.003946
# 5 -0.000031 0.004435 -0.000753 0.000000 0.038357 0.000000
# 6 0.000000 0.000000 0.000000 0.003946 0.000000 0.044198
#
#
# Mechanical properties :
#
#
# Convention : Reuss Voigt Hill
#
# Bulk Modulus (GPa) = 38.10854 49.40613 43.75733
# Shear Modulus (GPa) = 17.60962 23.55641 20.58302
#
# Velocity S-wave (km/s) = 3.25417 3.76374 3.51819
# Velocity P-wave (km/s) = 6.08574 6.97124 6.54349
#
# Compressibility (1/GPa) = 0.02624083
#
# Stress axis : x y z
#
# Youngs Moduli (GPa) = 63.39019 17.40349 51.53479
#
# Poissons Ratio (x) = 0.22123 0.02131
# Poissons Ratio (y) = 0.80582 1.03450
# Poissons Ratio (z) = 0.02621 0.34935
#
# Static dielectric constant tensor:
#      x y z
#    x 1.560200 0.000000 0.008710 
#    y 0.000000 1.570160 0.000000 
#    z 0.008710 0.000000 1.538580 
# 
# From -- ./inp_files/49536.got.cif
#   From: 2010.05.17/outbox.cif.g08.bks.cpg/sg10_25_cif.got.tgz:49536.got - 2010.06.03 11:33:40.
