data_PCOD9145248
_publ_section_title
;
Structure prediction by ZEFSAII (Michael W. Deem and Ramdas Pophale) SiO2 
 PCOD9145248
Probable space group: P 2/M
;
_chemical_formula_sum "Si O2"
_cell_formula_units_Z 32
_cell_length_a 31.037528
_cell_length_b 9.529098
_cell_length_c 11.226518
_cell_angle_alpha 90.000000
_cell_angle_beta 148.374590
_cell_angle_gamma 90.000000
_cell_volume 1741.071149
_symmetry_space_group_name_H-M "P 2/M"
_symmetry_group_IT_number 10
_symmetry_cell_setting 'monoclinic'
loop_
_space_group_symop_operation_xyz
x,y,z
-x,y,-z
-x,-y,-z
x,-y,z
loop_
_atom_site_type_symbol
_atom_site_label
_atom_site_fract_x
_atom_site_fract_y
_atom_site_fract_z
Si Si1 0.171330 0.837735 0.640724
Si Si2 0.673173 0.666342 0.408308
Si Si3 0.752291 0.842744 0.928392
Si Si4 0.465155 0.333366 0.287859
Si Si5 0.419059 0.836820 0.610421
Si Si6 0.840530 0.664641 0.946161
Si Si7 0.708551 0.334298 0.222620
Si Si8 0.001402 0.168508 0.645019
O O1 0.211085 0.746633 0.630879
O O2 0.083734 0.794010 0.489845
O O3 0.164363 0.000000 0.587425
O O4 0.234069 0.830656 0.899885
O O5 0.653054 0.500000 0.371622
O O6 0.611197 0.757337 0.342017
O O7 0.765264 0.685781 0.677488
O O8 0.676853 0.706585 0.279034
O O9 0.659696 0.832319 0.664134
O O10 0.804509 0.725479 0.984538
O O11 0.783264 0.000000 0.967096
O O12 0.500000 0.295459 0.500000
O O13 0.481186 0.500000 0.307131
O O14 0.509792 0.245172 0.290509
O O15 0.367805 0.311704 0.046336
O O16 0.438555 0.000000 0.678879
O O17 0.858284 0.500000 0.995263
O O18 0.922447 0.752400 0.115866
O O19 0.726090 0.500000 0.268035
O O20 0.000000 0.203793 0.500000
O O21 0.010751 0.000000 0.674316
#
# Coordination Sequence:
#
# PCOD9145248 Si02
#       8
#     4   4   4   4   4   4   4   4
#     4  10  20  34  54  78 106 141 177 217 269 322
#     4   9  20  39  57  75 106 147 187 222 265 317
#     4   9  17  32  51  75 109 144 173 209 269 331
#     4  10  21  37  57  82 113 144 176 218 274 330
#     4  10  20  33  56  85 109 140 182 227 269 311
#     4  10  19  31  52  80 106 135 177 226 263 304
#     4  10  22  39  57  76 104 146 185 221 268 322
#     4  10  19  34  54  78 112 146 172 210 271 333
#
# _framework density 18.379489
#
# number of rings (size 3 to 8) (size 9 to 14) (size 15 to 20)
#    0.000    2.250    1.250    1.500    0.000    4.000 
#    0.000    3.125    0.000    3.750    0.000    0.000 
#    0.000    0.000    0.000    0.000    0.000    0.000 
#
# Total GULP energy -178529.769367 kJ/mol
# GULP energy per Si atom -5579.055293 kJ/mol
# Density = 1.833766 g / cm^3
# Si number density = 18.379489 Si / 1000 Ang^3
#
#
#
# Elastic Constant Matrix: (Units=GPa)
#
#
# Indices 1 2 3 4 5 6 
#
# 1 103.4168 59.2871 32.5974 0.0000 22.7611 0.0000
# 2 59.2871 60.8596 35.7380 0.0000 15.8622 0.0000
# 3 32.5974 35.7380 29.0352 0.0000 8.6256 0.0000
# 4 0.0000 0.0000 0.0000 22.8444 0.0000 8.5513
# 5 22.7611 15.8622 8.6256 0.0000 26.4833 0.0000
# 6 0.0000 0.0000 0.0000 8.5513 0.0000 33.9945
#
#
#
# Elastic Compliance Matrix: (Units=1/GPa)
#
#
# Indices 1 2 3 4 5 6 
#
# 1 0.023377 -0.024233 0.005800 0.000000 -0.007466 0.000000
# 2 -0.024233 0.088729 -0.080162 0.000000 -0.006209 0.000000
# 3 0.005800 -0.080162 0.126006 0.000000 0.001988 0.000000
# 4 0.000000 0.000000 0.000000 0.048325 0.000000 -0.012156
# 5 -0.007466 -0.006209 0.001988 0.000000 0.047248 0.000000
# 6 0.000000 0.000000 0.000000 -0.012156 0.000000 0.032474
#
#
# Mechanical properties :
#
#
# Convention : Reuss Voigt Hill
#
# Bulk Modulus (GPa) = 24.43631 49.83962 37.13796
# Shear Modulus (GPa) = 8.66569 21.04371 14.85470
#
# Velocity S-wave (km/s) = 2.17373 3.38739 2.84601
# Velocity P-wave (km/s) = 4.42995 6.51729 5.57223
#
# Compressibility (1/GPa) = 0.04092272
#
# Stress axis : x y z
#
# Youngs Moduli (GPa) = 42.77726 11.27029 7.93614
#
# Poissons Ratio (x) = 0.27311 -0.04603
# Poissons Ratio (y) = 1.03662 0.63617
# Poissons Ratio (z) = -0.24811 0.90345
#
# Static dielectric constant tensor:
#      x y z
#    x 1.613930 0.000000 -0.006510 
#    y 0.000000 1.626860 0.000000 
#    z -0.006510 0.000000 1.652610 
# 
# From -- ./inp_files/58270.got.cif
#   From: 2010.05.17/outbox.cif.g08.bks.cpg/sg10_30_cif.got.tgz:58270.got - 2010.06.03 11:33:40.
