data_PCOD9145352
_publ_section_title
;
Structure prediction by ZEFSAII (Michael W. Deem and Ramdas Pophale) SiO2 
 PCOD9145352
Probable space group: P 2/M
;
_chemical_formula_sum "Si O2"
_cell_formula_units_Z 26
_cell_length_a 17.732919
_cell_length_b 20.560707
_cell_length_c 16.982789
_cell_angle_alpha 90.000000
_cell_angle_beta 163.108825
_cell_angle_gamma 90.000000
_cell_volume 1799.100266
_symmetry_space_group_name_H-M "P 2/M"
_symmetry_group_IT_number 10
_symmetry_cell_setting 'monoclinic'
loop_
_space_group_symop_operation_xyz
x,y,z
-x,y,-z
-x,-y,-z
x,-y,z
loop_
_atom_site_type_symbol
_atom_site_label
_atom_site_fract_x
_atom_site_fract_y
_atom_site_fract_z
Si Si1 0.607127 0.629934 0.255770
Si Si2 0.427539 0.421315 0.244032
Si Si3 0.746124 0.500000 0.301619
Si Si4 0.071985 0.421192 0.159104
Si Si5 0.480218 0.925761 0.884341
Si Si6 0.093242 0.701877 0.684127
Si Si7 0.022413 0.147944 0.617235
O O1 0.506036 0.611801 0.241091
O O2 0.714217 0.564168 0.322192
O O3 0.858038 0.675715 0.502465
O O4 0.361987 0.663172 0.966186
O O5 0.430400 0.500000 0.235596
O O6 0.146442 0.402099 0.995908
O O7 0.643397 0.404776 0.525307
O O8 0.000000 0.500000 0.500000
O O9 0.500000 0.500000 0.000000
O O10 0.062832 0.500000 0.146488
O O11 0.000000 0.397329 0.000000
O O12 0.259144 0.875604 0.636326
O O13 0.420215 0.000000 0.802565
O O14 0.500000 0.924247 0.000000
O O15 0.759644 0.901577 0.135659
O O16 0.000000 0.694073 0.500000
O O17 0.113669 0.778495 0.722468
O O18 0.000000 0.142830 0.500000
#
# Coordination Sequence:
#
# PCOD9145352 Si02
#       7
#     4   4   2   4   4   4   4
#     4  12  22  35  47  62  79 107 140 185 230 263
#     4  10  19  32  46  64  86 104 127 166 216 260
#     4  12  24  36  48  60  75 100 141 190 234 270
#     4   9  17  29  48  68  86 104 122 146 195 268
#     4   9  15  24  40  60  80  98 121 156 208 261
#     4  11  22  34  47  58  79 109 149 185 221 263
#     4   9  17  28  40  57  77 102 130 167 209 252
#
# _framework density 14.451668
#
# number of rings (size 3 to 8) (size 9 to 14) (size 15 to 20)
#    0.000    1.846    0.769    5.538    0.000    6.154 
#    0.000    0.000    0.000    0.000    0.000    0.000 
#    0.000    0.000    0.000    0.000    0.000    0.000 
#
# Total GULP energy -144956.632731 kJ/mol
# GULP energy per Si atom -5575.255105 kJ/mol
# Density = 1.441878 g / cm^3
# Si number density = 14.451668 Si / 1000 Ang^3
#
#
#
# Elastic Constant Matrix: (Units=GPa)
#
#
# Indices 1 2 3 4 5 6 
#
# 1 29.4046 7.2259 -4.2508 0.0000 2.5740 0.0000
# 2 7.2259 57.3590 20.1834 0.0000 1.1967 0.0000
# 3 -4.2508 20.1834 67.3730 0.0000 13.7031 0.0000
# 4 0.0000 0.0000 0.0000 14.0850 0.0000 8.0305
# 5 2.5740 1.1967 13.7031 0.0000 19.0113 0.0000
# 6 0.0000 0.0000 0.0000 8.0305 0.0000 4.9932
#
#
#
# Elastic Compliance Matrix: (Units=1/GPa)
#
#
# Indices 1 2 3 4 5 6 
#
# 1 0.037353 -0.006704 0.006220 0.000000 -0.009118 0.000000
# 2 -0.006704 0.020892 -0.007732 0.000000 0.005166 0.000000
# 3 0.006220 -0.007732 0.020651 0.000000 -0.015241 0.000000
# 4 0.000000 0.000000 0.000000 0.855069 0.000000 -1.375203
# 5 -0.009118 0.005166 -0.015241 0.000000 0.064495 0.000000
# 6 0.000000 0.000000 0.000000 -1.375203 0.000000 2.412005
#
#
# Mechanical properties :
#
#
# Convention : Reuss Voigt Hill
#
# Bulk Modulus (GPa) = 16.00949 22.27261 19.14105
# Shear Modulus (GPa) = 1.45023 16.34976 8.90000
#
# Velocity S-wave (km/s) = 1.00284 3.36719 2.48432
# Velocity P-wave (km/s) = 3.52745 5.52834 4.63710
#
# Compressibility (1/GPa) = 0.06246297
#
# Stress axis : x y z
#
# Youngs Moduli (GPa) = 26.77156 47.86597 48.42284
#
# Poissons Ratio (x) = 0.32089 -0.30117
# Poissons Ratio (y) = 0.17947 0.37442
# Poissons Ratio (z) = -0.16651 0.37012
#
# Static dielectric constant tensor:
#      x y z
#    x 1.459750 0.000000 0.005050 
#    y 0.000000 0.717470 0.000000 
#    z 0.005050 0.000000 1.491950 
# 
# From -- ./inp_files/9506.got.cif
#   From: 2010.05.17/outbox.cif.g08.bks.cpg/sg10_5_cif.got.tgz:9506.got - 2010.06.03 11:33:40.
