data_PCOD9145405
_publ_section_title
;
Structure prediction by ZEFSAII (Michael W. Deem and Ramdas Pophale) SiO2 
 PCOD9145405
Probable space group: P 2/M
;
_chemical_formula_sum "Si O2"
_cell_formula_units_Z 32
_cell_length_a 26.127587
_cell_length_b 9.003329
_cell_length_c 16.095099
_cell_angle_alpha 90.000000
_cell_angle_beta 29.790670
_cell_angle_gamma 90.000000
_cell_volume 1881.075392
_symmetry_space_group_name_H-M "P 2/M"
_symmetry_group_IT_number 10
_symmetry_cell_setting 'monoclinic'
loop_
_space_group_symop_operation_xyz
x,y,z
-x,y,-z
-x,-y,-z
x,-y,z
loop_
_atom_site_type_symbol
_atom_site_label
_atom_site_fract_x
_atom_site_fract_y
_atom_site_fract_z
Si Si1 0.590490 0.332366 0.941468
Si Si2 0.264281 0.823574 0.389883
Si Si3 0.648269 0.678114 0.255456
Si Si4 0.152752 0.322455 0.133518
Si Si5 0.918446 0.676426 0.427390
Si Si6 0.122449 0.832366 0.345593
Si Si7 0.448005 0.821886 0.455720
Si Si8 0.439022 0.177545 0.274708
O O1 0.628042 0.500000 0.904296
O O2 0.674679 0.231712 0.777862
O O3 0.500000 0.340755 0.000000
O O4 0.536894 0.260586 0.096986
O O5 0.152240 0.750000 0.543280
O O6 0.337371 0.781079 0.364589
O O7 0.254399 0.000000 0.402711
O O8 0.634379 0.500000 0.279525
O O9 0.556524 0.750000 0.330429
O O10 0.634730 0.750000 0.365270
O O11 0.756868 0.709326 0.058661
O O12 0.150684 0.500000 0.152377
O O13 0.170774 0.239414 0.195345
O O14 0.039332 0.281079 0.258708
O O15 0.088492 0.500000 0.568617
O O16 0.872780 0.731712 0.579761
O O17 0.000000 0.840755 0.500000
O O18 0.160379 0.000000 0.307284
O O19 0.427603 0.790674 0.387926
O O20 0.451716 0.000000 0.462189
O O21 0.453745 0.000000 0.243195
#
# Coordination Sequence:
#
# PCOD9145405 Si02
#       8
#     4   4   4   4   4   4   4   4
#     4   9  17  29  46  69  96 127 164 201 236 279
#     4  10  19  32  49  70  99 134 169 204 242 284
#     4  10  20  35  54  76  99 124 156 196 245 296
#     4   9  19  34  51  71  99 133 165 200 244 292
#     4  10  19  32  49  70  99 134 169 204 242 284
#     4   9  17  29  46  69  96 127 164 201 236 279
#     4  10  20  35  54  76  99 124 156 196 245 296
#     4   9  19  34  51  71  99 133 165 200 244 292
#
# _framework density 17.011545999999999
#
# number of rings (size 3 to 8) (size 9 to 14) (size 15 to 20)
#    0.000    2.500    0.000    3.000    0.000    7.000 
#    0.000    2.500    0.000    0.750    0.000    5.250 
#    0.000    0.000    0.000    0.000    0.000    0.000 
#
# Total GULP energy -178443.514701 kJ/mol
# GULP energy per Si atom -5576.359834 kJ/mol
# Density = 1.697283 g / cm^3
# Si number density = 17.011546 Si / 1000 Ang^3
#
#
#
# Elastic Constant Matrix: (Units=GPa)
#
#
# Indices 1 2 3 4 5 6 
#
# 1 82.2836 38.9207 53.9572 0.0000 12.2338 0.0000
# 2 38.9207 66.6213 48.5823 0.0000 7.2139 0.0000
# 3 53.9572 48.5823 117.6013 0.0000 14.1380 0.0000
# 4 0.0000 0.0000 0.0000 22.6442 0.0000 -0.8432
# 5 12.2338 7.2139 14.1380 0.0000 23.7768 0.0000
# 6 0.0000 0.0000 0.0000 -0.8432 0.0000 23.7738
#
#
#
# Elastic Compliance Matrix: (Units=1/GPa)
#
#
# Indices 1 2 3 4 5 6 
#
# 1 0.019868 -0.006958 -0.005672 0.000000 -0.004739 0.000000
# 2 -0.006958 0.023958 -0.006743 0.000000 0.000321 0.000000
# 3 -0.005672 -0.006743 0.014318 0.000000 -0.003550 0.000000
# 4 0.000000 0.000000 0.000000 0.044220 0.000000 0.001568
# 5 -0.004739 0.000321 -0.003550 0.000000 0.046509 0.000000
# 6 0.000000 0.000000 0.000000 0.001568 0.000000 0.042119
#
#
# Mechanical properties :
#
#
# Convention : Reuss Voigt Hill
#
# Bulk Modulus (GPa) = 51.55185 61.04739 56.29962
# Shear Modulus (GPa) = 21.16816 22.37536 21.77176
#
# Velocity S-wave (km/s) = 3.53135 3.63065 3.58134
# Velocity P-wave (km/s) = 6.85544 7.31705 7.09000
#
# Compressibility (1/GPa) = 0.01939795
#
# Stress axis : x y z
#
# Youngs Moduli (GPa) = 50.33221 41.73997 69.84226
#
# Poissons Ratio (x) = 0.29043 0.39611
# Poissons Ratio (y) = 0.35021 0.47097
# Poissons Ratio (z) = 0.28546 0.28147
#
# Static dielectric constant tensor:
#      x y z
#    x 1.594020 0.000000 -0.024260 
#    y 0.000000 1.582070 0.000000 
#    z -0.024260 0.000000 1.561530 
# 
# From -- ./inp_files/72180.got.cif
#   From: 2010.05.17/outbox.cif.g08.bks.cpg/sg10_37_cif.got.tgz:72180.got - 2010.06.03 11:33:40.
