data_PCOD9145133
_publ_section_title
;
Structure prediction by ZEFSAII (Michael W. Deem and Ramdas Pophale) SiO2 
 PCOD9145133
Probable space group: P 2/M
;
_chemical_formula_sum "Si O2"
_cell_formula_units_Z 32
_cell_length_a 12.503957
_cell_length_b 8.296823
_cell_length_c 31.710179
_cell_angle_alpha 90.000000
_cell_angle_beta 151.447449
_cell_angle_gamma 90.000000
_cell_volume 1572.366283
_symmetry_space_group_name_H-M "P 2/M"
_symmetry_group_IT_number 10
_symmetry_cell_setting 'monoclinic'
loop_
_space_group_symop_operation_xyz
x,y,z
-x,y,-z
-x,-y,-z
x,-y,z
loop_
_atom_site_type_symbol
_atom_site_label
_atom_site_fract_x
_atom_site_fract_y
_atom_site_fract_z
Si Si1 0.756470 0.313605 0.694425
Si Si2 0.384271 0.805007 0.504076
Si Si3 0.824150 0.190276 0.209910
Si Si4 0.625932 0.312534 0.975799
Si Si5 0.132795 0.196726 0.678967
Si Si6 0.907839 0.187682 0.834303
Si Si7 0.466010 0.816096 0.231813
Si Si8 0.262065 0.319805 0.082766
O O1 0.752618 0.500000 0.705443
O O2 0.530057 0.265047 0.592423
O O3 0.806791 0.209414 0.753136
O O4 0.961194 0.281351 0.733472
O O5 0.500000 0.757299 0.500000
O O6 0.125268 0.755320 0.414819
O O7 0.392494 0.000000 0.509099
O O8 0.610341 0.220733 0.105815
O O9 0.786030 0.242859 0.245540
O O10 0.874143 0.000000 0.228020
O O11 0.579072 0.500000 0.967417
O O12 0.701300 0.288955 0.953449
O O13 0.843954 0.262494 0.077553
O O14 0.290643 0.255717 0.695315
O O15 0.142019 0.000000 0.680874
O O16 0.722390 0.258317 0.802803
O O17 0.937549 0.000000 0.855511
O O18 0.361222 0.809752 0.148771
O O19 0.498260 0.000000 0.257802
O O20 0.351806 0.500000 0.123981
O O21 0.000000 0.323395 0.000000
#
# Coordination Sequence:
#
# PCOD9145133 Si02
#       8
#     4   4   4   4   4   4   4   4
#     4  12  26  43  62  87 121 157 199 249 304 365
#     4  10  19  38  67  95 120 153 194 242 302 362
#     4  11  21  38  63  91 123 157 198 246 298 357
#     4  11  22  36  56  88 126 162 201 246 300 354
#     4   9  18  34  60  94 125 150 187 246 305 350
#     4  11  24  41  61  84 116 165 215 250 290 351
#     4  10  20  35  58  88 119 155 204 253 293 342
#     4  10  19  31  50  80 119 160 197 237 293 352
#
# _framework density 20.351493000000001
#
# number of rings (size 3 to 8) (size 9 to 14) (size 15 to 20)
#    0.000    1.500    3.750    2.250    0.000    2.000 
#    0.000    3.750    0.000    3.750    0.000    0.000 
#    0.000    0.000    0.000    0.000    0.000    0.000 
#
# Total GULP energy -178563.332014 kJ/mol
# GULP energy per Si atom -5580.104125 kJ/mol
# Density = 2.030517 g / cm^3
# Si number density = 20.351493 Si / 1000 Ang^3
#
#
#
# Elastic Constant Matrix: (Units=GPa)
#
#
# Indices 1 2 3 4 5 6 
#
# 1 36.6462 -5.5329 19.0269 0.0000 5.7492 0.0000
# 2 -5.5329 18.4899 0.3414 0.0000 1.2081 0.0000
# 3 19.0269 0.3414 117.2091 0.0000 13.8200 0.0000
# 4 0.0000 0.0000 0.0000 2.2664 0.0000 -1.9709
# 5 5.7492 1.2081 13.8200 0.0000 29.9550 0.0000
# 6 0.0000 0.0000 0.0000 -1.9709 0.0000 14.5620
#
#
#
# Elastic Compliance Matrix: (Units=1/GPa)
#
#
# Indices 1 2 3 4 5 6 
#
# 1 0.031907 0.009919 -0.004695 0.000000 -0.004358 0.000000
# 2 0.009919 0.057311 -0.001354 0.000000 -0.003591 0.000000
# 3 -0.004695 -0.001354 0.009714 0.000000 -0.003526 0.000000
# 4 0.000000 0.000000 0.000000 0.500084 0.000000 0.067684
# 5 -0.004358 -0.003591 -0.003526 0.000000 0.035991 0.000000
# 6 0.000000 0.000000 0.000000 0.067684 0.000000 0.077833
#
#
# Mechanical properties :
#
#
# Convention : Reuss Voigt Hill
#
# Bulk Modulus (GPa) = 9.37443 22.22401 15.79922
# Shear Modulus (GPa) = 6.75078 19.92400 13.33739
#
# Velocity S-wave (km/s) = 1.82326 3.13228 2.56276
# Velocity P-wave (km/s) = 3.00810 4.90157 4.06657
#
# Compressibility (1/GPa) = 0.10667318
#
# Stress axis : x y z
#
# Youngs Moduli (GPa) = 31.34136 17.44855 102.94938
#
# Poissons Ratio (x) = -0.17307 0.48330
# Poissons Ratio (y) = -0.31088 0.13937
# Poissons Ratio (z) = 0.14713 0.02362
#
# Static dielectric constant tensor:
#      x y z
#    x 1.747110 0.000000 0.035830 
#    y 0.000000 1.733640 0.000000 
#    z 0.035830 0.000000 1.721840 
# 
# From -- ./inp_files/95102.got.cif
#   From: 2010.05.17/outbox.cif.g08.bks.cpg/sg10_48_cif.got.tgz:95102.got - 2010.06.03 11:33:40.
