data_PCOD9145689
_publ_section_title
;
Structure prediction by ZEFSAII (Michael W. Deem and Ramdas Pophale) SiO2 
 PCOD9145689
Probable space group: P 2/M
;
_chemical_formula_sum "Si O2"
_cell_formula_units_Z 28
_cell_length_a 20.051128
_cell_length_b 7.717998
_cell_length_c 14.774606
_cell_angle_alpha 90.000000
_cell_angle_beta 32.576212
_cell_angle_gamma 90.000000
_cell_volume 1231.066024
_symmetry_space_group_name_H-M "P 2/M"
_symmetry_group_IT_number 10
_symmetry_cell_setting 'monoclinic'
loop_
_space_group_symop_operation_xyz
x,y,z
-x,y,-z
-x,-y,-z
x,-y,z
loop_
_atom_site_type_symbol
_atom_site_label
_atom_site_fract_x
_atom_site_fract_y
_atom_site_fract_z
Si Si1 0.961257 0.701113 0.759179
Si Si2 0.097829 0.209599 0.966978
Si Si3 0.292678 0.208985 0.603851
Si Si4 0.505981 0.297815 0.892971
Si Si5 0.230016 0.201210 0.481467
Si Si6 0.551102 0.300946 0.350234
Si Si7 0.697947 0.713990 0.017202
O O1 0.972231 0.500000 0.725054
O O2 0.840451 0.769131 0.844140
O O3 0.097030 0.777360 0.587333
O O4 0.928949 0.719239 0.903287
O O5 0.227915 0.262042 0.771683
O O6 0.093720 0.000000 0.979082
O O7 0.000000 0.257283 0.000000
O O8 0.212995 0.252973 0.606397
O O9 0.424237 0.296476 0.437936
O O10 0.305266 0.000000 0.592362
O O11 0.471857 0.500000 0.940039
O O12 0.647829 0.289546 0.697412
O O13 0.500000 0.218775 0.000000
O O14 0.403030 0.226854 0.940782
O O15 0.262306 0.000000 0.444189
O O16 0.500000 0.213429 0.500000
O O17 0.584282 0.500000 0.332636
O O18 0.652779 0.223767 0.168119
O O19 0.695400 0.500000 0.023573
#
# Coordination Sequence:
#
# PCOD9145689 Si02
#       7
#     4   4   4   4   4   4   4
#     4  11  22  36  57  85 118 157 199 240 290 343
#     4  10  19  34  50  72 115 161 201 243 284 331
#     4  10  20  33  51  75 108 152 196 238 281 333
#     4  10  21  41  69  94 114 145 191 243 299 354
#     4  11  22  39  60  85 118 152 190 237 291 347
#     4  10  19  32  52  77 112 151 188 236 288 335
#     4   9  19  36  56  85 121 149 186 244 295 343
#
# _framework density 22.744515
#
# number of rings (size 3 to 8) (size 9 to 14) (size 15 to 20)
#    0.000    1.857    2.857    1.714    0.000    3.143 
#    0.000    3.571    0.000    4.286    0.000    0.000 
#    0.000    0.000    0.000    0.000    0.000    0.000 
#
# Total GULP energy -156267.391417 kJ/mol
# GULP energy per Si atom -5580.978265 kJ/mol
# Density = 2.269275 g / cm^3
# Si number density = 22.744515 Si / 1000 Ang^3
#
#
#
# Elastic Constant Matrix: (Units=GPa)
#
#
# Indices 1 2 3 4 5 6 
#
# 1 114.4108 2.3041 52.2848 0.0000 -11.8786 0.0000
# 2 2.3041 35.4962 -3.7596 0.0000 2.1021 0.0000
# 3 52.2848 -3.7596 65.3477 0.0000 -13.6737 0.0000
# 4 0.0000 0.0000 0.0000 -10.2098 0.0000 13.8604
# 5 -11.8786 2.1021 -13.6737 0.0000 39.2019 0.0000
# 6 0.0000 0.0000 0.0000 13.8604 0.0000 7.2910
#
#
#
# Elastic Compliance Matrix: (Units=1/GPa)
#
#
# Indices 1 2 3 4 5 6 
#
# 1 0.013939 -0.002115 -0.011183 0.000000 0.000436 0.000000
# 2 -0.002115 0.028704 0.003115 0.000000 -0.001094 0.000000
# 3 -0.011183 0.003115 0.025550 0.000000 0.005356 0.000000
# 4 0.000000 0.000000 0.000000 -0.027353 0.000000 0.051999
# 5 0.000436 -0.001094 0.005356 0.000000 0.027568 0.000000
# 6 0.000000 0.000000 0.000000 0.051999 0.000000 0.038303
#
#
# Mechanical properties :
#
#
# Convention : Reuss Voigt Hill
#
# Bulk Modulus (GPa) = 20.90874 35.21258 28.06066
# Shear Modulus (GPa) = 34.96021 18.21832 26.58926
#
# Velocity S-wave (km/s) = 3.92482 2.83326 3.42283
# Velocity P-wave (km/s) = 5.45452 5.12041 5.29010
#
# Compressibility (1/GPa) = 0.04782690
#
# Stress axis : x y z
#
# Youngs Moduli (GPa) = 71.74213 34.83834 39.13867
#
# Poissons Ratio (x) = 0.07369 0.43768
# Poissons Ratio (y) = 0.15174 -0.12191
# Poissons Ratio (z) = 0.80228 -0.10852
#
# Static dielectric constant tensor:
#      x y z
#    x 1.947170 0.000000 -0.043160 
#    y 0.000000 1.818860 0.000000 
#    z -0.043160 0.000000 1.843330 
# 
# From -- ./inp_files/70187.got.cif
#   From: 2010.05.17/outbox.cif.g08.bks.cpg/sg10_36_cif.got.tgz:70187.got - 2010.06.03 11:33:40.
