data_PCOD9145173
_publ_section_title
;
Structure prediction by ZEFSAII (Michael W. Deem and Ramdas Pophale) SiO2 
 PCOD9145173
Probable space group: P 2/M
;
_chemical_formula_sum "Si O2"
_cell_formula_units_Z 32
_cell_length_a 14.378546
_cell_length_b 7.633422
_cell_length_c 20.548110
_cell_angle_alpha 90.000000
_cell_angle_beta 140.203708
_cell_angle_gamma 90.000000
_cell_volume 1443.533268
_symmetry_space_group_name_H-M "P 2/M"
_symmetry_group_IT_number 10
_symmetry_cell_setting 'monoclinic'
loop_
_space_group_symop_operation_xyz
x,y,z
-x,y,-z
-x,-y,-z
x,-y,z
loop_
_atom_site_type_symbol
_atom_site_label
_atom_site_fract_x
_atom_site_fract_y
_atom_site_fract_z
Si Si1 0.799665 0.791685 0.207975
Si Si2 0.119907 0.709111 0.355424
Si Si3 0.846388 0.799640 0.902141
Si Si4 0.551213 0.202578 0.457192
Si Si5 0.280440 0.295968 0.982865
Si Si6 0.039291 0.711861 0.165769
Si Si7 0.467063 0.783250 0.269837
Si Si8 0.411719 0.202635 0.795725
O O1 0.748904 0.718831 0.110556
O O2 0.700986 0.719152 0.213336
O O3 0.970597 0.757897 0.311246
O O4 0.777347 0.000000 0.190933
O O5 0.135944 0.500000 0.367147
O O6 0.274362 0.789500 0.455808
O O7 0.086746 0.760889 0.263296
O O8 0.692996 0.723160 0.838675
O O9 0.853562 0.796566 0.827873
O O10 0.851786 0.000000 0.928282
O O11 0.000000 0.709831 0.000000
O O12 0.500000 0.278871 0.500000
O O13 0.494574 0.278217 0.358148
O O14 0.503010 0.000000 0.432479
O O15 0.295730 0.500000 0.006566
O O16 0.129042 0.231909 0.933497
O O17 0.427957 0.207265 0.085493
O O18 0.044408 0.500000 0.163696
O O19 0.574818 0.725536 0.270341
O O20 0.466357 0.000000 0.270086
O O21 0.368890 0.000000 0.764876
#
# Coordination Sequence:
#
# PCOD9145173 Si02
#       8
#     4   4   4   4   4   4   4   4
#     4  10  20  34  55  81 106 139 184 225 264 315
#     4  10  21  37  56  79 107 136 171 220 274 322
#     4  10  19  31  51  77 104 138 175 211 256 308
#     4  10  20  36  60  85 108 138 177 221 268 320
#     4  10  20  33  51  78 112 147 180 219 268 317
#     4   9  19  33  48  71 103 137 171 210 260 315
#     4   9  19  35  53  78 110 139 175 223 270 317
#     4  10  20  35  54  76 106 144 183 223 265 314
#
# _framework density 22.167829000000001
#
# number of rings (size 3 to 8) (size 9 to 14) (size 15 to 20)
#    0.000    2.250    0.000    3.750    0.000    8.000 
#    0.000    2.500    0.000    3.750    0.000    0.000 
#    0.000    0.000    0.000    0.000    0.000    0.000 
#
# Total GULP energy -178623.918210 kJ/mol
# GULP energy per Si atom -5581.997444 kJ/mol
# Density = 2.211737 g / cm^3
# Si number density = 22.167829 Si / 1000 Ang^3
#
#
#
# Elastic Constant Matrix: (Units=GPa)
#
#
# Indices 1 2 3 4 5 6 
#
# 1 152.1438 1.4550 34.6591 0.0000 -6.8046 0.0000
# 2 1.4550 52.1151 -4.1603 0.0000 -4.8037 0.0000
# 3 34.6591 -4.1603 91.9614 0.0000 0.3520 0.0000
# 4 0.0000 0.0000 0.0000 6.5454 0.0000 28.2166
# 5 -6.8046 -4.8037 0.3520 0.0000 27.7345 0.0000
# 6 0.0000 0.0000 0.0000 28.2166 0.0000 123.8886
#
#
#
# Elastic Compliance Matrix: (Units=1/GPa)
#
#
# Indices 1 2 3 4 5 6 
#
# 1 0.007284 -0.000260 -0.002764 0.000000 0.001777 0.000000
# 2 -0.000260 0.019579 0.000971 0.000000 0.003315 0.000000
# 3 -0.002764 0.000971 0.011962 0.000000 -0.000662 0.000000
# 4 0.000000 0.000000 0.000000 8.418495 0.000000 -1.917381
# 5 0.001777 0.003315 -0.000662 0.000000 0.037075 0.000000
# 6 0.000000 0.000000 0.000000 -1.917381 0.000000 0.444771
#
#
# Mechanical properties :
#
#
# Convention : Reuss Voigt Hill
#
# Bulk Modulus (GPa) = 28.80251 40.01420 34.40836
# Shear Modulus (GPa) = 0.55836 49.25146 24.90491
#
# Velocity S-wave (km/s) = 0.50242 4.71866 3.35546
# Velocity P-wave (km/s) = 3.65482 6.91212 5.52880
#
# Compressibility (1/GPa) = 0.03471919
#
# Stress axis : x y z
#
# Youngs Moduli (GPa) = 137.28076 51.07607 83.59597
#
# Poissons Ratio (x) = 0.01329 0.23106
# Poissons Ratio (y) = 0.03572 -0.08118
# Poissons Ratio (z) = 0.37944 -0.04960
#
# Static dielectric constant tensor:
#      x y z
#    x 1.846340 0.000000 -0.026130 
#    y 0.000000 1.840150 0.000000 
#    z -0.026130 0.000000 1.840920 
# 
# From -- ./inp_files/84771.got.cif
#   From: 2010.05.17/outbox.cif.g08.bks.cpg/sg10_43_cif.got.tgz:84771.got - 2010.06.03 11:33:40.
