data_PCOD9145452
_publ_section_title
;
Structure prediction by ZEFSAII (Michael W. Deem and Ramdas Pophale) SiO2 
 PCOD9145452
Probable space group: P 2/M
;
_chemical_formula_sum "Si O2"
_cell_formula_units_Z 20
_cell_length_a 7.599189
_cell_length_b 9.640939
_cell_length_c 14.290626
_cell_angle_alpha 90.000000
_cell_angle_beta 56.866445
_cell_angle_gamma 90.000000
_cell_volume 876.738632
_symmetry_space_group_name_H-M "P 2/M"
_symmetry_group_IT_number 10
_symmetry_cell_setting 'monoclinic'
loop_
_space_group_symop_operation_xyz
x,y,z
-x,y,-z
-x,-y,-z
x,-y,z
loop_
_atom_site_type_symbol
_atom_site_label
_atom_site_fract_x
_atom_site_fract_y
_atom_site_fract_z
Si Si1 0.962240 0.344784 0.802662
Si Si2 0.675806 0.836149 0.521781
Si Si3 0.812412 0.844263 0.133605
Si Si4 0.615440 0.655950 0.052499
Si Si5 0.168776 0.165230 0.322181
O O1 0.031888 0.500000 0.754041
O O2 0.841401 0.362604 0.936608
O O3 0.814495 0.272940 0.768396
O O4 0.128889 0.230039 0.786622
O O5 0.500000 0.777894 0.500000
O O6 0.701053 0.790786 0.623144
O O7 0.916892 0.823256 0.416249
O O8 0.631677 0.000000 0.541356
O O9 0.743629 0.000000 0.171747
O O10 0.641924 0.749691 0.133279
O O11 0.000000 0.854190 0.000000
O O12 0.531113 0.500000 0.093270
O O13 0.500000 0.728380 0.000000
O O14 0.208027 0.000000 0.289893
#
# Coordination Sequence:
#
# PCOD9145452 Si02
#       5
#     4   4   4   4   4
#     4  10  19  32  50  71  99 134 167 203 251 302
#     4   8  15  31  54  76 100 131 165 202 254 309
#     4   9  17  30  49  70  93 124 165 209 246 288
#     4   9  18  33  50  68  97 137 172 204 248 300
#     4   9  17  31  53  77 101 130 166 211 252 297
#
# _framework density 22.811814999999999
#
# number of rings (size 3 to 8) (size 9 to 14) (size 15 to 20)
#    0.000    3.000    0.000    2.400    0.000    3.600 
#    3.600    2.000    0.000    1.200    0.000    0.000 
#    0.000    0.000    0.000    0.000    0.000    0.000 
#
# Total GULP energy -111354.012404 kJ/mol
# GULP energy per Si atom -5567.700620 kJ/mol
# Density = 2.275989 g / cm^3
# Si number density = 22.811815 Si / 1000 Ang^3
#
#
#
# Elastic Constant Matrix: (Units=GPa)
#
#
# Indices 1 2 3 4 5 6 
#
# 1 127.0824 39.9787 45.4995 0.0000 54.5584 0.0000
# 2 39.9787 107.2305 50.0375 0.0000 32.6849 0.0000
# 3 45.4995 50.0375 96.3596 0.0000 27.3384 0.0000
# 4 0.0000 0.0000 0.0000 -65.4187 0.0000 21.2840
# 5 54.5584 32.6849 27.3384 0.0000 52.8927 0.0000
# 6 0.0000 0.0000 0.0000 21.2840 0.0000 19.7717
#
#
#
# Elastic Compliance Matrix: (Units=1/GPa)
#
#
# Indices 1 2 3 4 5 6 
#
# 1 0.014890 0.000143 -0.003190 0.000000 -0.013798 0.000000
# 2 0.000143 0.013575 -0.005502 0.000000 -0.005693 0.000000
# 3 -0.003190 -0.005502 0.015050 0.000000 -0.001088 0.000000
# 4 0.000000 0.000000 0.000000 -0.011321 0.000000 0.012187
# 5 -0.013798 -0.005693 -0.001088 0.000000 0.037219 0.000000
# 6 0.000000 0.000000 0.000000 0.012187 0.000000 0.037458
#
#
# Mechanical properties :
#
#
# Convention : Reuss Voigt Hill
#
# Bulk Modulus (GPa) = 37.85450 66.85598 52.35524
# Shear Modulus (GPa) = 37.65788 14.45958 26.05873
#
# Velocity S-wave (km/s) = 4.06742 2.52040 3.38351
# Velocity P-wave (km/s) = 6.22003 6.15151 6.18587
#
# Compressibility (1/GPa) = 0.02641694
#
# Stress axis : x y z
#
# Youngs Moduli (GPa) = 67.15918 73.66632 66.44580
#
# Poissons Ratio (x) = -0.01055 0.21199
# Poissons Ratio (y) = -0.00962 0.36556
# Poissons Ratio (z) = 0.21427 0.40529
#
# Static dielectric constant tensor:
#      x y z
#    x 1.984120 0.000000 -0.117440 
#    y 0.000000 1.861220 0.000000 
#    z -0.117440 0.000000 1.950560 
# 
# From -- ./inp_files/26768.got.cif
#   From: 2010.05.17/outbox.cif.g08.bks.cpg/sg10_14_cif.got.tgz:26768.got - 2010.06.03 11:33:40.
