data_PCOD9145158
_publ_section_title
;
Structure prediction by ZEFSAII (Michael W. Deem and Ramdas Pophale) SiO2 
 PCOD9145158
Probable space group: P 2/M
;
_chemical_formula_sum "Si O2"
_cell_formula_units_Z 28
_cell_length_a 5.084481
_cell_length_b 19.246778
_cell_length_c 14.095647
_cell_angle_alpha 90.000000
_cell_angle_beta 97.634046
_cell_angle_gamma 90.000000
_cell_volume 1367.172367
_symmetry_space_group_name_H-M "P 2/M"
_symmetry_group_IT_number 10
_symmetry_cell_setting 'monoclinic'
loop_
_space_group_symop_operation_xyz
x,y,z
-x,y,-z
-x,-y,-z
x,-y,z
loop_
_atom_site_type_symbol
_atom_site_label
_atom_site_fract_x
_atom_site_fract_y
_atom_site_fract_z
Si Si1 0.968157 0.074304 0.883270
Si Si2 0.474850 0.725868 0.205882
Si Si3 0.773581 0.423941 0.567886
Si Si4 0.991421 0.298238 0.697033
Si Si5 0.016217 0.859310 0.387173
Si Si6 0.474969 0.114731 0.273805
Si Si7 0.758454 0.204944 0.060062
O O1 0.111744 0.146735 0.865106
O O2 0.676627 0.079067 0.822215
O O3 0.083438 0.000000 0.858464
O O4 0.000000 0.075178 0.000000
O O5 0.699321 0.684589 0.274188
O O6 0.477350 0.804164 0.245494
O O7 0.173903 0.704759 0.211628
O O8 0.606630 0.734259 0.108985
O O9 0.500000 0.414197 0.500000
O O10 0.765788 0.500000 0.616792
O O11 0.000000 0.426971 0.500000
O O12 0.842913 0.357983 0.633807
O O13 0.981554 0.222907 0.644571
O O14 0.768607 0.898671 0.326095
O O15 0.000000 0.862511 0.500000
O O16 0.278559 0.891939 0.354024
O O17 0.500000 0.169223 0.000000
O O18 0.000000 0.223745 0.000000
#
# Coordination Sequence:
#
# PCOD9145158 Si02
#       7
#     4   4   4   4   4   4   4
#     4  10  21  37  58  82 108 142 180 216 270 350
#     4  10  19  33  51  75 104 135 172 221 271 313
#     4  10  20  33  49  74 113 153 182 212 256 312
#     4  10  19  31  51  76 105 137 180 222 258 309
#     4  10  20  34  55  78 103 139 182 227 272 315
#     4  10  20  35  53  77 108 136 172 227 276 315
#     4  11  21  35  54  77 110 141 169 214 276 339
#
# _framework density 20.480229000000001
#
# number of rings (size 3 to 8) (size 9 to 14) (size 15 to 20)
#    0.000    1.857    0.000    6.857    0.000    2.571 
#    0.000    7.143    0.000    2.571    0.000    0.000 
#    0.000   11.429    0.000    0.000    0.000   13.429 
#
# Total GULP energy -155982.727378 kJ/mol
# GULP energy per Si atom -5570.811692 kJ/mol
# Density = 2.043362 g / cm^3
# Si number density = 20.480229 Si / 1000 Ang^3
#
#
#
# Elastic Constant Matrix: (Units=GPa)
#
#
# Indices 1 2 3 4 5 6 
#
# 1 145.7505 14.2741 48.5523 0.0000 -1.4268 0.0000
# 2 14.2741 53.5203 24.5144 0.0000 10.2419 0.0000
# 3 48.5523 24.5144 106.3663 0.0000 -7.4804 0.0000
# 4 0.0000 0.0000 0.0000 -12.3888 0.0000 -10.7258
# 5 -1.4268 10.2419 -7.4804 0.0000 37.6760 0.0000
# 6 0.0000 0.0000 0.0000 -10.7258 0.0000 9.1104
#
#
#
# Elastic Compliance Matrix: (Units=1/GPa)
#
#
# Indices 1 2 3 4 5 6 
#
# 1 0.008107 -0.000450 -0.003617 0.000000 -0.000289 0.000000
# 2 -0.000450 0.022744 -0.005550 0.000000 -0.007302 0.000000
# 3 -0.003617 -0.005550 0.012604 0.000000 0.003874 0.000000
# 4 0.000000 0.000000 0.000000 -0.039974 0.000000 -0.047061
# 5 -0.000289 -0.007302 0.003874 0.000000 0.029285 0.000000
# 6 0.000000 0.000000 0.000000 -0.047061 0.000000 0.054358
#
#
# Mechanical properties :
#
#
# Convention : Reuss Voigt Hill
#
# Bulk Modulus (GPa) = 41.28674 53.36873 47.32774
# Shear Modulus (GPa) = 43.69370 21.43262 32.56316
#
# Velocity S-wave (km/s) = 4.62395 3.23848 3.99178
# Velocity P-wave (km/s) = 6.97932 6.33237 6.66370
#
# Compressibility (1/GPa) = 0.02422085
#
# Stress axis : x y z
#
# Youngs Moduli (GPa) = 123.34612 43.96791 79.33904
#
# Poissons Ratio (x) = 0.01979 0.28699
# Poissons Ratio (y) = 0.05552 0.44032
# Poissons Ratio (z) = 0.44617 0.24401
#
# Static dielectric constant tensor:
#      x y z
#    x 1.791170 0.000000 -0.028550 
#    y 0.000000 1.759320 0.000000 
#    z -0.028550 0.000000 1.833490 
# 
# From -- ./inp_files/59337.got.cif
#   From: 2010.05.17/outbox.cif.g08.bks.cpg/sg10_30_cif.got.tgz:59337.got - 2010.06.03 11:33:40.
