data_PCOD9145281
_publ_section_title
;
Structure prediction by ZEFSAII (Michael W. Deem and Ramdas Pophale) SiO2 
 PCOD9145281
Probable space group: P 2/M
;
_chemical_formula_sum "Si O2"
_cell_formula_units_Z 28
_cell_length_a 14.590067
_cell_length_b 7.374404
_cell_length_c 12.173417
_cell_angle_alpha 90.000000
_cell_angle_beta 74.727458
_cell_angle_gamma 90.000000
_cell_volume 1263.518721
_symmetry_space_group_name_H-M "P 2/M"
_symmetry_group_IT_number 10
_symmetry_cell_setting 'monoclinic'
loop_
_space_group_symop_operation_xyz
x,y,z
-x,y,-z
-x,-y,-z
x,-y,z
loop_
_atom_site_type_symbol
_atom_site_label
_atom_site_fract_x
_atom_site_fract_y
_atom_site_fract_z
Si Si1 0.605402 0.710915 0.985956
Si Si2 0.077227 0.222017 0.887288
Si Si3 0.352476 0.781156 0.273274
Si Si4 0.471221 0.778055 0.632987
Si Si5 0.978063 0.779544 0.336900
Si Si6 0.846258 0.779075 0.573584
Si Si7 0.292046 0.207821 0.822908
O O1 0.594739 0.500000 0.017971
O O2 0.653867 0.726578 0.851918
O O3 0.500000 0.788928 0.000000
O O4 0.660193 0.792779 0.071644
O O5 0.040509 0.277747 0.779812
O O6 0.186074 0.285186 0.866020
O O7 0.078497 0.000000 0.892492
O O8 0.000000 0.282745 0.000000
O O9 0.448052 0.721151 0.304977
O O10 0.259443 0.718158 0.367568
O O11 0.353760 0.000000 0.274323
O O12 0.500000 0.723716 0.500000
O O13 0.369210 0.715729 0.712275
O O14 0.469870 0.000000 0.633644
O O15 0.893327 0.722033 0.444486
O O16 0.078295 0.723411 0.357093
O O17 0.978575 0.000000 0.338110
O O18 0.844277 0.000000 0.573588
O O19 0.278437 0.000000 0.790874
#
# Coordination Sequence:
#
# PCOD9145281 Si02
#       7
#     4   4   4   4   4   4   4
#     4  11  23  38  54  72 101 136 172 215 263 312
#     4   9  18  28  43  71 106 137 165 204 251 299
#     4  10  19  31  53  80 103 130 170 214 256 305
#     4   9  18  30  47  77 111 135 161 203 257 309
#     4   8  14  26  40  66 106 137 163 197 250 301
#     4   8  15  25  43  70 101 133 162 204 250 295
#     4  10  20  34  54  78 104 136 172 213 256 302
#
# _framework density 22.160336000000001
#
# number of rings (size 3 to 8) (size 9 to 14) (size 15 to 20)
#    0.000    2.714    1.429    1.286    4.000    0.571 
#    0.000    0.000    0.000    2.143    0.000    2.000 
#    0.000    0.000    0.000    0.000    0.000    0.000 
#
# Total GULP energy -156355.886062 kJ/mol
# GULP energy per Si atom -5584.138788 kJ/mol
# Density = 2.210990 g / cm^3
# Si number density = 22.160336 Si / 1000 Ang^3
#
#
#
# Elastic Constant Matrix: (Units=GPa)
#
#
# Indices 1 2 3 4 5 6 
#
# 1 133.3181 4.3289 109.6318 0.0000 -34.0145 0.0000
# 2 4.3289 78.8120 -2.1163 0.0000 -5.3005 0.0000
# 3 109.6318 -2.1163 178.3060 0.0000 -8.7784 0.0000
# 4 0.0000 0.0000 0.0000 -112.2598 0.0000 18.2911
# 5 -34.0145 -5.3005 -8.7784 0.0000 37.6177 0.0000
# 6 0.0000 0.0000 0.0000 18.2911 0.0000 -26.7697
#
#
#
# Elastic Compliance Matrix: (Units=1/GPa)
#
#
# Indices 1 2 3 4 5 6 
#
# 1 0.022800 -0.000430 -0.013163 0.000000 0.017484 0.000000
# 2 -0.000430 0.012828 0.000492 0.000000 0.001534 0.000000
# 3 -0.013163 0.000492 0.013277 0.000000 -0.008734 0.000000
# 4 0.000000 0.000000 0.000000 -0.010024 0.000000 -0.006849
# 5 0.017484 0.001534 -0.008734 0.000000 0.040570 0.000000
# 6 0.000000 0.000000 0.000000 -0.006849 0.000000 -0.042035
#
#
# Mechanical properties :
#
#
# Convention : Reuss Voigt Hill
#
# Bulk Modulus (GPa) = 44.04463 68.23612 56.14037
# Shear Modulus (GPa) = 70.23854 -1.70958 34.26448
#
# Velocity S-wave (km/s) = 5.63599 -0.87928 3.93645
# Velocity P-wave (km/s) = 7.89121 5.46150 6.78598
#
# Compressibility (1/GPa) = 0.02270425
#
# Stress axis : x y z
#
# Youngs Moduli (GPa) = 43.85991 77.95211 75.31598
#
# Poissons Ratio (x) = 0.03351 0.99138
# Poissons Ratio (y) = 0.01886 -0.03706
# Poissons Ratio (z) = 0.57732 -0.03836
#
# Static dielectric constant tensor:
#      x y z
#    x 1.780700 0.000000 -0.021680 
#    y 0.000000 1.845970 0.000000 
#    z -0.021680 0.000000 1.773580 
# 
# From -- ./inp_files/49133.got.cif
#   From: 2010.05.17/outbox.cif.g08.bks.cpg/sg10_25_cif.got.tgz:49133.got - 2010.06.03 11:33:40.
