data_PCOD9145111
_publ_section_title
;
Structure prediction by ZEFSAII (Michael W. Deem and Ramdas Pophale) SiO2 
 PCOD9145111
Probable space group: P 2/M
;
_chemical_formula_sum "Si O2"
_cell_formula_units_Z 18
_cell_length_a 7.454815
_cell_length_b 12.801422
_cell_length_c 10.319278
_cell_angle_alpha 90.000000
_cell_angle_beta 91.962826
_cell_angle_gamma 90.000000
_cell_volume 984.213923
_symmetry_space_group_name_H-M "P 2/M"
_symmetry_group_IT_number 10
_symmetry_cell_setting 'monoclinic'
loop_
_space_group_symop_operation_xyz
x,y,z
-x,y,-z
-x,-y,-z
x,-y,z
loop_
_atom_site_type_symbol
_atom_site_label
_atom_site_fract_x
_atom_site_fract_y
_atom_site_fract_z
Si Si1 0.863745 0.878372 0.614532
Si Si2 0.500000 0.213389 0.500000
Si Si3 0.872297 0.307594 0.808196
Si Si4 0.233994 0.380551 0.926636
Si Si5 0.502815 0.382108 0.707951
O O1 0.663410 0.854181 0.558299
O O2 0.897815 0.801829 0.736208
O O3 0.000000 0.855041 0.500000
O O4 0.882525 0.000000 0.648991
O O5 0.434763 0.292583 0.610608
O O6 0.716896 0.367840 0.726044
O O7 0.062059 0.365174 0.829035
O O8 0.795752 0.304197 0.953226
O O9 0.232604 0.500000 0.977518
O O10 0.410164 0.366664 0.845296
O O11 0.459184 0.500000 0.664765
#
# Coordination Sequence:
#
# PCOD9145111 Si02
#       5
#     4   2   4   4   4
#     4  10  21  37  55  73  95 128 169 211 255 296
#     4  10  20  34  54  76 102 130 164 208 248 292
#     4  10  19  32  51  73  99 131 168 205 241 289
#     4  10  19  32  51  75 105 137 164 193 239 298
#     4  10  19  31  50  77 106 135 164 196 239 293
#
# _framework density 18.288706000000001
#
# number of rings (size 3 to 8) (size 9 to 14) (size 15 to 20)
#    0.000    2.000    0.000    5.333    0.000    1.778 
#    0.000    2.222    0.000   26.000    0.000    0.000 
#    0.000    0.000    0.000    0.000    0.000    0.000 
#
# Total GULP energy -100405.572507 kJ/mol
# GULP energy per Si atom -5578.087362 kJ/mol
# Density = 1.824708 g / cm^3
# Si number density = 18.288706 Si / 1000 Ang^3
#
#
#
# Elastic Constant Matrix: (Units=GPa)
#
#
# Indices 1 2 3 4 5 6 
#
# 1 61.8638 21.5935 7.8379 0.0000 -7.4135 0.0000
# 2 21.5935 101.8381 60.7314 0.0000 -21.9279 0.0000
# 3 7.8379 60.7314 80.7398 0.0000 -14.3680 0.0000
# 4 0.0000 0.0000 0.0000 31.5683 0.0000 -5.9898
# 5 -7.4135 -21.9279 -14.3680 0.0000 27.8081 0.0000
# 6 0.0000 0.0000 0.0000 -5.9898 0.0000 15.0772
#
#
#
# Elastic Compliance Matrix: (Units=1/GPa)
#
#
# Indices 1 2 3 4 5 6 
#
# 1 0.017747 -0.004517 0.002074 0.000000 0.002241 0.000000
# 2 -0.004517 0.020658 -0.013673 0.000000 0.008021 0.000000
# 3 0.002074 -0.013673 0.022739 0.000000 0.001520 0.000000
# 4 0.000000 0.000000 0.000000 0.034260 0.000000 0.013611
# 5 0.002241 0.008021 0.001520 0.000000 0.043669 0.000000
# 6 0.000000 0.000000 0.000000 0.013611 0.000000 0.071733
#
#
# Mechanical properties :
#
#
# Convention : Reuss Voigt Hill
#
# Bulk Modulus (GPa) = 34.58812 47.19638 40.89225
# Shear Modulus (GPa) = 19.78816 25.17596 22.48206
#
# Velocity S-wave (km/s) = 3.29293 3.71426 3.50992
# Velocity P-wave (km/s) = 5.78024 6.65257 6.23169
#
# Compressibility (1/GPa) = 0.02891166
#
# Stress axis : x y z
#
# Youngs Moduli (GPa) = 56.34736 48.40641 43.97654
#
# Poissons Ratio (x) = 0.21866 -0.09120
# Poissons Ratio (y) = 0.25454 0.60130
# Poissons Ratio (z) = -0.11685 0.66187
#
# Static dielectric constant tensor:
#      x y z
#    x 1.649150 0.000000 0.018030 
#    y 0.000000 1.593030 0.000000 
#    z 0.018030 0.000000 1.649010 
# 
# From -- ./inp_files/17313.got.cif
#   From: 2010.05.17/outbox.cif.g08.bks.cpg/sg10_9_cif.got.tgz:17313.got - 2010.06.03 11:33:40.
