data_PCOD9145628
_publ_section_title
;
Structure prediction by ZEFSAII (Michael W. Deem and Ramdas Pophale) SiO2 
 PCOD9145628
Probable space group: P 2/M
;
_chemical_formula_sum "Si O2"
_cell_formula_units_Z 32
_cell_length_a 32.702454
_cell_length_b 7.523259
_cell_length_c 12.743416
_cell_angle_alpha 90.000000
_cell_angle_beta 28.740113
_cell_angle_gamma 90.000000
_cell_volume 1507.545830
_symmetry_space_group_name_H-M "P 2/M"
_symmetry_group_IT_number 10
_symmetry_cell_setting 'monoclinic'
loop_
_space_group_symop_operation_xyz
x,y,z
-x,y,-z
-x,-y,-z
x,-y,z
loop_
_atom_site_type_symbol
_atom_site_label
_atom_site_fract_x
_atom_site_fract_y
_atom_site_fract_z
Si Si1 0.265442 0.297320 0.892146
Si Si2 0.619298 0.286570 0.983743
Si Si3 0.597338 0.717702 0.798685
Si Si4 0.458779 0.210964 0.482879
Si Si5 0.087330 0.785439 0.674381
Si Si6 0.235983 0.291021 0.185724
Si Si7 0.893348 0.785231 0.134140
Si Si8 0.258579 0.708810 0.679555
O O1 0.231922 0.500000 0.966288
O O2 0.367974 0.297544 0.667290
O O3 0.243307 0.213772 0.829550
O O4 0.235539 0.214256 0.069457
O O5 0.628280 0.500000 0.959743
O O6 0.526681 0.246052 0.238923
O O7 0.627674 0.222730 0.845638
O O8 0.690078 0.215681 0.905252
O O9 0.599278 0.500000 0.793921
O O10 0.660407 0.781763 0.565937
O O11 0.500000 0.770586 0.000000
O O12 0.500000 0.273441 0.500000
O O13 0.444496 0.000000 0.523775
O O14 0.147963 0.724617 0.445287
O O15 0.121473 0.726805 0.712054
O O16 0.087751 0.000000 0.673497
O O17 0.989012 0.728773 0.888424
O O18 0.256560 0.500000 0.126640
O O19 0.822250 0.723363 0.214062
O O20 0.892343 0.000000 0.136363
O O21 0.276998 0.500000 0.654977
#
# Coordination Sequence:
#
# PCOD9145628 Si02
#       8
#     4   4   4   4   4   4   4   4
#     4  10  21  37  55  76 106 145 182 220 267 317
#     4  10  19  32  52  74 102 139 175 217 271 323
#     4   9  17  30  49  75 104 134 171 215 260 310
#     4  11  22  34  50  75 105 139 182 226 263 308
#     4   9  19  36  58  81 108 140 173 213 266 323
#     4  10  20  33  52  80 107 135 178 225 267 313
#     4   9  19  37  58  81 108 140 175 213 264 324
#     4  10  20  35  57  81 106 140 182 221 264 316
#
# _framework density 21.22655
#
# number of rings (size 3 to 8) (size 9 to 14) (size 15 to 20)
#    0.000    2.250    1.250    2.625    0.000    6.000 
#    0.000    2.500    0.000    5.250    0.000    0.000 
#    0.000    0.000    0.000    0.000    0.000    0.000 
#
# Total GULP energy -178758.521823 kJ/mol
# GULP energy per Si atom -5586.203807 kJ/mol
# Density = 2.117824 g / cm^3
# Si number density = 21.226550 Si / 1000 Ang^3
#
#
#
# Elastic Constant Matrix: (Units=GPa)
#
#
# Indices 1 2 3 4 5 6 
#
# 1 165.7907 5.0312 84.4647 0.0000 26.1039 0.0000
# 2 5.0312 56.4177 -7.7090 0.0000 5.8922 0.0000
# 3 84.4647 -7.7090 132.4655 0.0000 31.3321 0.0000
# 4 0.0000 0.0000 0.0000 28.9841 0.0000 -7.9035
# 5 26.1039 5.8922 31.3321 0.0000 36.1052 0.0000
# 6 0.0000 0.0000 0.0000 -7.9035 0.0000 7.8031
#
#
#
# Elastic Compliance Matrix: (Units=1/GPa)
#
#
# Indices 1 2 3 4 5 6 
#
# 1 0.009145 -0.001408 -0.005541 0.000000 -0.001574 0.000000
# 2 -0.001408 0.018772 0.003113 0.000000 -0.004747 0.000000
# 3 -0.005541 0.003113 0.013131 0.000000 -0.007897 0.000000
# 4 0.000000 0.000000 0.000000 0.047667 0.000000 0.048280
# 5 -0.001574 -0.004747 -0.007897 0.000000 0.036463 0.000000
# 6 0.000000 0.000000 0.000000 0.048280 0.000000 0.177054
#
#
# Mechanical properties :
#
#
# Convention : Reuss Voigt Hill
#
# Bulk Modulus (GPa) = 29.96160 57.58306 43.77233
# Shear Modulus (GPa) = 15.57491 32.77094 24.17293
#
# Velocity S-wave (km/s) = 2.71171 3.93347 3.37828
# Velocity P-wave (km/s) = 4.89391 6.91493 5.99027
#
# Compressibility (1/GPa) = 0.03337606
#
# Stress axis : x y z
#
# Youngs Moduli (GPa) = 109.34724 53.27167 76.15289
#
# Poissons Ratio (x) = 0.07502 0.42197
# Poissons Ratio (y) = 0.15400 -0.23708
# Poissons Ratio (z) = 0.60590 -0.16585
#
# Static dielectric constant tensor:
#      x y z
#    x 1.773950 0.000000 0.031840 
#    y 0.000000 1.804400 0.000000 
#    z 0.031840 0.000000 1.726760 
# 
# From -- ./inp_files/55344.got.cif
#   From: 2010.05.17/outbox.cif.g08.bks.cpg/sg10_28_cif.got.tgz:55344.got - 2010.06.03 11:33:40.
