data_PCOD9145786
_publ_section_title
;
Structure prediction by ZEFSAII (Michael W. Deem and Ramdas Pophale) SiO2 
 PCOD9145786
Probable space group: P 2/M
;
_chemical_formula_sum "Si O2"
_cell_formula_units_Z 32
_cell_length_a 12.161961
_cell_length_b 8.645384
_cell_length_c 34.645817
_cell_angle_alpha 90.000000
_cell_angle_beta 150.611740
_cell_angle_gamma 90.000000
_cell_volume 1787.627755
_symmetry_space_group_name_H-M "P 2/M"
_symmetry_group_IT_number 10
_symmetry_cell_setting 'monoclinic'
loop_
_space_group_symop_operation_xyz
x,y,z
-x,y,-z
-x,-y,-z
x,-y,z
loop_
_atom_site_type_symbol
_atom_site_label
_atom_site_fract_x
_atom_site_fract_y
_atom_site_fract_z
Si Si1 0.145511 0.814822 0.724972
Si Si2 0.978931 0.686399 0.816376
Si Si3 0.369123 0.813985 0.420607
Si Si4 0.666401 0.315044 0.140308
Si Si5 0.818606 0.312624 0.348635
Si Si6 0.721596 0.313967 0.470296
Si Si7 0.468507 0.311342 0.667198
Si Si8 0.685789 0.822286 0.022682
O O1 0.294376 0.753411 0.805572
O O2 0.211605 0.752198 0.703284
O O3 0.888338 0.764625 0.654634
O O4 0.149658 0.000000 0.725631
O O5 0.980275 0.500000 0.816236
O O6 0.722479 0.740243 0.736969
O O7 0.130403 0.738073 0.826187
O O8 0.100928 0.741835 0.892682
O O9 0.500000 0.773900 0.500000
O O10 0.502217 0.737256 0.426435
O O11 0.376256 0.000000 0.418493
O O12 0.672714 0.500000 0.143765
O O13 0.435608 0.261456 0.049878
O O14 0.821479 0.500000 0.347568
O O15 0.629846 0.264505 0.321657
O O16 0.057185 0.259458 0.439587
O O17 0.733307 0.500000 0.473452
O O18 0.692202 0.262160 0.417125
O O19 0.470035 0.500000 0.667418
O O20 0.733928 0.000000 0.027912
O O21 0.500000 0.819157 0.000000
#
# Coordination Sequence:
#
# PCOD9145786 Si02
#       8
#     4   4   4   4   4   4   4   4
#     4  11  22  35  51  71 102 138 173 211 255 303
#     4   9  17  31  52  77 106 136 166 204 251 302
#     4  10  20  34  49  68 100 137 167 203 256 307
#     4  10  19  32  53  81 108 132 166 205 249 304
#     4  10  20  34  52  72  98 135 176 215 256 300
#     4  10  19  32  53  77  99 128 173 221 258 298
#     4   9  18  33  52  75 102 132 169 215 260 299
#     4   9  17  30  50  77 109 138 164 197 246 303
#
# _framework density 17.900818999999998
#
# number of rings (size 3 to 8) (size 9 to 14) (size 15 to 20)
#    0.000    2.250    1.250    2.250    0.000    5.750 
#    0.000    1.875    0.000    2.250    0.000    5.250 
#    0.000    0.000    0.000    0.000    0.000    0.000 
#
# Total GULP energy -178543.794183 kJ/mol
# GULP energy per Si atom -5579.493568 kJ/mol
# Density = 1.786008 g / cm^3
# Si number density = 17.900819 Si / 1000 Ang^3
#
#
#
# Elastic Constant Matrix: (Units=GPa)
#
#
# Indices 1 2 3 4 5 6 
#
# 1 89.3442 15.8262 49.8228 0.0000 -23.9491 0.0000
# 2 15.8262 18.0296 21.2048 0.0000 -8.9970 0.0000
# 3 49.8228 21.2048 112.8300 0.0000 -34.3355 0.0000
# 4 0.0000 0.0000 0.0000 15.3207 0.0000 5.8217
# 5 -23.9491 -8.9970 -34.3355 0.0000 24.0084 0.0000
# 6 0.0000 0.0000 0.0000 5.8217 0.0000 1.0045
#
#
#
# Elastic Compliance Matrix: (Units=1/GPa)
#
#
# Indices 1 2 3 4 5 6 
#
# 1 0.016683 -0.005920 -0.003302 0.000000 0.009701 0.000000
# 2 -0.005920 0.075808 -0.008472 0.000000 0.010387 0.000000
# 3 -0.003302 -0.008472 0.017608 0.000000 0.018713 0.000000
# 4 0.000000 0.000000 0.000000 -0.054287 0.000000 0.314635
# 5 0.009701 0.010387 0.018713 0.000000 0.081983 0.000000
# 6 0.000000 0.000000 0.000000 0.314635 0.000000 -0.828007
#
#
# Mechanical properties :
#
#
# Convention : Reuss Voigt Hill
#
# Bulk Modulus (GPa) = 13.38492 43.76794 28.57643
# Shear Modulus (GPa) = -7.93752 16.95672 4.50960
#
# Velocity S-wave (km/s) = -2.10803 3.08110 1.58893
# Velocity P-wave (km/s) = 1.25238 6.09597 4.40053
#
# Compressibility (1/GPa) = 0.07471095
#
# Stress axis : x y z
#
# Youngs Moduli (GPa) = 59.94093 13.19118 56.79293
#
# Poissons Ratio (x) = 0.07809 0.18754
# Poissons Ratio (y) = 0.35483 0.48116
# Poissons Ratio (z) = 0.19794 0.11176
#
# Static dielectric constant tensor:
#      x y z
#    x 1.598870 0.000000 0.002720 
#    y 0.000000 1.602980 0.000000 
#    z 0.002720 0.000000 1.610250 
# 
# From -- ./inp_files/55213.got.cif
#   From: 2010.05.17/outbox.cif.g08.bks.cpg/sg10_28_cif.got.tgz:55213.got - 2010.06.03 11:33:40.
