data_PCOD9145461
_publ_section_title
;
Structure prediction by ZEFSAII (Michael W. Deem and Ramdas Pophale) SiO2 
 PCOD9145461
Probable space group: P 2/M
;
_chemical_formula_sum "Si O2"
_cell_formula_units_Z 26
_cell_length_a 29.457011
_cell_length_b 8.029590
_cell_length_c 5.292121
_cell_angle_alpha 90.000000
_cell_angle_beta 69.510890
_cell_angle_gamma 90.000000
_cell_volume 1172.547086
_symmetry_space_group_name_H-M "P 2/M"
_symmetry_group_IT_number 10
_symmetry_cell_setting 'monoclinic'
loop_
_space_group_symop_operation_xyz
x,y,z
-x,y,-z
-x,-y,-z
x,-y,z
loop_
_atom_site_type_symbol
_atom_site_label
_atom_site_fract_x
_atom_site_fract_y
_atom_site_fract_z
Si Si1 0.864983 0.797849 0.070934
Si Si2 0.033167 0.000000 0.689640
Si Si3 0.695997 0.299484 0.850351
Si Si4 0.807536 0.800096 0.674484
Si Si5 0.057647 0.678713 0.429329
Si Si6 0.640332 0.295875 0.459157
Si Si7 0.471484 0.703674 0.305321
O O1 0.830769 0.753060 0.897436
O O2 0.915902 0.719917 0.884653
O O3 0.870669 0.000000 0.065234
O O4 0.838750 0.738461 0.374935
O O5 0.065175 0.164755 0.598728
O O6 0.000000 0.000000 0.500000
O O7 0.000000 0.000000 0.000000
O O8 0.692875 0.500000 0.855160
O O9 0.752093 0.253454 0.759241
O O10 0.670848 0.239695 0.642303
O O11 0.666365 0.239898 0.152311
O O12 0.808908 0.000000 0.659866
O O13 0.074075 0.500000 0.494353
O O14 0.000000 0.668923 0.500000
O O15 0.640369 0.500000 0.458611
O O16 0.584434 0.243343 0.583194
O O17 0.500000 0.756712 0.500000
O O18 0.471306 0.500000 0.304810
O O19 0.500000 0.757633 0.000000
#
# Coordination Sequence:
#
# PCOD9145461 Si02
#       7
#     4   2   4   4   4   4   4
#     4  10  21  39  59  82 111 146 182 227 286 337
#     4  10  22  40  62  86 120 158 192 238 288 334
#     4  10  19  32  50  72 102 136 173 219 273 328
#     4  10  22  38  58  81 109 142 183 231 278 333
#     4  10  22  41  65  94 124 158 200 242 288 352
#     4   9  17  28  44  69 101 138 176 218 270 326
#     4   9  15  23  37  60  95 136 173 211 261 321
#
# _framework density 22.173947999999999
#
# number of rings (size 3 to 8) (size 9 to 14) (size 15 to 20)
#    0.000    2.308    0.769    1.846    0.000    7.692 
#    0.000    3.077    0.000    0.000    0.000    0.000 
#    0.000   12.308    0.000    0.000    0.000    0.000 
#
# Total GULP energy -145388.453164 kJ/mol
# GULP energy per Si atom -5591.863583 kJ/mol
# Density = 2.212348 g / cm^3
# Si number density = 22.173948 Si / 1000 Ang^3
#
#
#
# Elastic Constant Matrix: (Units=GPa)
#
#
# Indices 1 2 3 4 5 6 
#
# 1 136.2505 -2.4260 61.7951 0.0000 -9.6940 0.0000
# 2 -2.4260 65.7837 22.7903 0.0000 1.8076 0.0000
# 3 61.7951 22.7903 173.4813 0.0000 -6.6560 0.0000
# 4 0.0000 0.0000 0.0000 7.0381 0.0000 -8.4026
# 5 -9.6940 1.8076 -6.6560 0.0000 45.6036 0.0000
# 6 0.0000 0.0000 0.0000 -8.4026 0.0000 24.4369
#
#
#
# Elastic Compliance Matrix: (Units=1/GPa)
#
#
# Indices 1 2 3 4 5 6 
#
# 1 0.008975 0.001449 -0.003335 0.000000 0.001364 0.000000
# 2 0.001449 0.016200 -0.002672 0.000000 -0.000724 0.000000
# 3 -0.003335 -0.002672 0.007321 0.000000 0.000466 0.000000
# 4 0.000000 0.000000 0.000000 0.241029 0.000000 0.082877
# 5 0.001364 -0.000724 0.000466 0.000000 0.022315 0.000000
# 6 0.000000 0.000000 0.000000 0.082877 0.000000 0.069419
#
#
# Mechanical properties :
#
#
# Convention : Reuss Voigt Hill
#
# Bulk Modulus (GPa) = 42.77171 59.98160 51.37666
# Shear Modulus (GPa) = 13.08323 34.97280 24.02801
#
# Velocity S-wave (km/s) = 2.43168 3.97571 3.29540
# Velocity P-wave (km/s) = 5.21681 6.94149 6.14001
#
# Compressibility (1/GPa) = 0.02337994
#
# Stress axis : x y z
#
# Youngs Moduli (GPa) = 111.42393 61.72690 136.59125
#
# Poissons Ratio (x) = -0.08943 0.45551
# Poissons Ratio (y) = -0.16144 0.36499
# Poissons Ratio (z) = 0.37158 0.16494
#
# Static dielectric constant tensor:
#      x y z
#    x 1.723860 0.000000 -0.060280 
#    y 0.000000 1.873490 0.000000 
#    z -0.060280 0.000000 1.707860 
# 
# From -- ./inp_files/13538.got.cif
#   From: 2010.05.17/outbox.cif.g08.bks.cpg/sg10_7_cif.got.tgz:13538.got - 2010.06.03 11:33:40.
