data_PCOD9145956
_publ_section_title
;
Structure prediction by ZEFSAII (Michael W. Deem and Ramdas Pophale) SiO2 
 PCOD9145956
Probable space group: P 2/M
;
_chemical_formula_sum "Si O2"
_cell_formula_units_Z 20
_cell_length_a 8.644714
_cell_length_b 15.313561
_cell_length_c 15.616643
_cell_angle_alpha 90.000000
_cell_angle_beta 29.467742
_cell_angle_gamma 90.000000
_cell_volume 1016.999811
_symmetry_space_group_name_H-M "P 2/M"
_symmetry_group_IT_number 10
_symmetry_cell_setting 'monoclinic'
loop_
_space_group_symop_operation_xyz
x,y,z
-x,y,-z
-x,-y,-z
x,-y,z
loop_
_atom_site_type_symbol
_atom_site_label
_atom_site_fract_x
_atom_site_fract_y
_atom_site_fract_z
Si Si1 0.375587 0.601676 0.817923
Si Si2 0.393848 0.902233 0.650202
Si Si3 0.641928 0.904346 0.027510
Si Si4 0.631192 0.722587 0.841325
Si Si5 0.241337 0.738314 0.463250
O O1 0.460395 0.500000 0.771135
O O2 0.507715 0.645462 0.840764
O O3 0.530041 0.657942 0.667387
O O4 0.000000 0.609852 0.000000
O O5 0.500000 0.895257 0.500000
O O6 0.563798 0.826035 0.619046
O O7 0.017371 0.894490 0.839911
O O8 0.482253 0.000000 0.636606
O O9 0.574303 0.000000 0.100332
O O10 0.500000 0.908069 0.000000
O O11 0.493905 0.815846 0.135584
O O12 0.008866 0.724801 0.655570
O O13 0.500000 0.714178 0.000000
O O14 0.000000 0.743808 0.500000
#
# Coordination Sequence:
#
# PCOD9145956 Si02
#       5
#     4   4   4   4   4
#     4  10  22  41  61  80 108 146 185 231 289 344
#     4  10  19  32  54  83 115 152 192 234 277 324
#     4   9  17  30  50  78 112 147 183 225 273 324
#     4  10  20  35  58  85 112 146 188 233 277 327
#     4  10  22  37  57  84 116 153 187 229 282 339
#
# _framework density 19.665687999999999
#
# number of rings (size 3 to 8) (size 9 to 14) (size 15 to 20)
#    0.000    2.200    0.000    3.600    0.000    6.800 
#    0.000    3.000    0.000   13.800    0.000    0.000 
#    0.000    0.000    0.000    0.000    0.000    0.000 
#
# Total GULP energy -111636.591439 kJ/mol
# GULP energy per Si atom -5581.829572 kJ/mol
# Density = 1.962093 g / cm^3
# Si number density = 19.665688 Si / 1000 Ang^3
#
#
#
# Elastic Constant Matrix: (Units=GPa)
#
#
# Indices 1 2 3 4 5 6 
#
# 1 29.4248 38.8098 24.1566 0.0000 -3.3530 0.0000
# 2 38.8098 203.0991 84.9164 0.0000 -10.7774 0.0000
# 3 24.1566 84.9164 122.9276 0.0000 6.2783 0.0000
# 4 0.0000 0.0000 0.0000 33.0368 0.0000 -3.2437
# 5 -3.3530 -10.7774 6.2783 0.0000 31.9120 0.0000
# 6 0.0000 0.0000 0.0000 -3.2437 0.0000 28.7496
#
#
#
# Elastic Compliance Matrix: (Units=1/GPa)
#
#
# Indices 1 2 3 4 5 6 
#
# 1 0.047354 -0.006878 -0.004738 0.000000 0.003585 0.000000
# 2 -0.006878 0.008287 -0.004525 0.000000 0.002966 0.000000
# 3 -0.004738 -0.004525 0.012420 0.000000 -0.004469 0.000000
# 4 0.000000 0.000000 0.000000 0.030608 0.000000 0.003453
# 5 0.003585 0.002966 -0.004469 0.000000 0.033594 0.000000
# 6 0.000000 0.000000 0.000000 0.003453 0.000000 0.035173
#
#
# Mechanical properties :
#
#
# Convention : Reuss Voigt Hill
#
# Bulk Modulus (GPa) = 27.94775 72.35746 50.15260
# Shear Modulus (GPa) = 23.62470 32.57760 28.10115
#
# Velocity S-wave (km/s) = 3.46976 4.07451 3.78424
# Velocity P-wave (km/s) = 5.50405 7.68174 6.68221
#
# Compressibility (1/GPa) = 0.03578106
#
# Stress axis : x y z
#
# Youngs Moduli (GPa) = 21.11740 120.66961 80.51794
#
# Poissons Ratio (x) = 0.82994 0.38147
# Poissons Ratio (y) = 0.14524 0.36431
# Poissons Ratio (z) = 0.10005 0.54597
#
# Static dielectric constant tensor:
#      x y z
#    x 1.689190 0.000000 0.032480 
#    y 0.000000 1.692500 0.000000 
#    z 0.032480 0.000000 1.718430 
# 
# From -- ./inp_files/75161.got.cif
#   From: 2010.05.17/outbox.cif.g08.bks.cpg/sg10_38_cif.got.tgz:75161.got - 2010.06.03 11:33:40.
