data_PCOD9145199
_publ_section_title
;
Structure prediction by ZEFSAII (Michael W. Deem and Ramdas Pophale) SiO2 
 PCOD9145199
Probable space group: P 2/M
;
_chemical_formula_sum "Si O2"
_cell_formula_units_Z 28
_cell_length_a 5.406385
_cell_length_b 17.595861
_cell_length_c 13.814479
_cell_angle_alpha 90.000000
_cell_angle_beta 107.112528
_cell_angle_gamma 90.000000
_cell_volume 1255.991296
_symmetry_space_group_name_H-M "P 2/M"
_symmetry_group_IT_number 10
_symmetry_cell_setting 'monoclinic'
loop_
_space_group_symop_operation_xyz
x,y,z
-x,y,-z
-x,-y,-z
x,-y,z
loop_
_atom_site_type_symbol
_atom_site_label
_atom_site_fract_x
_atom_site_fract_y
_atom_site_fract_z
Si Si1 0.202322 0.684933 0.939253
Si Si2 0.776645 0.732932 0.534427
Si Si3 0.136091 0.089335 0.709839
Si Si4 0.349820 0.416996 0.611643
Si Si5 0.793030 0.868532 0.060861
Si Si6 0.930418 0.629790 0.714856
Si Si7 0.575711 0.087269 0.620123
O O1 0.197134 0.776702 0.927485
O O2 0.081369 0.646915 0.830322
O O3 0.500000 0.664169 0.000000
O O4 0.000000 0.665490 0.000000
O O5 0.500000 0.771789 0.500000
O O6 0.717878 0.653182 0.467389
O O7 0.870574 0.707507 0.649825
O O8 0.000000 0.772140 0.500000
O O9 0.162792 0.097319 0.827967
O O10 0.369366 0.122196 0.671582
O O11 0.857501 0.124241 0.654650
O O12 0.126896 0.000000 0.681227
O O13 0.327644 0.500000 0.562270
O O14 0.642919 0.406732 0.686070
O O15 0.134988 0.413069 0.670398
O O16 0.500000 0.889670 0.000000
O O17 0.000000 0.889466 0.000000
O O18 0.500000 0.079173 0.500000
O O19 0.612562 0.000000 0.661268
#
# Coordination Sequence:
#
# PCOD9145199 Si02
#       7
#     4   4   4   4   4   4   4
#     4  10  21  38  58  74  92 129 181 223 252 294
#     4   8  16  27  44  72 102 127 153 187 235 292
#     4  10  19  31  51  79 109 140 172 213 268 321
#     4  10  19  31  51  80 108 131 158 194 247 315
#     4  10  21  36  54  77 102 132 174 223 271 318
#     4  10  19  32  52  74  98 131 167 205 246 288
#     4   9  17  30  49  73 104 142 179 208 239 297
#
# _framework density 22.293147000000001
#
# number of rings (size 3 to 8) (size 9 to 14) (size 15 to 20)
#    0.000    2.429    0.000    2.571    0.000    7.429 
#    0.000    0.000    0.000   16.286    0.000    0.000 
#    0.000    0.000    0.000    0.000    0.000    0.000 
#
# Total GULP energy -156350.825810 kJ/mol
# GULP energy per Si atom -5583.958065 kJ/mol
# Density = 2.224241 g / cm^3
# Si number density = 22.293147 Si / 1000 Ang^3
#
#
#
# Elastic Constant Matrix: (Units=GPa)
#
#
# Indices 1 2 3 4 5 6 
#
# 1 237.3324 16.0993 62.8837 0.0000 -4.0770 0.0000
# 2 16.0993 64.9687 -1.2154 0.0000 -1.2570 0.0000
# 3 62.8837 -1.2154 95.5424 0.0000 7.5142 0.0000
# 4 0.0000 0.0000 0.0000 -3.3200 0.0000 -55.7819
# 5 -4.0770 -1.2570 7.5142 0.0000 43.5671 0.0000
# 6 0.0000 0.0000 0.0000 -55.7819 0.0000 -189.7381
#
#
#
# Elastic Compliance Matrix: (Units=1/GPa)
#
#
# Indices 1 2 3 4 5 6 
#
# 1 0.005269 -0.001352 -0.003569 0.000000 0.001070 0.000000
# 2 -0.001352 0.015750 0.001079 0.000000 0.000142 0.000000
# 3 -0.003569 0.001079 0.013030 0.000000 -0.002550 0.000000
# 4 0.000000 0.000000 0.000000 0.076455 0.000000 -0.022477
# 5 0.001070 0.000142 -0.002550 0.000000 0.023497 0.000000
# 6 0.000000 0.000000 0.000000 -0.022477 0.000000 0.001338
#
#
# Mechanical properties :
#
#
# Convention : Reuss Voigt Hill
#
# Bulk Modulus (GPa) = 37.92943 61.48652 49.70798
# Shear Modulus (GPa) = 32.93531 -8.55980 12.18776
#
# Velocity S-wave (km/s) = 3.84783 -1.96163 2.34071
# Velocity P-wave (km/s) = 6.06564 4.74448 5.44528
#
# Compressibility (1/GPa) = 0.02636475
#
# Stress axis : x y z
#
# Youngs Moduli (GPa) = 189.77670 63.49233 76.74471
#
# Poissons Ratio (x) = 0.08583 0.27394
# Poissons Ratio (y) = 0.25655 -0.08280
# Poissons Ratio (z) = 0.67741 -0.06850
#
# Static dielectric constant tensor:
#      x y z
#    x 1.892290 0.000000 -0.024180 
#    y 0.000000 1.863270 0.000000 
#    z -0.024180 0.000000 1.842610 
# 
# From -- ./inp_files/39722.got.cif
#   From: 2010.05.17/outbox.cif.g08.bks.cpg/sg10_20_cif.got.tgz:39722.got - 2010.06.03 11:33:40.
