data_PCOD9145276
_publ_section_title
;
Structure prediction by ZEFSAII (Michael W. Deem and Ramdas Pophale) SiO2 
 PCOD9145276
Probable space group: P 2/M
;
_chemical_formula_sum "Si O2"
_cell_formula_units_Z 28
_cell_length_a 12.302058
_cell_length_b 14.407799
_cell_length_c 10.164163
_cell_angle_alpha 90.000000
_cell_angle_beta 123.488461
_cell_angle_gamma 90.000000
_cell_volume 1502.489691
_symmetry_space_group_name_H-M "P 2/M"
_symmetry_group_IT_number 10
_symmetry_cell_setting 'monoclinic'
loop_
_space_group_symop_operation_xyz
x,y,z
-x,y,-z
-x,-y,-z
x,-y,z
loop_
_atom_site_type_symbol
_atom_site_label
_atom_site_fract_x
_atom_site_fract_y
_atom_site_fract_z
Si Si1 0.600495 0.392704 0.730084
Si Si2 0.234168 0.603935 0.892041
Si Si3 0.821533 0.213492 0.483718
Si Si4 0.853516 0.110290 0.944980
Si Si5 0.350920 0.205142 0.385794
Si Si6 0.883541 0.799428 0.238015
Si Si7 0.684607 0.395284 0.342548
O O1 0.607457 0.500000 0.686751
O O2 0.643305 0.313967 0.655712
O O3 0.453173 0.373350 0.681582
O O4 0.688327 0.387062 0.920038
O O5 0.174637 0.500000 0.848949
O O6 0.139828 0.691496 0.814255
O O7 0.326244 0.609115 0.823896
O O8 0.716432 0.184465 0.520031
O O9 0.810354 0.179187 0.326269
O O10 0.797125 0.324024 0.456370
O O11 0.963820 0.188619 0.630945
O O12 0.740140 0.156523 0.783259
O O13 0.848056 0.000000 0.925076
O O14 0.838652 0.139396 0.086492
O O15 0.000000 0.141620 0.000000
O O16 0.500000 0.174184 0.500000
O O17 0.719548 0.500000 0.401213
#
# Coordination Sequence:
#
# PCOD9145276 Si02
#       7
#     4   4   4   4   4   4   4
#     4  10  19  31  52  84 120 163 205 243 287 348
#     4   9  17  30  52  83 117 159 205 249 291 342
#     4  10  21  35  57  90 122 160 199 244 302 351
#     4  11  24  45  71  92 115 154 201 249 308 373
#     4  12  23  39  62  93 128 160 196 253 304 355
#     4  10  20  39  62  86 121 158 203 249 292 368
#     4   9  17  30  49  80 122 165 207 241 285 348
#
# _framework density 18.635736000000001
#
# number of rings (size 3 to 8) (size 9 to 14) (size 15 to 20)
#    0.000    1.857    4.286    0.429    0.000    3.429 
#    0.000    5.714    0.000    3.429    0.000    0.000 
#    0.000    0.000    0.000    0.000    0.000    0.000 
#
# Total GULP energy -156120.551537 kJ/mol
# GULP energy per Si atom -5575.733983 kJ/mol
# Density = 1.859332 g / cm^3
# Si number density = 18.635736 Si / 1000 Ang^3
#
#
#
# Elastic Constant Matrix: (Units=GPa)
#
#
# Indices 1 2 3 4 5 6 
#
# 1 100.5689 24.6211 53.6524 0.0000 -13.6000 0.0000
# 2 24.6211 38.8896 29.0186 0.0000 2.9735 0.0000
# 3 53.6524 29.0186 130.4122 0.0000 -5.6246 0.0000
# 4 0.0000 0.0000 0.0000 -0.2136 0.0000 5.5521
# 5 -13.6000 2.9735 -5.6246 0.0000 26.1398 0.0000
# 6 0.0000 0.0000 0.0000 5.5521 0.0000 14.9112
#
#
#
# Elastic Compliance Matrix: (Units=1/GPa)
#
#
# Indices 1 2 3 4 5 6 
#
# 1 0.014941 -0.006836 -0.004297 0.000000 0.007626 0.000000
# 2 -0.006836 0.034631 -0.005266 0.000000 -0.008629 0.000000
# 3 -0.004297 -0.005266 0.010635 0.000000 0.000652 0.000000
# 4 0.000000 0.000000 0.000000 -0.438422 0.000000 0.163243
# 5 0.007626 -0.008629 0.000652 0.000000 0.043346 0.000000
# 6 0.000000 0.000000 0.000000 0.163243 0.000000 0.006282
#
#
# Mechanical properties :
#
#
# Convention : Reuss Voigt Hill
#
# Bulk Modulus (GPa) = 36.48281 53.82832 45.15556
# Shear Modulus (GPa) = -17.44257 19.00604 0.78174
#
# Velocity S-wave (km/s) = -3.06269 3.19701 0.64838
# Velocity P-wave (km/s) = 2.66694 6.52495 4.98435
#
# Compressibility (1/GPa) = 0.02741017
#
# Stress axis : x y z
#
# Youngs Moduli (GPa) = 66.93213 28.87621 94.02536
#
# Poissons Ratio (x) = 0.19740 0.40399
# Poissons Ratio (y) = 0.45755 0.49510
# Poissons Ratio (z) = 0.28758 0.15205
#
# Static dielectric constant tensor:
#      x y z
#    x 1.644070 0.000000 -0.028600 
#    y 0.000000 1.643400 0.000000 
#    z -0.028600 0.000000 1.648670 
# 
# From -- ./inp_files/25425.got.cif
#   From: 2010.05.17/outbox.cif.g08.bks.cpg/sg10_13_cif.got.tgz:25425.got - 2010.06.03 11:33:40.
