data_PCOD9145288
_publ_section_title
;
Structure prediction by ZEFSAII (Michael W. Deem and Ramdas Pophale) SiO2 
 PCOD9145288
Probable space group: P 2/M
;
_chemical_formula_sum "Si O2"
_cell_formula_units_Z 32
_cell_length_a 14.701268
_cell_length_b 7.426913
_cell_length_c 13.071627
_cell_angle_alpha 90.000000
_cell_angle_beta 94.979616
_cell_angle_gamma 90.000000
_cell_volume 1421.839234
_symmetry_space_group_name_H-M "P 2/M"
_symmetry_group_IT_number 10
_symmetry_cell_setting 'monoclinic'
loop_
_space_group_symop_operation_xyz
x,y,z
-x,y,-z
-x,-y,-z
x,-y,z
loop_
_atom_site_type_symbol
_atom_site_label
_atom_site_fract_x
_atom_site_fract_y
_atom_site_fract_z
Si Si1 0.902555 0.282846 0.721805
Si Si2 0.717940 0.717901 0.597551
Si Si3 0.063063 0.790339 0.596350
Si Si4 0.900567 0.280301 0.955229
Si Si5 0.395613 0.280125 0.217918
Si Si6 0.707846 0.280134 0.999401
Si Si7 0.594799 0.293996 0.180235
Si Si8 0.732889 0.791288 0.368368
O O1 0.902545 0.500000 0.720422
O O2 0.819855 0.222531 0.640839
O O3 0.885283 0.226638 0.836160
O O4 0.000141 0.221847 0.689860
O O5 0.717892 0.500000 0.596676
O O6 0.648947 0.778642 0.679580
O O7 0.697484 0.778398 0.481019
O O8 0.164057 0.713468 0.620326
O O9 0.000000 0.709951 0.500000
O O10 0.077662 0.000000 0.570776
O O11 0.901772 0.500000 0.957711
O O12 0.813470 0.222545 0.012961
O O13 0.000000 0.218868 0.000000
O O14 0.395353 0.500000 0.222449
O O15 0.334424 0.230156 0.114247
O O16 0.498407 0.215949 0.207143
O O17 0.708422 0.500000 0.003503
O O18 0.645350 0.214405 0.086350
O O19 0.572860 0.500000 0.148581
O O20 0.665269 0.295303 0.280736
O O21 0.738273 0.000000 0.338426
#
# Coordination Sequence:
#
# PCOD9145288 Si02
#       8
#     4   4   4   4   4   4   4   4
#     4  10  19  31  53  82 108 138 178 223 262 310
#     4  10  19  34  57  82 110 142 182 228 270 316
#     4  10  21  37  54  72 101 142 179 212 261 321
#     4   9  17  28  45  78 118 145 166 209 272 319
#     4   9  17  33  56  83 112 141 177 226 278 321
#     4   9  16  30  53  82 114 145 178 216 266 329
#     4  10  21  35  57  85 110 141 183 228 271 320
#     4  11  24  40  55  75 110 148 182 225 276 327
#
# _framework density 22.506060999999999
#
# number of rings (size 3 to 8) (size 9 to 14) (size 15 to 20)
#    0.000    2.250    2.500    0.750    1.750    3.250 
#    0.000    3.125    0.000    3.375    0.000    0.000 
#    0.000    0.000    0.000    0.000    0.000    0.000 
#
# Total GULP energy -178807.017515 kJ/mol
# GULP energy per Si atom -5587.719297 kJ/mol
# Density = 2.245484 g / cm^3
# Si number density = 22.506061 Si / 1000 Ang^3
#
#
#
# Elastic Constant Matrix: (Units=GPa)
#
#
# Indices 1 2 3 4 5 6 
#
# 1 161.7888 -3.0305 40.6835 0.0000 -29.3935 0.0000
# 2 -3.0305 71.2387 -13.5901 0.0000 -0.5305 0.0000
# 3 40.6835 -13.5901 79.3799 0.0000 -30.5729 0.0000
# 4 0.0000 0.0000 0.0000 21.8580 0.0000 -17.8097
# 5 -29.3935 -0.5305 -30.5729 0.0000 38.6914 0.0000
# 6 0.0000 0.0000 0.0000 -17.8097 0.0000 0.0620
#
#
#
# Elastic Compliance Matrix: (Units=1/GPa)
#
#
# Indices 1 2 3 4 5 6 
#
# 1 0.007467 -0.000110 -0.002388 0.000000 0.003784 0.000000
# 2 -0.000110 0.014778 0.003784 0.000000 0.003109 0.000000
# 3 -0.002388 0.003784 0.019824 0.000000 0.013902 0.000000
# 4 0.000000 0.000000 0.000000 -0.000196 0.000000 -0.056390
# 5 0.003784 0.003109 0.013902 0.000000 0.039747 0.000000
# 6 0.000000 0.000000 0.000000 -0.056390 0.000000 -0.069208
#
#
# Mechanical properties :
#
#
# Convention : Reuss Voigt Hill
#
# Bulk Modulus (GPa) = 22.40193 40.05925 31.23059
# Shear Modulus (GPa) = 202.26413 31.34524 116.80469
#
# Velocity S-wave (km/s) = 9.49031 3.73600 7.21193
# Velocity P-wave (km/s) = 11.40454 6.03724 9.12446
#
# Compressibility (1/GPa) = 0.04463901
#
# Stress axis : x y z
#
# Youngs Moduli (GPa) = 133.92523 67.67001 50.44480
#
# Poissons Ratio (x) = 0.00743 0.12048
# Poissons Ratio (y) = 0.01471 -0.19087
# Poissons Ratio (z) = 0.31986 -0.25604
#
# Static dielectric constant tensor:
#      x y z
#    x 1.821570 0.000000 -0.016080 
#    y 0.000000 0.646000 0.000000 
#    z -0.016080 0.000000 1.787600 
# 
# From -- ./inp_files/49782.got.cif
#   From: 2010.05.17/outbox.cif.g08.bks.cpg/sg10_25_cif.got.tgz:49782.got - 2010.06.03 11:33:40.
