data_PCOD9145134
_publ_section_title
;
Structure prediction by ZEFSAII (Michael W. Deem and Ramdas Pophale) SiO2 
 PCOD9145134
Probable space group: P 2/M
;
_chemical_formula_sum "Si O2"
_cell_formula_units_Z 32
_cell_length_a 12.564242
_cell_length_b 8.081034
_cell_length_c 32.185354
_cell_angle_alpha 90.000000
_cell_angle_beta 151.381246
_cell_angle_gamma 90.000000
_cell_volume 1565.230071
_symmetry_space_group_name_H-M "P 2/M"
_symmetry_group_IT_number 10
_symmetry_cell_setting 'monoclinic'
loop_
_space_group_symop_operation_xyz
x,y,z
-x,y,-z
-x,-y,-z
x,-y,z
loop_
_atom_site_type_symbol
_atom_site_label
_atom_site_fract_x
_atom_site_fract_y
_atom_site_fract_z
Si Si1 0.630870 0.799479 0.675015
Si Si2 0.959216 0.697616 0.228132
Si Si3 0.121436 0.199150 0.499654
Si Si4 0.726614 0.306694 0.310240
Si Si5 0.848424 0.810093 0.016640
Si Si6 0.752669 0.690329 0.072780
Si Si7 0.610251 0.802191 0.178513
Si Si8 0.713455 0.196249 0.796632
O O1 0.781577 0.740696 0.688085
O O2 0.375298 0.743599 0.583707
O O3 0.716329 0.739624 0.750066
O O4 0.635309 0.000000 0.677261
O O5 0.932253 0.500000 0.219311
O O6 0.871613 0.762297 0.153794
O O7 0.800706 0.765063 0.209755
O O8 0.000000 0.260545 0.500000
O O9 0.965073 0.246609 0.407848
O O10 0.129113 0.000000 0.504917
O O11 0.708031 0.500000 0.311987
O O12 0.684521 0.270508 0.247705
O O13 0.531196 0.219959 0.269269
O O14 0.776298 0.798989 0.040110
O O15 0.097606 0.735962 0.106807
O O16 0.871040 0.000000 0.009882
O O17 0.635947 0.737560 0.919420
O O18 0.826381 0.500000 0.089059
O O19 0.500000 0.679968 0.000000
O O20 0.591866 0.000000 0.175925
O O21 0.757374 0.000000 0.809085
#
# Coordination Sequence:
#
# PCOD9145134 Si02
#       8
#     4   4   4   4   4   4   4   4
#     4  10  20  36  63  95 125 156 194 245 302 356
#     4  11  22  36  57  88 127 164 200 247 301 354
#     4  10  20  40  68  95 121 154 194 244 303 360
#     4  12  26  42  62  89 121 158 200 249 305 364
#     4  10  21  35  58  88 117 156 207 255 291 339
#     4  10  19  31  50  80 120 160 195 240 297 351
#     4  11  24  42  62  84 117 166 214 251 293 352
#     4  10  20  38  61  89 124 158 198 248 299 355
#
# _framework density 20.444279000000002
#
# number of rings (size 3 to 8) (size 9 to 14) (size 15 to 20)
#    0.000    1.500    3.750    1.875    0.000    3.500 
#    0.000    3.125    0.000    3.750    0.000    0.000 
#    0.000    0.000    0.000    0.000    0.000    0.000 
#
# Total GULP energy -178543.910175 kJ/mol
# GULP energy per Si atom -5579.497193 kJ/mol
# Density = 2.039775 g / cm^3
# Si number density = 20.444279 Si / 1000 Ang^3
#
#
#
# Elastic Constant Matrix: (Units=GPa)
#
#
# Indices 1 2 3 4 5 6 
#
# 1 40.0456 -12.6097 34.3407 0.0000 3.5547 0.0000
# 2 -12.6097 18.7804 3.9525 0.0000 3.0787 0.0000
# 3 34.3407 3.9525 132.7260 0.0000 17.2096 0.0000
# 4 0.0000 0.0000 0.0000 4.4599 0.0000 20.8645
# 5 3.5547 3.0787 17.2096 0.0000 31.1027 0.0000
# 6 0.0000 0.0000 0.0000 20.8645 0.0000 52.2842
#
#
#
# Elastic Compliance Matrix: (Units=1/GPa)
#
#
# Indices 1 2 3 4 5 6 
#
# 1 0.047239 0.034729 -0.013047 0.000000 -0.001618 0.000000
# 2 0.034729 0.079777 -0.010582 0.000000 -0.006011 0.000000
# 3 -0.013047 -0.010582 0.011738 0.000000 -0.003956 0.000000
# 4 0.000000 0.000000 0.000000 -0.258645 0.000000 0.103215
# 5 -0.001618 -0.006011 -0.003956 0.000000 0.035120 0.000000
# 6 0.000000 0.000000 0.000000 0.103215 0.000000 -0.022063
#
#
# Mechanical properties :
#
#
# Convention : Reuss Voigt Hill
#
# Bulk Modulus (GPa) = 6.21295 26.99100 16.60197
# Shear Modulus (GPa) = -66.32898 28.62726 -18.85086
#
# Velocity S-wave (km/s) = -5.70212 3.74606 -3.03984
# Velocity P-wave (km/s) = 6.34876 5.65168 2.04514
#
# Compressibility (1/GPa) = 0.16095416
#
# Stress axis : x y z
#
# Youngs Moduli (GPa) = 21.16911 12.53488 85.19308
#
# Poissons Ratio (x) = -0.43532 1.11149
# Poissons Ratio (y) = -0.73517 0.90149
# Poissons Ratio (z) = 0.27619 0.13264
#
# Static dielectric constant tensor:
#      x y z
#    x 1.715790 0.000000 0.041950 
#    y 0.000000 1.731750 0.000000 
#    z 0.041950 0.000000 1.798190 
# 
# From -- ./inp_files/95025.got.cif
#   From: 2010.05.17/outbox.cif.g08.bks.cpg/sg10_48_cif.got.tgz:95025.got - 2010.06.03 11:33:40.
