data_PCOD9145059
_publ_section_title
;
Structure prediction by ZEFSAII (Michael W. Deem and Ramdas Pophale) SiO2 
 PCOD9145059
Probable space group: P 2/M
;
_chemical_formula_sum "Si O2"
_cell_formula_units_Z 24
_cell_length_a 5.334019
_cell_length_b 28.680149
_cell_length_c 9.719365
_cell_angle_alpha 90.000000
_cell_angle_beta 133.960115
_cell_angle_gamma 90.000000
_cell_volume 1070.285620
_symmetry_space_group_name_H-M "P 2/M"
_symmetry_group_IT_number 10
_symmetry_cell_setting 'monoclinic'
loop_
_space_group_symop_operation_xyz
x,y,z
-x,y,-z
-x,-y,-z
x,-y,z
loop_
_atom_site_type_symbol
_atom_site_label
_atom_site_fract_x
_atom_site_fract_y
_atom_site_fract_z
Si Si1 0.745836 0.946982 0.729259
Si Si2 0.230230 0.092514 0.717644
Si Si3 0.585508 0.651129 0.370763
Si Si4 0.705680 0.751881 0.774920
Si Si5 0.416822 0.449835 0.632187
Si Si6 0.800251 0.199077 0.232579
O O1 0.500000 0.941215 0.500000
O O2 0.612339 0.912966 0.798427
O O3 0.122072 0.936967 0.808596
O O4 0.710609 0.000000 0.764585
O O5 0.121773 0.145050 0.713574
O O6 0.000000 0.076105 0.500000
O O7 0.500000 0.649244 0.500000
O O8 0.394737 0.697746 0.251283
O O9 0.463809 0.600609 0.266227
O O10 0.000000 0.655482 0.500000
O O11 0.374010 0.781134 0.696301
O O12 0.882574 0.769320 0.701729
O O13 0.000000 0.761059 0.000000
O O14 0.500000 0.449919 0.500000
O O15 0.550426 0.500000 0.737734
O O16 0.000000 0.449878 0.500000
O O17 0.500000 0.200772 0.000000
#
# Coordination Sequence:
#
# PCOD9145059 Si02
#       6
#     4   4   4   4   4   4
#     4   9  17  30  49  73  99 124 151 187 235 288
#     4  10  19  31  50  74  95 120 157 198 236 275
#     4  10  19  31  50  76 100 126 165 210 249 284
#     4  10  21  36  51  69  97 134 168 199 247 303
#     4   8  14  25  42  66  96 126 156 194 242 293
#     4  10  21  36  52  69  95 132 166 197 241 295
#
# _framework density 22.423921
#
# number of rings (size 3 to 8) (size 9 to 14) (size 15 to 20)
#    0.000    2.500    0.000    2.500    0.000    4.000 
#    0.000    0.000    0.000    3.500    0.000    0.000 
#    0.000   17.333    0.000    0.000    0.000    2.667 
#
# Total GULP energy -133858.651718 kJ/mol
# GULP energy per Si atom -5577.443822 kJ/mol
# Density = 2.237288 g / cm^3
# Si number density = 22.423921 Si / 1000 Ang^3
#
#
#
# Elastic Constant Matrix: (Units=GPa)
#
#
# Indices 1 2 3 4 5 6 
#
# 1 177.3780 33.9407 21.3784 0.0000 8.1041 0.0000
# 2 33.9407 99.8358 -26.9378 0.0000 2.8211 0.0000
# 3 21.3784 -26.9378 47.8221 0.0000 0.6006 0.0000
# 4 0.0000 0.0000 0.0000 116.0918 0.0000 50.2103
# 5 8.1041 2.8211 0.6006 0.0000 19.0073 0.0000
# 6 0.0000 0.0000 0.0000 50.2103 0.0000 62.2180
#
#
#
# Elastic Compliance Matrix: (Units=1/GPa)
#
#
# Indices 1 2 3 4 5 6 
#
# 1 0.007099 -0.003770 -0.005268 0.000000 -0.002301 0.000000
# 2 -0.003770 0.013887 0.009517 0.000000 -0.000755 0.000000
# 3 -0.005268 0.009517 0.028628 0.000000 -0.000071 0.000000
# 4 0.000000 0.000000 0.000000 0.013232 0.000000 -0.010679
# 5 -0.002301 -0.000755 -0.000071 0.000000 0.053707 0.000000
# 6 0.000000 0.000000 0.000000 -0.010679 0.000000 0.024690
#
#
# Mechanical properties :
#
#
# Convention : Reuss Voigt Hill
#
# Bulk Modulus (GPa) = 19.77337 42.42205 31.09771
# Shear Modulus (GPa) = 31.81816 59.24040 45.52928
#
# Velocity S-wave (km/s) = 3.77097 5.14546 4.51087
# Velocity P-wave (km/s) = 5.27232 7.36616 6.40537
#
# Compressibility (1/GPa) = 0.05057307
#
# Stress axis : x y z
#
# Youngs Moduli (GPa) = 140.86260 72.00759 34.93086
#
# Poissons Ratio (x) = 0.27146 0.18403
# Poissons Ratio (y) = 0.53104 -0.33245
# Poissons Ratio (z) = 0.74210 -0.68533
#
# Static dielectric constant tensor:
#      x y z
#    x 1.850560 0.000000 0.049400 
#    y 0.000000 1.854500 0.000000 
#    z 0.049400 0.000000 1.889070 
# 
# From -- ./inp_files/7958.got.cif
#   From: 2010.05.17/outbox.cif.g08.bks.cpg/sg10_4_cif.got.tgz:7958.got - 2010.06.03 11:33:40.
