data_PCOD9145569
_publ_section_title
;
Structure prediction by ZEFSAII (Michael W. Deem and Ramdas Pophale) SiO2 
 PCOD9145569
Probable space group: P 2/M
;
_chemical_formula_sum "Si O2"
_cell_formula_units_Z 20
_cell_length_a 12.481556
_cell_length_b 8.638176
_cell_length_c 12.454273
_cell_angle_alpha 90.000000
_cell_angle_beta 62.206250
_cell_angle_gamma 90.000000
_cell_volume 1187.877697
_symmetry_space_group_name_H-M "P 2/M"
_symmetry_group_IT_number 10
_symmetry_cell_setting 'monoclinic'
loop_
_space_group_symop_operation_xyz
x,y,z
-x,y,-z
-x,-y,-z
x,-y,z
loop_
_atom_site_type_symbol
_atom_site_label
_atom_site_fract_x
_atom_site_fract_y
_atom_site_fract_z
Si Si1 0.340293 0.184143 0.492063
Si Si2 0.191535 0.184796 0.913726
Si Si3 0.918661 0.686277 0.436616
Si Si4 0.588268 0.684804 0.309132
Si Si5 0.992574 0.685496 0.841475
O O1 0.211981 0.234066 0.504483
O O2 0.356464 0.261551 0.601903
O O3 0.453933 0.244433 0.369967
O O4 0.347743 0.000000 0.501266
O O5 0.322375 0.252061 0.823628
O O6 0.100446 0.241364 0.861970
O O7 0.193871 0.000000 0.914232
O O8 0.131101 0.249911 0.050270
O O9 0.900837 0.500000 0.448200
O O10 0.000000 0.731280 0.500000
O O11 0.985087 0.722592 0.293145
O O12 0.582975 0.500000 0.309441
O O13 0.996625 0.500000 0.853229
#
# Coordination Sequence:
#
# PCOD9145569 Si02
#       5
#     4   4   4   4   4
#     4  11  21  33  51  78 108 137 174 217 266 313
#     4  11  20  31  50  77 109 137 169 218 269 313
#     4  10  21  37  56  77 106 144 182 217 254 307
#     4  11  20  33  53  76 106 140 173 214 266 320
#     4  10  19  32  51  75 105 140 178 213 258 316
#
# _framework density 16.836749999999999
#
# number of rings (size 3 to 8) (size 9 to 14) (size 15 to 20)
#    0.000    1.400    2.000    8.400    0.000    1.200 
#    0.000    0.000    0.000    1.200    0.000    8.400 
#    0.000    0.000    0.000    0.000    0.000    0.000 
#
# Total GULP energy -111717.116715 kJ/mol
# GULP energy per Si atom -5585.855836 kJ/mol
# Density = 1.679843 g / cm^3
# Si number density = 16.836750 Si / 1000 Ang^3
#
#
#
# Elastic Constant Matrix: (Units=GPa)
#
#
# Indices 1 2 3 4 5 6 
#
# 1 99.1008 41.6702 66.4140 0.0000 -16.3821 0.0000
# 2 41.6702 104.8875 42.4268 0.0000 -7.4434 0.0000
# 3 66.4140 42.4268 109.4554 0.0000 -24.5966 0.0000
# 4 0.0000 0.0000 0.0000 0.1733 0.0000 -11.6902
# 5 -16.3821 -7.4434 -24.5966 0.0000 32.5577 0.0000
# 6 0.0000 0.0000 0.0000 -11.6902 0.0000 35.6498
#
#
#
# Elastic Compliance Matrix: (Units=1/GPa)
#
#
# Indices 1 2 3 4 5 6 
#
# 1 0.017918 -0.003256 -0.009336 0.000000 0.001218 0.000000
# 2 -0.003256 0.011919 -0.002891 0.000000 -0.001097 0.000000
# 3 -0.009336 -0.002891 0.017727 0.000000 0.008034 0.000000
# 4 0.000000 0.000000 0.000000 -0.273217 0.000000 -0.089593
# 5 0.001218 -0.001097 0.008034 0.000000 0.037146 0.000000
# 6 0.000000 0.000000 0.000000 -0.089593 0.000000 -0.001328
#
#
# Mechanical properties :
#
#
# Convention : Reuss Voigt Hill
#
# Bulk Modulus (GPa) = 60.24924 68.27397 64.26161
# Shear Modulus (GPa) = -32.60801 24.53834 -4.03483
#
# Velocity S-wave (km/s) = -4.40559 3.82177 -1.54972
# Velocity P-wave (km/s) = 3.15961 7.75327 5.92015
#
# Compressibility (1/GPa) = 0.01659772
#
# Stress axis : x y z
#
# Youngs Moduli (GPa) = 55.81010 83.89948 56.41056
#
# Poissons Ratio (x) = 0.27314 0.52667
# Poissons Ratio (y) = 0.18169 0.16310
# Poissons Ratio (z) = 0.52107 0.24258
#
# Static dielectric constant tensor:
#      x y z
#    x 1.548030 0.000000 -0.025040 
#    y 0.000000 1.559990 0.000000 
#    z -0.025040 0.000000 1.577730 
# 
# From -- ./inp_files/44216.got.cif
#   From: 2010.05.17/outbox.cif.g08.bks.cpg/sg10_23_cif.got.tgz:44216.got - 2010.06.03 11:33:40.
