data_PCOD9145546
_publ_section_title
;
Structure prediction by ZEFSAII (Michael W. Deem and Ramdas Pophale) SiO2 
 PCOD9145546
Probable space group: P 2/M
;
_chemical_formula_sum "Si O2"
_cell_formula_units_Z 22
_cell_length_a 14.519013
_cell_length_b 14.459292
_cell_length_c 6.031978
_cell_angle_alpha 90.000000
_cell_angle_beta 64.132191
_cell_angle_gamma 90.000000
_cell_volume 1139.439660
_symmetry_space_group_name_H-M "P 2/M"
_symmetry_group_IT_number 10
_symmetry_cell_setting 'monoclinic'
loop_
_space_group_symop_operation_xyz
x,y,z
-x,y,-z
-x,-y,-z
x,-y,z
loop_
_atom_site_type_symbol
_atom_site_label
_atom_site_fract_x
_atom_site_fract_y
_atom_site_fract_z
Si Si1 0.204648 0.770254 0.808827
Si Si2 0.292882 0.895660 0.337727
Si Si3 0.702745 0.604787 0.526457
Si Si4 0.091377 0.894399 0.235722
Si Si5 0.371182 0.731842 0.006880
Si Si6 0.500000 0.655659 0.500000
O O1 0.256222 0.849727 0.604746
O O2 0.211242 0.677470 0.651485
O O3 0.107507 0.819032 0.025619
O O4 0.278260 0.744195 0.933505
O O5 0.194149 0.896632 0.278145
O O6 0.372956 0.825756 0.144750
O O7 0.328920 0.000000 0.329139
O O8 0.739347 0.500000 0.512450
O O9 0.658228 0.647433 0.800820
O O10 0.604304 0.604842 0.463272
O O11 0.000000 0.871536 0.500000
O O12 0.075579 0.000000 0.167836
O O13 0.468075 0.713088 0.750663
#
# Coordination Sequence:
#
# PCOD9145546 Si02
#       6
#     4   4   4   4   4   2
#     4   9  18  32  48  69  99 132 160 194 237 283
#     4   9  17  31  50  71  98 132 164 193 231 282
#     4  10  20  33  51  73  95 123 160 200 243 290
#     4   9  17  29  49  79 107 128 155 192 235 283
#     4   9  19  32  47  69  98 128 159 197 240 285
#     4  10  19  32  51  74 100 122 151 200 249 288
#
# _framework density 19.307734
#
# number of rings (size 3 to 8) (size 9 to 14) (size 15 to 20)
#    0.000    2.727    0.000    1.364    0.000    5.818 
#    0.000    3.182    0.000   15.818    0.000   11.455 
#    0.000    0.000    0.000    0.000    0.000    0.000 
#
# Total GULP energy -122536.642536 kJ/mol
# GULP energy per Si atom -5569.847388 kJ/mol
# Density = 1.926379 g / cm^3
# Si number density = 19.307734 Si / 1000 Ang^3
#
#
#
# Elastic Constant Matrix: (Units=GPa)
#
#
# Indices 1 2 3 4 5 6 
#
# 1 28.1770 7.1521 12.5902 0.0000 1.1443 0.0000
# 2 7.1521 172.3502 94.3740 0.0000 -14.0013 0.0000
# 3 12.5902 94.3740 144.7234 0.0000 -15.7345 0.0000
# 4 0.0000 0.0000 0.0000 1.8044 0.0000 -3.3081
# 5 1.1443 -14.0013 -15.7345 0.0000 31.1394 0.0000
# 6 0.0000 0.0000 0.0000 -3.3081 0.0000 13.3336
#
#
#
# Elastic Compliance Matrix: (Units=1/GPa)
#
#
# Indices 1 2 3 4 5 6 
#
# 1 0.037227 0.000249 -0.003743 0.000000 -0.003147 0.000000
# 2 0.000249 0.009065 -0.005810 0.000000 0.001131 0.000000
# 3 -0.003743 -0.005810 0.011380 0.000000 0.003275 0.000000
# 4 0.000000 0.000000 0.000000 1.016683 0.000000 0.252244
# 5 -0.003147 0.001131 0.003275 0.000000 0.034393 0.000000
# 6 0.000000 0.000000 0.000000 0.252244 0.000000 0.137581
#
#
# Mechanical properties :
#
#
# Convention : Reuss Voigt Hill
#
# Bulk Modulus (GPa) = 25.59891 63.72035 44.65963
# Shear Modulus (GPa) = 3.91249 24.66444 14.28846
#
# Velocity S-wave (km/s) = 1.42506 3.57800 2.72332
# Velocity P-wave (km/s) = 3.99936 7.08122 5.75059
#
# Compressibility (1/GPa) = 0.03906417
#
# Stress axis : x y z
#
# Youngs Moduli (GPa) = 26.86215 110.31314 87.87175
#
# Poissons Ratio (x) = -0.02749 0.32893
# Poissons Ratio (y) = -0.00669 0.51054
# Poissons Ratio (z) = 0.10055 0.64093
#
# Static dielectric constant tensor:
#      x y z
#    x 1.692190 0.000000 0.003880 
#    y 0.000000 1.684850 0.000000 
#    z 0.003880 0.000000 1.693150 
# 
# From -- ./inp_files/9055.got.cif
#   From: 2010.05.17/outbox.cif.g08.bks.cpg/sg10_5_cif.got.tgz:9055.got - 2010.06.03 11:33:40.
