data_PCOD9145753
_publ_section_title
;
Structure prediction by ZEFSAII (Michael W. Deem and Ramdas Pophale) SiO2 
 PCOD9145753
Probable space group: P 2/M
;
_chemical_formula_sum "Si O2"
_cell_formula_units_Z 26
_cell_length_a 13.935667
_cell_length_b 8.212348
_cell_length_c 15.034281
_cell_angle_alpha 90.000000
_cell_angle_beta 132.201357
_cell_angle_gamma 90.000000
_cell_volume 1274.594702
_symmetry_space_group_name_H-M "P 2/M"
_symmetry_group_IT_number 10
_symmetry_cell_setting 'monoclinic'
loop_
_space_group_symop_operation_xyz
x,y,z
-x,y,-z
-x,-y,-z
x,-y,z
loop_
_atom_site_type_symbol
_atom_site_label
_atom_site_fract_x
_atom_site_fract_y
_atom_site_fract_z
Si Si1 0.853159 0.311450 0.180472
Si Si2 0.611585 0.697738 0.140147
Si Si3 0.738784 0.182998 0.933370
Si Si4 0.093197 0.811495 0.235217
Si Si5 0.000000 0.751762 0.000000
Si Si6 0.368650 0.691033 0.466568
Si Si7 0.539051 0.806846 0.292116
O O1 0.882953 0.500000 0.215635
O O2 0.752901 0.251167 0.192318
O O3 0.986969 0.218149 0.245972
O O4 0.771865 0.293950 0.037946
O O5 0.609304 0.500000 0.141255
O O6 0.584630 0.764120 0.221296
O O7 0.500000 0.748285 0.000000
O O8 0.613430 0.238477 0.801757
O O9 0.865031 0.174777 0.950907
O O10 0.711568 0.000000 0.950333
O O11 0.239086 0.780414 0.354653
O O12 0.051777 0.691562 0.128406
O O13 0.078043 0.000000 0.195657
O O14 0.500000 0.751165 0.500000
O O15 0.354446 0.500000 0.437142
O O16 0.387959 0.716051 0.583730
O O17 0.550948 0.000000 0.315115
#
# Coordination Sequence:
#
# PCOD9145753 Si02
#       7
#     4   4   4   4   2   4   4
#     4  10  20  35  57  85 120 157 197 245 301 359
#     4  10  20  37  60  88 124 165 204 249 307 365
#     4  10  19  32  52  82 117 153 195 242 297 356
#     4  11  22  39  62  87 121 158 200 250 304 362
#     4  10  19  34  57  84 115 152 191 238 297 358
#     4  11  25  44  64  88 122 163 206 250 299 361
#     4  11  23  37  60  91 122 159 206 255 305 360
#
# _framework density 20.398641000000001
#
# number of rings (size 3 to 8) (size 9 to 14) (size 15 to 20)
#    0.000    1.538    1.538    5.077    0.000    4.615 
#    0.000   11.923    0.000    4.615    0.000    0.000 
#    0.000    0.000    0.000    0.000    0.000    0.000 
#
# Total GULP energy -144989.172787 kJ/mol
# GULP energy per Si atom -5576.506646 kJ/mol
# Density = 2.035221 g / cm^3
# Si number density = 20.398641 Si / 1000 Ang^3
#
#
#
# Elastic Constant Matrix: (Units=GPa)
#
#
# Indices 1 2 3 4 5 6 
#
# 1 131.6685 18.0708 56.7785 0.0000 14.2228 0.0000
# 2 18.0708 36.3270 8.4912 0.0000 10.1002 0.0000
# 3 56.7785 8.4912 104.2700 0.0000 18.4884 0.0000
# 4 0.0000 0.0000 0.0000 28.8576 0.0000 -16.0640
# 5 14.2228 10.1002 18.4884 0.0000 35.3609 0.0000
# 6 0.0000 0.0000 0.0000 -16.0640 0.0000 48.6988
#
#
#
# Elastic Compliance Matrix: (Units=1/GPa)
#
#
# Indices 1 2 3 4 5 6 
#
# 1 0.010455 -0.003869 -0.005322 0.000000 -0.000318 0.000000
# 2 -0.003869 0.031432 0.000951 0.000000 -0.007919 0.000000
# 3 -0.005322 0.000951 0.013314 0.000000 -0.005092 0.000000
# 4 0.000000 0.000000 0.000000 0.042447 0.000000 0.014002
# 5 -0.000318 -0.007919 -0.005092 0.000000 0.033332 0.000000
# 6 0.000000 0.000000 0.000000 0.014002 0.000000 0.025153
#
#
# Mechanical properties :
#
#
# Convention : Reuss Voigt Hill
#
# Bulk Modulus (GPa) = 25.82501 48.77183 37.29842
# Shear Modulus (GPa) = 26.95150 35.17847 31.06498
#
# Velocity S-wave (km/s) = 3.63883 4.15727 3.90666
# Velocity P-wave (km/s) = 5.50840 6.85603 6.21883
#
# Compressibility (1/GPa) = 0.03872215
#
# Stress axis : x y z
#
# Youngs Moduli (GPa) = 95.64877 31.81503 75.11008
#
# Poissons Ratio (x) = 0.12308 0.39971
# Poissons Ratio (y) = 0.37002 -0.07144
# Poissons Ratio (z) = 0.50901 -0.03026
#
# Static dielectric constant tensor:
#      x y z
#    x 1.734110 0.000000 0.003180 
#    y 0.000000 1.719860 0.000000 
#    z 0.003180 0.000000 1.698450 
# 
# From -- ./inp_files/66881.got.cif
#   From: 2010.05.17/outbox.cif.g08.bks.cpg/sg10_34_cif.got.tgz:66881.got - 2010.06.03 11:33:40.
