data_PCOD9145501
_publ_section_title
;
Structure prediction by ZEFSAII (Michael W. Deem and Ramdas Pophale) SiO2 
 PCOD9145501
Probable space group: P 2/M
;
_chemical_formula_sum "Si O2"
_cell_formula_units_Z 28
_cell_length_a 12.122621
_cell_length_b 8.927474
_cell_length_c 17.329082
_cell_angle_alpha 90.000000
_cell_angle_beta 89.991743
_cell_angle_gamma 90.000000
_cell_volume 1875.429202
_symmetry_space_group_name_H-M "P 2/M"
_symmetry_group_IT_number 10
_symmetry_cell_setting 'monoclinic'
loop_
_space_group_symop_operation_xyz
x,y,z
-x,y,-z
-x,-y,-z
x,-y,z
loop_
_atom_site_type_symbol
_atom_site_label
_atom_site_fract_x
_atom_site_fract_y
_atom_site_fract_z
Si Si1 0.233601 0.817876 0.356788
Si Si2 0.629077 0.180377 0.491237
Si Si3 0.506946 0.678849 0.089237
Si Si4 0.992146 0.819524 0.408610
Si Si5 0.765805 0.678243 0.352391
Si Si6 0.615132 0.176630 0.780739
Si Si7 0.368284 0.824770 0.780104
O O1 0.304928 0.774828 0.431571
O O2 0.293497 0.767124 0.278584
O O3 0.107172 0.773252 0.369088
O O4 0.235820 0.000000 0.354791
O O5 0.500000 0.213917 0.500000
O O6 0.684604 0.259331 0.418601
O O7 0.640827 0.000000 0.481669
O O8 0.515487 0.500000 0.094378
O O9 0.402079 0.735456 0.139404
O O10 0.608272 0.754829 0.135617
O O11 0.500000 0.722683 0.000000
O O12 0.886396 0.742227 0.371721
O O13 0.000000 0.785499 0.500000
O O14 0.980335 0.000000 0.402131
O O15 0.766755 0.500000 0.352982
O O16 0.718925 0.739140 0.271558
O O17 0.492126 0.188133 0.742979
O O18 0.632430 0.000000 0.796570
O O19 0.341835 0.000000 0.785045
#
# Coordination Sequence:
#
# PCOD9145501 Si02
#       7
#     4   4   4   4   4   4   4
#     4   9  16  30  49  70  91 123 170 212 242 277
#     4  10  19  32  51  69  91 126 168 203 244 292
#     4   9  17  30  49  76 108 134 153 182 237 302
#     4  10  19  34  53  66  86 128 178 215 244 284
#     4  12  23  33  46  68 100 129 164 209 253 292
#     4   8  16  29  49  74  99 125 159 199 237 284
#     4   9  18  32  51  71  97 128 164 199 236 286
#
# _framework density 14.929916
#
# number of rings (size 3 to 8) (size 9 to 14) (size 15 to 20)
#    0.857    1.571    1.429    2.571    0.000    4.000 
#    0.000    1.429    0.000    0.000    0.000    1.000 
#    0.000    8.000    0.000    0.000    0.000    0.000 
#
# Total GULP energy -155882.058650 kJ/mol
# GULP energy per Si atom -5567.216380 kJ/mol
# Density = 1.489594 g / cm^3
# Si number density = 14.929916 Si / 1000 Ang^3
#
#
#
# Elastic Constant Matrix: (Units=GPa)
#
#
# Indices 1 2 3 4 5 6 
#
# 1 106.9610 49.8218 66.5484 0.0000 9.8509 0.0000
# 2 49.8218 52.5856 47.8665 0.0000 5.1439 0.0000
# 3 66.5484 47.8665 124.0727 0.0000 9.4747 0.0000
# 4 0.0000 0.0000 0.0000 17.0750 0.0000 5.0700
# 5 9.8509 5.1439 9.4747 0.0000 10.9246 0.0000
# 6 0.0000 0.0000 0.0000 5.0700 0.0000 8.7734
#
#
#
# Elastic Compliance Matrix: (Units=1/GPa)
#
#
# Indices 1 2 3 4 5 6 
#
# 1 0.018934 -0.013098 -0.004573 0.000000 -0.006941 0.000000
# 2 -0.013098 0.038558 -0.007888 0.000000 0.000497 0.000000
# 3 -0.004573 -0.007888 0.013876 0.000000 -0.004197 0.000000
# 4 0.000000 0.000000 0.000000 0.070695 0.000000 -0.040854
# 5 -0.006941 0.000497 -0.004197 0.000000 0.101201 0.000000
# 6 0.000000 0.000000 0.000000 -0.040854 0.000000 0.137590
#
#
# Mechanical properties :
#
#
# Convention : Reuss Voigt Hill
#
# Bulk Modulus (GPa) = 49.38045 68.01030 58.69537
# Shear Modulus (GPa) = 11.39674 15.31344 13.35509
#
# Velocity S-wave (km/s) = 2.76587 3.20611 2.99409
# Velocity P-wave (km/s) = 6.58382 7.70438 7.16604
#
# Compressibility (1/GPa) = 0.02025093
#
# Stress axis : x y z
#
# Youngs Moduli (GPa) = 52.81403 25.93514 72.06694
#
# Poissons Ratio (x) = 0.33970 0.32953
# Poissons Ratio (y) = 0.69176 0.56846
# Poissons Ratio (z) = 0.24150 0.20457
#
# Static dielectric constant tensor:
#      x y z
#    x 1.488560 0.000000 -0.006460 
#    y 0.000000 1.494510 0.000000 
#    z -0.006460 0.000000 1.484770 
# 
# From -- ./inp_files/75745.got.cif
#   From: 2010.05.17/outbox.cif.g08.bks.cpg/sg10_38_cif.got.tgz:75745.got - 2010.06.03 11:33:40.
