data_PCOD9145408
_publ_section_title
;
Structure prediction by ZEFSAII (Michael W. Deem and Ramdas Pophale) SiO2 
 PCOD9145408
Probable space group: P 2/M
;
_chemical_formula_sum "Si O2"
_cell_formula_units_Z 32
_cell_length_a 18.050769
_cell_length_b 8.901893
_cell_length_c 24.417407
_cell_angle_alpha 90.000000
_cell_angle_beta 149.576491
_cell_angle_gamma 90.000000
_cell_volume 1986.829956
_symmetry_space_group_name_H-M "P 2/M"
_symmetry_group_IT_number 10
_symmetry_cell_setting 'monoclinic'
loop_
_space_group_symop_operation_xyz
x,y,z
-x,y,-z
-x,-y,-z
x,-y,z
loop_
_atom_site_type_symbol
_atom_site_label
_atom_site_fract_x
_atom_site_fract_y
_atom_site_fract_z
Si Si1 0.670383 0.321756 0.332589
Si Si2 0.539086 0.821038 0.631910
Si Si3 0.803162 0.679999 0.734016
Si Si4 0.222426 0.679272 0.408889
Si Si5 0.864340 0.827166 0.370536
Si Si6 0.933805 0.680325 0.017329
Si Si7 0.380143 0.178807 0.190148
Si Si8 0.096999 0.180695 0.434438
O O1 0.673306 0.500000 0.340484
O O2 0.740475 0.272666 0.319351
O O3 0.508686 0.258278 0.238398
O O4 0.773879 0.248384 0.445380
O O5 0.663383 0.763350 0.670059
O O6 0.386586 0.738932 0.523328
O O7 0.590500 0.788279 0.726771
O O8 0.518970 0.000000 0.613907
O O9 0.779535 0.500000 0.724708
O O10 0.820090 0.713434 0.680734
O O11 0.946166 0.719415 0.860449
O O12 0.219007 0.500000 0.414538
O O13 0.120585 0.757815 0.388919
O O14 0.000000 0.826494 0.500000
O O15 0.942183 0.778346 0.363956
O O16 0.814256 0.000000 0.334103
O O17 0.911672 0.500000 0.004069
O O18 0.779531 0.760861 0.926525
O O19 0.000000 0.719821 0.000000
O O20 0.389102 0.000000 0.188577
O O21 0.109403 0.000000 0.444037
#
# Coordination Sequence:
#
# PCOD9145408 Si02
#       8
#     4   4   4   4   4   4   4   4
#     4  11  20  30  49  75 103 134 169 206 249 301
#     4  11  22  34  51  73 101 136 172 211 254 303
#     4  10  22  38  53  73 100 132 172 218 261 300
#     4  11  22  34  51  74 103 137 172 211 254 303
#     4   8  16  30  47  68 100 136 165 200 247 297
#     4  10  20  36  57  74  95 129 171 215 259 306
#     4  11  22  34  51  75 104 134 169 212 255 298
#     4  10  19  32  49  71 102 138 170 203 248 300
#
# _framework density 16.106058999999998
#
# number of rings (size 3 to 8) (size 9 to 14) (size 15 to 20)
#    0.000    1.750    2.500    3.750    0.000    7.000 
#    0.000    0.000    0.000    0.000    0.000    0.875 
#    0.000    7.000    0.000    0.000    0.000    0.000 
#
# Total GULP energy -178648.043968 kJ/mol
# GULP energy per Si atom -5582.751374 kJ/mol
# Density = 1.606940 g / cm^3
# Si number density = 16.106059 Si / 1000 Ang^3
#
#
#
# Elastic Constant Matrix: (Units=GPa)
#
#
# Indices 1 2 3 4 5 6 
#
# 1 153.7120 64.9849 54.1345 0.0000 9.4699 0.0000
# 2 64.9849 59.4666 29.8056 0.0000 3.6147 0.0000
# 3 54.1345 29.8056 50.1874 0.0000 -5.8153 0.0000
# 4 0.0000 0.0000 0.0000 23.5276 0.0000 0.3266
# 5 9.4699 3.6147 -5.8153 0.0000 20.4136 0.0000
# 6 0.0000 0.0000 0.0000 0.3266 0.0000 34.5587
#
#
#
# Elastic Compliance Matrix: (Units=1/GPa)
#
#
# Indices 1 2 3 4 5 6 
#
# 1 0.015647 -0.010847 -0.011432 0.000000 -0.008595 0.000000
# 2 -0.010847 0.033007 -0.008270 0.000000 -0.003169 0.000000
# 3 -0.011432 -0.008270 0.039247 0.000000 0.017948 0.000000
# 4 0.000000 0.000000 0.000000 0.042509 0.000000 -0.000402
# 5 -0.008595 -0.003169 0.017948 0.000000 0.058648 0.000000
# 6 0.000000 0.000000 0.000000 -0.000402 0.000000 0.028940
#
#
# Mechanical properties :
#
#
# Convention : Reuss Voigt Hill
#
# Bulk Modulus (GPa) = 37.30700 62.35736 49.83218
# Shear Modulus (GPa) = 17.35938 23.32937 20.34438
#
# Velocity S-wave (km/s) = 3.28657 3.81002 3.55794
# Velocity P-wave (km/s) = 6.13316 7.62600 6.91995
#
# Compressibility (1/GPa) = 0.02680462
#
# Stress axis : x y z
#
# Youngs Moduli (GPa) = 63.91078 30.29668 25.47967
#
# Poissons Ratio (x) = 0.32862 0.29127
# Poissons Ratio (y) = 0.69322 0.21071
# Poissons Ratio (z) = 0.73060 0.25055
#
# Static dielectric constant tensor:
#      x y z
#    x 1.553110 0.000000 -0.005370 
#    y 0.000000 1.537980 0.000000 
#    z -0.005370 0.000000 1.506230 
# 
# From -- ./inp_files/88532.got.cif
#   From: 2010.05.17/outbox.cif.g08.bks.cpg/sg10_45_cif.got.tgz:88532.got - 2010.06.03 11:33:40.
