data_PCOD9145361
_publ_section_title
;
Structure prediction by ZEFSAII (Michael W. Deem and Ramdas Pophale) SiO2 
 PCOD9145361
Probable space group: P 2/M
;
_chemical_formula_sum "Si O2"
_cell_formula_units_Z 24
_cell_length_a 11.451183
_cell_length_b 7.916268
_cell_length_c 21.060286
_cell_angle_alpha 90.000000
_cell_angle_beta 47.749477
_cell_angle_gamma 90.000000
_cell_volume 1413.159635
_symmetry_space_group_name_H-M "P 2/M"
_symmetry_group_IT_number 10
_symmetry_cell_setting 'monoclinic'
loop_
_space_group_symop_operation_xyz
x,y,z
-x,y,-z
-x,-y,-z
x,-y,z
loop_
_atom_site_type_symbol
_atom_site_label
_atom_site_fract_x
_atom_site_fract_y
_atom_site_fract_z
Si Si1 0.364613 0.304580 0.965611
Si Si2 0.291362 0.190514 0.733591
Si Si3 0.824431 0.295665 0.087372
Si Si4 0.943695 0.801262 0.299451
Si Si5 0.240106 0.500000 0.576852
Si Si6 0.528827 0.500000 0.384549
Si Si7 0.293106 0.804177 0.130334
O O1 0.317094 0.500000 0.989444
O O2 0.294797 0.242266 0.924902
O O3 0.553649 0.291842 0.900137
O O4 0.297266 0.213280 0.052447
O O5 0.218692 0.216949 0.829544
O O6 0.154715 0.211437 0.730420
O O7 0.421127 0.333376 0.672250
O O8 0.353762 0.000000 0.704308
O O9 0.815757 0.500000 0.097713
O O10 0.000000 0.253141 0.000000
O O11 0.863951 0.668842 0.376495
O O12 0.124252 0.751893 0.219120
O O13 0.937445 0.000000 0.320855
O O14 0.350537 0.500000 0.474768
O O15 0.359688 0.500000 0.593479
O O16 0.316655 0.000000 0.137648
#
# Coordination Sequence:
#
# PCOD9145361 Si02
#       7
#     4   4   4   4   2   2   4
#     4  10  20  30  46  70  95 131 172 202 237 286
#     4  10  19  32  51  72 101 134 163 200 240 288
#     4  10  20  33  48  70 101 133 169 207 236 280
#     4   9  19  31  48  77 100 126 165 199 243 294
#     4   9  18  30  54  70  99 135 150 201 249 294
#     4   9  18  34  47  75 101 126 166 192 245 300
#     4  10  19  32  47  66 100 131 161 207 243 283
#
# _framework density 16.983221
#
# number of rings (size 3 to 8) (size 9 to 14) (size 15 to 20)
#    0.000    2.333    0.833    3.000    2.333    2.333 
#    0.000    3.333    0.000    0.000    0.000    2.333 
#    0.000    4.000    0.000    0.000    0.000    0.000 
#
# Total GULP energy -133840.626892 kJ/mol
# GULP energy per Si atom -5576.692787 kJ/mol
# Density = 1.694457 g / cm^3
# Si number density = 16.983221 Si / 1000 Ang^3
#
#
#
# Elastic Constant Matrix: (Units=GPa)
#
#
# Indices 1 2 3 4 5 6 
#
# 1 37.0648 23.8474 27.5512 0.0000 -1.2653 0.0000
# 2 23.8474 74.8929 55.9387 0.0000 -7.8342 0.0000
# 3 27.5512 55.9387 127.1594 0.0000 -15.7432 0.0000
# 4 0.0000 0.0000 0.0000 9.1243 0.0000 -9.6028
# 5 -1.2653 -7.8342 -15.7432 0.0000 20.3981 0.0000
# 6 0.0000 0.0000 0.0000 -9.6028 0.0000 -6.0254
#
#
#
# Elastic Compliance Matrix: (Units=1/GPa)
#
#
# Indices 1 2 3 4 5 6 
#
# 1 0.035639 -0.008394 -0.004594 0.000000 -0.004559 0.000000
# 2 -0.008394 0.021881 -0.007553 0.000000 0.002054 0.000000
# 3 -0.004594 -0.007553 0.013033 0.000000 0.006873 0.000000
# 4 0.000000 0.000000 0.000000 0.040936 0.000000 -0.065240
# 5 -0.004559 0.002054 0.006873 0.000000 0.054835 0.000000
# 6 0.000000 0.000000 0.000000 -0.065240 0.000000 -0.061989
#
#
# Mechanical properties :
#
#
# Convention : Reuss Voigt Hill
#
# Bulk Modulus (GPa) = 33.92974 50.42132 42.17553
# Shear Modulus (GPa) = 32.20806 13.48471 22.84639
#
# Velocity S-wave (km/s) = 4.35957 2.82086 3.67172
# Velocity P-wave (km/s) = 6.73519 6.35319 6.54698
#
# Compressibility (1/GPa) = 0.02947267
#
# Stress axis : x y z
#
# Youngs Moduli (GPa) = 28.05880 45.70078 76.72865
#
# Poissons Ratio (x) = 0.38362 0.35246
# Poissons Ratio (y) = 0.23553 0.57952
# Poissons Ratio (z) = 0.12889 0.34517
#
# Static dielectric constant tensor:
#      x y z
#    x 1.567560 0.000000 -0.008630 
#    y 0.000000 1.595820 0.000000 
#    z -0.008630 0.000000 1.547250 
# 
# From -- ./inp_files/55074.got.cif
#   From: 2010.05.17/outbox.cif.g08.bks.cpg/sg10_28_cif.got.tgz:55074.got - 2010.06.03 11:33:40.
