data_PCOD9145132
_publ_section_title
;
Structure prediction by ZEFSAII (Michael W. Deem and Ramdas Pophale) SiO2 
 PCOD9145132
Probable space group: P 2/M
;
_chemical_formula_sum "Si O2"
_cell_formula_units_Z 30
_cell_length_a 9.626002
_cell_length_b 11.938468
_cell_length_c 16.414208
_cell_angle_alpha 90.000000
_cell_angle_beta 42.779225
_cell_angle_gamma 90.000000
_cell_volume 1281.139167
_symmetry_space_group_name_H-M "P 2/M"
_symmetry_group_IT_number 10
_symmetry_cell_setting 'monoclinic'
loop_
_space_group_symop_operation_xyz
x,y,z
-x,y,-z
-x,-y,-z
x,-y,z
loop_
_atom_site_type_symbol
_atom_site_label
_atom_site_fract_x
_atom_site_fract_y
_atom_site_fract_z
Si Si1 0.602604 0.704541 0.055352
Si Si2 0.765314 0.841601 0.596914
Si Si3 0.966055 0.873090 0.918402
Si Si4 0.216644 0.123694 0.591499
Si Si5 0.222978 0.692646 0.713991
Si Si6 0.720707 0.122057 0.796632
Si Si7 0.549704 0.625796 0.704090
Si Si8 0.130492 0.500000 0.130404
O O1 0.757195 0.808999 0.989562
O O2 0.388359 0.765663 0.124399
O O3 0.573348 0.660689 0.161255
O O4 0.700894 0.599439 0.966610
O O5 0.693393 0.876575 0.538824
O O6 0.664674 0.881705 0.723954
O O7 0.737737 0.708934 0.613247
O O8 0.000000 0.875730 0.500000
O O9 0.966677 0.000000 0.887397
O O10 0.000000 0.875641 0.000000
O O11 0.136919 0.794451 0.806314
O O12 0.279360 0.237343 0.609472
O O13 0.966990 0.131938 0.695838
O O14 0.263697 0.000000 0.606762
O O15 0.404609 0.639016 0.688215
O O16 0.046775 0.599351 0.778576
O O17 0.663458 0.000000 0.855741
O O18 0.618187 0.500000 0.684944
#
# Coordination Sequence:
#
# PCOD9145132 Si02
#       8
#     4   4   4   4   4   4   4   2
#     4  10  19  34  58  87 113 150 194 245 286 337
#     4   9  20  39  63  91 114 145 192 241 295 345
#     4  10  19  31  50  80 117 149 186 242 291 337
#     4  10  21  41  62  82 119 157 189 239 295 351
#     4  11  22  37  55  85 115 160 199 229 285 347
#     4   9  18  36  64  91 114 147 193 241 292 348
#     4  11  21  36  59  86 118 151 194 238 284 343
#     4  10  22  37  59  79 117 157 199 238 285 335
#
# _framework density 23.41666
#
# number of rings (size 3 to 8) (size 9 to 14) (size 15 to 20)
#    0.000    2.000    2.667    1.200    0.000    2.933 
#    1.200    7.333    0.000    7.200    0.000    0.000 
#    0.000    0.000    0.000    0.000    0.000    0.000 
#
# Total GULP energy -167042.866670 kJ/mol
# GULP energy per Si atom -5568.095556 kJ/mol
# Density = 2.336336 g / cm^3
# Si number density = 23.416660 Si / 1000 Ang^3
#
#
#
# Elastic Constant Matrix: (Units=GPa)
#
#
# Indices 1 2 3 4 5 6 
#
# 1 67.5967 27.4677 24.3049 0.0000 6.2291 0.0000
# 2 27.4677 221.5971 40.2923 0.0000 -3.9547 0.0000
# 3 24.3049 40.2923 72.3553 0.0000 6.5315 0.0000
# 4 0.0000 0.0000 0.0000 -3.3258 0.0000 -0.0104
# 5 6.2291 -3.9547 6.5315 0.0000 33.4831 0.0000
# 6 0.0000 0.0000 0.0000 -0.0104 0.0000 14.1864
#
#
#
# Elastic Compliance Matrix: (Units=1/GPa)
#
#
# Indices 1 2 3 4 5 6 
#
# 1 0.017296 -0.001302 -0.004866 0.000000 -0.002422 0.000000
# 2 -0.001302 0.005164 -0.002560 0.000000 0.001352 0.000000
# 3 -0.004866 -0.002560 0.017128 0.000000 -0.002738 0.000000
# 4 0.000000 0.000000 0.000000 -0.300681 0.000000 -0.000220
# 5 -0.002422 0.001352 -0.002738 0.000000 0.031010 0.000000
# 6 0.000000 0.000000 0.000000 -0.000220 0.000000 0.070490
#
#
# Mechanical properties :
#
#
# Convention : Reuss Voigt Hill
#
# Bulk Modulus (GPa) = 45.18595 60.63099 52.90847
# Shear Modulus (GPa) = -37.10317 26.83435 -5.13441
#
# Velocity S-wave (km/s) = -3.98487 3.38886 -1.48236
# Velocity P-wave (km/s) = 1.35419 6.42347 4.44000
#
# Compressibility (1/GPa) = 0.02213077
#
# Stress axis : x y z
#
# Youngs Moduli (GPa) = 57.81810 193.65853 58.38396
#
# Poissons Ratio (x) = 0.25221 0.28409
# Poissons Ratio (y) = 0.07530 0.14947
# Poissons Ratio (z) = 0.28134 0.49578
#
# Static dielectric constant tensor:
#      x y z
#    x 1.998400 0.000000 0.052510 
#    y 0.000000 1.830540 0.000000 
#    z 0.052510 0.000000 1.925510 
# 
# From -- ./inp_files/46625.got.cif
#   From: 2010.05.17/outbox.cif.g08.bks.cpg/sg10_24_cif.got.tgz:46625.got - 2010.06.03 11:33:40.
