data_PCOD9145590
_publ_section_title
;
Structure prediction by ZEFSAII (Michael W. Deem and Ramdas Pophale) SiO2 
 PCOD9145590
Probable space group: P 2/M
;
_chemical_formula_sum "Si O2"
_cell_formula_units_Z 24
_cell_length_a 24.936100
_cell_length_b 7.739419
_cell_length_c 12.729093
_cell_angle_alpha 90.000000
_cell_angle_beta 146.526696
_cell_angle_gamma 90.000000
_cell_volume 1354.933471
_symmetry_space_group_name_H-M "P 2/M"
_symmetry_group_IT_number 10
_symmetry_cell_setting 'monoclinic'
loop_
_space_group_symop_operation_xyz
x,y,z
-x,y,-z
-x,-y,-z
x,-y,z
loop_
_atom_site_type_symbol
_atom_site_label
_atom_site_fract_x
_atom_site_fract_y
_atom_site_fract_z
Si Si1 0.108318 0.500000 0.810631
Si Si2 0.387240 0.294537 0.155892
Si Si3 0.706969 0.696880 0.211919
Si Si4 0.592682 0.201743 0.214274
Si Si5 0.394946 0.209119 0.529252
Si Si6 0.117952 0.500000 0.573648
Si Si7 0.246449 0.800315 0.111760
O O1 0.122483 0.500000 0.707347
O O2 0.993098 0.500000 0.642099
O O3 0.160966 0.669309 0.942327
O O4 0.366455 0.500000 0.126126
O O5 0.502066 0.266160 0.350502
O O6 0.325887 0.209213 0.147927
O O7 0.349640 0.227810 0.980866
O O8 0.669122 0.500000 0.162546
O O9 0.682522 0.785407 0.281106
O O10 0.819290 0.663897 0.365386
O O11 0.609146 0.274335 0.357277
O O12 0.570688 0.000000 0.195898
O O13 0.500000 0.275726 0.000000
O O14 0.304325 0.261849 0.309706
O O15 0.394012 0.000000 0.526207
O O16 0.215226 0.000000 0.072808
#
# Coordination Sequence:
#
# PCOD9145590 Si02
#       7
#     2   4   4   4   4   2   4
#     4  11  20  42  63  80 112 140 180 239 287 333
#     4  11  19  32  52  80 114 151 183 218 269 331
#     4   9  18  34  51  79 109 139 176 225 273 322
#     4  10  19  32  51  76 111 151 186 222 260 314
#     4  10  22  34  48  78 117 151 187 222 259 323
#     4   9  20  40  61  79 112 135 172 249 288 313
#     4  11  22  37  56  81 114 150 184 225 277 331
#
# _framework density 17.713045999999999
#
# number of rings (size 3 to 8) (size 9 to 14) (size 15 to 20)
#    0.500    1.333    4.167    1.000    1.167    3.667 
#    0.000    2.500    0.000    2.000    0.000    3.500 
#    0.000    0.000    0.000    0.000    0.000    0.000 
#
# Total GULP energy -133801.353924 kJ/mol
# GULP energy per Si atom -5575.056413 kJ/mol
# Density = 1.767273 g / cm^3
# Si number density = 17.713046 Si / 1000 Ang^3
#
#
#
# Elastic Constant Matrix: (Units=GPa)
#
#
# Indices 1 2 3 4 5 6 
#
# 1 64.3034 10.3891 50.5669 0.0000 5.8910 0.0000
# 2 10.3891 50.6705 39.3418 0.0000 2.4980 0.0000
# 3 50.5669 39.3418 137.8549 0.0000 8.6576 0.0000
# 4 0.0000 0.0000 0.0000 11.1085 0.0000 -6.6807
# 5 5.8910 2.4980 8.6576 0.0000 32.7965 0.0000
# 6 0.0000 0.0000 0.0000 -6.6807 0.0000 13.1974
#
#
#
# Elastic Compliance Matrix: (Units=1/GPa)
#
#
# Indices 1 2 3 4 5 6 
#
# 1 0.022167 0.002273 -0.008663 0.000000 -0.001868 0.000000
# 2 0.002273 0.025586 -0.008122 0.000000 -0.000213 0.000000
# 3 -0.008663 -0.008122 0.012826 0.000000 -0.001211 0.000000
# 4 0.000000 0.000000 0.000000 0.129422 0.000000 0.065515
# 5 -0.001868 -0.000213 -0.001211 0.000000 0.031163 0.000000
# 6 0.000000 0.000000 0.000000 0.065515 0.000000 0.108936
#
#
# Mechanical properties :
#
#
# Convention : Reuss Voigt Hill
#
# Bulk Modulus (GPa) = 31.69053 50.38047 41.03550
# Shear Modulus (GPa) = 13.52660 21.58921 17.55790
#
# Velocity S-wave (km/s) = 2.76642 3.49496 3.15181
# Velocity P-wave (km/s) = 5.30415 6.69258 6.03841
#
# Compressibility (1/GPa) = 0.03155517
#
# Stress axis : x y z
#
# Youngs Moduli (GPa) = 45.11156 39.08362 77.96921
#
# Poissons Ratio (x) = -0.08883 0.67541
# Poissons Ratio (y) = -0.10254 0.63329
# Poissons Ratio (z) = 0.39078 0.31745
#
# Static dielectric constant tensor:
#      x y z
#    x 1.613570 0.000000 -0.027830 
#    y 0.000000 1.636180 0.000000 
#    z -0.027830 0.000000 1.608920 
# 
# From -- ./inp_files/57346.got.cif
#   From: 2010.05.17/outbox.cif.g08.bks.cpg/sg10_29_cif.got.tgz:57346.got - 2010.06.03 11:33:40.
