data_PCOD9145783
_publ_section_title
;
Structure prediction by ZEFSAII (Michael W. Deem and Ramdas Pophale) SiO2 
 PCOD9145783
Probable space group: P 2/M
;
_chemical_formula_sum "Si O2"
_cell_formula_units_Z 28
_cell_length_a 10.230174
_cell_length_b 7.471509
_cell_length_c 27.744401
_cell_angle_alpha 90.000000
_cell_angle_beta 141.176215
_cell_angle_gamma 90.000000
_cell_volume 1329.486299
_symmetry_space_group_name_H-M "P 2/M"
_symmetry_group_IT_number 10
_symmetry_cell_setting 'monoclinic'
loop_
_space_group_symop_operation_xyz
x,y,z
-x,y,-z
-x,-y,-z
x,-y,z
loop_
_atom_site_type_symbol
_atom_site_label
_atom_site_fract_x
_atom_site_fract_y
_atom_site_fract_z
Si Si1 0.828615 0.290248 0.493900
Si Si2 0.391032 0.703341 0.921673
Si Si3 0.040282 0.790836 0.162745
Si Si4 0.497227 0.283353 0.672695
Si Si5 0.143794 0.783169 0.085774
Si Si6 0.399604 0.708670 0.818351
Si Si7 0.169896 0.719858 0.661367
O O1 0.790017 0.500000 0.492668
O O2 0.619225 0.217509 0.409220
O O3 0.000000 0.281901 0.500000
O O4 0.951515 0.218069 0.575524
O O5 0.476911 0.500000 0.943275
O O6 0.421997 0.788736 0.878115
O O7 0.145846 0.699901 0.862155
O O8 0.500000 0.786723 0.000000
O O9 0.266114 0.772181 0.251829
O O10 0.060328 0.722391 0.113626
O O11 0.986652 0.000000 0.145057
O O12 0.491383 0.500000 0.670306
O O13 0.354538 0.227368 0.677301
O O14 0.378066 0.720003 0.143953
O O15 0.147615 0.000000 0.087619
O O16 0.000000 0.725650 0.000000
O O17 0.344838 0.500000 0.809879
O O18 0.230649 0.781862 0.732102
O O19 0.168048 0.500000 0.660811
#
# Coordination Sequence:
#
# PCOD9145783 Si02
#       7
#     4   4   4   4   4   4   4
#     4   7  11  20  40  71 101 127 154 190 242 295
#     4  10  22  38  53  72  99 131 169 209 249 296
#     4  11  22  34  51  74 101 133 168 204 244 295
#     4   9  15  27  49  74 101 130 159 198 247 292
#     4  10  21  35  50  71  99 129 162 203 249 296
#     4  10  19  32  53  77  98 125 163 208 251 291
#     4   8  13  24  45  75 103 124 156 201 247 292
#
# _framework density 21.060765
#
# number of rings (size 3 to 8) (size 9 to 14) (size 15 to 20)
#    0.000    2.714    1.429    3.000    0.000    1.714 
#    0.000    0.000    0.000    5.571    0.000    6.000 
#    0.000    0.000    0.000    0.000    0.000    0.000 
#
# Total GULP energy -156179.420350 kJ/mol
# GULP energy per Si atom -5577.836441 kJ/mol
# Density = 2.101283 g / cm^3
# Si number density = 21.060765 Si / 1000 Ang^3
#
#
#
# Elastic Constant Matrix: (Units=GPa)
#
#
# Indices 1 2 3 4 5 6 
#
# 1 29.2086 0.3772 -15.2233 0.0000 -11.6822 0.0000
# 2 0.3772 64.1747 1.0707 0.0000 -6.1438 0.0000
# 3 -15.2233 1.0707 115.1591 0.0000 -23.7281 0.0000
# 4 0.0000 0.0000 0.0000 21.6771 0.0000 16.6839
# 5 -11.6822 -6.1438 -23.7281 0.0000 35.2275 0.0000
# 6 0.0000 0.0000 0.0000 16.6839 0.0000 2.3969
#
#
#
# Elastic Compliance Matrix: (Units=1/GPa)
#
#
# Indices 1 2 3 4 5 6 
#
# 1 0.050331 0.001897 0.011778 0.000000 0.024955 0.000000
# 2 0.001897 0.015942 0.000935 0.000000 0.004039 0.000000
# 3 0.011778 0.000935 0.012854 0.000000 0.012727 0.000000
# 4 0.000000 0.000000 0.000000 -0.010587 0.000000 0.073694
# 5 0.024955 0.004039 0.012727 0.000000 0.045939 0.000000
# 6 0.000000 0.000000 0.000000 0.073694 0.000000 -0.095749
#
#
# Mechanical properties :
#
#
# Convention : Reuss Voigt Hill
#
# Bulk Modulus (GPa) = 9.22966 20.11016 14.66991
# Shear Modulus (GPa) = 195.09950 26.68148 110.89049
#
# Velocity S-wave (km/s) = 9.63523 3.56319 7.26409
# Velocity P-wave (km/s) = 11.32146 5.14760 8.79412
#
# Compressibility (1/GPa) = 0.10834632
#
# Stress axis : x y z
#
# Youngs Moduli (GPa) = 19.86835 62.72585 77.79546
#
# Poissons Ratio (x) = -0.11898 -0.91625
# Poissons Ratio (y) = -0.03769 -0.07272
# Poissons Ratio (z) = -0.23400 -0.05863
#
# Static dielectric constant tensor:
#      x y z
#    x 1.716110 0.000000 -0.042300 
#    y 0.000000 1.785730 0.000000 
#    z -0.042300 0.000000 1.800770 
# 
# From -- ./inp_files/36964.got.cif
#   From: 2010.05.17/outbox.cif.g08.bks.cpg/sg10_19_cif.got.tgz:36964.got - 2010.06.03 11:33:40.
