data_PCOD9145779
_publ_section_title
;
Structure prediction by ZEFSAII (Michael W. Deem and Ramdas Pophale) SiO2 
 PCOD9145779
Probable space group: P 2/M
;
_chemical_formula_sum "Si O2"
_cell_formula_units_Z 28
_cell_length_a 14.380517
_cell_length_b 8.870007
_cell_length_c 16.902036
_cell_angle_alpha 90.000000
_cell_angle_beta 132.753555
_cell_angle_gamma 90.000000
_cell_volume 1583.067435
_symmetry_space_group_name_H-M "P 2/M"
_symmetry_group_IT_number 10
_symmetry_cell_setting 'monoclinic'
loop_
_space_group_symop_operation_xyz
x,y,z
-x,y,-z
-x,-y,-z
x,-y,z
loop_
_atom_site_type_symbol
_atom_site_label
_atom_site_fract_x
_atom_site_fract_y
_atom_site_fract_z
Si Si1 0.793100 0.318006 0.880965
Si Si2 0.469962 0.820022 0.232400
Si Si3 0.456975 0.678222 0.888747
Si Si4 0.997233 0.316840 0.125483
Si Si5 0.250779 0.820051 0.554357
Si Si6 0.953462 0.317756 0.667875
Si Si7 0.170107 0.677880 0.669756
O O1 0.783937 0.500000 0.876481
O O2 0.654514 0.248805 0.800444
O O3 0.881627 0.274460 0.857947
O O4 0.871712 0.270367 0.004915
O O5 0.479053 0.763584 0.147134
O O6 0.602582 0.772648 0.349952
O O7 0.464272 0.000000 0.230786
O O8 0.487948 0.500000 0.899765
O O9 0.306024 0.694014 0.790877
O O10 0.500000 0.730147 0.000000
O O11 0.994376 0.500000 0.124746
O O12 0.009816 0.265845 0.222872
O O13 0.179072 0.746210 0.439521
O O14 0.179875 0.766330 0.593370
O O15 0.245974 0.000000 0.546095
O O16 0.948708 0.500000 0.665613
O O17 0.060211 0.273004 0.665688
O O18 0.152141 0.500000 0.641167
#
# Coordination Sequence:
#
# PCOD9145779 Si02
#       7
#     4   4   4   4   4   4   4
#     4   9  17  34  59  80 102 132 167 206 256 313
#     4  10  21  35  51  72 102 140 172 208 256 299
#     4   9  18  31  50  76 103 133 171 209 247 303
#     4   8  17  33  55  83 106 127 161 212 263 304
#     4  10  21  36  50  69 102 140 177 210 246 298
#     4  10  19  32  53  77 104 131 166 213 257 299
#     4   9  18  31  49  75 103 133 168 208 253 296
#
# _framework density 17.687180999999999
#
# number of rings (size 3 to 8) (size 9 to 14) (size 15 to 20)
#    0.000    2.714    0.000    2.143    2.000    4.286 
#    0.000    3.571    0.000    4.286    0.000    0.000 
#    0.000    0.000    0.000    0.000    0.000    0.000 
#
# Total GULP energy -156168.693101 kJ/mol
# GULP energy per Si atom -5577.453325 kJ/mol
# Density = 1.764692 g / cm^3
# Si number density = 17.687181 Si / 1000 Ang^3
#
#
#
# Elastic Constant Matrix: (Units=GPa)
#
#
# Indices 1 2 3 4 5 6 
#
# 1 93.5551 21.8451 42.4376 0.0000 15.6885 0.0000
# 2 21.8451 14.4838 16.3148 0.0000 4.1501 0.0000
# 3 42.4376 16.3148 82.9668 0.0000 -4.8698 0.0000
# 4 0.0000 0.0000 0.0000 11.0953 0.0000 13.6003
# 5 15.6885 4.1501 -4.8698 0.0000 14.0781 0.0000
# 6 0.0000 0.0000 0.0000 13.6003 0.0000 2.3049
#
#
#
# Elastic Compliance Matrix: (Units=1/GPa)
#
#
# Indices 1 2 3 4 5 6 
#
# 1 0.023253 -0.016770 -0.010031 0.000000 -0.024439 0.000000
# 2 -0.016770 0.118657 -0.016037 0.000000 -0.021838 0.000000
# 3 -0.010031 -0.016037 0.021712 0.000000 0.023416 0.000000
# 4 0.000000 0.000000 0.000000 -0.014460 0.000000 0.085325
# 5 -0.024439 -0.021838 0.023416 0.000000 0.112805 0.000000
# 6 0.000000 0.000000 0.000000 0.085325 0.000000 -0.069609
#
#
# Mechanical properties :
#
#
# Convention : Reuss Voigt Hill
#
# Bulk Modulus (GPa) = 12.82930 39.13342 25.98136
# Shear Modulus (GPa) = 16.44654 12.85620 14.65137
#
# Velocity S-wave (km/s) = 3.05266 2.69897 2.88125
# Velocity P-wave (km/s) = 4.43781 5.64676 5.07839
#
# Compressibility (1/GPa) = 0.07794657
#
# Stress axis : x y z
#
# Youngs Moduli (GPa) = 43.00526 8.42765 46.05797
#
# Poissons Ratio (x) = 0.14133 0.46200
# Poissons Ratio (y) = 0.72119 0.73864
# Poissons Ratio (z) = 0.43137 0.13516
#
# Static dielectric constant tensor:
#      x y z
#    x 1.590130 0.000000 0.010080 
#    y 0.000000 1.592810 0.000000 
#    z 0.010080 0.000000 1.605910 
# 
# From -- ./inp_files/49650.got.cif
#   From: 2010.05.17/outbox.cif.g08.bks.cpg/sg10_25_cif.got.tgz:49650.got - 2010.06.03 11:33:40.
