data_PCOD9145278
_publ_section_title
;
Structure prediction by ZEFSAII (Michael W. Deem and Ramdas Pophale) SiO2 
 PCOD9145278
Probable space group: P 2/M
;
_chemical_formula_sum "Si O2"
_cell_formula_units_Z 28
_cell_length_a 19.616942
_cell_length_b 13.005301
_cell_length_c 10.313420
_cell_angle_alpha 90.000000
_cell_angle_beta 41.267925
_cell_angle_gamma 90.000000
_cell_volume 1735.491754
_symmetry_space_group_name_H-M "P 2/M"
_symmetry_group_IT_number 10
_symmetry_cell_setting 'monoclinic'
loop_
_space_group_symop_operation_xyz
x,y,z
-x,y,-z
-x,-y,-z
x,-y,z
loop_
_atom_site_type_symbol
_atom_site_label
_atom_site_fract_x
_atom_site_fract_y
_atom_site_fract_z
Si Si1 0.478576 0.877529 0.887659
Si Si2 0.847088 0.616094 0.629659
Si Si3 0.757668 0.175963 0.821325
Si Si4 0.809013 0.191837 0.052419
Si Si5 0.948085 0.000000 0.934150
Si Si6 0.405800 0.123868 0.533514
Si Si7 0.934399 0.383966 0.800536
Si Si8 0.910655 0.000000 0.517205
O O1 0.552881 0.841668 0.665960
O O2 0.495475 0.000000 0.868609
O O3 0.500000 0.834591 0.000000
O O4 0.359678 0.859875 0.021648
O O5 0.808963 0.500000 0.657714
O O6 0.769455 0.711045 0.742560
O O7 0.890236 0.615373 0.716067
O O8 0.944112 0.637972 0.396199
O O9 0.837429 0.098638 0.639320
O O10 0.790095 0.174699 0.925880
O O11 0.696641 0.184176 0.278254
O O12 0.872205 0.298513 0.968657
O O13 0.877808 0.100227 0.011255
O O14 0.034234 0.000000 0.699210
O O15 0.000000 0.000000 0.000000
O O16 0.500000 0.138610 0.500000
O O17 0.383497 0.000000 0.565240
O O18 0.923008 0.500000 0.868029
O O19 0.000000 0.000000 0.500000
#
# Coordination Sequence:
#
# PCOD9145278 Si02
#       8
#     4   4   4   4   2   4   4   2
#     4  10  21  35  50  75 105 133 174 221 258 302
#     4   8  15  27  46  76 107 134 170 213 257 304
#     4  11  19  31  55  77 102 140 176 212 258 312
#     4  11  19  33  54  75 104 142 174 209 259 313
#     4  12  26  36  46  77 115 140 166 211 263 313
#     4  10  19  31  53  73  98 134 179 214 248 309
#     4   8  15  28  49  76 104 134 172 216 254 299
#     4  12  22  32  52  78 107 136 173 207 256 311
#
# _framework density 16.133756000000002
#
# number of rings (size 3 to 8) (size 9 to 14) (size 15 to 20)
#    0.000    2.000    4.286    1.714    2.000    1.143 
#    0.000    0.000    0.000    2.143    0.000    2.000 
#    0.000    0.000    0.000    0.000    0.000    0.000 
#
# Total GULP energy -156036.978868 kJ/mol
# GULP energy per Si atom -5572.749245 kJ/mol
# Density = 1.609704 g / cm^3
# Si number density = 16.133756 Si / 1000 Ang^3
#
#
#
# Elastic Constant Matrix: (Units=GPa)
#
#
# Indices 1 2 3 4 5 6 
#
# 1 56.8367 24.2116 38.9592 0.0000 8.5970 0.0000
# 2 24.2116 73.6138 59.5484 0.0000 1.5302 0.0000
# 3 38.9592 59.5484 143.1117 0.0000 -2.1271 0.0000
# 4 0.0000 0.0000 0.0000 20.8269 0.0000 -3.4444
# 5 8.5970 1.5302 -2.1271 0.0000 16.9262 0.0000
# 6 0.0000 0.0000 0.0000 -3.4444 0.0000 2.9437
#
#
#
# Elastic Compliance Matrix: (Units=1/GPa)
#
#
# Indices 1 2 3 4 5 6 
#
# 1 0.024799 -0.003421 -0.005521 0.000000 -0.012980 0.000000
# 2 -0.003421 0.021094 -0.007863 0.000000 -0.001158 0.000000
# 3 -0.005521 -0.007863 0.011837 0.000000 0.005002 0.000000
# 4 0.000000 0.000000 0.000000 0.059536 0.000000 0.069662
# 5 -0.012980 -0.001158 0.005002 0.000000 0.066406 0.000000
# 6 0.000000 0.000000 0.000000 0.069662 0.000000 0.421217
#
#
# Mechanical properties :
#
#
# Convention : Reuss Voigt Hill
#
# Bulk Modulus (GPa) = 41.45816 57.66675 49.56246
# Shear Modulus (GPa) = 7.73350 18.19556 12.96453
#
# Velocity S-wave (km/s) = 2.19175 3.36191 2.83780
# Velocity P-wave (km/s) = 5.67074 7.13375 6.44390
#
# Compressibility (1/GPa) = 0.02412070
#
# Stress axis : x y z
#
# Youngs Moduli (GPa) = 40.32425 47.40579 84.48333
#
# Poissons Ratio (x) = 0.16217 0.46639
# Poissons Ratio (y) = 0.13794 0.66432
# Poissons Ratio (z) = 0.22261 0.37277
#
# Static dielectric constant tensor:
#      x y z
#    x 1.481310 0.000000 0.025100 
#    y 0.000000 1.549260 0.000000 
#    z 0.025100 0.000000 1.533580 
# 
# From -- ./inp_files/32802.got.cif
#   From: 2010.05.17/outbox.cif.g08.bks.cpg/sg10_17_cif.got.tgz:32802.got - 2010.06.03 11:33:40.
