data_PCOD9145055
_publ_section_title
;
Structure prediction by ZEFSAII (Michael W. Deem and Ramdas Pophale) SiO2 
 PCOD9145055
Probable space group: P 2/M
;
_chemical_formula_sum "Si O2"
_cell_formula_units_Z 30
_cell_length_a 12.491366
_cell_length_b 8.556466
_cell_length_c 26.830825
_cell_angle_alpha 90.000000
_cell_angle_beta 145.152933
_cell_angle_gamma 90.000000
_cell_volume 1638.586791
_symmetry_space_group_name_H-M "P 2/M"
_symmetry_group_IT_number 10
_symmetry_cell_setting 'monoclinic'
loop_
_space_group_symop_operation_xyz
x,y,z
-x,y,-z
-x,-y,-z
x,-y,z
loop_
_atom_site_type_symbol
_atom_site_label
_atom_site_fract_x
_atom_site_fract_y
_atom_site_fract_z
Si Si1 0.844017 0.311226 0.899843
Si Si2 0.417537 0.309409 0.758591
Si Si3 0.882232 0.683590 0.282660
Si Si4 0.500000 0.751224 0.500000
Si Si5 0.194340 0.173397 0.464719
Si Si6 0.660412 0.316851 0.379881
Si Si7 0.743484 0.181578 0.761387
Si Si8 0.857366 0.320518 0.702845
O O1 0.154306 0.500000 0.106054
O O2 0.635040 0.264797 0.838310
O O3 0.871287 0.229365 0.856979
O O4 0.000000 0.270707 0.000000
O O5 0.413371 0.500000 0.757282
O O6 0.305174 0.251629 0.763791
O O7 0.313528 0.263593 0.667304
O O8 0.853621 0.500000 0.262938
O O9 0.045677 0.706221 0.385788
O O10 0.975985 0.745748 0.268100
O O11 0.623482 0.826848 0.502327
O O12 0.331879 0.675028 0.403394
O O13 0.244374 0.220632 0.539839
O O14 0.112878 0.000000 0.431550
O O15 0.708572 0.500000 0.402776
O O16 0.438676 0.292012 0.303813
O O17 0.829183 0.217031 0.740540
O O18 0.687975 0.000000 0.743912
O O19 0.895989 0.500000 0.732237
#
# Coordination Sequence:
#
# PCOD9145055 Si02
#       8
#     4   4   4   2   4   4   4   4
#     4   9  18  35  61  87 106 128 162 206 257 312
#     4   8  16  33  54  75  99 127 162 207 254 303
#     4   9  19  34  50  69  96 135 176 209 249 298
#     4  10  20  30  48  66  98 136 178 224 262 290
#     4  11  21  31  44  67  99 134 176 217 257 297
#     4  10  19  32  51  71  96 132 174 216 258 300
#     4  11  21  32  50  77 109 137 165 209 263 309
#     4  10  19  31  50  73  99 134 179 219 252 297
#
# _framework density 18.30846
#
# number of rings (size 3 to 8) (size 9 to 14) (size 15 to 20)
#    0.000    2.267    1.333    3.200    0.000    4.000 
#    0.000    6.000    0.000    0.800    0.000    5.600 
#    0.000    0.000    0.000    0.000    0.000    0.000 
#
# Total GULP energy -167072.888620 kJ/mol
# GULP energy per Si atom -5569.096287 kJ/mol
# Density = 1.826679 g / cm^3
# Si number density = 18.308460 Si / 1000 Ang^3
#
#
#
# Elastic Constant Matrix: (Units=GPa)
#
#
# Indices 1 2 3 4 5 6 
#
# 1 113.2401 6.2144 26.8295 0.0000 -6.6682 0.0000
# 2 6.2144 21.0638 -1.5314 0.0000 -4.6153 0.0000
# 3 26.8295 -1.5314 54.5777 0.0000 -10.9804 0.0000
# 4 0.0000 0.0000 0.0000 -2.1671 0.0000 16.9196
# 5 -6.6682 -4.6153 -10.9804 0.0000 17.1126 0.0000
# 6 0.0000 0.0000 0.0000 16.9196 0.0000 -46.6999
#
#
#
# Elastic Compliance Matrix: (Units=1/GPa)
#
#
# Indices 1 2 3 4 5 6 
#
# 1 0.010232 -0.003454 -0.005181 0.000000 -0.000269 0.000000
# 2 -0.003454 0.052728 0.006623 0.000000 0.017124 0.000000
# 3 -0.005181 0.006623 0.024122 0.000000 0.015246 0.000000
# 4 0.000000 0.000000 0.000000 0.252336 0.000000 0.091423
# 5 -0.000269 0.017124 0.015246 0.000000 0.072733 0.000000
# 6 0.000000 0.000000 0.000000 0.091423 0.000000 0.011710
#
#
# Mechanical properties :
#
#
# Convention : Reuss Voigt Hill
#
# Bulk Modulus (GPa) = 12.03991 27.98962 20.01477
# Shear Modulus (GPa) = 10.97524 4.14040 7.55782
#
# Velocity S-wave (km/s) = 2.45105 1.50545 2.03396
# Velocity P-wave (km/s) = 3.82107 4.28285 4.05854
#
# Compressibility (1/GPa) = 0.08305710
#
# Stress axis : x y z
#
# Youngs Moduli (GPa) = 97.73247 18.96540 41.45520
#
# Poissons Ratio (x) = 0.06551 0.21478
# Poissons Ratio (y) = 0.33760 -0.27455
# Poissons Ratio (z) = 0.50634 -0.12560
#
# Static dielectric constant tensor:
#      x y z
#    x 1.678380 0.000000 -0.001350 
#    y 0.000000 1.632260 0.000000 
#    z -0.001350 0.000000 1.609970 
# 
# From -- ./inp_files/88713.got.cif
#   From: 2010.05.17/outbox.cif.g08.bks.cpg/sg10_45_cif.got.tgz:88713.got - 2010.06.03 11:33:40.
