data_PCOD9145807
_publ_section_title
;
Structure prediction by ZEFSAII (Michael W. Deem and Ramdas Pophale) SiO2 
 PCOD9145807
Probable space group: P 2/M
;
_chemical_formula_sum "Si O2"
_cell_formula_units_Z 26
_cell_length_a 14.169302
_cell_length_b 9.413357
_cell_length_c 19.892617
_cell_angle_alpha 90.000000
_cell_angle_beta 32.798334
_cell_angle_gamma 90.000000
_cell_volume 1437.244746
_symmetry_space_group_name_H-M "P 2/M"
_symmetry_group_IT_number 10
_symmetry_cell_setting 'monoclinic'
loop_
_space_group_symop_operation_xyz
x,y,z
-x,y,-z
-x,-y,-z
x,-y,z
loop_
_atom_site_type_symbol
_atom_site_label
_atom_site_fract_x
_atom_site_fract_y
_atom_site_fract_z
Si Si1 0.030831 0.166658 0.100635
Si Si2 0.634328 0.330131 0.153191
Si Si3 0.121612 0.663136 0.685232
Si Si4 0.272185 0.327557 0.317301
Si Si5 0.648799 0.842126 0.271555
Si Si6 0.500000 0.251989 0.500000
Si Si7 0.958488 0.327270 0.417565
O O1 0.979641 0.237644 0.202069
O O2 0.854897 0.177689 0.161618
O O3 0.071079 0.000000 0.083132
O O4 0.190215 0.251583 0.973363
O O5 0.655150 0.500000 0.139603
O O6 0.473420 0.287338 0.201463
O O7 0.588471 0.277145 0.255764
O O8 0.059334 0.500000 0.727786
O O9 0.325463 0.665717 0.583126
O O10 0.094142 0.715927 0.625572
O O11 0.269198 0.500000 0.319321
O O12 0.150649 0.282652 0.327948
O O13 0.174759 0.281576 0.444227
O O14 0.556692 0.832099 0.399148
O O15 0.620961 0.000000 0.259788
O O16 0.954350 0.500000 0.419965
#
# Coordination Sequence:
#
# PCOD9145807 Si02
#       7
#     4   4   4   4   4   2   4
#     4  10  22  38  52  69 100 141 176 205 247 308
#     4  11  21  33  53  79 102 128 169 219 260 291
#     4  10  19  32  53  79 105 133 167 212 257 294
#     4   8  15  28  48  76 105 130 161 203 251 305
#     4  10  21  36  53  73 102 140 174 202 243 305
#     4  10  20  32  52  82 110 132 164 206 250 300
#     4   8  14  28  50  75 104 134 161 197 252 307
#
# _framework density 18.090167999999998
#
# number of rings (size 3 to 8) (size 9 to 14) (size 15 to 20)
#    0.000    2.462    0.000    3.692    0.000    7.385 
#    0.000    0.769    0.000    6.462    0.000    6.462 
#    0.000    0.000    0.000    0.000    0.000    0.000 
#
# Total GULP energy -144924.070779 kJ/mol
# GULP energy per Si atom -5574.002722 kJ/mol
# Density = 1.804899 g / cm^3
# Si number density = 18.090168 Si / 1000 Ang^3
#
#
#
# Elastic Constant Matrix: (Units=GPa)
#
#
# Indices 1 2 3 4 5 6 
#
# 1 95.2565 28.2354 29.3020 0.0000 8.1618 0.0000
# 2 28.2354 61.8322 25.2295 0.0000 -5.2332 0.0000
# 3 29.3020 25.2295 77.6325 0.0000 -6.8520 0.0000
# 4 0.0000 0.0000 0.0000 -0.1096 0.0000 3.5551
# 5 8.1618 -5.2332 -6.8520 0.0000 21.0287 0.0000
# 6 0.0000 0.0000 0.0000 3.5551 0.0000 -2.5933
#
#
#
# Elastic Compliance Matrix: (Units=1/GPa)
#
#
# Indices 1 2 3 4 5 6 
#
# 1 0.014125 -0.005389 -0.004306 0.000000 -0.008226 0.000000
# 2 -0.005389 0.020857 -0.004223 0.000000 0.005906 0.000000
# 3 -0.004306 -0.004223 0.016405 0.000000 0.005966 0.000000
# 4 0.000000 0.000000 0.000000 0.209903 0.000000 0.287755
# 5 -0.008226 0.005906 0.005966 0.000000 0.054161 0.000000
# 6 0.000000 0.000000 0.000000 0.287755 0.000000 0.008870
#
#
# Mechanical properties :
#
#
# Convention : Reuss Voigt Hill
#
# Bulk Modulus (GPa) = 42.46118 44.47279 43.46698
# Shear Modulus (GPa) = 13.88863 13.79546 13.84205
#
# Velocity S-wave (km/s) = 2.77383 2.76451 2.76917
# Velocity P-wave (km/s) = 5.81221 5.90147 5.85701
#
# Compressibility (1/GPa) = 0.02355093
#
# Stress axis : x y z
#
# Youngs Moduli (GPa) = 70.79711 47.94625 60.95575
#
# Poissons Ratio (x) = 0.25840 0.26247
# Poissons Ratio (y) = 0.38155 0.25740
# Poissons Ratio (z) = 0.30485 0.20246
#
# Static dielectric constant tensor:
#      x y z
#    x 1.633470 0.000000 -0.003280 
#    y 0.000000 1.609770 0.000000 
#    z -0.003280 0.000000 1.627130 
# 
# From -- ./inp_files/66785.got.cif
#   From: 2010.05.17/outbox.cif.g08.bks.cpg/sg10_34_cif.got.tgz:66785.got - 2010.06.03 11:33:40.
