data_PCOD9145910
_publ_section_title
;
Structure prediction by ZEFSAII (Michael W. Deem and Ramdas Pophale) SiO2 
 PCOD9145910
Probable space group: P 2/M
;
_chemical_formula_sum "Si O2"
_cell_formula_units_Z 32
_cell_length_a 23.338165
_cell_length_b 7.503473
_cell_length_c 15.633557
_cell_angle_alpha 90.000000
_cell_angle_beta 150.085597
_cell_angle_gamma 90.000000
_cell_volume 1365.309509
_symmetry_space_group_name_H-M "P 2/M"
_symmetry_group_IT_number 10
_symmetry_cell_setting 'monoclinic'
loop_
_space_group_symop_operation_xyz
x,y,z
-x,y,-z
-x,-y,-z
x,-y,z
loop_
_atom_site_type_symbol
_atom_site_label
_atom_site_fract_x
_atom_site_fract_y
_atom_site_fract_z
Si Si1 0.557795 0.282042 0.485141
Si Si2 0.180619 0.282280 0.184157
Si Si3 0.380391 0.711895 0.112994
Si Si4 0.489472 0.215414 0.888104
Si Si5 0.953311 0.707594 0.820503
Si Si6 0.757705 0.201135 0.446628
Si Si7 0.122199 0.715043 0.557660
Si Si8 0.868836 0.283331 0.230497
O O1 0.500000 0.232665 0.500000
O O2 0.559781 0.500000 0.484160
O O3 0.689346 0.218657 0.653552
O O4 0.479174 0.219318 0.304166
O O5 0.190208 0.500000 0.195321
O O6 0.121696 0.223249 0.196878
O O7 0.084303 0.224911 0.989851
O O8 0.374732 0.500000 0.119722
O O9 0.415854 0.737748 0.059796
O O10 0.251393 0.780937 0.963623
O O11 0.365635 0.283206 0.693343
O O12 0.483887 0.000000 0.884481
O O13 0.500000 0.278138 0.000000
O O14 0.967083 0.500000 0.857114
O O15 0.871950 0.718196 0.634077
O O16 0.778318 0.206549 0.371917
O O17 0.755564 0.000000 0.475299
O O18 0.128037 0.500000 0.558628
O O19 0.134753 0.760009 0.673202
O O20 0.994728 0.775895 0.363044
O O21 0.870839 0.500000 0.226396
#
# Coordination Sequence:
#
# PCOD9145910 Si02
#       8
#     4   4   4   4   4   4   4   4
#     4   9  17  28  45  73 106 133 159 202 256 302
#     4   8  15  29  48  70  93 121 162 202 242 299
#     4  10  19  32  54  81 105 132 173 219 254 295
#     4  10  22  38  53  72 104 143 174 206 256 311
#     4   9  17  31  52  72  92 123 161 203 249 297
#     4  11  22  33  47  73 104 129 164 208 247 295
#     4   9  17  32  52  71  99 135 165 200 249 302
#     4   8  16  31  51  76 100 126 166 211 252 293
#
# _framework density 23.437909999999999
#
# number of rings (size 3 to 8) (size 9 to 14) (size 15 to 20)
#    0.000    2.750    0.000    3.375    0.000    3.250 
#    0.000    6.875    0.000    1.125    0.000    0.000 
#    0.000    0.000    0.000    0.000    0.000    0.000 
#
# Total GULP energy -178548.800662 kJ/mol
# GULP energy per Si atom -5579.650021 kJ/mol
# Density = 2.338456 g / cm^3
# Si number density = 23.437910 Si / 1000 Ang^3
#
#
#
# Elastic Constant Matrix: (Units=GPa)
#
#
# Indices 1 2 3 4 5 6 
#
# 1 55.5940 -6.7446 31.1131 0.0000 22.5408 0.0000
# 2 -6.7446 58.2028 9.9560 0.0000 3.2377 0.0000
# 3 31.1131 9.9560 149.1171 0.0000 31.3548 0.0000
# 4 0.0000 0.0000 0.0000 18.3983 0.0000 -27.0995
# 5 22.5408 3.2377 31.3548 0.0000 42.4112 0.0000
# 6 0.0000 0.0000 0.0000 -27.0995 0.0000 39.8031
#
#
#
# Elastic Compliance Matrix: (Units=1/GPa)
#
#
# Indices 1 2 3 4 5 6 
#
# 1 0.024727 0.004013 -0.003078 0.000000 -0.011173 0.000000
# 2 0.004013 0.018042 -0.001544 0.000000 -0.002369 0.000000
# 3 -0.003078 -0.001544 0.008386 0.000000 -0.004446 0.000000
# 4 0.000000 0.000000 0.000000-19.180606 0.000000-13.058926
# 5 -0.011173 -0.002369 -0.004446 0.000000 0.032985 0.000000
# 6 0.000000 0.000000 0.000000-13.058926 0.000000 -8.865917
#
#
# Mechanical properties :
#
#
# Convention : Reuss Voigt Hill
#
# Bulk Modulus (GPa) = 20.02448 36.84034 28.43241
# Shear Modulus (GPa) = -0.17893 35.36181 17.59144
#
# Velocity S-wave (km/s) = -0.27660 3.88847 2.74260
# Velocity P-wave (km/s) = 2.90864 5.99272 4.71025
#
# Compressibility (1/GPa) = 0.04993887
#
# Stress axis : x y z
#
# Youngs Moduli (GPa) = 40.44147 55.42548 119.24123
#
# Poissons Ratio (x) = -0.22244 0.36702
# Poissons Ratio (y) = -0.16231 0.18409
# Poissons Ratio (z) = 0.12448 0.08557
#
# Static dielectric constant tensor:
#      x y z
#    x 1.844300 0.000000 -0.013830 
#    y 0.000000 1.902340 0.000000 
#    z -0.013830 0.000000 1.942510 
# 
# From -- ./inp_files/71705.got.cif
#   From: 2010.05.17/outbox.cif.g08.bks.cpg/sg10_36_cif.got.tgz:71705.got - 2010.06.03 11:33:40.
