data_PCOD9145440
_publ_section_title
;
Structure prediction by ZEFSAII (Michael W. Deem and Ramdas Pophale) SiO2 
 PCOD9145440
Probable space group: P 2/M
;
_chemical_formula_sum "Si O2"
_cell_formula_units_Z 30
_cell_length_a 18.305858
_cell_length_b 7.342521
_cell_length_c 12.552146
_cell_angle_alpha 90.000000
_cell_angle_beta 128.113358
_cell_angle_gamma 90.000000
_cell_volume 1327.433372
_symmetry_space_group_name_H-M "P 2/M"
_symmetry_group_IT_number 10
_symmetry_cell_setting 'monoclinic'
loop_
_space_group_symop_operation_xyz
x,y,z
-x,y,-z
-x,-y,-z
x,-y,z
loop_
_atom_site_type_symbol
_atom_site_label
_atom_site_fract_x
_atom_site_fract_y
_atom_site_fract_z
Si Si1 0.881192 0.000000 0.599030
Si Si2 0.192852 0.721085 0.323137
Si Si3 0.109900 0.292229 0.581246
Si Si4 0.755496 0.707058 0.865849
Si Si5 0.456325 0.213146 0.350278
Si Si6 0.769244 0.721722 0.109564
Si Si7 0.365275 0.282153 0.627466
Si Si8 0.394436 0.278008 0.890992
O O1 0.887633 0.162313 0.696296
O O2 0.869922 0.158387 0.496291
O O3 0.183535 0.500000 0.321061
O O4 0.212427 0.778515 0.219318
O O5 0.283621 0.780013 0.475256
O O6 0.143228 0.500000 0.588410
O O7 0.155791 0.231528 0.733557
O O8 0.000000 0.296327 0.500000
O O9 0.790166 0.500000 0.897649
O O10 0.643070 0.703530 0.764995
O O11 0.784929 0.791325 0.004765
O O12 0.500000 0.285872 0.500000
O O13 0.534376 0.234842 0.330533
O O14 0.437943 0.000000 0.349728
O O15 0.767357 0.500000 0.101565
O O16 0.671166 0.779877 0.071747
O O17 0.360029 0.500000 0.623925
O O18 0.357142 0.218464 0.741805
O O19 0.394122 0.500000 0.890122
O O20 0.500000 0.219219 0.000000
#
# Coordination Sequence:
#
# PCOD9145440 Si02
#       8
#     2   4   4   4   4   4   4   4
#     4  12  23  38  66  94 131 159 192 248 319 373
#     4  10  22  36  57  89 121 163 210 252 306 374
#     4  10  22  43  71 101 128 158 204 259 315 381
#     4  10  20  36  58  82 115 162 214 263 315 373
#     4  11  22  32  47  71 112 159 214 270 316 362
#     4   9  18  36  61  89 120 159 207 260 317 377
#     4  10  19  32  50  71 103 150 207 263 312 362
#     4   9  16  27  48  77 108 146 193 244 301 358
#
# _framework density 22.600006
#
# number of rings (size 3 to 8) (size 9 to 14) (size 15 to 20)
#    0.000    2.000    1.333    2.600    1.867    4.800 
#    1.200    0.000    0.000    2.800    0.000    4.667 
#    0.000    0.000    0.000    0.000    0.000    0.000 
#
# Total GULP energy -167167.126238 kJ/mol
# GULP energy per Si atom -5572.237541 kJ/mol
# Density = 2.254857 g / cm^3
# Si number density = 22.600006 Si / 1000 Ang^3
#
#
#
# Elastic Constant Matrix: (Units=GPa)
#
#
# Indices 1 2 3 4 5 6 
#
# 1 48.1969 19.9587 58.6825 0.0000 -29.5107 0.0000
# 2 19.9587 116.3439 20.6639 0.0000 -17.1122 0.0000
# 3 58.6825 20.6639 103.9856 0.0000 -45.2038 0.0000
# 4 0.0000 0.0000 0.0000 1.3103 0.0000 -20.1978
# 5 -29.5107 -17.1122 -45.2038 0.0000 50.1136 0.0000
# 6 0.0000 0.0000 0.0000 -20.1978 0.0000 -12.7146
#
#
#
# Elastic Compliance Matrix: (Units=1/GPa)
#
#
# Indices 1 2 3 4 5 6 
#
# 1 0.071022 -0.004665 -0.035639 0.000000 0.008083 0.000000
# 2 -0.004665 0.009392 0.001590 0.000000 0.001894 0.000000
# 3 -0.035639 0.001590 0.033766 0.000000 0.010014 0.000000
# 4 0.000000 0.000000 0.000000 0.029944 0.000000 -0.047568
# 5 0.008083 0.001894 0.010014 0.000000 0.034394 0.000000
# 6 0.000000 0.000000 0.000000 -0.047568 0.000000 -0.003086
#
#
# Mechanical properties :
#
#
# Convention : Reuss Voigt Hill
#
# Bulk Modulus (GPa) = 27.21073 51.90405 39.55739
# Shear Modulus (GPa) = 18.85999 19.02328 18.94163
#
# Velocity S-wave (km/s) = 2.89193 2.90442 2.89818
# Velocity P-wave (km/s) = 4.81843 5.85353 5.36102
#
# Compressibility (1/GPa) = 0.03675021
#
# Stress axis : x y z
#
# Youngs Moduli (GPa) = 14.08017 106.47698 29.61523
#
# Poissons Ratio (x) = 0.49672 1.05547
# Poissons Ratio (y) = 0.06568 -0.04707
# Poissons Ratio (z) = 0.50181 -0.16925
#
# Static dielectric constant tensor:
#      x y z
#    x 1.889060 0.000000 0.037300 
#    y 0.000000 2.007270 0.000000 
#    z 0.037300 0.000000 1.857850 
# 
# From -- ./inp_files/53092.got.cif
#   From: 2010.05.17/outbox.cif.g08.bks.cpg/sg10_27_cif.got.tgz:53092.got - 2010.06.03 11:33:40.
