data_PCOD9145418
_publ_section_title
;
Structure prediction by ZEFSAII (Michael W. Deem and Ramdas Pophale) SiO2 
 PCOD9145418
Probable space group: P 2/M
;
_chemical_formula_sum "Si O2"
_cell_formula_units_Z 32
_cell_length_a 20.353831
_cell_length_b 8.280900
_cell_length_c 14.782966
_cell_angle_alpha 90.000000
_cell_angle_beta 46.211709
_cell_angle_gamma 90.000000
_cell_volume 1798.719002
_symmetry_space_group_name_H-M "P 2/M"
_symmetry_group_IT_number 10
_symmetry_cell_setting 'monoclinic'
loop_
_space_group_symop_operation_xyz
x,y,z
-x,y,-z
-x,-y,-z
x,-y,z
loop_
_atom_site_type_symbol
_atom_site_label
_atom_site_fract_x
_atom_site_fract_y
_atom_site_fract_z
Si Si1 0.223313 0.807391 0.633716
Si Si2 0.397330 0.697332 0.124538
Si Si3 0.977209 0.695173 0.124751
Si Si4 0.310936 0.304948 0.024051
Si Si5 0.545249 0.193274 0.263021
Si Si6 0.310046 0.194708 0.734993
Si Si7 0.358360 0.692074 0.364096
Si Si8 0.166076 0.304479 0.022066
O O1 0.119606 0.759070 0.750884
O O2 0.284263 0.744699 0.660233
O O3 0.266043 0.743527 0.500680
O O4 0.229640 0.000000 0.627136
O O5 0.396293 0.500000 0.127043
O O6 0.331353 0.750721 0.106122
O O7 0.371191 0.754820 0.249418
O O8 0.500000 0.745027 0.000000
O O9 0.972936 0.500000 0.129231
O O10 0.000000 0.745590 0.000000
O O11 0.062504 0.747135 0.105244
O O12 0.311443 0.500000 0.024504
O O13 0.392669 0.251182 0.880138
O O14 0.217753 0.251890 0.064139
O O15 0.597317 0.251135 0.304194
O O16 0.443487 0.250588 0.343233
O O17 0.545317 0.000000 0.264423
O O18 0.228221 0.242713 0.880296
O O19 0.314286 0.000000 0.726746
O O20 0.362073 0.500000 0.356058
O O21 0.167651 0.500000 0.017457
#
# Coordination Sequence:
#
# PCOD9145418 Si02
#       8
#     4   4   4   4   4   4   4   4
#     4  11  23  37  52  73 102 138 176 211 250 302
#     4   9  16  30  53  78 101 129 168 212 254 298
#     4  10  19  33  53  79 107 132 165 211 258 299
#     4   9  16  30  52  77 103 132 168 206 250 299
#     4  10  19  32  49  73 104 136 169 205 246 297
#     4   9  19  33  49  70 102 139 170 202 245 297
#     4  11  22  36  53  73 101 137 172 212 258 301
#     4   9  17  29  51  79 104 130 164 209 250 295
#
# _framework density 17.790438999999999
#
# number of rings (size 3 to 8) (size 9 to 14) (size 15 to 20)
#    0.000    2.250    2.500    1.125    0.000    2.250 
#    0.000    4.375    0.000    0.750    0.000    5.250 
#    0.000    0.000    0.000    0.000    0.000    0.000 
#
# Total GULP energy -178489.793297 kJ/mol
# GULP energy per Si atom -5577.806041 kJ/mol
# Density = 1.774995 g / cm^3
# Si number density = 17.790439 Si / 1000 Ang^3
#
#
#
# Elastic Constant Matrix: (Units=GPa)
#
#
# Indices 1 2 3 4 5 6 
#
# 1 -818.1696-1661.1641-2480.3350 0.0000 809.1983 0.0000
# 2 -1661.1641-2990.3150-4537.1831 0.0000 1440.2046 0.0000
# 3 -2480.3350-4537.1831-6789.0491 0.0000 2188.5323 0.0000
# 4 0.0000 0.0000 0.0000 477.1603 0.0000 111.2867
# 5 809.1983 1440.2046 2188.5323 0.0000 -670.3895 0.0000
# 6 0.0000 0.0000 0.0000 111.2867 0.0000 46.4963
#
#
#
# Elastic Compliance Matrix: (Units=1/GPa)
#
#
# Indices 1 2 3 4 5 6 
#
# 1 0.011749 -0.001112 -0.004817 0.000000 -0.003933 0.000000
# 2 -0.001112 0.036311 -0.016291 0.000000 0.023483 0.000000
# 3 -0.004817 -0.016291 0.012533 0.000000 0.000104 0.000000
# 4 0.000000 0.000000 0.000000 0.004744 0.000000 -0.011354
# 5 -0.003933 0.023483 0.000104 0.000000 0.044550 0.000000
# 6 0.000000 0.000000 0.000000 -0.011354 0.000000 0.048683
#
#
# Mechanical properties :
#
#
# Convention : Reuss Voigt Hill
#
# Bulk Modulus (GPa) = 61.90613 -3106.09979 -1522.09683
# Shear Modulus (GPa) = 23.99315 -157.27002 -66.63843
#
# Velocity S-wave (km/s) = 3.67639 -9.41240 -6.12689
# Velocity P-wave (km/s) = 7.27283 43.21866 30.12440
#
# Compressibility (1/GPa) = 0.01615349
#
# Stress axis : x y z
#
# Youngs Moduli (GPa) = 85.11465 27.54014 79.78732
#
# Poissons Ratio (x) = 0.03063 0.38433
# Poissons Ratio (y) = 0.09466 1.29978
# Poissons Ratio (z) = 0.40999 0.44864
#
# Static dielectric constant tensor:
#      x y z
#    x 1.649820 0.000000 0.011470 
#    y 0.000000 1.617860 0.000000 
#    z 0.011470 0.000000 1.578050 
# 
# From -- ./inp_files/58172.got.cif
#   From: 2010.05.17/outbox.cif.g08.bks.cpg/sg10_30_cif.got.tgz:58172.got - 2010.06.03 11:33:40.
