data_PCOD9145723
_publ_section_title
;
Structure prediction by ZEFSAII (Michael W. Deem and Ramdas Pophale) SiO2 
 PCOD9145723
Probable space group: P 2/M
;
_chemical_formula_sum "Si O2"
_cell_formula_units_Z 24
_cell_length_a 11.360713
_cell_length_b 8.793356
_cell_length_c 24.085918
_cell_angle_alpha 90.000000
_cell_angle_beta 144.724673
_cell_angle_gamma 90.000000
_cell_volume 1389.568755
_symmetry_space_group_name_H-M "P 2/M"
_symmetry_group_IT_number 10
_symmetry_cell_setting 'monoclinic'
loop_
_space_group_symop_operation_xyz
x,y,z
-x,y,-z
-x,-y,-z
x,-y,z
loop_
_atom_site_type_symbol
_atom_site_label
_atom_site_fract_x
_atom_site_fract_y
_atom_site_fract_z
Si Si1 0.873362 0.180868 0.321189
Si Si2 0.250664 0.181667 0.955050
Si Si3 0.526260 0.180656 0.280304
Si Si4 0.916745 0.680771 0.906232
Si Si5 0.314897 0.318197 0.859382
Si Si6 0.823321 0.675516 0.479184
O O1 0.685437 0.210183 0.291388
O O2 0.823085 0.264542 0.244719
O O3 0.075524 0.242298 0.429353
O O4 0.886502 0.000000 0.317900
O O5 0.239720 0.248835 0.888724
O O6 0.058904 0.232695 0.917250
O O7 0.269188 0.000000 0.960054
O O8 0.457014 0.251894 0.060625
O O9 0.315073 0.264721 0.188248
O O10 0.634347 0.239891 0.377973
O O11 0.494120 0.000000 0.270973
O O12 0.930675 0.500000 0.901994
O O13 0.000000 0.712726 0.000000
O O14 0.323948 0.500000 0.866485
O O15 0.774966 0.500000 0.472640
O O16 0.000000 0.677449 0.500000
#
# Coordination Sequence:
#
# PCOD9145723 Si02
#       6
#     4   4   4   4   4   4
#     4  10  19  32  52  79 108 137 174 216 259 306
#     4  11  22  37  55  76 104 137 174 214 259 307
#     4  10  20  33  51  76 107 141 174 213 260 308
#     4  11  23  37  54  77 106 139 174 212 256 308
#     4  11  21  35  55  78 105 136 173 215 259 306
#     4   9  17  30  49  74 104 137 173 214 260 306
#
# _framework density 17.271546000000001
#
# number of rings (size 3 to 8) (size 9 to 14) (size 15 to 20)
#    0.000    1.667    0.000    7.000    0.000    8.000 
#    0.000    0.000    0.000    1.000    0.000    7.000 
#    0.000    0.000    0.000    0.000    0.000    0.000 
#
# Total GULP energy -134070.397051 kJ/mol
# GULP energy per Si atom -5586.266544 kJ/mol
# Density = 1.723224 g / cm^3
# Si number density = 17.271546 Si / 1000 Ang^3
#
#
#
# Elastic Constant Matrix: (Units=GPa)
#
#
# Indices 1 2 3 4 5 6 
#
# 1 33.4484 36.3959 32.0814 0.0000 -0.9127 0.0000
# 2 36.3959 121.8615 60.8691 0.0000 -8.8823 0.0000
# 3 32.0814 60.8691 141.6752 0.0000 -17.2596 0.0000
# 4 0.0000 0.0000 0.0000 46.0948 0.0000 -20.5038
# 5 -0.9127 -8.8823 -17.2596 0.0000 20.7137 0.0000
# 6 0.0000 0.0000 0.0000 -20.5038 0.0000 64.6280
#
#
#
# Elastic Compliance Matrix: (Units=1/GPa)
#
#
# Indices 1 2 3 4 5 6 
#
# 1 0.049406 -0.011809 -0.007196 0.000000 -0.008883 0.000000
# 2 -0.011809 0.013283 -0.002674 0.000000 0.002948 0.000000
# 3 -0.007196 -0.002674 0.010750 0.000000 0.007493 0.000000
# 4 0.000000 0.000000 0.000000 0.025259 0.000000 0.008014
# 5 -0.008883 0.002948 0.007493 0.000000 0.055394 0.000000
# 6 0.000000 0.000000 0.000000 0.008014 0.000000 0.018016
#
#
# Mechanical properties :
#
#
# Convention : Reuss Voigt Hill
#
# Bulk Modulus (GPa) = 33.24362 61.74199 47.49280
# Shear Modulus (GPa) = 22.17365 37.46320 29.81843
#
# Velocity S-wave (km/s) = 3.58694 4.66238 4.15956
# Velocity P-wave (km/s) = 6.03691 8.05041 7.11524
#
# Compressibility (1/GPa) = 0.03008096
#
# Stress axis : x y z
#
# Youngs Moduli (GPa) = 20.24037 75.28182 93.02624
#
# Poissons Ratio (x) = 0.88900 0.66945
# Poissons Ratio (y) = 0.23902 0.24874
# Poissons Ratio (z) = 0.14566 0.20130
#
# Static dielectric constant tensor:
#      x y z
#    x 1.564810 0.000000 -0.004560 
#    y 0.000000 1.575480 0.000000 
#    z -0.004560 0.000000 1.571110 
# 
# From -- ./inp_files/54601.got.cif
#   From: 2010.05.17/outbox.cif.g08.bks.cpg/sg10_28_cif.got.tgz:54601.got - 2010.06.03 11:33:40.
