data_PCOD9145914
_publ_section_title
;
Structure prediction by ZEFSAII (Michael W. Deem and Ramdas Pophale) SiO2 
 PCOD9145914
Probable space group: P 2/M
;
_chemical_formula_sum "Si O2"
_cell_formula_units_Z 32
_cell_length_a 15.050647
_cell_length_b 7.564138
_cell_length_c 12.710129
_cell_angle_alpha 90.000000
_cell_angle_beta 88.694309
_cell_angle_gamma 90.000000
_cell_volume 1446.611099
_symmetry_space_group_name_H-M "P 2/M"
_symmetry_group_IT_number 10
_symmetry_cell_setting 'monoclinic'
loop_
_space_group_symop_operation_xyz
x,y,z
-x,y,-z
-x,-y,-z
x,-y,z
loop_
_atom_site_type_symbol
_atom_site_label
_atom_site_fract_x
_atom_site_fract_y
_atom_site_fract_z
Si Si1 0.711943 0.713044 0.371026
Si Si2 0.962155 0.704778 0.890861
Si Si3 0.140607 0.792580 0.805715
Si Si4 0.222373 0.292914 0.192397
Si Si5 0.512661 0.702538 0.340146
Si Si6 0.722528 0.786522 0.032340
Si Si7 0.464454 0.213311 0.887196
Si Si8 0.678139 0.716322 0.603097
O O1 0.710047 0.500000 0.362433
O O2 0.790544 0.771341 0.291795
O O3 0.611798 0.780656 0.347392
O O4 0.725687 0.761417 0.492676
O O5 0.940934 0.500000 0.914440
O O6 0.043186 0.711001 0.805974
O O7 0.872494 0.784235 0.843541
O O8 0.000000 0.782562 0.000000
O O9 0.126606 0.000000 0.820471
O O10 0.190768 0.722354 0.908740
O O11 0.207712 0.500000 0.215512
O O12 0.282705 0.276201 0.086745
O O13 0.270085 0.219571 0.294742
O O14 0.520914 0.500000 0.376307
O O15 0.491317 0.706691 0.216350
O O16 0.424787 0.778902 0.396758
O O17 0.723031 0.000000 0.029443
O O18 0.638677 0.734186 0.104646
O O19 0.472321 0.000000 0.879019
O O20 0.500000 0.265763 0.000000
O O21 0.673081 0.500000 0.608681
#
# Coordination Sequence:
#
# PCOD9145914 Si02
#       8
#     4   4   4   4   4   4   4   4
#     4  10  20  36  58  80 108 145 182 223 268 314
#     4  10  20  35  56  83 110 137 176 222 269 324
#     4  11  22  36  56  81 109 141 179 223 268 317
#     4  10  20  35  57  81 108 140 176 223 271 321
#     4  10  19  32  54  81 107 138 180 226 266 311
#     4  10  20  33  50  75 109 143 175 215 266 322
#     4  10  20  33  48  71 109 150 181 215 263 318
#     4   9  19  36  56  81 109 140 181 224 269 319
#
# _framework density 22.120667000000001
#
# number of rings (size 3 to 8) (size 9 to 14) (size 15 to 20)
#    0.000    2.000    2.500    1.500    0.000    3.500 
#    0.000    1.875    0.000    5.250    0.000    0.000 
#    0.000    0.000    0.000    0.000    0.000    0.000 
#
# Total GULP energy -178683.083257 kJ/mol
# GULP energy per Si atom -5583.846352 kJ/mol
# Density = 2.207032 g / cm^3
# Si number density = 22.120667 Si / 1000 Ang^3
#
#
#
# Elastic Constant Matrix: (Units=GPa)
#
#
# Indices 1 2 3 4 5 6 
#
# 1 94.7396 3.4979 34.7649 0.0000 -12.6565 0.0000
# 2 3.4979 55.9655 -3.0965 0.0000 1.8124 0.0000
# 3 34.7649 -3.0965 127.6871 0.0000 -12.1014 0.0000
# 4 0.0000 0.0000 0.0000 42.1191 0.0000 -20.4835
# 5 -12.6565 1.8124 -12.1014 0.0000 30.0360 0.0000
# 6 0.0000 0.0000 0.0000 -20.4835 0.0000 13.9883
#
#
#
# Elastic Compliance Matrix: (Units=1/GPa)
#
#
# Indices 1 2 3 4 5 6 
#
# 1 0.012222 -0.001058 -0.002973 0.000000 0.004016 0.000000
# 2 -0.001058 0.018009 0.000603 0.000000 -0.001290 0.000000
# 3 -0.002973 0.000603 0.008872 0.000000 0.002286 0.000000
# 4 0.000000 0.000000 0.000000 0.082478 0.000000 0.120776
# 5 0.004016 -0.001290 0.002286 0.000000 0.035984 0.000000
# 6 0.000000 0.000000 0.000000 0.120776 0.000000 0.248344
#
#
# Mechanical properties :
#
#
# Convention : Reuss Voigt Hill
#
# Bulk Modulus (GPa) = 31.01095 38.74718 34.87906
# Shear Modulus (GPa) = 11.80593 33.44375 22.62484
#
# Velocity S-wave (km/s) = 2.31271 3.89251 3.20158
# Velocity P-wave (km/s) = 4.60228 6.14463 5.42851
#
# Compressibility (1/GPa) = 0.03224668
#
# Stress axis : x y z
#
# Youngs Moduli (GPa) = 81.82201 55.52647 112.71146
#
# Poissons Ratio (x) = 0.05877 0.33504
# Poissons Ratio (y) = 0.08660 -0.06793
# Poissons Ratio (z) = 0.24322 -0.03346
#
# Static dielectric constant tensor:
#      x y z
#    x 1.847100 0.000000 0.029070 
#    y 0.000000 1.816120 0.000000 
#    z 0.029070 0.000000 1.805950 
# 
# From -- ./inp_files/49944.got.cif
#   From: 2010.05.17/outbox.cif.g08.bks.cpg/sg10_25_cif.got.tgz:49944.got - 2010.06.03 11:33:40.
