data_PCOD9145410
_publ_section_title
;
Structure prediction by ZEFSAII (Michael W. Deem and Ramdas Pophale) SiO2 
 PCOD9145410
Probable space group: P 2/M
;
_chemical_formula_sum "Si O2"
_cell_formula_units_Z 24
_cell_length_a 11.754190
_cell_length_b 13.500616
_cell_length_c 14.926857
_cell_angle_alpha 90.000000
_cell_angle_beta 150.261621
_cell_angle_gamma 90.000000
_cell_volume 1174.983353
_symmetry_space_group_name_H-M "P 2/M"
_symmetry_group_IT_number 10
_symmetry_cell_setting 'monoclinic'
loop_
_space_group_symop_operation_xyz
x,y,z
-x,y,-z
-x,-y,-z
x,-y,z
loop_
_atom_site_type_symbol
_atom_site_label
_atom_site_fract_x
_atom_site_fract_y
_atom_site_fract_z
Si Si1 0.283067 0.616812 0.235765
Si Si2 0.419692 0.244984 0.176867
Si Si3 0.828445 0.612588 0.648244
Si Si4 0.812751 0.615674 0.446679
Si Si5 0.285802 0.115914 0.920332
Si Si6 0.134040 0.884013 0.501038
O O1 0.230996 0.500000 0.178107
O O2 0.271279 0.701723 0.152455
O O3 0.554138 0.613042 0.443669
O O4 0.151561 0.648809 0.236563
O O5 0.578984 0.335674 0.253381
O O6 0.624786 0.171055 0.349849
O O7 0.294916 0.188090 0.011716
O O8 0.916385 0.500000 0.713323
O O9 0.907882 0.656270 0.607520
O O10 0.769079 0.500000 0.431978
O O11 0.000000 0.626878 0.500000
O O12 0.049754 0.123840 0.704174
O O13 0.312962 0.000000 0.966148
O O14 0.500000 0.137695 0.000000
O O15 0.000000 0.849888 0.500000
O O16 0.185489 0.000000 0.550448
#
# Coordination Sequence:
#
# PCOD9145410 Si02
#       6
#     4   4   4   4   4   4
#     4   8  14  25  45  71 100 135 177 216 246 291
#     4  11  18  28  50  76 104 136 170 211 252 306
#     4   7  11  23  41  66  99 136 176 213 248 287
#     4   9  17  27  44  75 114 144 168 206 254 305
#     4  10  20  33  49  71 101 134 172 216 262 311
#     4  10  19  32  49  71  99 132 170 215 265 314
#
# _framework density 20.425820999999999
#
# number of rings (size 3 to 8) (size 9 to 14) (size 15 to 20)
#    0.000    2.833    1.667    3.500    0.000    0.000 
#    0.000    0.000    0.000    6.000    0.000   56.000 
#    0.000  106.667    0.000    0.000    0.000    0.000 
#
# Total GULP energy -133620.719442 kJ/mol
# GULP energy per Si atom -5567.529977 kJ/mol
# Density = 2.037933 g / cm^3
# Si number density = 20.425821 Si / 1000 Ang^3
#
#
#
# Elastic Constant Matrix: (Units=GPa)
#
#
# Indices 1 2 3 4 5 6 
#
# 1 137.9876 35.6595 43.0638 0.0000 -38.3546 0.0000
# 2 35.6595 107.0912 31.9587 0.0000 -27.7366 0.0000
# 3 43.0638 31.9587 97.2323 0.0000 -18.2242 0.0000
# 4 0.0000 0.0000 0.0000 -58.1526 0.0000 -150.2811
# 5 -38.3546 -27.7366 -18.2242 0.0000 24.0641 0.0000
# 6 0.0000 0.0000 0.0000 -150.2811 0.0000 -221.7068
#
#
#
# Elastic Compliance Matrix: (Units=1/GPa)
#
#
# Indices 1 2 3 4 5 6 
#
# 1 0.013692 0.001930 -0.002554 0.000000 0.022114 0.000000
# 2 0.001930 0.013844 -0.002142 0.000000 0.017411 0.000000
# 3 -0.002554 -0.002142 0.012696 0.000000 0.003076 0.000000
# 4 0.000000 0.000000 0.000000 0.022876 0.000000 -0.015506
# 5 0.022114 0.017411 0.003076 0.000000 0.099199 0.000000
# 6 0.000000 0.000000 0.000000 -0.015506 0.000000 0.006000
#
#
# Mechanical properties :
#
#
# Convention : Reuss Voigt Hill
#
# Bulk Modulus (GPa) = 28.81733 62.63059 45.72396
# Shear Modulus (GPa) = 26.96799 -35.71711 -4.37456
#
# Velocity S-wave (km/s) = 3.63752 -4.18619 -1.46504
# Velocity P-wave (km/s) = 5.63746 2.71356 4.42405
#
# Compressibility (1/GPa) = 0.03470134
#
# Stress axis : x y z
#
# Youngs Moduli (GPa) = 73.03649 72.23507 78.76352
#
# Poissons Ratio (x) = -0.13944 0.20115
# Poissons Ratio (y) = -0.14099 0.16870
# Poissons Ratio (z) = 0.18652 0.15471
#
# Static dielectric constant tensor:
#      x y z
#    x 1.777500 0.000000 -0.017770 
#    y 0.000000 1.769940 0.000000 
#    z -0.017770 0.000000 1.786500 
# 
# From -- ./inp_files/65166.got.cif
#   From: 2010.05.17/outbox.cif.g08.bks.cpg/sg10_33_cif.got.tgz:65166.got - 2010.06.03 11:33:40.
