data_PCOD9145513
_publ_section_title
;
Structure prediction by ZEFSAII (Michael W. Deem and Ramdas Pophale) SiO2 
 PCOD9145513
Probable space group: P 2/M
;
_chemical_formula_sum "Si O2"
_cell_formula_units_Z 30
_cell_length_a 5.171029
_cell_length_b 18.492706
_cell_length_c 19.703301
_cell_angle_alpha 90.000000
_cell_angle_beta 64.895735
_cell_angle_gamma 90.000000
_cell_volume 1706.171708
_symmetry_space_group_name_H-M "P 2/M"
_symmetry_group_IT_number 10
_symmetry_cell_setting 'monoclinic'
loop_
_space_group_symop_operation_xyz
x,y,z
-x,y,-z
-x,-y,-z
x,-y,z
loop_
_atom_site_type_symbol
_atom_site_label
_atom_site_fract_x
_atom_site_fract_y
_atom_site_fract_z
Si Si1 0.165714 0.500000 0.051936
Si Si2 0.163632 0.659443 0.053146
Si Si3 0.379789 0.767704 0.277896
Si Si4 0.720697 0.586784 0.342515
Si Si5 0.275055 0.083198 0.322413
Si Si6 0.107879 0.336619 0.411418
Si Si7 0.981917 0.300330 0.215797
Si Si8 0.601921 0.916095 0.419381
O O1 0.500000 0.500000 0.000000
O O2 0.104326 0.578054 0.088541
O O3 0.000000 0.500000 0.000000
O O4 0.057231 0.705335 0.128271
O O5 0.500000 0.666995 0.000000
O O6 0.000000 0.669142 0.000000
O O7 0.329297 0.851425 0.265463
O O8 0.191632 0.737286 0.362197
O O9 0.708057 0.751085 0.257728
O O10 0.258517 0.721439 0.228585
O O11 0.737858 0.500000 0.340019
O O12 0.394818 0.614734 0.379792
O O13 0.873065 0.623576 0.260036
O O14 0.877513 0.621205 0.390748
O O15 0.455879 0.109684 0.367297
O O16 0.940989 0.083730 0.377161
O O17 0.352261 0.000000 0.295960
O O18 0.000000 0.324828 0.500000
O O19 0.500000 0.879728 0.500000
O O20 0.500987 0.000000 0.432776
#
# Coordination Sequence:
#
# PCOD9145513 Si02
#       8
#     2   4   4   4   4   4   4   4
#     4   8  16  28  44  72 104 128 155 194 231 272
#     4  10  19  33  53  79 106 135 168 199 239 298
#     4  10  21  37  50  73 103 135 170 209 262 309
#     4  10  21  35  52  73  95 130 175 214 258 299
#     4  10  19  32  51  71  97 131 168 212 252 308
#     4  10  21  35  50  70  96 130 172 220 266 298
#     4  10  21  36  54  73 107 138 162 207 252 304
#     4   9  17  28  43  68  97 124 159 204 254 302
#
# _framework density 17.583224999999999
#
# number of rings (size 3 to 8) (size 9 to 14) (size 15 to 20)
#    0.000    2.267    0.000    2.800    0.933    4.267 
#    0.000    0.000    0.000    0.000    0.000    0.000 
#    0.000   10.667    0.000    0.000    0.000    0.000 
#
# Total GULP energy -167056.427142 kJ/mol
# GULP energy per Si atom -5568.547571 kJ/mol
# Density = 1.754320 g / cm^3
# Si number density = 17.583225 Si / 1000 Ang^3
#
#
#
# Elastic Constant Matrix: (Units=GPa)
#
#
# Indices 1 2 3 4 5 6 
#
# 1 89.6451 -2.2040 6.4655 0.0000 8.8584 0.0000
# 2 -2.2040 82.3732 13.2668 0.0000 -3.8952 0.0000
# 3 6.4655 13.2668 90.5621 0.0000 9.0091 0.0000
# 4 0.0000 0.0000 0.0000 6.5276 0.0000 -1.0279
# 5 8.8584 -3.8952 9.0091 0.0000 15.0094 0.0000
# 6 0.0000 0.0000 0.0000 -1.0279 0.0000 21.6363
#
#
#
# Elastic Compliance Matrix: (Units=1/GPa)
#
#
# Indices 1 2 3 4 5 6 
#
# 1 0.011848 0.000017 -0.000163 0.000000 -0.006890 0.000000
# 2 0.000017 0.012738 -0.002335 0.000000 0.004697 0.000000
# 3 -0.000163 -0.002335 0.012173 0.000000 -0.007817 0.000000
# 4 0.000000 0.000000 0.000000 0.154351 0.000000 0.007333
# 5 -0.006890 0.004697 -0.007817 0.000000 0.076602 0.000000
# 6 0.000000 0.000000 0.000000 0.007333 0.000000 0.046567
#
#
# Mechanical properties :
#
#
# Convention : Reuss Voigt Hill
#
# Bulk Modulus (GPa) = 31.44684 33.07078 32.25881
# Shear Modulus (GPa) = 15.15887 24.97146 20.06516
#
# Velocity S-wave (km/s) = 2.93937 3.77262 3.38176
# Velocity P-wave (km/s) = 5.42617 6.15028 5.79953
#
# Compressibility (1/GPa) = 0.03179970
#
# Stress axis : x y z
#
# Youngs Moduli (GPa) = 84.40134 78.50258 82.14652
#
# Poissons Ratio (x) = -0.00137 0.01339
# Poissons Ratio (y) = -0.00147 0.19178
# Poissons Ratio (z) = 0.01376 0.18327
#
# Static dielectric constant tensor:
#      x y z
#    x 1.614200 0.000000 0.021510 
#    y 0.000000 1.642120 0.000000 
#    z 0.021510 0.000000 1.599630 
# 
# From -- ./inp_files/73696.got.cif
#   From: 2010.05.17/outbox.cif.g08.bks.cpg/sg10_37_cif.got.tgz:73696.got - 2010.06.03 11:33:40.
