data_PCOD9145421
_publ_section_title
;
Structure prediction by ZEFSAII (Michael W. Deem and Ramdas Pophale) SiO2 
 PCOD9145421
Probable space group: P 2/M
;
_chemical_formula_sum "Si O2"
_cell_formula_units_Z 32
_cell_length_a 8.676681
_cell_length_b 21.604135
_cell_length_c 10.474073
_cell_angle_alpha 90.000000
_cell_angle_beta 135.580101
_cell_angle_gamma 90.000000
_cell_volume 1374.197645
_symmetry_space_group_name_H-M "P 2/M"
_symmetry_group_IT_number 10
_symmetry_cell_setting 'monoclinic'
loop_
_space_group_symop_operation_xyz
x,y,z
-x,y,-z
-x,-y,-z
x,-y,z
loop_
_atom_site_type_symbol
_atom_site_label
_atom_site_fract_x
_atom_site_fract_y
_atom_site_fract_z
Si Si1 0.751896 0.764622 0.660361
Si Si2 0.641033 0.069947 0.216236
Si Si3 0.862225 0.625733 0.718765
Si Si4 0.809258 0.400601 0.298864
Si Si5 0.926028 0.837094 0.272135
Si Si6 0.481904 0.427890 0.306036
Si Si7 0.367357 0.272112 0.797066
Si Si8 0.655854 0.825228 0.853909
O O1 0.500000 0.745867 0.500000
O O2 0.884568 0.700291 0.744776
O O3 0.764295 0.813115 0.783393
O O4 0.836832 0.806142 0.593401
O O5 0.873360 0.098736 0.308166
O O6 0.513462 0.117434 0.233863
O O7 0.654030 0.000000 0.271230
O O8 0.500000 0.070116 0.000000
O O9 0.752691 0.600885 0.786685
O O10 0.670027 0.606625 0.502685
O O11 0.085810 0.599724 0.782395
O O12 0.573965 0.424732 0.214083
O O13 0.781110 0.329111 0.325094
O O14 0.000000 0.429815 0.500000
O O15 0.776223 0.786718 0.252846
O O16 0.821054 0.837038 0.068571
O O17 0.475452 0.500000 0.336384
O O18 0.547372 0.242756 0.811953
O O19 0.500000 0.293793 0.000000
#
# Coordination Sequence:
#
# PCOD9145421 Si02
#       8
#     4   4   4   4   4   4   4   4
#     4  12  21  32  50  76 112 143 175 214 275 324
#     4   8  15  33  59  81 101 136 186 230 265 312
#     4  10  19  32  49  74 108 136 173 221 270 324
#     4  10  20  31  52  77 104 136 176 222 267 330
#     4   9  18  33  51  79 107 136 170 221 272 321
#     4  10  20  34  51  75 107 139 176 228 276 317
#     4   9  17  31  50  74 105 134 166 213 275 325
#     4   9  19  31  52  78 108 136 172 221 272 322
#
# _framework density 23.286314999999998
#
# number of rings (size 3 to 8) (size 9 to 14) (size 15 to 20)
#    0.000    2.375    2.500    3.375    1.750    2.750 
#    0.000    2.500    0.000    5.625    0.000    0.875 
#    0.000    0.000    0.000    0.000    0.000    0.000 
#
# Total GULP energy -178327.954789 kJ/mol
# GULP energy per Si atom -5572.748587 kJ/mol
# Density = 2.323331 g / cm^3
# Si number density = 23.286315 Si / 1000 Ang^3
#
#
#
# Elastic Constant Matrix: (Units=GPa)
#
#
# Indices 1 2 3 4 5 6 
#
# 1 184.2438 43.5896 19.7945 0.0000 4.3610 0.0000
# 2 43.5896 142.3020 13.1589 0.0000 -0.2620 0.0000
# 3 19.7945 13.1589 50.4908 0.0000 -5.2088 0.0000
# 4 0.0000 0.0000 0.0000 -11.3368 0.0000 16.0023
# 5 4.3610 -0.2620 -5.2088 0.0000 23.3196 0.0000
# 6 0.0000 0.0000 0.0000 16.0023 0.0000 -7.7019
#
#
#
# Elastic Compliance Matrix: (Units=1/GPa)
#
#
# Indices 1 2 3 4 5 6 
#
# 1 0.006090 -0.001672 -0.002120 0.000000 -0.001631 0.000000
# 2 -0.001672 0.007663 -0.001331 0.000000 0.000102 0.000000
# 3 -0.002120 -0.001331 0.021519 0.000000 0.005188 0.000000
# 4 0.000000 0.000000 0.000000 0.045638 0.000000 0.094823
# 5 -0.001631 0.000102 0.005188 0.000000 0.044347 0.000000
# 6 0.000000 0.000000 0.000000 0.094823 0.000000 0.067177
#
#
# Mechanical properties :
#
#
# Convention : Reuss Voigt Hill
#
# Bulk Modulus (GPa) = 39.96017 58.90251 49.43134
# Shear Modulus (GPa) = 23.69430 20.88910 22.29170
#
# Velocity S-wave (km/s) = 3.19332 2.99834 3.09736
# Velocity P-wave (km/s) = 5.54923 6.11036 5.83655
#
# Compressibility (1/GPa) = 0.02502492
#
# Stress axis : x y z
#
# Youngs Moduli (GPa) = 164.21459 130.49996 46.47113
#
# Poissons Ratio (x) = 0.21824 0.09851
# Poissons Ratio (y) = 0.27462 0.06185
# Poissons Ratio (z) = 0.34810 0.17370
#
# Static dielectric constant tensor:
#      x y z
#    x 1.976250 0.000000 -0.117990 
#    y 0.000000 1.840780 0.000000 
#    z -0.117990 0.000000 2.195670 
# 
# From -- ./inp_files/43636.got.cif
#   From: 2010.05.17/outbox.cif.g08.bks.cpg/sg10_22_cif.got.tgz:43636.got - 2010.06.03 11:33:40.
