data_PCOD9145834
_publ_section_title
;
Structure prediction by ZEFSAII (Michael W. Deem and Ramdas Pophale) SiO2 
 PCOD9145834
Probable space group: P 2/M
;
_chemical_formula_sum "Si O2"
_cell_formula_units_Z 24
_cell_length_a 17.377536
_cell_length_b 8.360220
_cell_length_c 17.380367
_cell_angle_alpha 90.000000
_cell_angle_beta 155.380824
_cell_angle_gamma 90.000000
_cell_volume 1051.885705
_symmetry_space_group_name_H-M "P 2/M"
_symmetry_group_IT_number 10
_symmetry_cell_setting 'monoclinic'
loop_
_space_group_symop_operation_xyz
x,y,z
-x,y,-z
-x,-y,-z
x,-y,z
loop_
_atom_site_type_symbol
_atom_site_label
_atom_site_fract_x
_atom_site_fract_y
_atom_site_fract_z
Si Si1 0.080519 0.500000 0.487930
Si Si2 0.698233 0.680870 0.865938
Si Si3 0.124201 0.174507 0.454886
Si Si4 0.779854 0.184953 0.779971
Si Si5 0.512234 0.500000 0.919658
Si Si6 0.454544 0.825551 0.123739
Si Si7 0.134816 0.680920 0.302333
O O1 0.026638 0.335170 0.396530
O O2 0.303741 0.500000 0.696467
O O3 0.000000 0.500000 0.500000
O O4 0.629822 0.500000 0.815541
O O5 0.680893 0.731688 0.761710
O O6 0.603719 0.797181 0.840843
O O7 0.916664 0.682752 0.083982
O O8 0.323569 0.169477 0.676725
O O9 0.159978 0.203013 0.396983
O O10 0.036188 0.000000 0.386951
O O11 0.761267 0.267967 0.680662
O O12 0.726546 0.000000 0.726789
O O13 0.000000 0.190419 0.000000
O O14 0.603724 0.664846 0.973686
O O15 0.500000 0.500000 0.000000
O O16 0.386753 0.000000 0.035751
O O17 0.185383 0.500000 0.370720
#
# Coordination Sequence:
#
# PCOD9145834 Si02
#       7
#     2   4   4   4   2   4   4
#     4  10  22  40  60  83 112 141 175 220 271 328
#     4  10  19  32  53  80 110 146 188 230 272 319
#     4  10  21  38  59  82 111 147 182 220 271 326
#     4   9  17  29  46  73 110 147 184 229 275 314
#     4  10  22  40  60  83 112 141 175 220 271 328
#     4  10  21  38  59  82 111 147 182 220 271 326
#     4  10  19  32  53  80 110 146 188 230 272 319
#
# _framework density 22.816165999999999
#
# number of rings (size 3 to 8) (size 9 to 14) (size 15 to 20)
#    0.000    2.167    1.667    1.500    0.000    6.000 
#    0.000    0.833    0.000    5.000    0.000    0.000 
#    0.000    0.000    0.000    0.000    0.000    0.000 
#
# Total GULP energy -134126.311457 kJ/mol
# GULP energy per Si atom -5588.596311 kJ/mol
# Density = 2.276424 g / cm^3
# Si number density = 22.816166 Si / 1000 Ang^3
#
#
#
# Elastic Constant Matrix: (Units=GPa)
#
#
# Indices 1 2 3 4 5 6 
#
# 1 -12.5257 60.3583 106.3989 0.0000 -150.8861 0.0000
# 2 60.3583 222.4306 22.1848 0.0000 -19.4008 0.0000
# 3 106.3989 22.1848 -30.8868 0.0000 133.6516 0.0000
# 4 0.0000 0.0000 0.0000 1.3680 0.0000 -0.3977
# 5 -150.8861 -19.4008 133.6516 0.0000 -116.8560 0.0000
# 6 0.0000 0.0000 0.0000 -0.3977 0.0000 2.3105
#
#
#
# Elastic Compliance Matrix: (Units=1/GPa)
#
#
# Indices 1 2 3 4 5 6 
#
# 1 0.008766 -0.003318 0.004756 0.000000 -0.005329 0.000000
# 2 -0.003318 0.005687 -0.001800 0.000000 0.001281 0.000000
# 3 0.004756 -0.001800 0.010778 0.000000 0.006486 0.000000
# 4 0.000000 0.000000 0.000000 0.769497 0.000000 0.132464
# 5 -0.005329 0.001281 0.006486 0.000000 0.005528 0.000000
# 6 0.000000 0.000000 0.000000 0.132464 0.000000 0.455617
#
#
# Mechanical properties :
#
#
# Convention : Reuss Voigt Hill
#
# Bulk Modulus (GPa) = 40.80282 61.87801 51.34042
# Shear Modulus (GPa) = 3.95329 -23.29709 -9.67190
#
# Velocity S-wave (km/s) = 1.31774 -3.19890 -2.06113
# Velocity P-wave (km/s) = 4.49860 3.67902 4.10929
#
# Compressibility (1/GPa) = 0.02450811
#
# Stress axis : x y z
#
# Youngs Moduli (GPa) = 114.07424 175.82719 92.77757
#
# Poissons Ratio (x) = 0.58338 -0.44123
# Poissons Ratio (y) = 0.37849 0.16698
# Poissons Ratio (z) = -0.54251 0.31646
#
# Static dielectric constant tensor:
#      x y z
#    x 1.799120 0.000000 0.031690 
#    y 0.000000 1.856270 0.000000 
#    z 0.031690 0.000000 1.874530 
# 
# From -- ./inp_files/33828.got.cif
#   From: 2010.05.17/outbox.cif.g08.bks.cpg/sg10_17_cif.got.tgz:33828.got - 2010.06.03 11:33:40.
