data_PCOD9145436
_publ_section_title
;
Structure prediction by ZEFSAII (Michael W. Deem and Ramdas Pophale) SiO2 
 PCOD9145436
Probable space group: P 2/M
;
_chemical_formula_sum "Si O2"
_cell_formula_units_Z 32
_cell_length_a 22.959291
_cell_length_b 9.344608
_cell_length_c 32.505761
_cell_angle_alpha 90.000000
_cell_angle_beta 168.073420
_cell_angle_gamma 90.000000
_cell_volume 1441.226816
_symmetry_space_group_name_H-M "P 2/M"
_symmetry_group_IT_number 10
_symmetry_cell_setting 'monoclinic'
loop_
_space_group_symop_operation_xyz
x,y,z
-x,y,-z
-x,-y,-z
x,-y,z
loop_
_atom_site_type_symbol
_atom_site_label
_atom_site_fract_x
_atom_site_fract_y
_atom_site_fract_z
Si Si1 0.899102 0.834730 0.476959
Si Si2 0.515728 0.160659 0.557422
Si Si3 0.934882 0.839400 0.322459
Si Si4 0.621987 0.164465 0.789462
Si Si5 0.144661 0.159737 0.888692
Si Si6 0.116828 0.662206 0.791375
Si Si7 0.659393 0.330473 0.896857
Si Si8 0.569853 0.336822 0.672805
O O1 0.117151 0.813256 0.665181
O O2 0.666159 0.713147 0.321520
O O3 0.000000 0.828087 0.500000
O O4 0.791020 0.000000 0.408561
O O5 0.500000 0.217768 0.500000
O O6 0.639761 0.262970 0.677734
O O7 0.191183 0.144071 0.346241
O O8 0.644159 0.000000 0.644782
O O9 0.278538 0.836651 0.556320
O O10 0.825405 0.729604 0.213185
O O11 0.843798 0.000000 0.248639
O O12 0.734278 0.252853 0.905914
O O13 0.679716 0.243260 0.786607
O O14 0.716701 0.000000 0.855007
O O15 0.233526 0.240658 0.908848
O O16 0.269998 0.000000 0.979197
O O17 0.196456 0.254719 0.964686
O O18 0.217284 0.500000 0.864161
O O19 0.773590 0.659858 0.559592
O O20 0.704257 0.500000 0.926575
O O21 0.668534 0.500000 0.742638
#
# Coordination Sequence:
#
# PCOD9145436 Si02
#       8
#     4   4   4   4   4   4   4   4
#     4   9  18  33  52  73  98 129 164 198 234 282
#     4   9  18  32  50  72  97 127 163 200 238 285
#     4   8  14  25  43  67  92 119 153 192 232 274
#     4   9  16  28  46  67  92 123 160 198 236 279
#     4  10  19  32  50  70  95 127 161 196 237 285
#     4   9  16  26  42  66  94 121 153 194 236 277
#     4  11  21  32  48  72 101 128 158 197 241 286
#     4   9  16  26  43  69  97 123 154 195 242 285
#
# _framework density 22.203305
#
# number of rings (size 3 to 8) (size 9 to 14) (size 15 to 20)
#    0.000    2.750    0.000    3.375    0.000    7.000 
#    0.000    0.000    0.000    1.500    0.000   10.500 
#    0.000    0.000    0.000    0.000    0.000    0.000 
#
# Total GULP energy -178699.435581 kJ/mol
# GULP energy per Si atom -5584.357362 kJ/mol
# Density = 2.215277 g / cm^3
# Si number density = 22.203305 Si / 1000 Ang^3
#
#
#
# Elastic Constant Matrix: (Units=GPa)
#
#
# Indices 1 2 3 4 5 6 
#
# 1 145.8624 93.1108 44.3393 0.0000 -55.1461 0.0000
# 2 93.1108 208.1556 54.7763 0.0000 -53.0602 0.0000
# 3 44.3393 54.7763 55.4066 0.0000 -17.9688 0.0000
# 4 0.0000 0.0000 0.0000 25.6557 0.0000 -2.3423
# 5 -55.1461 -53.0602 -17.9688 0.0000 51.8709 0.0000
# 6 0.0000 0.0000 0.0000 -2.3423 0.0000 21.0238
#
#
#
# Elastic Compliance Matrix: (Units=1/GPa)
#
#
# Indices 1 2 3 4 5 6 
#
# 1 0.013942 -0.001980 -0.005689 0.000000 0.010827 0.000000
# 2 -0.001980 0.008158 -0.005022 0.000000 0.004501 0.000000
# 3 -0.005689 -0.005022 0.026968 0.000000 -0.001843 0.000000
# 4 0.000000 0.000000 0.000000 0.039378 0.000000 0.004387
# 5 0.010827 0.004501 -0.001843 0.000000 0.034755 0.000000
# 6 0.000000 0.000000 0.000000 0.004387 0.000000 0.048054
#
#
# Mechanical properties :
#
#
# Convention : Reuss Voigt Hill
#
# Bulk Modulus (GPa) = 42.21543 88.20858 65.21200
# Shear Modulus (GPa) = 24.44611 34.18997 29.31804
#
# Velocity S-wave (km/s) = 3.32175 3.92836 3.63772
# Velocity P-wave (km/s) = 5.81089 7.77110 6.86136
#
# Compressibility (1/GPa) = 0.02368802
#
# Stress axis : x y z
#
# Youngs Moduli (GPa) = 71.72594 122.57163 37.08130
#
# Poissons Ratio (x) = 0.24265 0.21095
# Poissons Ratio (y) = 0.14199 0.18621
# Poissons Ratio (z) = 0.40804 0.61551
#
# Static dielectric constant tensor:
#      x y z
#    x 1.828630 0.000000 0.047830 
#    y 0.000000 1.774380 0.000000 
#    z 0.047830 0.000000 1.890810 
# 
# From -- ./inp_files/56398.got.cif
#   From: 2010.05.17/outbox.cif.g08.bks.cpg/sg10_29_cif.got.tgz:56398.got - 2010.06.03 11:33:40.
