data_PCOD9145568
_publ_section_title
;
Structure prediction by ZEFSAII (Michael W. Deem and Ramdas Pophale) SiO2 
 PCOD9145568
Probable space group: P 2/M
;
_chemical_formula_sum "Si O2"
_cell_formula_units_Z 32
_cell_length_a 5.275747
_cell_length_b 9.965316
_cell_length_c 32.350841
_cell_angle_alpha 90.000000
_cell_angle_beta 85.324975
_cell_angle_gamma 90.000000
_cell_volume 1695.170194
_symmetry_space_group_name_H-M "P 2/M"
_symmetry_group_IT_number 10
_symmetry_cell_setting 'monoclinic'
loop_
_space_group_symop_operation_xyz
x,y,z
-x,y,-z
-x,-y,-z
x,-y,z
loop_
_atom_site_type_symbol
_atom_site_label
_atom_site_fract_x
_atom_site_fract_y
_atom_site_fract_z
Si Si1 0.821803 0.837643 0.328521
Si Si2 0.702966 0.162405 0.619992
Si Si3 0.230055 0.149214 0.127716
Si Si4 0.737361 0.836169 0.524874
Si Si5 0.551854 0.746308 0.953271
Si Si6 0.939054 0.353952 0.084632
Si Si7 0.901486 0.344830 0.248007
Si Si8 0.567472 0.654573 0.806988
O O1 0.554974 0.799177 0.353214
O O2 0.859335 0.758902 0.285500
O O3 0.050541 0.801585 0.356601
O O4 0.824795 0.000000 0.322284
O O5 0.715518 0.210158 0.572522
O O6 0.700203 0.000000 0.617989
O O7 0.385864 0.144667 0.082592
O O8 0.984368 0.237167 0.117671
O O9 0.387142 0.239777 0.157307
O O10 0.174177 0.000000 0.143386
O O11 0.500000 0.794202 0.500000
O O12 0.000000 0.794867 0.500000
O O13 0.736262 0.000000 0.525649
O O14 0.809028 0.658326 0.947286
O O15 0.308766 0.667991 0.939305
O O16 0.500000 0.794941 0.000000
O O17 0.934237 0.500000 0.104823
O O18 0.870229 0.500000 0.262413
O O19 0.688022 0.322176 0.215686
O O20 0.184030 0.332038 0.225538
O O21 0.564006 0.500000 0.822616
#
# Coordination Sequence:
#
# PCOD9145568 Si02
#       8
#     4   4   4   4   4   4   4   4
#     4  10  19  32  51  75 105 138 174 217 274 330
#     4   9  17  28  44  70 105 142 179 223 271 322
#     4  10  25  42  61  88 120 152 189 226 274 336
#     4   9  15  23  37  60  96 141 182 218 263 316
#     4  10  23  40  61  91 118 151 190 234 275 319
#     4  10  22  39  61  87 115 148 189 232 273 317
#     4  10  22  39  59  82 109 138 177 226 274 330
#     4  10  22  40  60  83 108 141 179 222 276 323
#
# _framework density 18.877158999999999
#
# number of rings (size 3 to 8) (size 9 to 14) (size 15 to 20)
#    0.750    1.500    0.000    2.625    1.750    6.250 
#    0.000    0.625    0.000    0.000    0.000    0.000 
#    0.000   10.000    0.000    0.000    0.000    0.000 
#
# Total GULP energy -178410.415939 kJ/mol
# GULP energy per Si atom -5575.325498 kJ/mol
# Density = 1.883419 g / cm^3
# Si number density = 18.877159 Si / 1000 Ang^3
#
#
#
# Elastic Constant Matrix: (Units=GPa)
#
#
# Indices 1 2 3 4 5 6 
#
# 1 114.9257 10.4094 17.5866 0.0000 -1.7735 0.0000
# 2 10.4094 70.4194 42.8020 0.0000 2.0662 0.0000
# 3 17.5866 42.8020 91.6372 0.0000 -3.1677 0.0000
# 4 0.0000 0.0000 0.0000 8.9662 0.0000 2.1405
# 5 -1.7735 2.0662 -3.1677 0.0000 25.4872 0.0000
# 6 0.0000 0.0000 0.0000 2.1405 0.0000 2.6505
#
#
#
# Elastic Compliance Matrix: (Units=1/GPa)
#
#
# Indices 1 2 3 4 5 6 
#
# 1 0.008978 -0.000424 -0.001509 0.000000 0.000472 0.000000
# 2 -0.000424 0.020047 -0.009380 0.000000 -0.002820 0.000000
# 3 -0.001509 -0.009380 0.015673 0.000000 0.002603 0.000000
# 4 0.000000 0.000000 0.000000 0.138166 0.000000 -0.111578
# 5 0.000472 -0.002820 0.002603 0.000000 0.039820 0.000000
# 6 0.000000 0.000000 0.000000 -0.111578 0.000000 0.467393
#
#
# Mechanical properties :
#
#
# Convention : Reuss Voigt Hill
#
# Bulk Modulus (GPa) = 45.30327 46.50870 45.90598
# Shear Modulus (GPa) = 6.94386 21.16640 14.05513
#
# Velocity S-wave (km/s) = 1.92001 3.35217 2.73162
# Velocity P-wave (km/s) = 5.38204 6.29871 5.85833
#
# Compressibility (1/GPa) = 0.02207346
#
# Stress axis : x y z
#
# Youngs Moduli (GPa) = 111.38563 49.88213 63.80295
#
# Poissons Ratio (x) = 0.02115 0.09626
# Poissons Ratio (y) = 0.04722 0.59846
# Poissons Ratio (z) = 0.16804 0.46789
#
# Static dielectric constant tensor:
#      x y z
#    x 1.665890 0.000000 -0.015460 
#    y 0.000000 1.634910 0.000000 
#    z -0.015460 0.000000 1.645190 
# 
# From -- ./inp_files/94286.got.cif
#   From: 2010.05.17/outbox.cif.g08.bks.cpg/sg10_48_cif.got.tgz:94286.got - 2010.06.03 11:33:40.
