data_PCOD9145614
_publ_section_title
;
Structure prediction by ZEFSAII (Michael W. Deem and Ramdas Pophale) SiO2 
 PCOD9145614
Probable space group: P 2/M
;
_chemical_formula_sum "Si O2"
_cell_formula_units_Z 30
_cell_length_a 15.267786
_cell_length_b 23.313180
_cell_length_c 14.298317
_cell_angle_alpha 90.000000
_cell_angle_beta 160.265371
_cell_angle_gamma 90.000000
_cell_volume 1718.492085
_symmetry_space_group_name_H-M "P 2/M"
_symmetry_group_IT_number 10
_symmetry_cell_setting 'monoclinic'
loop_
_space_group_symop_operation_xyz
x,y,z
-x,y,-z
-x,-y,-z
x,-y,z
loop_
_atom_site_type_symbol
_atom_site_label
_atom_site_fract_x
_atom_site_fract_y
_atom_site_fract_z
Si Si1 0.076739 0.635452 0.306564
Si Si2 0.991700 0.860806 0.104983
Si Si3 0.744828 0.500000 0.181087
Si Si4 0.591468 0.253191 0.985509
Si Si5 0.586863 0.385028 0.917923
Si Si6 0.508200 0.935609 0.395986
Si Si7 0.913947 0.768153 0.638458
Si Si8 0.255105 0.437002 0.318729
O O1 0.280466 0.610622 0.588401
O O2 0.082263 0.703423 0.319309
O O3 0.197758 0.611760 0.334446
O O4 0.776900 0.618865 0.019001
O O5 0.216566 0.907401 0.348891
O O6 0.038909 0.809670 0.225988
O O7 0.720689 0.891450 0.856397
O O8 0.000000 0.846333 0.000000
O O9 0.000000 0.500000 0.500000
O O10 0.500000 0.500000 0.000000
O O11 0.706514 0.440563 0.087261
O O12 0.615176 0.323030 0.997363
O O13 0.365706 0.227997 0.692053
O O14 0.500000 0.242080 0.000000
O O15 0.862208 0.228673 0.216709
O O16 0.500000 0.940668 0.500000
O O17 0.475579 0.000000 0.324504
O O18 0.500000 0.425884 0.500000
O O19 0.294828 0.500000 0.404880
O O20 0.000000 0.440876 0.000000
#
# Coordination Sequence:
#
# PCOD9145614 Si02
#       8
#     4   4   2   4   4   4   4   4
#     4  10  21  37  53  73 100 133 169 212 265 317
#     4  10  19  32  51  79 117 153 178 221 265 301
#     4  12  24  36  52  78 102 120 154 200 258 336
#     4  10  20  37  56  74 103 139 176 228 278 317
#     4  10  22  35  54  76  97 130 161 204 269 337
#     4   9  17  30  50  77 112 154 190 213 252 311
#     4  10  21  35  53  81 107 137 186 218 264 333
#     4  10  21  35  52  73  94 126 172 220 257 302
#
# _framework density 17.457165
#
# number of rings (size 3 to 8) (size 9 to 14) (size 15 to 20)
#    0.000    2.000    0.000    3.600    1.867    4.267 
#    0.000    2.000    0.000    0.000    0.000    0.000 
#    0.000   37.333    0.000    0.000    0.000    0.000 
#
# Total GULP energy -167093.351451 kJ/mol
# GULP energy per Si atom -5569.778382 kJ/mol
# Density = 1.741743 g / cm^3
# Si number density = 17.457165 Si / 1000 Ang^3
#
#
#
# Elastic Constant Matrix: (Units=GPa)
#
#
# Indices 1 2 3 4 5 6 
#
# 1 59.5497 35.1815 13.2656 0.0000 4.6393 0.0000
# 2 35.1815 66.7887 31.9410 0.0000 -13.6882 0.0000
# 3 13.2656 31.9410 82.4339 0.0000 6.2627 0.0000
# 4 0.0000 0.0000 0.0000 114.5786 0.0000 99.5592
# 5 4.6393 -13.6882 6.2627 0.0000 27.7669 0.0000
# 6 0.0000 0.0000 0.0000 99.5592 0.0000 114.1298
#
#
#
# Elastic Compliance Matrix: (Units=1/GPa)
#
#
# Indices 1 2 3 4 5 6 
#
# 1 0.029535 -0.021173 0.004700 0.000000 -0.016432 0.000000
# 2 -0.021173 0.037452 -0.012998 0.000000 0.024932 0.000000
# 3 0.004700 -0.012998 0.017253 0.000000 -0.011084 0.000000
# 4 0.000000 0.000000 0.000000 0.036062 0.000000 -0.031458
# 5 -0.016432 0.024932 -0.011084 0.000000 0.053550 0.000000
# 6 0.000000 0.000000 0.000000 -0.031458 0.000000 0.036204
#
#
# Mechanical properties :
#
#
# Convention : Reuss Voigt Hill
#
# Bulk Modulus (GPa) = 39.53184 41.06094 40.29639
# Shear Modulus (GPa) = 18.02239 59.85398 38.93819
#
# Velocity S-wave (km/s) = 3.21655 5.86179 4.72794
# Velocity P-wave (km/s) = 6.04062 8.32984 7.27583
#
# Compressibility (1/GPa) = 0.02529607
#
# Stress axis : x y z
#
# Youngs Moduli (GPa) = 33.85832 26.70102 57.95971
#
# Poissons Ratio (x) = 0.56534 -0.27238
# Poissons Ratio (y) = 0.71688 0.75339
# Poissons Ratio (z) = -0.15912 0.34707
#
# Static dielectric constant tensor:
#      x y z
#    x 1.602220 0.000000 -0.004340 
#    y 0.000000 1.560460 0.000000 
#    z -0.004340 0.000000 1.615930 
# 
# From -- ./inp_files/67913.got.cif
#   From: 2010.05.17/outbox.cif.g08.bks.cpg/sg10_34_cif.got.tgz:67913.got - 2010.06.03 11:33:40.
