data_PCOD9145109
_publ_section_title
;
Structure prediction by ZEFSAII (Michael W. Deem and Ramdas Pophale) SiO2 
 PCOD9145109
Probable space group: P 2/M
;
_chemical_formula_sum "Si O2"
_cell_formula_units_Z 26
_cell_length_a 30.833287
_cell_length_b 7.680637
_cell_length_c 30.834713
_cell_angle_alpha 90.000000
_cell_angle_beta 170.165558
_cell_angle_gamma 90.000000
_cell_volume 1247.238412
_symmetry_space_group_name_H-M "P 2/M"
_symmetry_group_IT_number 10
_symmetry_cell_setting 'monoclinic'
loop_
_space_group_symop_operation_xyz
x,y,z
-x,y,-z
-x,-y,-z
x,-y,z
loop_
_atom_site_type_symbol
_atom_site_label
_atom_site_fract_x
_atom_site_fract_y
_atom_site_fract_z
Si Si1 0.201876 0.796310 0.350528
Si Si2 0.064499 0.712953 0.514820
Si Si3 0.909908 0.711181 0.660532
Si Si4 0.735110 0.000000 0.764499
Si Si5 0.435399 0.287312 0.135148
Si Si6 0.722921 0.692319 0.821454
Si Si7 0.589861 0.712956 0.989524
O O1 0.470163 0.715056 0.601302
O O2 0.148824 0.773469 0.349066
O O3 0.214281 0.000000 0.352035
O O4 0.969334 0.717463 0.094337
O O5 0.065523 0.500000 0.516153
O O6 0.000000 0.769232 0.500000
O O7 0.340167 0.768123 0.769768
O O8 0.844818 0.768029 0.265197
O O9 0.909710 0.500000 0.661267
O O10 0.688963 0.767712 0.409889
O O11 0.184319 0.768046 0.913614
O O12 0.500000 0.000000 0.500000
O O13 0.721556 0.165830 0.782566
O O14 0.000000 0.000000 0.000000
O O15 0.436163 0.500000 0.135432
O O16 0.424166 0.230482 0.074180
O O17 0.725714 0.500000 0.805180
O O18 0.590997 0.500000 0.990369
#
# Coordination Sequence:
#
# PCOD9145109 Si02
#       7
#     4   4   4   2   4   4   4
#     4  12  23  42  65  94 130 167 210 263 320 373
#     4   9  15  21  30  46  69 104 158 214 265 330
#     4  10  19  31  50  77 105 140 187 236 283 347
#     4  12  26  46  72 102 142 174 220 276 324 378
#     4   9  17  28  42  64  95 129 176 229 280 345
#     4  12  25  45  71 100 134 177 221 266 323 383
#     4   9  15  23  34  48  74 114 156 211 274 327
#
# _framework density 20.846053999999999
#
# number of rings (size 3 to 8) (size 9 to 14) (size 15 to 20)
#    0.000    1.692    1.538    4.615    0.000    7.385 
#    0.000    0.000    0.000    0.000    0.000    0.000 
#    0.000    0.000    0.000    0.000    0.000   53.846 
#
# Total GULP energy -145450.449081 kJ/mol
# GULP energy per Si atom -5594.248042 kJ/mol
# Density = 2.079861 g / cm^3
# Si number density = 20.846054 Si / 1000 Ang^3
#
#
#
# Elastic Constant Matrix: (Units=GPa)
#
#
# Indices 1 2 3 4 5 6 
#
# 1 52.9760 5.9737 -38.5416 0.0000 -1.6216 0.0000
# 2 5.9737 82.1163 -2.4700 0.0000 -1.6482 0.0000
# 3 -38.5416 -2.4700 55.6574 0.0000 0.7955 0.0000
# 4 0.0000 0.0000 0.0000 43.7944 0.0000 -8.6339
# 5 -1.6216 -1.6482 0.7955 0.0000 40.7513 0.0000
# 6 0.0000 0.0000 0.0000 -8.6339 0.0000 21.1507
#
#
#
# Elastic Compliance Matrix: (Units=1/GPa)
#
#
# Indices 1 2 3 4 5 6 
#
# 1 0.038401 -0.001978 0.026491 0.000000 0.000931 0.000000
# 2 -0.001978 0.012306 -0.000830 0.000000 0.000435 0.000000
# 3 0.026491 -0.000830 0.036270 0.000000 0.000313 0.000000
# 4 0.000000 0.000000 0.000000 0.024832 0.000000 0.010137
# 5 0.000931 0.000435 0.000313 0.000000 0.024588 0.000000
# 6 0.000000 0.000000 0.000000 0.010137 0.000000 0.051418
#
#
# Mechanical properties :
#
#
# Convention : Reuss Voigt Hill
#
# Bulk Modulus (GPa) = 7.44369 13.40820 10.42595
# Shear Modulus (GPa) = 26.99361 36.19180 31.59270
#
# Velocity S-wave (km/s) = 3.60238 4.17123 3.89720
# Velocity P-wave (km/s) = 4.56962 5.44471 5.02624
#
# Compressibility (1/GPa) = 0.13434189
#
# Stress axis : x y z
#
# Youngs Moduli (GPa) = 26.04115 81.26438 27.57100
#
# Poissons Ratio (x) = 0.16074 -0.73037
# Poissons Ratio (y) = 0.05151 0.02288
# Poissons Ratio (z) = -0.68985 0.06744
#
# Static dielectric constant tensor:
#      x y z
#    x 1.683700 0.000000 0.005630 
#    y 0.000000 1.715100 0.000000 
#    z 0.005630 0.000000 1.704150 
# 
# From -- ./inp_files/95963.got.cif
#   From: 2010.05.17/outbox.cif.g08.bks.cpg/sg10_48_cif.got.tgz:95963.got - 2010.06.03 11:33:40.
