data_PCOD9145016
_publ_section_title
;
Structure prediction by ZEFSAII (Michael W. Deem and Ramdas Pophale) SiO2 
 PCOD9145016
Probable space group: P 2/M
;
_chemical_formula_sum "Si O2"
_cell_formula_units_Z 32
_cell_length_a 14.573413
_cell_length_b 8.727851
_cell_length_c 15.889556
_cell_angle_alpha 90.000000
_cell_angle_beta 88.950651
_cell_angle_gamma 90.000000
_cell_volume 2020.726410
_symmetry_space_group_name_H-M "P 2/M"
_symmetry_group_IT_number 10
_symmetry_cell_setting 'monoclinic'
loop_
_space_group_symop_operation_xyz
x,y,z
-x,y,-z
-x,-y,-z
x,-y,z
loop_
_atom_site_type_symbol
_atom_site_label
_atom_site_fract_x
_atom_site_fract_y
_atom_site_fract_z
Si Si1 0.607776 0.682447 0.988602
Si Si2 0.411742 0.182189 0.684430
Si Si3 0.615880 0.684487 0.675171
Si Si4 0.720352 0.817487 0.831944
Si Si5 0.389050 0.676601 0.511247
Si Si6 0.705820 0.184128 0.150749
Si Si7 0.905739 0.816666 0.095014
Si Si8 0.099220 0.317153 0.092815
O O1 0.618308 0.500000 0.976450
O O2 0.652293 0.766719 0.908330
O O3 0.500000 0.717372 0.000000
O O4 0.659394 0.734438 0.072062
O O5 0.510702 0.262816 0.690841
O O6 0.369151 0.228169 0.595061
O O7 0.346472 0.226281 0.762933
O O8 0.426294 0.000000 0.686638
O O9 0.618706 0.500000 0.678739
O O10 0.678579 0.756509 0.745744
O O11 0.644496 0.731337 0.579578
O O12 0.818451 0.742825 0.851244
O O13 0.728266 0.000000 0.830943
O O14 0.500000 0.677559 0.500000
O O15 0.361129 0.500000 0.524391
O O16 0.814105 0.219024 0.148630
O O17 0.696984 0.000000 0.139198
O O18 0.998903 0.737529 0.124286
O O19 0.918633 0.000000 0.092234
O O20 0.889086 0.756902 0.000178
O O21 0.102081 0.500000 0.085255
#
# Coordination Sequence:
#
# PCOD9145016 Si02
#       8
#     4   4   4   4   4   4   4   4
#     4  11  23  35  48  68  97 134 171 204 239 285
#     4  10  19  31  49  75 103 133 168 205 244 290
#     4  10  20  34  50  71 100 133 169 208 248 292
#     4  12  23  35  51  72  98 131 167 204 248 298
#     4   8  16  31  49  69  96 130 165 205 250 290
#     4  10  21  34  49  71 100 133 166 202 243 290
#     4  10  19  34  53  72  96 129 165 204 252 294
#     4  11  21  34  52  74  97 124 163 209 252 293
#
# _framework density 15.835889
#
# number of rings (size 3 to 8) (size 9 to 14) (size 15 to 20)
#    0.000    1.750    1.250    6.000    0.000    7.250 
#    0.000    0.000    0.000    0.000    0.000    0.875 
#    0.000    7.000    0.000    0.000    0.000    0.000 
#
# Total GULP energy -178622.296392 kJ/mol
# GULP energy per Si atom -5581.946762 kJ/mol
# Density = 1.579985 g / cm^3
# Si number density = 15.835889 Si / 1000 Ang^3
#
#
#
# Elastic Constant Matrix: (Units=GPa)
#
#
# Indices 1 2 3 4 5 6 
#
# 1 89.2938 29.7275 38.4998 0.0000 16.5436 0.0000
# 2 29.7275 57.2208 24.4236 0.0000 10.7698 0.0000
# 3 38.4998 24.4236 88.4600 0.0000 24.1811 0.0000
# 4 0.0000 0.0000 0.0000 18.8296 0.0000 14.5620
# 5 16.5436 10.7698 24.1811 0.0000 10.4081 0.0000
# 6 0.0000 0.0000 0.0000 14.5620 0.0000 27.3613
#
#
#
# Elastic Compliance Matrix: (Units=1/GPa)
#
#
# Indices 1 2 3 4 5 6 
#
# 1 0.016794 -0.004597 -0.000118 0.000000 -0.021661 0.000000
# 2 -0.004597 0.022967 0.000435 0.000000 -0.017467 0.000000
# 3 -0.000118 0.000435 0.030987 0.000000 -0.072254 0.000000
# 4 0.000000 0.000000 0.000000 0.090257 0.000000 -0.048036
# 5 -0.021661 -0.017467 -0.072254 0.000000 0.316450 0.000000
# 6 0.000000 0.000000 0.000000 -0.048036 0.000000 0.062114
#
#
# Mechanical properties :
#
#
# Convention : Reuss Voigt Hill
#
# Bulk Modulus (GPa) = 16.08099 46.69739 31.38919
# Shear Modulus (GPa) = 8.78953 20.80804 14.79878
#
# Velocity S-wave (km/s) = 2.35848 3.62882 3.06029
# Velocity P-wave (km/s) = 4.19445 6.86368 5.68786
#
# Compressibility (1/GPa) = 0.06218522
#
# Stress axis : x y z
#
# Youngs Moduli (GPa) = 59.54584 43.54150 32.27145
#
# Poissons Ratio (x) = 0.20017 0.00382
# Poissons Ratio (y) = 0.27374 -0.01402
# Poissons Ratio (z) = 0.00706 -0.01892
#
# Static dielectric constant tensor:
#      x y z
#    x 1.521600 0.000000 -0.001310 
#    y 0.000000 1.531650 0.000000 
#    z -0.001310 0.000000 1.522460 
# 
# From -- ./inp_files/66142.got.cif
#   From: 2010.05.17/outbox.cif.g08.bks.cpg/sg10_34_cif.got.tgz:66142.got - 2010.06.03 11:33:40.
