data_PCOD9145219
_publ_section_title
;
Structure prediction by ZEFSAII (Michael W. Deem and Ramdas Pophale) SiO2 
 PCOD9145219
Probable space group: P 2/M
;
_chemical_formula_sum "Si O2"
_cell_formula_units_Z 24
_cell_length_a 14.753743
_cell_length_b 13.119496
_cell_length_c 22.437799
_cell_angle_alpha 90.000000
_cell_angle_beta 162.558016
_cell_angle_gamma 90.000000
_cell_volume 1301.799904
_symmetry_space_group_name_H-M "P 2/M"
_symmetry_group_IT_number 10
_symmetry_cell_setting 'monoclinic'
loop_
_space_group_symop_operation_xyz
x,y,z
-x,y,-z
-x,-y,-z
x,-y,z
loop_
_atom_site_type_symbol
_atom_site_label
_atom_site_fract_x
_atom_site_fract_y
_atom_site_fract_z
Si Si1 0.779779 0.227167 0.213897
Si Si2 0.801027 0.117458 0.435127
Si Si3 0.625143 0.307739 0.826440
Si Si4 0.093429 0.617315 0.320221
Si Si5 0.479047 0.386343 0.114453
Si Si6 0.721639 0.381511 0.756688
O O1 0.650281 0.301005 0.184313
O O2 0.986226 0.144340 0.375282
O O3 0.961812 0.301192 0.283787
O O4 0.500000 0.184848 0.000000
O O5 0.526193 0.197132 0.265882
O O6 0.000000 0.133758 0.500000
O O7 0.704412 0.000000 0.375268
O O8 0.481616 0.370043 0.790919
O O9 0.584871 0.359598 0.736775
O O10 0.985307 0.310894 0.063714
O O11 0.062222 0.500000 0.322709
O O12 0.451431 0.634901 0.540768
O O13 0.876841 0.622803 0.126843
O O14 0.575274 0.500000 0.156953
O O15 0.820778 0.500000 0.815854
#
# Coordination Sequence:
#
# PCOD9145219 Si02
#       6
#     4   4   4   4   4   4
#     4  10  19  35  56  80 107 137 175 223 273 321
#     4  11  23  40  58  79 102 133 183 236 280 316
#     4  11  20  35  53  77 108 144 177 219 265 313
#     4   9  18  32  52  79 114 147 172 209 258 316
#     4  10  19  31  51  82 113 143 178 210 258 328
#     4  10  20  34  54  80 115 147 178 215 253 313
#
# _framework density 18.436012999999999
#
# number of rings (size 3 to 8) (size 9 to 14) (size 15 to 20)
#    0.000    1.833    3.333    2.500    0.000    3.000 
#    0.000    5.000    0.000    0.000    0.000    1.167 
#    0.000    0.000    0.000    0.000    0.000    0.000 
#
# Total GULP energy -133896.066313 kJ/mol
# GULP energy per Si atom -5579.002763 kJ/mol
# Density = 1.839405 g / cm^3
# Si number density = 18.436013 Si / 1000 Ang^3
#
#
#
# Elastic Constant Matrix: (Units=GPa)
#
#
# Indices 1 2 3 4 5 6 
#
# 1 57.5127 19.6720 12.5705 0.0000 -10.5036 0.0000
# 2 19.6720 86.2772 50.5265 0.0000 8.1166 0.0000
# 3 12.5705 50.5265 77.3688 0.0000 9.1906 0.0000
# 4 0.0000 0.0000 0.0000 21.9511 0.0000 -0.1753
# 5 -10.5036 8.1166 9.1906 0.0000 22.6189 0.0000
# 6 0.0000 0.0000 0.0000 -0.1753 0.0000 19.6823
#
#
#
# Elastic Compliance Matrix: (Units=1/GPa)
#
#
# Indices 1 2 3 4 5 6 
#
# 1 0.021847 -0.005204 -0.001658 0.000000 0.012686 0.000000
# 2 -0.005204 0.020082 -0.011690 0.000000 -0.004872 0.000000
# 3 -0.001658 -0.011690 0.021458 0.000000 -0.005294 0.000000
# 4 0.000000 0.000000 0.000000 0.045559 0.000000 0.000406
# 5 0.012686 -0.004872 -0.005294 0.000000 0.054001 0.000000
# 6 0.000000 0.000000 0.000000 0.000406 0.000000 0.050811
#
#
# Mechanical properties :
#
#
# Convention : Reuss Voigt Hill
#
# Bulk Modulus (GPa) = 38.04899 42.96629 40.50764
# Shear Modulus (GPa) = 19.25879 22.07643 20.66761
#
# Velocity S-wave (km/s) = 3.23558 3.46419 3.35183
# Velocity P-wave (km/s) = 5.88573 6.27352 6.08272
#
# Compressibility (1/GPa) = 0.02628191
#
# Stress axis : x y z
#
# Youngs Moduli (GPa) = 45.77375 49.79701 46.60306
#
# Poissons Ratio (x) = 0.25912 0.07728
# Poissons Ratio (y) = 0.23819 0.54480
# Poissons Ratio (z) = 0.07590 0.58214
#
# Static dielectric constant tensor:
#      x y z
#    x 1.661270 0.000000 -0.000150 
#    y 0.000000 1.577610 0.000000 
#    z -0.000150 0.000000 1.679990 
# 
# From -- ./inp_files/24004.got.cif
#   From: 2010.05.17/outbox.cif.g08.bks.cpg/sg10_13_cif.got.tgz:24004.got - 2010.06.03 11:33:40.
