data_PCOD9145983
_publ_section_title
;
Structure prediction by ZEFSAII (Michael W. Deem and Ramdas Pophale) SiO2 
 PCOD9145983
Probable space group: P 2/M
;
_chemical_formula_sum "Si O2"
_cell_formula_units_Z 24
_cell_length_a 10.190447
_cell_length_b 7.335435
_cell_length_c 29.746492
_cell_angle_alpha 90.000000
_cell_angle_beta 153.232891
_cell_angle_gamma 90.000000
_cell_volume 1001.427621
_symmetry_space_group_name_H-M "P 2/M"
_symmetry_group_IT_number 10
_symmetry_cell_setting 'monoclinic'
loop_
_space_group_symop_operation_xyz
x,y,z
-x,y,-z
-x,-y,-z
x,-y,z
loop_
_atom_site_type_symbol
_atom_site_label
_atom_site_fract_x
_atom_site_fract_y
_atom_site_fract_z
Si Si1 0.128473 0.719983 0.429833
Si Si2 0.118144 0.223190 0.178385
Si Si3 0.718595 0.791631 0.132120
Si Si4 0.220480 0.720167 0.355309
Si Si5 0.885281 0.222286 0.012994
Si Si6 0.741205 0.208344 0.391641
O O1 0.119435 0.500000 0.428054
O O2 0.127768 0.774635 0.377487
O O3 0.441749 0.775876 0.546433
O O4 0.865594 0.791196 0.379137
O O5 0.419769 0.288880 0.292365
O O6 0.843950 0.286257 0.124066
O O7 0.122699 0.000000 0.181367
O O8 0.086002 0.273816 0.116663
O O9 0.439188 0.714670 0.072361
O O10 0.994625 0.790497 0.249927
O O11 0.635971 0.000000 0.096330
O O12 0.214229 0.500000 0.351466
O O13 0.881292 0.000000 0.009393
O O14 0.000000 0.286546 0.000000
O O15 0.000000 0.294840 0.500000
O O16 0.710280 0.000000 0.398132
#
# Coordination Sequence:
#
# PCOD9145983 Si02
#       6
#     4   4   4   4   4   4
#     4   9  19  35  52  72 102 141 180 213 254 313
#     4   9  18  32  49  74 112 144 168 211 264 309
#     4  10  19  32  55  80 102 134 177 215 258 312
#     4   9  19  35  53  74 104 139 172 215 266 309
#     4   9  18  31  50  78 107 136 175 217 258 308
#     4  10  20  32  50  77 110 140 170 215 266 304
#
# _framework density 23.965788
#
# number of rings (size 3 to 8) (size 9 to 14) (size 15 to 20)
#    0.000    2.667    0.000    2.500    2.333    5.000 
#    0.000    2.500    0.000    3.500    0.000    0.000 
#    0.000    0.000    0.000    0.000    0.000    0.000 
#
# Total GULP energy -134158.507818 kJ/mol
# GULP energy per Si atom -5589.937826 kJ/mol
# Density = 2.391124 g / cm^3
# Si number density = 23.965788 Si / 1000 Ang^3
#
#
#
# Elastic Constant Matrix: (Units=GPa)
#
#
# Indices 1 2 3 4 5 6 
#
# 1 170.5445 6.3345 68.6247 0.0000 11.6228 0.0000
# 2 6.3345 96.8212 0.8418 0.0000 0.2327 0.0000
# 3 68.6247 0.8418 124.3678 -0.0001 3.0062 0.0000
# 4 0.0000 0.0000 -0.0001 -149.1760 0.0000 -29.5880
# 5 11.6228 0.2327 3.0062 0.0000 38.4394 0.0000
# 6 0.0000 0.0000 0.0000 -29.5880 0.0000 33.0133
#
#
#
# Elastic Compliance Matrix: (Units=1/GPa)
#
#
# Indices 1 2 3 4 5 6 
#
# 1 0.007708 -0.000463 -0.004202 0.000000 -0.001999 0.000000
# 2 -0.000463 0.010357 0.000184 0.000000 0.000063 0.000000
# 3 -0.004202 0.000184 0.010347 0.000000 0.000460 0.000000
# 4 0.000000 0.000000 0.000000 -0.005692 0.000000 -0.005101
# 5 -0.001999 0.000063 0.000460 0.000000 0.026583 0.000000
# 6 0.000000 0.000000 0.000000 -0.005101 0.000000 0.025719
#
#
# Mechanical properties :
#
#
# Convention : Reuss Voigt Hill
#
# Bulk Modulus (GPa) = 51.41425 60.37061 55.89243
# Shear Modulus (GPa) = 55.26936 5.51751 30.39344
#
# Velocity S-wave (km/s) = 4.80748 1.51896 3.56504
# Velocity P-wave (km/s) = 7.23295 5.32178 6.34968
#
# Compressibility (1/GPa) = 0.01944986
#
# Stress axis : x y z
#
# Youngs Moduli (GPa) = 129.74128 96.55441 96.64958
#
# Poissons Ratio (x) = 0.04470 0.40608
# Poissons Ratio (y) = 0.06006 -0.01777
# Poissons Ratio (z) = 0.54511 -0.01775
#
# Static dielectric constant tensor:
#      x y z
#    x 1.888900 0.000000 0.000100 
#    y 0.000000 1.896970 0.000000 
#    z 0.000100 0.000000 1.885810 
# 
# From -- ./inp_files/27986.got.cif
#   From: 2010.05.17/outbox.cif.g08.bks.cpg/sg10_14_cif.got.tgz:27986.got - 2010.06.03 11:33:40.
