data_PCOD9145633
_publ_section_title
;
Structure prediction by ZEFSAII (Michael W. Deem and Ramdas Pophale) SiO2 
 PCOD9145633
Probable space group: P 2/M
;
_chemical_formula_sum "Si O2"
_cell_formula_units_Z 28
_cell_length_a 33.109195
_cell_length_b 7.426429
_cell_length_c 10.031849
_cell_angle_alpha 90.000000
_cell_angle_beta 32.729300
_cell_angle_gamma 90.000000
_cell_volume 1333.651576
_symmetry_space_group_name_H-M "P 2/M"
_symmetry_group_IT_number 10
_symmetry_cell_setting 'monoclinic'
loop_
_space_group_symop_operation_xyz
x,y,z
-x,y,-z
-x,-y,-z
x,-y,z
loop_
_atom_site_type_symbol
_atom_site_label
_atom_site_fract_x
_atom_site_fract_y
_atom_site_fract_z
Si Si1 0.631848 0.720560 0.980791
Si Si2 0.946442 0.205752 0.539062
Si Si3 0.803829 0.787172 0.792311
Si Si4 0.497930 0.279895 0.159460
Si Si5 0.201770 0.706563 0.499695
Si Si6 0.042381 0.719062 0.017740
Si Si7 0.367673 0.716212 0.716214
O O1 0.633270 0.500000 0.979284
O O2 0.715447 0.784567 0.712785
O O3 0.570010 0.774635 0.045934
O O4 0.615091 0.777745 0.179905
O O5 0.866281 0.284584 0.720210
O O6 0.000000 0.292916 0.500000
O O7 0.995333 0.207166 0.269982
O O8 0.931545 0.000000 0.625642
O O9 0.812138 0.706904 0.621308
O O10 0.817260 0.000000 0.739410
O O11 0.718590 0.760093 0.072873
O O12 0.497315 0.500000 0.159252
O O13 0.425349 0.219867 0.444552
O O14 0.500000 0.221068 0.000000
O O15 0.206623 0.500000 0.531485
O O16 0.128024 0.783671 0.772639
O O17 0.042609 0.500000 0.025175
O O18 0.000000 0.767892 0.000000
O O19 0.373837 0.500000 0.702341
#
# Coordination Sequence:
#
# PCOD9145633 Si02
#       7
#     4   4   4   4   4   4   4
#     4   8  14  26  46  68  95 127 159 191 232 287
#     4  10  22  38  52  70 100 139 178 209 244 298
#     4  10  19  32  52  74  97 128 169 209 244 288
#     4   9  16  27  45  72 100 124 157 199 238 285
#     4   9  17  31  51  76 103 129 160 204 254 296
#     4  10  19  32  53  79 105 130 163 209 260 304
#     4   9  17  30  50  73  95 125 159 198 248 293
#
# _framework density 20.994990000000001
#
# number of rings (size 3 to 8) (size 9 to 14) (size 15 to 20)
#    0.000    2.714    1.429    1.714    0.000    3.429 
#    2.571    0.000    0.000    7.286    0.000    0.000 
#    0.000    0.000    0.000    0.000    0.000    0.000 
#
# Total GULP energy -156224.042758 kJ/mol
# GULP energy per Si atom -5579.430099 kJ/mol
# Density = 2.094720 g / cm^3
# Si number density = 20.994990 Si / 1000 Ang^3
#
#
#
# Elastic Constant Matrix: (Units=GPa)
#
#
# Indices 1 2 3 4 5 6 
#
# 1 181.4243 -0.9814 89.9933 0.0000 -19.8743 0.0000
# 2 -0.9814 67.0903 1.9394 0.0000 1.3192 0.0000
# 3 89.9933 1.9394 125.7430 0.0000 -20.1936 0.0000
# 4 0.0000 0.0000 0.0000 -81.1835 0.0000 19.8807
# 5 -19.8743 1.3192 -20.1936 0.0000 26.8828 0.0000
# 6 0.0000 0.0000 0.0000 19.8807 0.0000 -5.9290
#
#
#
# Elastic Compliance Matrix: (Units=1/GPa)
#
#
# Indices 1 2 3 4 5 6 
#
# 1 0.008642 0.000258 -0.005874 0.000000 0.001964 0.000000
# 2 0.000258 0.014945 -0.000571 0.000000 -0.000972 0.000000
# 3 -0.005874 -0.000571 0.013046 0.000000 0.005486 0.000000
# 4 0.000000 0.000000 0.000000 -0.068868 0.000000 -0.230923
# 5 0.001964 -0.000972 0.005486 0.000000 0.042819 0.000000
# 6 0.000000 0.000000 0.000000 -0.230923 0.000000 -0.942982
#
#
# Mechanical properties :
#
#
# Convention : Reuss Voigt Hill
#
# Bulk Modulus (GPa) = 41.22168 61.79558 51.50863
# Shear Modulus (GPa) = -5.48283 6.84116 0.67916
#
# Velocity S-wave (km/s) = -1.61777 1.80708 0.56938
# Velocity P-wave (km/s) = 4.02332 5.81820 5.00193
#
# Compressibility (1/GPa) = 0.02425908
#
# Stress axis : x y z
#
# Youngs Moduli (GPa) = 115.71374 66.91348 76.65105
#
# Poissons Ratio (x) = -0.01724 0.45021
# Poissons Ratio (y) = -0.02981 0.04376
# Poissons Ratio (z) = 0.67965 0.03820
#
# Static dielectric constant tensor:
#      x y z
#    x 1.760880 0.000000 -0.027000 
#    y 0.000000 1.794540 0.000000 
#    z -0.027000 0.000000 1.728740 
# 
# From -- ./inp_files/37970.got.cif
#   From: 2010.05.17/outbox.cif.g08.bks.cpg/sg10_19_cif.got.tgz:37970.got - 2010.06.03 11:33:40.
