data_PCOD9145384
_publ_section_title
;
Structure prediction by ZEFSAII (Michael W. Deem and Ramdas Pophale) SiO2 
 PCOD9145384
Probable space group: P 2/M
;
_chemical_formula_sum "Si O2"
_cell_formula_units_Z 32
_cell_length_a 22.023241
_cell_length_b 9.146949
_cell_length_c 31.101364
_cell_angle_alpha 90.000000
_cell_angle_beta 19.761965
_cell_angle_gamma 90.000000
_cell_volume 2118.356852
_symmetry_space_group_name_H-M "P 2/M"
_symmetry_group_IT_number 10
_symmetry_cell_setting 'monoclinic'
loop_
_space_group_symop_operation_xyz
x,y,z
-x,y,-z
-x,-y,-z
x,-y,z
loop_
_atom_site_type_symbol
_atom_site_label
_atom_site_fract_x
_atom_site_fract_y
_atom_site_fract_z
Si Si1 0.079956 0.832271 0.775104
Si Si2 0.828147 0.667585 0.582403
Si Si3 0.025180 0.824095 0.285320
Si Si4 0.222570 0.675094 0.074224
Si Si5 0.328771 0.166740 0.523396
Si Si6 0.400775 0.174177 0.196224
Si Si7 0.623413 0.332293 0.374413
Si Si8 0.063104 0.826569 0.359198
O O1 0.207957 0.833772 0.647433
O O2 0.202093 0.763256 0.730947
O O3 0.910656 0.735533 0.874061
O O4 0.029191 0.000000 0.817737
O O5 0.769665 0.500000 0.615784
O O6 0.680189 0.763976 0.705333
O O7 0.000000 0.667316 0.500000
O O8 0.904895 0.737966 0.487863
O O9 0.142782 0.738518 0.172073
O O10 0.078055 0.792136 0.298923
O O11 0.815282 0.787983 0.416582
O O12 0.043605 0.000000 0.265380
O O13 0.223847 0.500000 0.073906
O O14 0.418603 0.741650 0.936051
O O15 0.498378 0.267122 0.420372
O O16 0.387108 0.000000 0.476774
O O17 0.247878 0.201244 0.261835
O O18 0.430763 0.000000 0.178629
O O19 0.500000 0.328888 0.500000
O O20 0.671378 0.500000 0.334492
O O21 0.025709 0.000000 0.388230
#
# Coordination Sequence:
#
# PCOD9145384 Si02
#       8
#     4   4   4   4   4   4   4   4
#     4   9  16  27  41  56  78 110 146 179 214 257
#     4   9  17  30  48  69  90 109 136 181 232 271
#     4   9  18  32  46  62  88 121 154 184 217 260
#     4  11  21  31  43  62  90 120 150 184 224 265
#     4   8  14  24  38  55  78 110 144 177 212 252
#     4  10  19  32  49  66  86 115 151 186 222 265
#     4   9  15  22  35  56  80 106 139 177 214 253
#     4   9  18  32  50  68  86 114 151 187 221 262
#
# _framework density 15.106049000000001
#
# number of rings (size 3 to 8) (size 9 to 14) (size 15 to 20)
#    0.000    2.750    0.000    3.375    0.000    7.500 
#    0.000    2.500    0.000    0.000    0.000    0.000 
#    0.000    1.000    0.000   10.750    0.000    7.000 
#
# Total GULP energy -178240.909277 kJ/mol
# GULP energy per Si atom -5570.028415 kJ/mol
# Density = 1.507167 g / cm^3
# Si number density = 15.106049 Si / 1000 Ang^3
#
#
#
# Elastic Constant Matrix: (Units=GPa)
#
#
# Indices 1 2 3 4 5 6 
#
# 1 43.4107 50.6647 55.5986 0.0000 -11.5812 0.0000
# 2 50.6647 111.2326 63.4095 0.0000 -8.4455 0.0000
# 3 55.5986 63.4095 71.5748 0.0000 -5.1394 0.0000
# 4 0.0000 0.0000 0.0000 22.4165 0.0000 -3.2048
# 5 -11.5812 -8.4455 -5.1394 0.0000 12.0948 0.0000
# 6 0.0000 0.0000 0.0000 -3.2048 0.0000 14.7860
#
#
#
# Elastic Compliance Matrix: (Units=1/GPa)
#
#
# Indices 1 2 3 4 5 6 
#
# 1 -0.212217 -0.004382 0.158764 0.000000 -0.138802 0.000000
# 2 -0.004382 0.018509 -0.012756 0.000000 0.003308 0.000000
# 3 0.158764 -0.012756 -0.090540 0.000000 0.104642 0.000000
# 4 0.000000 0.000000 0.000000 0.046036 0.000000 0.009978
# 5 -0.138802 0.003308 0.104642 0.000000 -0.003453 0.000000
# 6 0.000000 0.000000 0.000000 0.009978 0.000000 0.069794
#
#
# Mechanical properties :
#
#
# Convention : Reuss Voigt Hill
#
# Bulk Modulus (GPa) = -1002.90647 62.84041 -470.03303
# Shear Modulus (GPa) = -10.97806 13.62916 1.32555
#
# Velocity S-wave (km/s) = -2.69872 3.00698 0.93776
# Velocity P-wave (km/s) = 25.98197 7.33114 17.62551
#
# Compressibility (1/GPa) = -0.00099710
#
# Stress axis : x y z
#
# Youngs Moduli (GPa) = -4.71216 54.02771 -11.04484
#
# Poissons Ratio (x) = 0.23676 1.75352
# Poissons Ratio (y) = -0.02065 -0.14089
# Poissons Ratio (z) = 0.74812 0.68917
#
# Static dielectric constant tensor:
#      x y z
#    x 1.499650 0.000000 -0.017860 
#    y 0.000000 1.507630 0.000000 
#    z -0.017860 0.000000 1.479680 
# 
# From -- ./inp_files/54940.got.cif
#   From: 2010.05.17/outbox.cif.g08.bks.cpg/sg10_28_cif.got.tgz:54940.got - 2010.06.03 11:33:40.
