data_PCOD9145939
_publ_section_title
;
Structure prediction by ZEFSAII (Michael W. Deem and Ramdas Pophale) SiO2 
 PCOD9145939
Probable space group: P 2/M
;
_chemical_formula_sum "Si O2"
_cell_formula_units_Z 32
_cell_length_a 12.739003
_cell_length_b 7.571172
_cell_length_c 33.578243
_cell_angle_alpha 90.000000
_cell_angle_beta 154.075616
_cell_angle_gamma 90.000000
_cell_volume 1415.863412
_symmetry_space_group_name_H-M "P 2/M"
_symmetry_group_IT_number 10
_symmetry_cell_setting 'monoclinic'
loop_
_space_group_symop_operation_xyz
x,y,z
-x,y,-z
-x,-y,-z
x,-y,z
loop_
_atom_site_type_symbol
_atom_site_label
_atom_site_fract_x
_atom_site_fract_y
_atom_site_fract_z
Si Si1 0.273097 0.202168 0.251359
Si Si2 0.237791 0.786166 0.394540
Si Si3 0.030334 0.788944 0.619894
Si Si4 0.785974 0.784128 0.456855
Si Si5 0.496555 0.716369 0.892053
Si Si6 0.973793 0.296559 0.913356
Si Si7 0.019967 0.704257 0.772969
Si Si8 0.541081 0.712018 0.816439
O O1 0.527780 0.277264 0.353261
O O2 0.155296 0.292661 0.173193
O O3 0.092747 0.205823 0.227080
O O4 0.315921 0.000000 0.253618
O O5 0.500000 0.738569 0.500000
O O6 0.053619 0.722644 0.365649
O O7 0.166270 0.715432 0.327230
O O8 0.228887 0.000000 0.388481
O O9 0.864710 0.722530 0.527551
O O10 0.311417 0.752641 0.710689
O O11 0.999480 0.000000 0.610264
O O12 0.000000 0.736744 0.500000
O O13 0.774526 0.000000 0.454417
O O14 0.480583 0.500000 0.887106
O O15 0.269951 0.777460 0.840634
O O16 0.488221 0.774893 0.843130
O O17 0.756747 0.775409 0.996608
O O18 0.007937 0.500000 0.937561
O O19 0.787301 0.217645 0.881573
O O20 0.056567 0.500000 0.796450
O O21 0.560238 0.500000 0.824934
#
# Coordination Sequence:
#
# PCOD9145939 Si02
#       8
#     4   4   4   4   4   4   4   4
#     4  11  23  40  60  83 116 152 192 239 289 346
#     4  10  20  35  55  80 112 151 193 232 279 337
#     4  10  19  32  54  82 111 146 186 229 280 337
#     4   9  18  34  56  80 109 150 193 228 272 335
#     4   9  19  37  60  85 114 151 191 235 289 343
#     4  10  21  38  61  85 111 149 196 241 286 341
#     4  11  22  38  60  84 115 150 193 241 285 340
#     4  10  19  35  59  87 117 147 187 237 289 342
#
# _framework density 22.601047999999999
#
# number of rings (size 3 to 8) (size 9 to 14) (size 15 to 20)
#    0.000    2.000    1.250    2.625    0.000    5.750 
#    0.000    6.875    0.000    4.875    0.000    0.000 
#    0.000    0.000    0.000    0.000    0.000    0.000 
#
# Total GULP energy -178853.872264 kJ/mol
# GULP energy per Si atom -5589.183508 kJ/mol
# Density = 2.254961 g / cm^3
# Si number density = 22.601048 Si / 1000 Ang^3
#
#
#
# Elastic Constant Matrix: (Units=GPa)
#
#
# Indices 1 2 3 4 5 6 
#
# 1 99.2273 -6.8338 32.7759 0.0000 17.4330 0.0000
# 2 -6.8338 52.3480 -7.6822 0.0000 2.3129 0.0000
# 3 32.7759 -7.6822 129.9938 0.0000 22.5773 0.0000
# 4 0.0000 0.0000 0.0000 20.6257 0.0000 -0.7755
# 5 17.4330 2.3129 22.5773 0.0000 37.4665 0.0000
# 6 0.0000 0.0000 0.0000 -0.7755 0.0000 11.6639
#
#
#
# Elastic Compliance Matrix: (Units=1/GPa)
#
#
# Indices 1 2 3 4 5 6 
#
# 1 0.011612 0.001392 -0.002113 0.000000 -0.004216 0.000000
# 2 0.001392 0.019585 0.001261 0.000000 -0.002617 0.000000
# 3 -0.002113 0.001261 0.009095 0.000000 -0.004575 0.000000
# 4 0.000000 0.000000 0.000000 0.048605 0.000000 0.003232
# 5 -0.004216 -0.002617 -0.004575 0.000000 0.031570 0.000000
# 6 0.000000 0.000000 0.000000 0.003232 0.000000 0.085950
#
#
# Mechanical properties :
#
#
# Convention : Reuss Voigt Hill
#
# Bulk Modulus (GPa) = 24.17131 35.34323 29.75727
# Shear Modulus (GPa) = 22.81762 31.50516 27.16139
#
# Velocity S-wave (km/s) = 3.18084 3.73764 3.47042
# Velocity P-wave (km/s) = 4.92019 5.85649 5.40864
#
# Compressibility (1/GPa) = 0.04137135
#
# Stress axis : x y z
#
# Youngs Moduli (GPa) = 86.11430 51.05869 109.95501
#
# Poissons Ratio (x) = -0.07108 0.23239
# Poissons Ratio (y) = -0.11988 -0.13864
# Poissons Ratio (z) = 0.18200 -0.06438
#
# Static dielectric constant tensor:
#      x y z
#    x 1.820770 0.000000 0.028190 
#    y 0.000000 1.874670 0.000000 
#    z 0.028190 0.000000 1.820580 
# 
# From -- ./inp_files/95013.got.cif
#   From: 2010.05.17/outbox.cif.g08.bks.cpg/sg10_48_cif.got.tgz:95013.got - 2010.06.03 11:33:40.
