data_PCOD9145211
_publ_section_title
;
Structure prediction by ZEFSAII (Michael W. Deem and Ramdas Pophale) SiO2 
 PCOD9145211
Probable space group: P 2/M
;
_chemical_formula_sum "Si O2"
_cell_formula_units_Z 32
_cell_length_a 16.621155
_cell_length_b 7.441397
_cell_length_c 25.186800
_cell_angle_alpha 90.000000
_cell_angle_beta 27.162402
_cell_angle_gamma 90.000000
_cell_volume 1422.141943
_symmetry_space_group_name_H-M "P 2/M"
_symmetry_group_IT_number 10
_symmetry_cell_setting 'monoclinic'
loop_
_space_group_symop_operation_xyz
x,y,z
-x,y,-z
-x,-y,-z
x,-y,z
loop_
_atom_site_type_symbol
_atom_site_label
_atom_site_fract_x
_atom_site_fract_y
_atom_site_fract_z
Si Si1 0.543846 0.707190 0.785409
Si Si2 0.463185 0.218254 0.329171
Si Si3 0.980997 0.796346 0.778489
Si Si4 0.815114 0.218209 0.171194
Si Si5 0.852580 0.792078 0.964362
Si Si6 0.348169 0.796168 0.622426
Si Si7 0.125182 0.209988 0.586723
Si Si8 0.908080 0.718104 0.608712
O O1 0.518305 0.500000 0.814575
O O2 0.601956 0.720443 0.689986
O O3 0.704703 0.779778 0.725793
O O4 0.351545 0.791410 0.902265
O O5 0.666685 0.278683 0.216695
O O6 0.321567 0.279470 0.456747
O O7 0.461582 0.000000 0.330862
O O8 0.881282 0.712911 0.888179
O O9 0.179318 0.806362 0.684345
O O10 0.012453 0.712083 0.702041
O O11 0.908146 0.000000 0.813665
O O12 0.718914 0.273104 0.282459
O O13 0.016473 0.277313 0.065596
O O14 0.822868 0.000000 0.159411
O O15 0.911045 0.000000 0.923795
O O16 0.500000 0.704530 0.500000
O O17 0.410053 0.000000 0.599173
O O18 0.013463 0.222418 0.598456
O O19 0.150406 0.000000 0.585754
O O20 0.907306 0.500000 0.608918
O O21 0.000000 0.777098 0.500000
#
# Coordination Sequence:
#
# PCOD9145211 Si02
#       8
#     4   4   4   4   4   4   4   4
#     4  11  23  38  55  73  98 134 177 221 262 306
#     4  10  19  31  51  81 111 135 168 212 258 304
#     4   8  15  28  47  75 107 136 164 203 253 299
#     4   8  15  27  45  72 104 139 172 203 242 295
#     4   9  18  35  56  75 104 144 179 206 243 298
#     4   8  11  18  37  65 100 137 168 197 238 292
#     4  10  19  31  54  86 112 130 162 214 262 306
#     4  10  21  39  57  73  99 135 171 210 265 321
#
# _framework density 22.501270999999999
#
# number of rings (size 3 to 8) (size 9 to 14) (size 15 to 20)
#    0.000    2.750    1.250    2.625    0.000    4.750 
#    0.000    4.375    0.000    3.750    0.000    0.000 
#    0.000    8.000    0.000    0.000    0.000    0.000 
#
# Total GULP energy -178284.929606 kJ/mol
# GULP energy per Si atom -5571.404050 kJ/mol
# Density = 2.245006 g / cm^3
# Si number density = 22.501271 Si / 1000 Ang^3
#
#
#
# Elastic Constant Matrix: (Units=GPa)
#
#
# Indices 1 2 3 4 5 6 
#
# 1 95.3732 -5.6501 24.5145 0.0000 -9.9953 0.0000
# 2 -5.6501 64.7256 -2.7876 0.0000 -3.6650 0.0000
# 3 24.5145 -2.7876 69.4601 0.0000 -30.0097 0.0000
# 4 0.0000 0.0000 0.0000 54.2394 0.0000 4.8101
# 5 -9.9953 -3.6650 -30.0097 0.0000 28.9352 0.0000
# 6 0.0000 0.0000 0.0000 4.8101 0.0000 17.4351
#
#
#
# Elastic Compliance Matrix: (Units=1/GPa)
#
#
# Indices 1 2 3 4 5 6 
#
# 1 0.011577 0.000822 -0.004131 0.000000 -0.000181 0.000000
# 2 0.000822 0.015899 0.002429 0.000000 0.004817 0.000000
# 3 -0.004131 0.002429 0.028027 0.000000 0.027949 0.000000
# 4 0.000000 0.000000 0.000000 0.018899 0.000000 -0.005214
# 5 -0.000181 0.004817 0.027949 0.000000 0.064094 0.000000
# 6 0.000000 0.000000 0.000000 -0.005214 0.000000 0.058794
#
#
# Mechanical properties :
#
#
# Convention : Reuss Voigt Hill
#
# Bulk Modulus (GPa) = 18.60691 29.07919 23.84305
# Shear Modulus (GPa) = 23.04535 34.35408 28.69971
#
# Velocity S-wave (km/s) = 3.20375 3.91162 3.57525
# Velocity P-wave (km/s) = 4.68749 5.77516 5.25952
#
# Compressibility (1/GPa) = 0.05374347
#
# Stress axis : x y z
#
# Youngs Moduli (GPa) = 86.38055 62.89704 35.67968
#
# Poissons Ratio (x) = -0.05173 0.14740
# Poissons Ratio (y) = -0.07104 -0.08667
# Poissons Ratio (z) = 0.35684 -0.15278
#
# Static dielectric constant tensor:
#      x y z
#    x 1.838060 0.000000 0.022010 
#    y 0.000000 1.922920 0.000000 
#    z 0.022010 0.000000 1.859680 
# 
# From -- ./inp_files/89485.got.cif
#   From: 2010.05.17/outbox.cif.g08.bks.cpg/sg10_45_cif.got.tgz:89485.got - 2010.06.03 11:33:40.
