data_PCOD9145955
_publ_section_title
;
Structure prediction by ZEFSAII (Michael W. Deem and Ramdas Pophale) SiO2 
 PCOD9145955
Probable space group: P 2/M
;
_chemical_formula_sum "Si O2"
_cell_formula_units_Z 28
_cell_length_a 7.896624
_cell_length_b 18.832664
_cell_length_c 18.934078
_cell_angle_alpha 90.000000
_cell_angle_beta 146.528484
_cell_angle_gamma 90.000000
_cell_volume 1552.960836
_symmetry_space_group_name_H-M "P 2/M"
_symmetry_group_IT_number 10
_symmetry_cell_setting 'monoclinic'
loop_
_space_group_symop_operation_xyz
x,y,z
-x,y,-z
-x,-y,-z
x,-y,z
loop_
_atom_site_type_symbol
_atom_site_label
_atom_site_fract_x
_atom_site_fract_y
_atom_site_fract_z
Si Si1 0.310514 0.080779 0.655257
Si Si2 0.707503 0.331270 0.252858
Si Si3 0.703000 0.582133 0.999923
Si Si4 0.793060 0.419211 0.499943
Si Si5 0.611601 0.182526 0.651939
Si Si6 0.996168 0.182491 0.651968
Si Si7 0.696276 0.668704 0.747281
O O1 0.548646 0.125185 0.690753
O O2 0.000000 0.077554 0.500000
O O3 0.214284 0.125128 0.690753
O O4 0.406276 0.000000 0.703105
O O5 0.529266 0.320573 0.264619
O O6 0.007770 0.378075 0.373366
O O7 0.819163 0.254219 0.267163
O O8 0.487682 0.374793 0.124740
O O9 0.764460 0.500000 0.999967
O O10 0.010908 0.625281 0.124470
O O11 0.500000 0.580292 0.000000
O O12 0.734493 0.500000 0.500074
O O13 0.485180 0.378218 0.373075
O O14 0.000000 0.420197 0.500000
O O15 0.827181 0.156094 0.663608
O O16 0.278836 0.199799 0.499976
O O17 0.750383 0.254268 0.732774
#
# Coordination Sequence:
#
# PCOD9145955 Si02
#       7
#     4   4   4   4   4   4   4
#     4   9  18  32  52  81 118 153 185 227 283 341
#     4  11  20  35  58  80 109 149 194 239 288 342
#     4  11  25  41  53  75 115 154 195 249 297 341
#     4   9  18  30  51  81 107 137 185 240 289 340
#     4  10  19  32  54  83 115 151 191 234 281 336
#     4  10  19  32  54  83 115 151 191 234 281 336
#     4  11  20  35  58  80 109 149 194 239 288 342
#
# _framework density 18.030075
#
# number of rings (size 3 to 8) (size 9 to 14) (size 15 to 20)
#    0.000    1.857    2.857    2.143    0.000    2.857 
#    0.000    2.857    0.000    3.429    0.000    2.000 
#    0.000    3.429    0.000    0.000    0.000    0.000 
#
# Total GULP energy -156317.982494 kJ/mol
# GULP energy per Si atom -5582.785089 kJ/mol
# Density = 1.798904 g / cm^3
# Si number density = 18.030075 Si / 1000 Ang^3
#
#
#
# Elastic Constant Matrix: (Units=GPa)
#
#
# Indices 1 2 3 4 5 6 
#
# 1 94.9864 55.9899 17.7360 0.0000 0.3268 0.0000
# 2 55.9899 159.1489 46.8291 0.0000 -0.0273 0.0000
# 3 17.7360 46.8291 94.1309 0.0000 -0.5392 0.0000
# 4 0.0000 0.0000 0.0000 18.2879 0.0000 -0.0807
# 5 0.3268 -0.0273 -0.5392 0.0000 14.7162 0.0000
# 6 0.0000 0.0000 0.0000 -0.0807 0.0000 12.0198
#
#
#
# Elastic Compliance Matrix: (Units=1/GPa)
#
#
# Indices 1 2 3 4 5 6 
#
# 1 0.013287 -0.004613 -0.000211 0.000000 -0.000311 0.000000
# 2 -0.004613 0.008962 -0.003590 0.000000 -0.000013 0.000000
# 3 -0.000211 -0.003590 0.012452 0.000000 0.000454 0.000000
# 4 0.000000 0.000000 0.000000 0.054683 0.000000 0.000367
# 5 -0.000311 -0.000013 0.000454 0.000000 0.067976 0.000000
# 6 0.000000 0.000000 0.000000 0.000367 0.000000 0.083198
#
#
# Mechanical properties :
#
#
# Convention : Reuss Voigt Hill
#
# Bulk Modulus (GPa) = 55.94283 65.48624 60.71453
# Shear Modulus (GPa) = 18.98672 24.18554 21.58613
#
# Velocity S-wave (km/s) = 3.24861 3.66649 3.46385
# Velocity P-wave (km/s) = 6.72057 7.37045 7.05300
#
# Compressibility (1/GPa) = 0.01787539
#
# Stress axis : x y z
#
# Youngs Moduli (GPa) = 75.26081 111.57691 80.31089
#
# Poissons Ratio (x) = 0.51466 0.01691
# Poissons Ratio (y) = 0.34715 0.28829
# Poissons Ratio (z) = 0.01585 0.40053
#
# Static dielectric constant tensor:
#      x y z
#    x 1.644050 0.000000 0.000420 
#    y 0.000000 1.598740 0.000000 
#    z 0.000420 0.000000 1.595840 
# 
# From -- ./inp_files/83017.got.cif
#   From: 2010.05.17/outbox.cif.g08.bks.cpg/sg10_42_cif.got.tgz:83017.got - 2010.06.03 11:33:40.
