data_PCOD9145828
_publ_section_title
;
Structure prediction by ZEFSAII (Michael W. Deem and Ramdas Pophale) SiO2 
 PCOD9145828
Probable space group: P 2/M
;
_chemical_formula_sum "Si O2"
_cell_formula_units_Z 30
_cell_length_a 25.354374
_cell_length_b 14.499325
_cell_length_c 10.301677
_cell_angle_alpha 90.000000
_cell_angle_beta 152.904498
_cell_angle_gamma 90.000000
_cell_volume 1724.936727
_symmetry_space_group_name_H-M "P 2/M"
_symmetry_group_IT_number 10
_symmetry_cell_setting 'monoclinic'
loop_
_space_group_symop_operation_xyz
x,y,z
-x,y,-z
-x,-y,-z
x,-y,z
loop_
_atom_site_type_symbol
_atom_site_label
_atom_site_fract_x
_atom_site_fract_y
_atom_site_fract_z
Si Si1 0.303455 0.108151 0.490861
Si Si2 0.556870 0.395368 0.937460
Si Si3 0.251086 0.602463 0.860621
Si Si4 0.500000 0.241672 0.000000
Si Si5 0.839836 0.790523 0.031163
Si Si6 0.124438 0.889794 0.331315
Si Si7 0.888549 0.216384 0.433451
Si Si8 0.704728 0.603076 0.739976
O O1 0.414356 0.174415 0.735305
O O2 0.226941 0.133659 0.198484
O O3 0.224590 0.128352 0.445218
O O4 0.333854 0.000000 0.559094
O O5 0.574104 0.500000 0.027499
O O6 0.573825 0.312520 0.074527
O O7 0.423924 0.388336 0.599088
O O8 0.644340 0.384035 0.010058
O O9 0.202488 0.500000 0.733618
O O10 0.154951 0.680196 0.635777
O O11 0.300131 0.605963 0.114199
O O12 0.783590 0.690384 0.876782
O O13 0.834413 0.808966 0.174135
O O14 0.973837 0.788794 0.284452
O O15 0.145438 0.844013 0.516786
O O16 0.117518 0.000000 0.333379
O O17 0.000000 0.858966 0.000000
O O18 0.749057 0.500000 0.801354
#
# Coordination Sequence:
#
# PCOD9145828 Si02
#       8
#     4   4   4   2   4   4   4   4
#     4  11  23  39  57  78 107 143 181 223 272 326
#     4  10  19  32  53  80 108 140 178 222 263 308
#     4   9  18  32  52  79 111 143 177 214 257 317
#     4  12  22  36  56  78 108 144 178 218 270 330
#     4  10  20  35  54  83 111 140 177 226 269 312
#     4  10  20  36  57  78 102 137 179 222 267 318
#     4  10  20  34  57  82 109 142 180 219 271 316
#     4   9  17  32  53  78 106 142 181 216 261 315
#
# _framework density 17.391943999999999
#
# number of rings (size 3 to 8) (size 9 to 14) (size 15 to 20)
#    0.000    2.000    2.667    1.600    0.000    2.667 
#    0.000    4.000    0.000    0.400    0.000    4.667 
#    0.000    0.000    0.000    0.000    0.000    0.000 
#
# Total GULP energy -167272.085740 kJ/mol
# GULP energy per Si atom -5575.736191 kJ/mol
# Density = 1.735236 g / cm^3
# Si number density = 17.391944 Si / 1000 Ang^3
#
#
#
# Elastic Constant Matrix: (Units=GPa)
#
#
# Indices 1 2 3 4 5 6 
#
# 1 56.6704 31.7928 4.9802 0.0000 -12.4731 0.0000
# 2 31.7928 81.5856 27.0874 0.0000 -10.0669 0.0000
# 3 4.9802 27.0874 58.8431 0.0000 -6.8343 0.0000
# 4 0.0000 0.0000 0.0000 22.7959 0.0000 -7.9171
# 5 -12.4731 -10.0669 -6.8343 0.0000 15.5744 0.0000
# 6 0.0000 0.0000 0.0000 -7.9171 0.0000 25.4121
#
#
#
# Elastic Compliance Matrix: (Units=1/GPa)
#
#
# Indices 1 2 3 4 5 6 
#
# 1 0.026327 -0.009564 0.004115 0.000000 0.016709 0.000000
# 2 -0.009564 0.018654 -0.007657 0.000000 0.001038 0.000000
# 3 0.004115 -0.007657 0.021052 0.000000 0.007584 0.000000
# 4 0.000000 0.000000 0.000000 0.049190 0.000000 0.015325
# 5 0.016709 0.001038 0.007584 0.000000 0.081589 0.000000
# 6 0.000000 0.000000 0.000000 0.015325 0.000000 0.044126
#
#
# Mechanical properties :
#
#
# Convention : Reuss Voigt Hill
#
# Bulk Modulus (GPa) = 25.11221 36.09110 30.60166
# Shear Modulus (GPa) = 17.83014 21.63906 19.73460
#
# Velocity S-wave (km/s) = 3.20534 3.53115 3.37218
# Velocity P-wave (km/s) = 5.30747 6.11735 5.72675
#
# Compressibility (1/GPa) = 0.03982126
#
# Stress axis : x y z
#
# Youngs Moduli (GPa) = 37.98326 53.60668 47.50193
#
# Poissons Ratio (x) = 0.51269 -0.19547
# Poissons Ratio (y) = 0.36327 0.36373
# Poissons Ratio (z) = -0.15630 0.41048
#
# Static dielectric constant tensor:
#      x y z
#    x 1.581780 0.000000 -0.016440 
#    y 0.000000 1.592990 0.000000 
#    z -0.016440 0.000000 1.576360 
# 
# From -- ./inp_files/36322.got.cif
#   From: 2010.05.17/outbox.cif.g08.bks.cpg/sg10_19_cif.got.tgz:36322.got - 2010.06.03 11:33:40.
