data_PCOD9145649
_publ_section_title
;
Structure prediction by ZEFSAII (Michael W. Deem and Ramdas Pophale) SiO2 
 PCOD9145649
Probable space group: P 2/M
;
_chemical_formula_sum "Si O2"
_cell_formula_units_Z 24
_cell_length_a 19.038339
_cell_length_b 9.117084
_cell_length_c 24.983537
_cell_angle_alpha 90.000000
_cell_angle_beta 161.016867
_cell_angle_gamma 90.000000
_cell_volume 1410.617841
_symmetry_space_group_name_H-M "P 2/M"
_symmetry_group_IT_number 10
_symmetry_cell_setting 'monoclinic'
loop_
_space_group_symop_operation_xyz
x,y,z
-x,y,-z
-x,-y,-z
x,-y,z
loop_
_atom_site_type_symbol
_atom_site_label
_atom_site_fract_x
_atom_site_fract_y
_atom_site_fract_z
Si Si1 0.083481 0.832447 0.498511
Si Si2 0.496548 0.674003 0.164779
Si Si3 0.696715 0.674428 0.681903
Si Si4 0.847520 0.176407 0.014139
Si Si5 0.662706 0.325412 0.164533
Si Si6 0.260570 0.167819 0.180119
O O1 0.299245 0.736478 0.655117
O O2 0.000000 0.833895 0.500000
O O3 0.887361 0.761371 0.324600
O O4 0.128210 0.000000 0.514822
O O5 0.474363 0.500000 0.156470
O O6 0.551314 0.701441 0.141871
O O7 0.285021 0.757668 0.032321
O O8 0.500000 0.705394 0.500000
O O9 0.733945 0.500000 0.710076
O O10 0.648638 0.732301 0.707232
O O11 0.914495 0.755193 0.819497
O O12 0.862147 0.000000 0.026609
O O13 0.716948 0.215111 0.865229
O O14 0.707031 0.500000 0.193387
O O15 0.500000 0.285151 0.000000
O O16 0.336161 0.000000 0.240994
O O17 0.000000 0.166557 0.000000
#
# Coordination Sequence:
#
# PCOD9145649 Si02
#       6
#     4   4   4   4   4   4
#     4   9  17  30  49  72  97 126 162 201 240 289
#     4  10  19  32  52  75  99 129 166 207 251 296
#     4  10  20  33  51  76 103 131 165 202 242 294
#     4  10  20  34  52  74 100 129 165 208 251 294
#     4   9  18  33  52  74 101 133 167 204 248 298
#     4   8  16  31  50  71  94 124 161 198 238 287
#
# _framework density 17.013819999999999
#
# number of rings (size 3 to 8) (size 9 to 14) (size 15 to 20)
#    0.000    2.667    0.000    3.000    0.000    8.000 
#    0.000    1.667    0.000    2.000    0.000    0.000 
#    0.000    0.000    0.000    0.000    0.000    0.000 
#
# Total GULP energy -133763.925629 kJ/mol
# GULP energy per Si atom -5573.496901 kJ/mol
# Density = 1.697510 g / cm^3
# Si number density = 17.013820 Si / 1000 Ang^3
#
#
#
# Elastic Constant Matrix: (Units=GPa)
#
#
# Indices 1 2 3 4 5 6 
#
# 1 51.3291 46.1911 44.6123 0.0000 -6.5474 0.0000
# 2 46.1911 85.6574 64.3684 0.0000 -10.5690 0.0000
# 3 44.6123 64.3684 104.5951 0.0000 -19.5682 0.0000
# 4 0.0000 0.0000 0.0000 -17.6027 0.0000 -24.4010
# 5 -6.5474 -10.5690 -19.5682 0.0000 26.3261 0.0000
# 6 0.0000 0.0000 0.0000 -24.4010 0.0000 9.8807
#
#
#
# Elastic Compliance Matrix: (Units=1/GPa)
#
#
# Indices 1 2 3 4 5 6 
#
# 1 0.040629 -0.016464 -0.007600 0.000000 -0.002154 0.000000
# 2 -0.016464 0.028435 -0.010578 0.000000 -0.000542 0.000000
# 3 -0.007600 -0.010578 0.021098 0.000000 0.009545 0.000000
# 4 0.000000 0.000000 0.000000 -0.012843 0.000000 -0.031717
# 5 -0.002154 -0.000542 0.009545 0.000000 0.044327 0.000000
# 6 0.000000 0.000000 0.000000 -0.031717 0.000000 0.022880
#
#
# Mechanical properties :
#
#
# Convention : Reuss Voigt Hill
#
# Bulk Modulus (GPa) = 47.89905 61.32502 54.61204
# Shear Modulus (GPa) = 22.64812 9.48147 16.06479
#
# Velocity S-wave (km/s) = 3.65246 2.36324 3.07615
# Velocity P-wave (km/s) = 6.78244 6.60068 6.69218
#
# Compressibility (1/GPa) = 0.02087724
#
# Stress axis : x y z
#
# Youngs Moduli (GPa) = 24.61307 35.16832 47.39784
#
# Poissons Ratio (x) = 0.57900 0.36024
# Poissons Ratio (y) = 0.40522 0.50138
# Poissons Ratio (z) = 0.18707 0.37201
#
# Static dielectric constant tensor:
#      x y z
#    x 1.596810 0.000000 -0.002010 
#    y 0.000000 1.569410 0.000000 
#    z -0.002010 0.000000 1.552900 
# 
# From -- ./inp_files/31204.got.cif
#   From: 2010.05.17/outbox.cif.g08.bks.cpg/sg10_16_cif.got.tgz:31204.got - 2010.06.03 11:33:40.
