data_PCOD9145782
_publ_section_title
;
Structure prediction by ZEFSAII (Michael W. Deem and Ramdas Pophale) SiO2 
 PCOD9145782
Probable space group: P 2/M
;
_chemical_formula_sum "Si O2"
_cell_formula_units_Z 24
_cell_length_a 30.190678
_cell_length_b 7.733416
_cell_length_c 13.716972
_cell_angle_alpha 90.000000
_cell_angle_beta 28.156983
_cell_angle_gamma 90.000000
_cell_volume 1511.270856
_symmetry_space_group_name_H-M "P 2/M"
_symmetry_group_IT_number 10
_symmetry_cell_setting 'monoclinic'
loop_
_space_group_symop_operation_xyz
x,y,z
-x,y,-z
-x,-y,-z
x,-y,z
loop_
_atom_site_type_symbol
_atom_site_label
_atom_site_fract_x
_atom_site_fract_y
_atom_site_fract_z
Si Si1 0.631319 0.303533 0.707261
Si Si2 0.385211 0.000000 0.727262
Si Si3 0.193314 0.303463 0.783909
Si Si4 0.724016 0.000000 0.641474
Si Si5 0.671228 0.702065 0.307921
Si Si6 0.497097 0.298709 0.795700
Si Si7 0.356417 0.000000 0.008970
Si Si8 0.103082 0.000000 0.844068
O O1 0.620919 0.500000 0.763990
O O2 0.716912 0.305934 0.462945
O O3 0.664145 0.165750 0.722142
O O4 0.541209 0.257466 0.816246
O O5 0.500000 0.000000 0.500000
O O6 0.347525 0.167807 0.743123
O O7 0.346928 0.000000 0.911519
O O8 0.156727 0.500000 0.859478
O O9 0.237600 0.255581 0.802831
O O10 0.123538 0.166266 0.872255
O O11 0.820188 0.000000 0.392925
O O12 0.729718 0.000000 0.747414
O O13 0.677151 0.500000 0.267738
O O14 0.582263 0.719109 0.553239
O O15 0.469031 0.500000 0.849378
O O16 0.418026 0.167624 0.916706
O O17 0.000000 0.000000 0.000000
#
# Coordination Sequence:
#
# PCOD9145782 Si02
#       8
#     4   2   4   2   4   4   2   2
#     4   8  15  29  47  64  86 120 156 186 218 261
#     4  12  21  30  44  65  91 127 170 205 230 261
#     4   8  15  29  50  74  96 117 147 189 231 274
#     4  10  21  33  44  61  94 124 148 183 224 277
#     4   9  17  31  49  67  91 123 161 203 234 258
#     4   9  17  29  45  65  88 118 159 197 224 257
#     4  12  23  31  39  61  92 127 160 191 230 263
#     4  10  19  32  53  77  97 118 143 178 231 293
#
# _framework density 15.880674000000001
#
# number of rings (size 3 to 8) (size 9 to 14) (size 15 to 20)
#    0.000    2.667    1.667    3.000    0.000    6.000 
#    0.000    1.667    0.000    0.000    0.000    2.333 
#    0.000    2.667    0.000    0.000    0.000    0.000 
#
# Total GULP energy -133809.537097 kJ/mol
# GULP energy per Si atom -5575.397379 kJ/mol
# Density = 1.584453 g / cm^3
# Si number density = 15.880674 Si / 1000 Ang^3
#
#
#
# Elastic Constant Matrix: (Units=GPa)
#
#
# Indices 1 2 3 4 5 6 
#
# 1 132.2847 77.8324 45.2319 0.0000 9.4747 0.0000
# 2 77.8324 85.1066 36.5555 0.0000 -4.2668 0.0000
# 3 45.2319 36.5555 39.8778 0.0000 -3.8102 0.0000
# 4 0.0000 0.0000 0.0000 4.8644 0.0000 -0.0727
# 5 9.4747 -4.2668 -3.8102 0.0000 29.1209 0.0000
# 6 0.0000 0.0000 0.0000 -0.0727 0.0000 -9.1241
#
#
#
# Elastic Compliance Matrix: (Units=1/GPa)
#
#
# Indices 1 2 3 4 5 6 
#
# 1 0.020752 -0.014783 -0.010976 0.000000 -0.010354 0.000000
# 2 -0.014783 0.029919 -0.009905 0.000000 0.007897 0.000000
# 3 -0.010976 -0.009905 0.047401 0.000000 0.008322 0.000000
# 4 0.000000 0.000000 0.000000 0.205551 0.000000 -0.001638
# 5 -0.010354 0.007897 0.008322 0.000000 0.039954 0.000000
# 6 0.000000 0.000000 0.000000 -0.001638 0.000000 -0.109587
#
#
# Mechanical properties :
#
#
# Convention : Reuss Voigt Hill
#
# Bulk Modulus (GPa) = 37.38986 64.05651 50.72318
# Shear Modulus (GPa) = 15.91179 11.48220 13.69700
#
# Velocity S-wave (km/s) = 3.16881 2.69184 2.94001
# Velocity P-wave (km/s) = 6.08143 7.07708 6.59806
#
# Compressibility (1/GPa) = 0.02674522
#
# Stress axis : x y z
#
# Youngs Moduli (GPa) = 48.18867 33.42313 21.09647
#
# Poissons Ratio (x) = 0.49408 0.23156
# Poissons Ratio (y) = 0.71235 0.20896
# Poissons Ratio (z) = 0.52893 0.33105
#
# Static dielectric constant tensor:
#      x y z
#    x 1.531360 0.000000 0.031850 
#    y 0.000000 1.545770 0.000000 
#    z 0.031850 0.000000 1.533240 
# 
# From -- ./inp_files/56600.got.cif
#   From: 2010.05.17/outbox.cif.g08.bks.cpg/sg10_29_cif.got.tgz:56600.got - 2010.06.03 11:33:40.
