data_PCOD9145464
_publ_section_title
;
Structure prediction by ZEFSAII (Michael W. Deem and Ramdas Pophale) SiO2 
 PCOD9145464
Probable space group: P 2/M
;
_chemical_formula_sum "Si O2"
_cell_formula_units_Z 28
_cell_length_a 5.304718
_cell_length_b 34.683456
_cell_length_c 8.034423
_cell_angle_alpha 90.000000
_cell_angle_beta 59.803286
_cell_angle_gamma 90.000000
_cell_volume 1277.631784
_symmetry_space_group_name_H-M "P 2/M"
_symmetry_group_IT_number 10
_symmetry_cell_setting 'monoclinic'
loop_
_space_group_symop_operation_xyz
x,y,z
-x,y,-z
-x,-y,-z
x,-y,z
loop_
_atom_site_type_symbol
_atom_site_label
_atom_site_fract_x
_atom_site_fract_y
_atom_site_fract_z
Si Si1 0.167971 0.544097 0.264642
Si Si2 0.666640 0.587916 0.265159
Si Si3 0.149304 0.882081 0.128301
Si Si4 0.153840 0.715902 0.274598
Si Si5 0.151238 0.042227 0.628472
Si Si6 0.849130 0.798737 0.868492
Si Si7 0.336224 0.676061 0.736353
O O1 0.173124 0.500000 0.204641
O O2 0.483391 0.560762 0.204164
O O3 0.000000 0.544150 0.500000
O O4 0.982660 0.571257 0.204561
O O5 0.500000 0.587787 0.500000
O O6 0.660086 0.631941 0.207760
O O7 0.077640 0.840585 0.236043
O O8 0.003713 0.920682 0.244289
O O9 0.500000 0.886604 0.000000
O O10 0.000000 0.877371 0.000000
O O11 0.089388 0.760258 0.253843
O O12 0.486811 0.704485 0.200260
O O13 0.000000 0.707026 0.500000
O O14 0.988609 0.690144 0.194498
O O15 0.500000 0.048162 0.500000
O O16 0.000000 0.039230 0.500000
O O17 0.108176 0.000000 0.727089
O O18 0.500000 0.799614 0.000000
O O19 0.000000 0.795316 0.000000
O O20 0.500000 0.677111 0.500000
#
# Coordination Sequence:
#
# PCOD9145464 Si02
#       7
#     4   4   4   4   4   4   4
#     4   9  15  21  30  46  70 105 151 192 225 275
#     4   9  15  23  34  49  74 108 145 191 239 276
#     4  10  21  37  57  81 109 145 187 226 266 324
#     4  10  19  32  50  72  95 124 167 210 247 299
#     4  10  21  37  57  84 117 149 183 228 279 324
#     4  10  21  37  54  75 105 137 171 213 264 315
#     4   9  17  28  43  64  89 117 157 206 248 292
#
# _framework density 21.915548999999999
#
# number of rings (size 3 to 8) (size 9 to 14) (size 15 to 20)
#    0.000    2.429    0.000    3.000    0.000    6.286 
#    0.000    2.143    0.000    0.000    0.000    0.000 
#    0.000    0.000    0.000    0.000    0.000  180.000 
#
# Total GULP energy -156358.333274 kJ/mol
# GULP energy per Si atom -5584.226188 kJ/mol
# Density = 2.186567 g / cm^3
# Si number density = 21.915549 Si / 1000 Ang^3
#
#
#
# Elastic Constant Matrix: (Units=GPa)
#
#
# Indices 1 2 3 4 5 6 
#
# 1 171.8272 51.4439 20.0719 0.0000 -2.2679 0.0000
# 2 51.4439 158.1075 4.5009 0.0000 7.2699 0.0000
# 3 20.0719 4.5009 33.3748 0.0000 -3.4967 0.0000
# 4 0.0000 0.0000 0.0000 96.7095 0.0000 28.7851
# 5 -2.2679 7.2699 -3.4967 0.0000 25.9708 0.0000
# 6 0.0000 0.0000 0.0000 28.7851 0.0000 48.7658
#
#
#
# Elastic Compliance Matrix: (Units=1/GPa)
#
#
# Indices 1 2 3 4 5 6 
#
# 1 0.006925 -0.002177 -0.003797 0.000000 0.000703 0.000000
# 2 -0.002177 0.007130 0.000121 0.000000 -0.002170 0.000000
# 3 -0.003797 0.000121 0.032652 0.000000 0.004031 0.000000
# 4 0.000000 0.000000 0.000000 0.012544 0.000000 -0.007404
# 5 0.000703 -0.002170 0.004031 0.000000 0.039716 0.000000
# 6 0.000000 0.000000 0.000000 -0.007404 0.000000 0.024877
#
#
# Mechanical properties :
#
#
# Convention : Reuss Voigt Hill
#
# Bulk Modulus (GPa) = 28.57236 57.26033 42.91634
# Shear Modulus (GPa) = 33.96331 53.44208 43.70269
#
# Velocity S-wave (km/s) = 3.94094 4.94352 4.47043
# Velocity P-wave (km/s) = 5.81152 7.66609 6.80231
#
# Compressibility (1/GPa) = 0.03499886
#
# Stress axis : x y z
#
# Youngs Moduli (GPa) = 144.41467 140.26102 30.62556
#
# Poissons Ratio (x) = 0.30539 0.11629
# Poissons Ratio (y) = 0.31443 -0.00369
# Poissons Ratio (z) = 0.54837 -0.01692
#
# Static dielectric constant tensor:
#      x y z
#    x 1.700940 0.000000 -0.036520 
#    y 0.000000 1.829930 0.000000 
#    z -0.036520 0.000000 1.839010 
# 
# From -- ./inp_files/15882.got.cif
#   From: 2010.05.17/outbox.cif.g08.bks.cpg/sg10_8_cif.got.tgz:15882.got - 2010.06.03 11:33:40.
