data_PCOD9145924
_publ_section_title
;
Structure prediction by ZEFSAII (Michael W. Deem and Ramdas Pophale) SiO2 
 PCOD9145924
Probable space group: P 2/M
;
_chemical_formula_sum "Si O2"
_cell_formula_units_Z 32
_cell_length_a 14.439573
_cell_length_b 9.493093
_cell_length_c 14.569238
_cell_angle_alpha 90.000000
_cell_angle_beta 59.630885
_cell_angle_gamma 90.000000
_cell_volume 1723.067036
_symmetry_space_group_name_H-M "P 2/M"
_symmetry_group_IT_number 10
_symmetry_cell_setting 'monoclinic'
loop_
_space_group_symop_operation_xyz
x,y,z
-x,y,-z
-x,-y,-z
x,-y,z
loop_
_atom_site_type_symbol
_atom_site_label
_atom_site_fract_x
_atom_site_fract_y
_atom_site_fract_z
Si Si1 0.611207 0.340200 0.997887
Si Si2 0.329336 0.333776 0.353679
Si Si3 0.533585 0.838451 0.196279
Si Si4 0.374063 0.333884 0.546873
Si Si5 0.876941 0.333348 0.030187
Si Si6 0.901278 0.327856 0.612254
Si Si7 0.154019 0.333127 0.163569
Si Si8 0.720189 0.164304 0.244421
O O1 0.618361 0.500000 0.031644
O O2 0.606543 0.229420 0.081243
O O3 0.500000 0.328814 0.000000
O O4 0.717821 0.318969 0.884938
O O5 0.342867 0.500000 0.326632
O O6 0.425272 0.249369 0.258858
O O7 0.342867 0.315033 0.456283
O O8 0.212446 0.290130 0.376558
O O9 0.604104 0.830055 0.252730
O O10 0.509821 0.000000 0.187605
O O11 0.500000 0.298235 0.500000
O O12 0.362360 0.500000 0.575683
O O13 0.298112 0.242689 0.650431
O O14 0.845615 0.500000 0.048300
O O15 0.802896 0.245776 0.136853
O O16 0.868251 0.281482 0.928597
O O17 0.000000 0.323773 0.000000
O O18 0.904165 0.500000 0.613222
O O19 0.904405 0.276999 0.716464
O O20 0.000000 0.280748 0.500000
O O21 0.129206 0.500000 0.171940
O O22 0.749838 0.000000 0.239407
#
# Coordination Sequence:
#
# PCOD9145924 Si02
#       8
#     4   4   4   4   4   4   4   4
#     4  10  19  32  54  81 109 145 187 228 274 333
#     4  10  20  35  57  83 111 147 189 232 280 334
#     4  11  22  34  52  80 114 149 183 227 282 338
#     4  10  20  34  55  83 113 147 186 234 285 333
#     4  10  21  37  59  84 111 147 190 235 280 331
#     4   9  18  33  55  83 112 141 179 229 276 322
#     4   9  17  31  52  80 111 142 177 222 274 323
#     4  11  23  37  55  80 113 153 189 228 283 343
#
# _framework density 18.571534
#
# number of rings (size 3 to 8) (size 9 to 14) (size 15 to 20)
#    0.000    2.000    2.500    1.500    0.000    5.250 
#    0.000    3.750    0.000    0.375    0.000    0.000 
#    0.000    0.000    0.000    0.000    0.000    0.000 
#
# Total GULP energy -178518.048792 kJ/mol
# GULP energy per Si atom -5578.689025 kJ/mol
# Density = 1.852926 g / cm^3
# Si number density = 18.571534 Si / 1000 Ang^3
#
#
#
# Elastic Constant Matrix: (Units=GPa)
#
#
# Indices 1 2 3 4 5 6 
#
# 1 61.8150 16.9285 27.0903 0.0000 -4.4578 0.0000
# 2 16.9285 52.6880 53.8999 0.0000 -1.0856 0.0000
# 3 27.0903 53.8999 132.4949 0.0000 -6.7419 0.0000
# 4 0.0000 0.0000 0.0000 -4.6304 0.0000 6.9900
# 5 -4.4578 -1.0856 -6.7419 0.0000 21.4530 0.0000
# 6 0.0000 0.0000 0.0000 6.9900 0.0000 4.6448
#
#
#
# Elastic Compliance Matrix: (Units=1/GPa)
#
#
# Indices 1 2 3 4 5 6 
#
# 1 0.018318 -0.003678 -0.002099 0.000000 0.002961 0.000000
# 2 -0.003678 0.033385 -0.012990 0.000000 -0.003157 0.000000
# 3 -0.002099 -0.012990 0.013420 0.000000 0.003124 0.000000
# 4 0.000000 0.000000 0.000000 -0.066009 0.000000 0.099336
# 5 0.002961 -0.003157 0.003124 0.000000 0.048051 0.000000
# 6 0.000000 0.000000 0.000000 0.099336 0.000000 0.065803
#
#
# Mechanical properties :
#
#
# Convention : Reuss Voigt Hill
#
# Bulk Modulus (GPa) = 36.24462 49.20393 42.72427
# Shear Modulus (GPa) = 31.30934 14.23211 22.77073
#
# Velocity S-wave (km/s) = 4.11040 2.77129 3.50538
# Velocity P-wave (km/s) = 6.48735 6.06563 6.28003
#
# Compressibility (1/GPa) = 0.02759030
#
# Stress axis : x y z
#
# Youngs Moduli (GPa) = 54.59220 29.95361 74.51615
#
# Poissons Ratio (x) = 0.11016 0.15638
# Poissons Ratio (y) = 0.20077 0.96796
# Poissons Ratio (z) = 0.11457 0.38910
#
# Static dielectric constant tensor:
#      x y z
#    x 1.656150 0.000000 0.018730 
#    y 0.000000 1.620150 0.000000 
#    z 0.018730 0.000000 1.646050 
# 
# From -- ./inp_files/66453.got.cif
#   From: 2010.05.17/outbox.cif.g08.bks.cpg/sg10_34_cif.got.tgz:66453.got - 2010.06.03 11:33:40.
