data_PCOD9145898
_publ_section_title
;
Structure prediction by ZEFSAII (Michael W. Deem and Ramdas Pophale) SiO2 
 PCOD9145898
Probable space group: P 2/M
;
_chemical_formula_sum "Si O2"
_cell_formula_units_Z 32
_cell_length_a 17.326574
_cell_length_b 17.047644
_cell_length_c 12.678909
_cell_angle_alpha 90.000000
_cell_angle_beta 153.086989
_cell_angle_gamma 90.000000
_cell_volume 1695.154179
_symmetry_space_group_name_H-M "P 2/M"
_symmetry_group_IT_number 10
_symmetry_cell_setting 'monoclinic'
loop_
_space_group_symop_operation_xyz
x,y,z
-x,y,-z
-x,-y,-z
x,-y,z
loop_
_atom_site_type_symbol
_atom_site_label
_atom_site_fract_x
_atom_site_fract_y
_atom_site_fract_z
Si Si1 0.390972 0.322881 0.075544
Si Si2 0.663530 0.763078 0.769821
Si Si3 0.139436 0.737079 0.596195
Si Si4 0.844307 0.914181 0.957617
Si Si5 0.244469 0.087562 0.396983
Si Si6 0.958557 0.655224 0.062635
Si Si7 0.733019 0.754223 0.473618
Si Si8 0.073906 0.412925 0.749156
O O1 0.374494 0.279366 0.167323
O O2 0.590846 0.314559 0.294304
O O3 0.297323 0.281062 0.864009
O O4 0.268859 0.398151 0.947532
O O5 0.500000 0.779719 0.500000
O O6 0.764604 0.841862 0.920243
O O7 0.786338 0.706283 0.851909
O O8 0.201278 0.774808 0.563352
O O9 0.042430 0.656561 0.440948
O O10 0.000000 0.779634 0.500000
O O11 0.773809 0.907634 0.751752
O O12 0.796413 0.000000 0.940201
O O13 0.048499 0.909454 0.199069
O O14 0.330214 0.165671 0.547885
O O15 0.312832 0.000000 0.505813
O O16 0.108692 0.717454 0.270369
O O17 0.940434 0.599325 0.141962
O O18 0.000000 0.618348 0.000000
O O19 0.017443 0.500000 0.651684
#
# Coordination Sequence:
#
# PCOD9145898 Si02
#       8
#     4   4   4   4   4   4   4   4
#     4  10  21  34  53  81 106 137 176 220 266 312
#     4  11  20  31  50  78 111 142 180 224 264 315
#     4   9  20  36  57  81 101 133 177 219 266 314
#     4   9  17  29  46  74 110 143 177 220 271 314
#     4   9  17  29  50  77 106 143 182 221 268 311
#     4  10  19  32  54  80 108 144 184 217 260 315
#     4  11  19  34  57  77 107 142 183 225 260 314
#     4   9  20  38  58  81 110 140 171 215 267 319
#
# _framework density 18.87734
#
# number of rings (size 3 to 8) (size 9 to 14) (size 15 to 20)
#    0.000    2.250    1.250    4.125    0.000    2.750 
#    0.000    3.125    0.000   21.375    0.000    0.000 
#    0.000    0.000    0.000    0.000    0.000    0.000 
#
# Total GULP energy -178294.004483 kJ/mol
# GULP energy per Si atom -5571.687640 kJ/mol
# Density = 1.883437 g / cm^3
# Si number density = 18.877340 Si / 1000 Ang^3
#
#
#
# Elastic Constant Matrix: (Units=GPa)
#
#
# Indices 1 2 3 4 5 6 
#
# 1 70.0535 -11.6501 9.4258 0.0000 -9.1570 0.0000
# 2 -11.6501 39.7422 -6.6091 0.0000 5.9516 0.0000
# 3 9.4258 -6.6091 43.4464 0.0000 4.2547 0.0000
# 4 0.0000 0.0000 0.0000 11.4409 0.0000 5.6237
# 5 -9.1570 5.9516 4.2547 0.0000 30.4577 0.0000
# 6 0.0000 0.0000 0.0000 5.6237 0.0000 9.5268
#
#
#
# Elastic Compliance Matrix: (Units=1/GPa)
#
#
# Indices 1 2 3 4 5 6 
#
# 1 0.015896 0.003411 -0.003379 0.000000 0.004584 0.000000
# 2 0.003411 0.027551 0.003932 0.000000 -0.004907 0.000000
# 3 -0.003379 0.003932 0.024863 0.000000 -0.005257 0.000000
# 4 0.000000 0.000000 0.000000 0.123135 0.000000 -0.072687
# 5 0.004584 -0.004907 -0.005257 0.000000 0.035904 0.000000
# 6 0.000000 0.000000 0.000000 -0.072687 0.000000 0.147875
#
#
# Mechanical properties :
#
#
# Convention : Reuss Voigt Hill
#
# Bulk Modulus (GPa) = 13.11683 15.06393 14.09038
# Shear Modulus (GPa) = 12.73212 21.09012 16.91112
#
# Velocity S-wave (km/s) = 2.59986 3.34611 2.99631
# Velocity P-wave (km/s) = 3.99699 4.78809 4.41031
#
# Compressibility (1/GPa) = 0.07623793
#
# Stress axis : x y z
#
# Youngs Moduli (GPa) = 62.90899 36.29655 40.22082
#
# Poissons Ratio (x) = -0.12382 0.13589
# Poissons Ratio (y) = -0.21460 -0.15813
# Poissons Ratio (z) = 0.21255 -0.14270
#
# Static dielectric constant tensor:
#      x y z
#    x 1.700630 0.000000 0.022290 
#    y 0.000000 1.675860 0.000000 
#    z 0.022290 0.000000 1.648760 
# 
# From -- ./inp_files/54141.got.cif
#   From: 2010.05.17/outbox.cif.g08.bks.cpg/sg10_28_cif.got.tgz:54141.got - 2010.06.03 11:33:40.
