data_PCOD9145997
_publ_section_title
;
Structure prediction by ZEFSAII (Michael W. Deem and Ramdas Pophale) SiO2 
 PCOD9145997
Probable space group: P 2/M
;
_chemical_formula_sum "Si O2"
_cell_formula_units_Z 28
_cell_length_a 14.029581
_cell_length_b 7.566243
_cell_length_c 14.201438
_cell_angle_alpha 90.000000
_cell_angle_beta 120.844235
_cell_angle_gamma 90.000000
_cell_volume 1294.285675
_symmetry_space_group_name_H-M "P 2/M"
_symmetry_group_IT_number 10
_symmetry_cell_setting 'monoclinic'
loop_
_space_group_symop_operation_xyz
x,y,z
-x,y,-z
-x,-y,-z
x,-y,z
loop_
_atom_site_type_symbol
_atom_site_label
_atom_site_fract_x
_atom_site_fract_y
_atom_site_fract_z
Si Si1 0.269946 0.785548 0.809023
Si Si2 0.701305 0.204607 0.965037
Si Si3 0.160738 0.210657 0.328998
Si Si4 0.407002 0.286884 0.526396
Si Si5 0.025286 0.783882 0.619112
Si Si6 0.122311 0.783555 0.097212
Si Si7 0.533998 0.706710 0.235389
O O1 0.147916 0.730527 0.713532
O O2 0.364390 0.726564 0.784807
O O3 0.273635 0.000000 0.810425
O O4 0.291898 0.720263 0.926307
O O5 0.785505 0.280072 0.930305
O O6 0.576857 0.210219 0.863140
O O7 0.735299 0.000000 0.992955
O O8 0.284058 0.240641 0.429976
O O9 0.145921 0.278854 0.215257
O O10 0.068399 0.278191 0.355228
O O11 0.143541 0.000000 0.315193
O O12 0.500000 0.223321 0.500000
O O13 0.412584 0.500000 0.531247
O O14 0.432803 0.222271 0.644943
O O15 0.000000 0.726690 0.500000
O O16 0.023440 0.000000 0.618108
O O17 0.126760 0.000000 0.101612
O O18 0.000000 0.734662 0.000000
O O19 0.508449 0.500000 0.233238
#
# Coordination Sequence:
#
# PCOD9145997 Si02
#       7
#     4   4   4   4   4   4   4
#     4  10  20  35  55  78 106 139 173 210 256 311
#     4  10  20  34  54  79 106 138 173 211 259 310
#     4  10  19  32  55  83 106 135 176 217 256 302
#     4  10  22  39  55  73 103 141 175 212 263 314
#     4   9  17  30  50  77 106 134 167 210 257 303
#     4   9  17  31  53  82 112 137 168 214 261 305
#     4  11  23  37  54  76 103 137 176 218 262 306
#
# _framework density 21.633554
#
# number of rings (size 3 to 8) (size 9 to 14) (size 15 to 20)
#    0.000    2.143    0.000    3.429    0.000    8.286 
#    0.000    0.714    0.000    6.000    0.000    0.000 
#    0.000    0.000    0.000    0.000    0.000    0.000 
#
# Total GULP energy -156521.679022 kJ/mol
# GULP energy per Si atom -5590.059965 kJ/mol
# Density = 2.158431 g / cm^3
# Si number density = 21.633554 Si / 1000 Ang^3
#
#
#
# Elastic Constant Matrix: (Units=GPa)
#
#
# Indices 1 2 3 4 5 6 
#
# 1 207.4975 -11.5979 109.7390 0.0000 -18.6489 0.0000
# 2 -11.5979 48.4338 -9.7270 0.0000 -9.1801 0.0000
# 3 109.7390 -9.7270 212.7871 0.0000 -23.5510 0.0000
# 4 0.0000 0.0000 0.0000-2738.1446 0.0000-2847.5887
# 5 -18.6489 -9.1801 -23.5510 0.0000 44.9415 0.0000
# 6 0.0000 0.0000 0.0000-2847.5887 0.0000-2943.8522
#
#
#
# Elastic Compliance Matrix: (Units=1/GPa)
#
#
# Indices 1 2 3 4 5 6 
#
# 1 0.006737 0.001208 -0.003272 0.000000 0.001327 0.000000
# 2 0.001208 0.022192 0.001007 0.000000 0.005562 0.000000
# 3 -0.003272 0.001007 0.006694 0.000000 0.002356 0.000000
# 4 0.000000 0.000000 0.000000 0.061243 0.000000 -0.059241
# 5 0.001327 0.005562 0.002356 0.000000 0.025173 0.000000
# 6 0.000000 0.000000 0.000000 -0.059241 0.000000 0.056964
#
#
# Mechanical properties :
#
#
# Convention : Reuss Voigt Hill
#
# Bulk Modulus (GPa) = 29.84316 71.72739 50.78527
# Shear Modulus (GPa) = 26.00284 -1102.05745 -538.02730
#
# Velocity S-wave (km/s) = 3.47070 -22.59483 -15.78735
# Velocity P-wave (km/s) = 5.46679 25.44551 17.57254
#
# Compressibility (1/GPa) = 0.03350852
#
# Stress axis : x y z
#
# Youngs Moduli (GPa) = 148.44145 45.06031 149.39141
#
# Poissons Ratio (x) = -0.05441 0.48883
# Poissons Ratio (y) = -0.17926 -0.15048
# Poissons Ratio (z) = 0.48572 -0.04539
#
# Static dielectric constant tensor:
#      x y z
#    x 1.733100 0.000000 -0.030370 
#    y 0.000000 1.827880 0.000000 
#    z -0.030370 0.000000 1.740800 
# 
# From -- ./inp_files/63386.got.cif
#   From: 2010.05.17/outbox.cif.g08.bks.cpg/sg10_32_cif.got.tgz:63386.got - 2010.06.03 11:33:40.
