data_PCOD9145636
_publ_section_title
;
Structure prediction by ZEFSAII (Michael W. Deem and Ramdas Pophale) SiO2 
 PCOD9145636
Probable space group: P 2/M
;
_chemical_formula_sum "Si O2"
_cell_formula_units_Z 20
_cell_length_a 7.931782
_cell_length_b 25.551363
_cell_length_c 9.407068
_cell_angle_alpha 90.000000
_cell_angle_beta 147.297380
_cell_angle_gamma 90.000000
_cell_volume 1030.047023
_symmetry_space_group_name_H-M "P 2/M"
_symmetry_group_IT_number 10
_symmetry_cell_setting 'monoclinic'
loop_
_space_group_symop_operation_xyz
x,y,z
-x,y,-z
-x,-y,-z
x,-y,z
loop_
_atom_site_type_symbol
_atom_site_label
_atom_site_fract_x
_atom_site_fract_y
_atom_site_fract_z
Si Si1 0.627782 0.329864 0.250572
Si Si2 0.569387 0.774087 0.383382
Si Si3 0.196392 0.831701 0.886947
Si Si4 0.373493 0.443950 0.749814
Si Si5 0.127092 0.942627 0.749388
O O1 0.534387 0.281699 0.282235
O O2 0.531198 0.387230 0.242149
O O3 0.000000 0.329522 0.500000
O O4 0.500000 0.323493 0.000000
O O5 0.500000 0.770487 0.500000
O O6 0.924067 0.795648 0.628801
O O7 0.329793 0.812048 0.131395
O O8 0.063999 0.890885 0.795613
O O9 0.500000 0.830319 0.000000
O O10 0.466123 0.500000 0.747708
O O11 0.000000 0.443864 0.500000
O O12 0.500000 0.444191 0.000000
O O13 0.000000 0.933973 0.500000
O O14 0.014061 0.000000 0.719265
O O15 0.500000 0.945587 0.000000
#
# Coordination Sequence:
#
# PCOD9145636 Si02
#       5
#     4   4   4   4   4
#     4  10  19  32  52  74  98 132 174 212 249 304
#     4  12  24  36  51  76 111 142 172 215 264 306
#     4  11  21  37  59  79 102 137 178 214 253 309
#     4   8  14  25  43  69  96 121 157 208 255 292
#     4   9  17  30  52  82 106 125 162 217 262 296
#
# _framework density 19.416587
#
# number of rings (size 3 to 8) (size 9 to 14) (size 15 to 20)
#    0.000    2.000    0.000    6.600    0.000    0.000 
#    0.000    0.000    0.000    4.200    0.000    0.000 
#    0.000   19.200    0.000    0.000    0.000    4.000 
#
# Total GULP energy -111490.300685 kJ/mol
# GULP energy per Si atom -5574.515034 kJ/mol
# Density = 1.937239 g / cm^3
# Si number density = 19.416587 Si / 1000 Ang^3
#
#
#
# Elastic Constant Matrix: (Units=GPa)
#
#
# Indices 1 2 3 4 5 6 
#
# 1 34.9760 40.9247 17.2480 0.0000 -13.2348 0.0000
# 2 40.9247 222.4006 55.7047 0.0000 -27.8228 0.0000
# 3 17.2480 55.7047 161.8682 0.0000 -9.2711 0.0000
# 4 0.0000 0.0000 0.0000 31.7701 0.0000 0.0803
# 5 -13.2348 -27.8228 -9.2711 0.0000 26.2098 0.0000
# 6 0.0000 0.0000 0.0000 0.0803 0.0000 -5.3322
#
#
#
# Elastic Compliance Matrix: (Units=1/GPa)
#
#
# Indices 1 2 3 4 5 6 
#
# 1 0.041170 -0.005328 -0.001722 0.000000 0.014525 0.000000
# 2 -0.005328 0.006257 -0.001387 0.000000 0.003461 0.000000
# 3 -0.001722 -0.001387 0.006843 0.000000 0.000079 0.000000
# 4 0.000000 0.000000 0.000000 0.031475 0.000000 0.000474
# 5 0.014525 0.003461 0.000079 0.000000 0.049190 0.000000
# 6 0.000000 0.000000 0.000000 0.000474 0.000000 -0.187534
#
#
# Mechanical properties :
#
#
# Convention : Reuss Voigt Hill
#
# Bulk Modulus (GPa) = 26.73998 71.88883 49.31441
# Shear Modulus (GPa) = -214.96265 30.88738 -92.03764
#
# Velocity S-wave (km/s) = -10.53334 3.99278 -6.89235
# Velocity P-wave (km/s) = 11.58159 7.63945 6.15516
#
# Compressibility (1/GPa) = 0.03739718
#
# Stress axis : x y z
#
# Youngs Moduli (GPa) = 24.28972 159.81438 146.12897
#
# Poissons Ratio (x) = 0.85141 0.25157
# Poissons Ratio (y) = 0.12940 0.20274
# Poissons Ratio (z) = 0.04182 0.22173
#
# Static dielectric constant tensor:
#      x y z
#    x 1.634780 0.000000 0.016940 
#    y 0.000000 1.802550 0.000000 
#    z 0.016940 0.000000 1.642410 
# 
# From -- ./inp_files/20791.got.cif
#   From: 2010.05.17/outbox.cif.g08.bks.cpg/sg10_11_cif.got.tgz:20791.got - 2010.06.03 11:33:40.
