data_PCOD9145422
_publ_section_title
;
Structure prediction by ZEFSAII (Michael W. Deem and Ramdas Pophale) SiO2 
 PCOD9145422
Probable space group: P 2/M
;
_chemical_formula_sum "Si O2"
_cell_formula_units_Z 32
_cell_length_a 10.874828
_cell_length_b 13.198320
_cell_length_c 13.654067
_cell_angle_alpha 90.000000
_cell_angle_beta 135.420211
_cell_angle_gamma 90.000000
_cell_volume 1375.559761
_symmetry_space_group_name_H-M "P 2/M"
_symmetry_group_IT_number 10
_symmetry_cell_setting 'monoclinic'
loop_
_space_group_symop_operation_xyz
x,y,z
-x,y,-z
-x,-y,-z
x,-y,z
loop_
_atom_site_type_symbol
_atom_site_label
_atom_site_fract_x
_atom_site_fract_y
_atom_site_fract_z
Si Si1 0.016688 0.383874 0.804039
Si Si2 0.324641 0.303962 0.854860
Si Si3 0.861711 0.621933 0.507813
Si Si4 0.284213 0.878721 0.463895
Si Si5 0.880096 0.119875 0.235524
Si Si6 0.825630 0.229755 0.993113
Si Si7 0.496563 0.614842 0.222059
Si Si8 0.338152 0.121281 0.273119
O O1 0.984237 0.500000 0.810908
O O2 0.210563 0.366074 0.868036
O O3 0.910091 0.352734 0.647163
O O4 0.016466 0.308526 0.895337
O O5 0.225159 0.203606 0.761935
O O6 0.389328 0.382807 0.812402
O O7 0.500000 0.260471 0.000000
O O8 0.873257 0.500000 0.509080
O O9 0.656290 0.646245 0.383091
O O10 0.000000 0.656263 0.500000
O O11 0.455557 0.851602 0.624573
O O12 0.299259 0.839815 0.360755
O O13 0.083306 0.865047 0.380277
O O14 0.301900 0.000000 0.464651
O O15 0.838366 0.000000 0.220817
O O16 0.837949 0.159281 0.099404
O O17 0.657483 0.304466 0.878707
O O18 0.799073 0.159202 0.884787
O O19 0.434422 0.500000 0.207507
O O20 0.324374 0.000000 0.265154
#
# Coordination Sequence:
#
# PCOD9145422 Si02
#       8
#     4   4   4   4   4   4   4   4
#     4  10  19  32  49  74 108 140 185 236 276 321
#     4  11  20  32  50  79 107 152 194 221 281 310
#     4   9  17  29  49  71  96 139 185 240 285 305
#     4   8  17  37  65  85 107 141 174 228 288 329
#     4  10  21  36  52  80 115 146 182 224 275 337
#     4  11  22  31  50  84 112 150 182 219 283 324
#     4  11  21  35  51  75 108 148 199 238 269 317
#     4   9  18  37  62  89 111 134 179 227 278 345
#
# _framework density 23.263259000000001
#
# number of rings (size 3 to 8) (size 9 to 14) (size 15 to 20)
#    0.000    2.125    3.750    1.875    0.000    3.250 
#    0.000    1.875    0.000    0.000    0.000   35.875 
#    0.000    0.000    0.000    0.000    0.000    0.000 
#
# Total GULP energy -178185.039812 kJ/mol
# GULP energy per Si atom -5568.282494 kJ/mol
# Density = 2.321031 g / cm^3
# Si number density = 23.263259 Si / 1000 Ang^3
#
#
#
# Elastic Constant Matrix: (Units=GPa)
#
#
# Indices 1 2 3 4 5 6 
#
# 1 18.0320 13.1948 18.3079 0.0000 7.4011 0.0000
# 2 13.1948 131.6753 31.8442 0.0000 -0.3877 0.0000
# 3 18.3079 31.8442 161.4140 0.0000 12.9136 0.0000
# 4 0.0000 0.0000 0.0000 33.3363 0.0000 -5.6645
# 5 7.4011 -0.3877 12.9136 0.0000 21.6815 0.0000
# 6 0.0000 0.0000 0.0000 -5.6645 0.0000 37.8981
#
#
#
# Elastic Compliance Matrix: (Units=1/GPa)
#
#
# Indices 1 2 3 4 5 6 
#
# 1 0.074745 -0.006236 -0.005457 0.000000 -0.022376 0.000000
# 2 -0.006236 0.008522 -0.001214 0.000000 0.003004 0.000000
# 3 -0.005457 -0.001214 0.007252 0.000000 -0.002478 0.000000
# 4 0.000000 0.000000 0.000000 0.030779 0.000000 0.004600
# 5 -0.022376 0.003004 -0.002478 0.000000 0.055290 0.000000
# 6 0.000000 0.000000 0.000000 0.004600 0.000000 0.027074
#
#
# Mechanical properties :
#
#
# Convention : Reuss Voigt Hill
#
# Bulk Modulus (GPa) = 15.45511 48.64612 32.05062
# Shear Modulus (GPa) = 19.91674 35.10148 27.50911
#
# Velocity S-wave (km/s) = 2.92917 3.88865 3.44250
# Velocity P-wave (km/s) = 4.25418 6.41238 5.44135
#
# Compressibility (1/GPa) = 0.06470352
#
# Stress axis : x y z
#
# Youngs Moduli (GPa) = 13.37882 117.34564 137.89204
#
# Poissons Ratio (x) = 0.73177 0.75253
# Poissons Ratio (y) = 0.08343 0.16744
# Poissons Ratio (z) = 0.07301 0.14249
#
# Static dielectric constant tensor:
#      x y z
#    x 1.967780 0.000000 -0.027090 
#    y 0.000000 1.894430 0.000000 
#    z -0.027090 0.000000 2.052790 
# 
# From -- ./inp_files/65117.got.cif
#   From: 2010.05.17/outbox.cif.g08.bks.cpg/sg10_33_cif.got.tgz:65117.got - 2010.06.03 11:33:40.
