data_PCOD9145586
_publ_section_title
;
Structure prediction by ZEFSAII (Michael W. Deem and Ramdas Pophale) SiO2 
 PCOD9145586
Probable space group: P 2/M
;
_chemical_formula_sum "Si O2"
_cell_formula_units_Z 32
_cell_length_a 12.477480
_cell_length_b 14.134972
_cell_length_c 14.318465
_cell_angle_alpha 90.000000
_cell_angle_beta 141.406362
_cell_angle_gamma 90.000000
_cell_volume 1575.283286
_symmetry_space_group_name_H-M "P 2/M"
_symmetry_group_IT_number 10
_symmetry_cell_setting 'monoclinic'
loop_
_space_group_symop_operation_xyz
x,y,z
-x,y,-z
-x,-y,-z
x,-y,z
loop_
_atom_site_type_symbol
_atom_site_label
_atom_site_fract_x
_atom_site_fract_y
_atom_site_fract_z
Si Si1 0.907005 0.108930 0.834845
Si Si2 0.314129 0.817227 0.856664
Si Si3 0.671090 0.253899 0.749974
Si Si4 0.187727 0.251466 0.956862
Si Si5 0.812847 0.280443 0.415433
Si Si6 0.037757 0.099799 0.414699
Si Si7 0.643457 0.391447 0.457918
Si Si8 0.911341 0.392557 0.810349
O O1 0.724831 0.161636 0.726941
O O2 0.032681 0.173641 0.857487
O O3 0.893408 0.000000 0.795576
O O4 0.000000 0.109905 0.000000
O O5 0.281813 0.749441 0.922654
O O6 0.293290 0.762998 0.743821
O O7 0.153566 0.887780 0.754008
O O8 0.500000 0.861209 0.000000
O O9 0.499639 0.313014 0.615716
O O10 0.824375 0.325974 0.827877
O O11 0.687410 0.230988 0.870956
O O12 0.094852 0.350848 0.908999
O O13 0.850603 0.194884 0.515597
O O14 0.722203 0.362709 0.411296
O O15 0.000000 0.307040 0.500000
O O16 0.000000 0.096116 0.500000
O O17 0.117106 0.000000 0.439599
O O18 0.576124 0.500000 0.412304
O O19 0.790497 0.386463 0.636458
O O20 0.916610 0.500000 0.844320
#
# Coordination Sequence:
#
# PCOD9145586 Si02
#       8
#     4   4   4   4   4   4   4   4
#     4   8  16  33  55  78 106 140 176 212 256 316
#     4  10  19  32  51  76 109 144 181 222 263 308
#     4  10  20  34  55  81 111 139 167 218 277 323
#     4  10  20  34  54  79 107 143 181 215 261 320
#     4   9  19  36  55  73 105 147 184 224 265 313
#     4   8  16  32  52  72  98 136 177 217 262 307
#     4  11  22  36  56  81 107 138 179 226 276 323
#     4  10  20  35  56  79 102 134 177 222 271 330
#
# _framework density 20.313807000000001
#
# number of rings (size 3 to 8) (size 9 to 14) (size 15 to 20)
#    0.000    2.750    0.000    4.125    0.000    3.500 
#    0.000    1.250    0.000   16.500    0.000    0.000 
#    0.000    0.000    0.000    0.000    0.000    0.000 
#
# Total GULP energy -178383.333110 kJ/mol
# GULP energy per Si atom -5574.479160 kJ/mol
# Density = 2.026757 g / cm^3
# Si number density = 20.313807 Si / 1000 Ang^3
#
#
#
# Elastic Constant Matrix: (Units=GPa)
#
#
# Indices 1 2 3 4 5 6 
#
# 1 55.9040 10.9397 16.6965 0.0000 -11.1407 0.0000
# 2 10.9397 83.0858 7.9664 0.0000 -3.2095 0.0000
# 3 16.6965 7.9664 68.1397 0.0000 -9.6765 0.0000
# 4 0.0000 0.0000 0.0000 3.4117 0.0000 31.6965
# 5 -11.1407 -3.2095 -9.6765 0.0000 20.1388 0.0000
# 6 0.0000 0.0000 0.0000 31.6965 0.0000 -31.2070
#
#
#
# Elastic Compliance Matrix: (Units=1/GPa)
#
#
# Indices 1 2 3 4 5 6 
#
# 1 0.021308 -0.002085 -0.003596 0.000000 0.009728 0.000000
# 2 -0.002085 0.012410 -0.000883 0.000000 0.000400 0.000000
# 3 -0.003596 -0.000883 0.016482 0.000000 0.005789 0.000000
# 4 0.000000 0.000000 0.000000 0.028086 0.000000 0.028526
# 5 0.009728 0.000400 0.005789 0.000000 0.057882 0.000000
# 6 0.000000 0.000000 0.000000 0.028526 0.000000 -0.003070
#
#
# Mechanical properties :
#
#
# Convention : Reuss Voigt Hill
#
# Bulk Modulus (GPa) = 26.97429 30.92608 28.95019
# Shear Modulus (GPa) = 31.52895 9.90385 20.71640
#
# Velocity S-wave (km/s) = 3.94394 2.21043 3.19692
# Velocity P-wave (km/s) = 5.83499 4.66604 5.28295
#
# Compressibility (1/GPa) = 0.03707234
#
# Stress axis : x y z
#
# Youngs Moduli (GPa) = 46.92994 80.57744 60.67108
#
# Poissons Ratio (x) = 0.16801 0.21818
# Poissons Ratio (y) = 0.09785 0.05359
# Poissons Ratio (z) = 0.16876 0.07117
#
# Static dielectric constant tensor:
#      x y z
#    x 1.737280 0.000000 -0.021160 
#    y 0.000000 1.745830 0.000000 
#    z -0.021160 0.000000 1.754350 
# 
# From -- ./inp_files/65124.got.cif
#   From: 2010.05.17/outbox.cif.g08.bks.cpg/sg10_33_cif.got.tgz:65124.got - 2010.06.03 11:33:40.
