data_PCOD9145021
_publ_section_title
;
Structure prediction by ZEFSAII (Michael W. Deem and Ramdas Pophale) SiO2 
 PCOD9145021
Probable space group: P 2/M
;
_chemical_formula_sum "Si O2"
_cell_formula_units_Z 28
_cell_length_a 27.131780
_cell_length_b 11.354088
_cell_length_c 26.614550
_cell_angle_alpha 90.000000
_cell_angle_beta 168.819964
_cell_angle_gamma 90.000000
_cell_volume 1589.683862
_symmetry_space_group_name_H-M "P 2/M"
_symmetry_group_IT_number 10
_symmetry_cell_setting 'monoclinic'
loop_
_space_group_symop_operation_xyz
x,y,z
-x,y,-z
-x,-y,-z
x,-y,z
loop_
_atom_site_type_symbol
_atom_site_label
_atom_site_fract_x
_atom_site_fract_y
_atom_site_fract_z
Si Si1 0.997923 0.222589 0.613449
Si Si2 0.999899 0.640076 0.713487
Si Si3 0.502683 0.140513 0.942427
Si Si4 0.000195 0.000000 0.688453
Si Si5 0.999714 0.643886 0.941536
Si Si6 0.500015 0.734205 0.728880
Si Si7 0.500300 0.000000 0.255887
Si Si8 0.499576 0.358770 0.382885
O O1 0.999079 0.332163 0.652926
O O2 0.000073 0.113485 0.653773
O O3 0.745253 0.204299 0.327906
O O4 0.247963 0.204488 0.829848
O O5 0.000216 0.500000 0.722696
O O6 0.749254 0.696624 0.488601
O O7 0.250766 0.696782 0.990011
O O8 0.503354 0.000000 0.928766
O O9 0.500000 0.144538 0.000000
O O10 0.749812 0.000000 0.471232
O O11 0.250533 0.000000 0.971988
O O12 0.999712 0.500000 0.941414
O O13 0.750439 0.683904 0.662478
O O14 0.248711 0.683908 0.160703
O O15 0.000000 0.680052 0.000000
O O16 0.500365 0.671471 0.675544
O O17 0.499672 0.873888 0.717389
O O18 0.499568 0.500000 0.386906
#
# Coordination Sequence:
#
# PCOD9145021 Si02
#       8
#     4   4   4   2   4   4   2   4
#     4  12  21  36  59  79 112 146 179 226 275 328
#     4  12  25  39  58  83 114 153 191 224 266 334
#     4  11  22  35  56  86 113 137 175 230 285 328
#     4  12  20  36  57  84 112 148 185 226 280 322
#     4   9  17  30  49  74 103 138 183 229 273 322
#     4  12  23  38  57  83 117 150 186 231 276 331
#     4  12  22  38  56  84 114 148 188 230 276 320
#     4  10  19  31  49  75 109 144 176 221 279 328
#
# _framework density 17.613564
#
# number of rings (size 3 to 8) (size 9 to 14) (size 15 to 20)
#    0.000    0.857    4.286    4.714    0.000    4.000 
#    0.000    0.000    0.000    2.571    0.000    3.000 
#    0.000    0.000    0.000    0.000    0.000    0.000 
#
# Total GULP energy -156349.598656 kJ/mol
# GULP energy per Si atom -5583.914238 kJ/mol
# Density = 1.757347 g / cm^3
# Si number density = 17.613564 Si / 1000 Ang^3
#
#
#
# Elastic Constant Matrix: (Units=GPa)
#
#
# Indices 1 2 3 4 5 6 
#
# 1 111.5020 4.1646 76.1289 0.0000 2.9414 0.0000
# 2 4.1646 64.9771 19.0228 0.0000 2.0745 0.0000
# 3 76.1289 19.0228 179.2687 0.0000 20.9780 0.0000
# 4 0.0000 0.0000 0.0000 2.9142 0.0000 2.8251
# 5 2.9414 2.0745 20.9780 0.0000 10.5548 0.0000
# 6 0.0000 0.0000 0.0000 2.8251 0.0000 -11.2830
#
#
#
# Elastic Compliance Matrix: (Units=1/GPa)
#
#
# Indices 1 2 3 4 5 6 
#
# 1 0.013419 0.000858 -0.006948 0.000000 0.009902 0.000000
# 2 0.000858 0.015939 -0.002165 0.000000 0.000930 0.000000
# 3 -0.006948 -0.002165 0.011053 0.000000 -0.019606 0.000000
# 4 0.000000 0.000000 0.000000 0.276122 0.000000 0.069137
# 5 0.009902 0.000930 -0.019606 0.000000 0.130770 0.000000
# 6 0.000000 0.000000 0.000000 0.069137 0.000000 -0.071318
#
#
# Mechanical properties :
#
#
# Convention : Reuss Voigt Hill
#
# Bulk Modulus (GPa) = 41.83870 61.59783 51.71826
# Shear Modulus (GPa) = 12.48555 17.53263 15.00909
#
# Velocity S-wave (km/s) = 2.66533 3.15843 2.92230
# Velocity P-wave (km/s) = 5.76864 6.95332 6.38850
#
# Compressibility (1/GPa) = 0.02390132
#
# Stress axis : x y z
#
# Youngs Moduli (GPa) = 74.51941 62.73901 90.47293
#
# Poissons Ratio (x) = -0.05383 0.62865
# Poissons Ratio (y) = -0.06394 0.19584
# Poissons Ratio (z) = 0.51780 0.13580
#
# Static dielectric constant tensor:
#      x y z
#    x 1.570430 0.000000 0.005950 
#    y 0.000000 1.615850 0.000000 
#    z 0.005950 0.000000 1.610950 
# 
# From -- ./inp_files/94018.got.cif
#   From: 2010.05.17/outbox.cif.g08.bks.cpg/sg10_48_cif.got.tgz:94018.got - 2010.06.03 11:33:40.
