data_PCOD9145208
_publ_section_title
;
Structure prediction by ZEFSAII (Michael W. Deem and Ramdas Pophale) SiO2 
 PCOD9145208
Probable space group: P 2/M
;
_chemical_formula_sum "Si O2"
_cell_formula_units_Z 28
_cell_length_a 13.796432
_cell_length_b 9.029981
_cell_length_c 13.684028
_cell_angle_alpha 90.000000
_cell_angle_beta 116.055923
_cell_angle_gamma 90.000000
_cell_volume 1531.513261
_symmetry_space_group_name_H-M "P 2/M"
_symmetry_group_IT_number 10
_symmetry_cell_setting 'monoclinic'
loop_
_space_group_symop_operation_xyz
x,y,z
-x,y,-z
-x,-y,-z
x,-y,z
loop_
_atom_site_type_symbol
_atom_site_label
_atom_site_fract_x
_atom_site_fract_y
_atom_site_fract_z
Si Si1 0.115909 0.327458 0.663171
Si Si2 0.325192 0.327332 0.889198
Si Si3 0.106527 0.676897 0.327240
Si Si4 0.556815 0.177671 0.237044
Si Si5 0.898015 0.821320 0.886788
Si Si6 0.319481 0.177867 0.097564
Si Si7 0.759399 0.176551 0.454121
O O1 0.112789 0.500000 0.629244
O O2 0.207177 0.315714 0.787120
O O3 0.155838 0.227824 0.591596
O O4 0.001294 0.287701 0.658112
O O5 0.352052 0.500000 0.911578
O O6 0.405648 0.251851 0.847526
O O7 0.323764 0.249263 0.992663
O O8 0.114758 0.500000 0.324745
O O9 0.095457 0.746296 0.215574
O O10 0.206307 0.744537 0.431217
O O11 0.432268 0.214603 0.200789
O O12 0.642562 0.220702 0.358503
O O13 0.565652 0.000000 0.229440
O O14 0.787087 0.776608 0.891244
O O15 0.897745 0.000000 0.874883
O O16 0.000000 0.782538 0.000000
O O17 0.314939 0.000000 0.084299
O O18 0.762424 0.000000 0.467334
#
# Coordination Sequence:
#
# PCOD9145208 Si02
#       7
#     4   4   4   4   4   4   4
#     4   9  19  34  51  76 110 142 170 205 257 316
#     4  10  19  31  51  80 110 138 170 211 257 306
#     4  11  22  36  55  77 105 141 174 209 259 313
#     4   9  19  35  53  75 105 140 174 209 256 311
#     4  10  22  39  58  80 104 132 172 219 258 298
#     4  10  20  35  54  75 103 139 175 213 259 308
#     4  10  20  34  54  79 105 135 174 217 256 300
#
# _framework density 18.282571000000001
#
# number of rings (size 3 to 8) (size 9 to 14) (size 15 to 20)
#    0.000    2.143    0.000    3.000    0.000    7.143 
#    0.000    0.714    0.000    4.286    0.000    0.000 
#    0.000    0.000    0.000    0.000    0.000    0.000 
#
# Total GULP energy -156360.661797 kJ/mol
# GULP energy per Si atom -5584.309350 kJ/mol
# Density = 1.824096 g / cm^3
# Si number density = 18.282571 Si / 1000 Ang^3
#
#
#
# Elastic Constant Matrix: (Units=GPa)
#
#
# Indices 1 2 3 4 5 6 
#
# 1 113.4756 38.0964 67.8298 0.0000 25.6874 0.0000
# 2 38.0964 29.7920 50.8431 0.0000 6.9404 0.0000
# 3 67.8298 50.8431 145.1243 0.0000 7.5230 0.0000
# 4 0.0000 0.0000 0.0000 -198.5672 0.0000 61.8004
# 5 25.6874 6.9404 7.5230 0.0000 13.7839 0.0000
# 6 0.0000 0.0000 0.0000 61.8004 0.0000 0.2146
#
#
#
# Elastic Compliance Matrix: (Units=1/GPa)
#
#
# Indices 1 2 3 4 5 6 
#
# 1 0.024894 -0.016932 -0.003849 0.000000 -0.035766 0.000000
# 2 -0.016932 0.105892 -0.028873 0.000000 -0.006006 0.000000
# 3 -0.003849 -0.028873 0.018194 0.000000 0.011781 0.000000
# 4 0.000000 0.000000 0.000000 -0.000056 0.000000 0.016003
# 5 -0.035766 -0.006006 0.011781 0.000000 0.135794 0.000000
# 6 0.000000 0.000000 0.000000 0.016003 0.000000 0.051417
#
#
# Mechanical properties :
#
#
# Convention : Reuss Voigt Hill
#
# Bulk Modulus (GPa) = 20.13223 66.88118 43.50670
# Shear Modulus (GPa) = 11.06192 -28.13888 -8.53848
#
# Velocity S-wave (km/s) = 2.46245 -3.92741 -2.16343
# Velocity P-wave (km/s) = 4.37270 4.01190 4.19618
#
# Compressibility (1/GPa) = 0.04967160
#
# Stress axis : x y z
#
# Youngs Moduli (GPa) = 40.17031 9.44362 54.96175
#
# Poissons Ratio (x) = 0.15990 0.21156
# Poissons Ratio (y) = 0.68016 1.58691
# Poissons Ratio (z) = 0.15463 0.27267
#
# Static dielectric constant tensor:
#      x y z
#    x 1.622530 0.000000 0.039140 
#    y 0.000000 1.607100 0.000000 
#    z 0.039140 0.000000 1.618880 
# 
# From -- ./inp_files/49308.got.cif
#   From: 2010.05.17/outbox.cif.g08.bks.cpg/sg10_25_cif.got.tgz:49308.got - 2010.06.03 11:33:40.
