data_PCOD9145030
_publ_section_title
;
Structure prediction by ZEFSAII (Michael W. Deem and Ramdas Pophale) SiO2 
 PCOD9145030
Probable space group: P 2/M
;
_chemical_formula_sum "Si O2"
_cell_formula_units_Z 28
_cell_length_a 12.242514
_cell_length_b 7.514931
_cell_length_c 14.987830
_cell_angle_alpha 90.000000
_cell_angle_beta 116.254719
_cell_angle_gamma 90.000000
_cell_volume 1236.652126
_symmetry_space_group_name_H-M "P 2/M"
_symmetry_group_IT_number 10
_symmetry_cell_setting 'monoclinic'
loop_
_space_group_symop_operation_xyz
x,y,z
-x,y,-z
-x,-y,-z
x,-y,z
loop_
_atom_site_type_symbol
_atom_site_label
_atom_site_fract_x
_atom_site_fract_y
_atom_site_fract_z
Si Si1 0.088910 0.791583 0.110125
Si Si2 0.873937 0.208787 0.497195
Si Si3 0.640817 0.202344 0.790256
Si Si4 0.617728 0.286503 0.983086
Si Si5 0.751213 0.285292 0.199815
Si Si6 0.018295 0.713442 0.283906
Si Si7 0.622099 0.793088 0.328840
O O1 0.225401 0.712548 0.169523
O O2 0.033612 0.777703 0.188730
O O3 0.106717 0.000000 0.093350
O O4 0.000000 0.718169 0.000000
O O5 0.885319 0.225638 0.607926
O O6 0.744418 0.285727 0.417656
O O7 0.000000 0.284584 0.500000
O O8 0.871769 0.000000 0.472048
O O9 0.514082 0.283013 0.707141
O O10 0.648911 0.000000 0.757544
O O11 0.621754 0.197164 0.889776
O O12 0.619341 0.500000 0.968451
O O13 0.726484 0.235750 0.088690
O O14 0.500000 0.246586 0.000000
O O15 0.742243 0.500000 0.200747
O O16 0.654852 0.214839 0.235637
O O17 0.886491 0.227042 0.272569
O O18 0.018767 0.500000 0.281510
O O19 0.614568 0.000000 0.353087
#
# Coordination Sequence:
#
# PCOD9145030 Si02
#       7
#     4   4   4   4   4   4   4
#     4  10  22  41  62  83 112 151 193 235 279 332
#     4  10  20  36  58  84 114 150 188 230 283 340
#     4  10  21  36  55  81 110 144 188 236 280 325
#     4  10  19  31  49  76 111 148 180 215 273 342
#     4  10  20  33  50  78 114 146 179 222 276 334
#     4  11  23  37  58  86 114 148 191 237 282 332
#     4  10  20  34  54  81 111 142 181 227 278 331
#
# _framework density 22.641776
#
# number of rings (size 3 to 8) (size 9 to 14) (size 15 to 20)
#    0.000    1.857    2.857    1.286    0.000    3.143 
#    0.000    0.714    0.000    4.286    0.000    0.000 
#    0.000    0.000    0.000    0.000    0.000    0.000 
#
# Total GULP energy -156249.245464 kJ/mol
# GULP energy per Si atom -5580.330195 kJ/mol
# Density = 2.259024 g / cm^3
# Si number density = 22.641776 Si / 1000 Ang^3
#
#
#
# Elastic Constant Matrix: (Units=GPa)
#
#
# Indices 1 2 3 4 5 6 
#
# 1 119.5042 3.8998 43.8844 0.0000 38.1634 0.0000
# 2 3.8998 61.9444 -2.5891 0.0000 9.6125 0.0000
# 3 43.8844 -2.5891 126.1315 0.0000 31.8168 0.0000
# 4 0.0000 0.0000 0.0000 18.1609 0.0000 -17.0983
# 5 38.1634 9.6125 31.8168 0.0000 46.2746 0.0000
# 6 0.0000 0.0000 0.0000 -17.0983 0.0000 6.8419
#
#
#
# Elastic Compliance Matrix: (Units=1/GPa)
#
#
# Indices 1 2 3 4 5 6 
#
# 1 0.011773 0.000492 -0.001949 0.000000 -0.008471 0.000000
# 2 0.000492 0.016931 0.001411 0.000000 -0.004892 0.000000
# 3 -0.001949 0.001411 0.010046 0.000000 -0.005593 0.000000
# 4 0.000000 0.000000 0.000000 -0.040702 0.000000 -0.101718
# 5 -0.008471 -0.004892 -0.005593 0.000000 0.033458 0.000000
# 6 0.000000 0.000000 0.000000 -0.101718 0.000000 -0.108039
#
#
# Mechanical properties :
#
#
# Convention : Reuss Voigt Hill
#
# Bulk Modulus (GPa) = 25.86889 44.21893 35.04391
# Shear Modulus (GPa) = -78.67213 31.74781 -23.46216
#
# Velocity S-wave (km/s) = -5.90101 3.74863 -3.22255
# Velocity P-wave (km/s) = 5.91431 6.18939 1.29024
#
# Compressibility (1/GPa) = 0.03865647
#
# Stress axis : x y z
#
# Youngs Moduli (GPa) = 84.94069 59.06425 99.54064
#
# Poissons Ratio (x) = -0.02906 0.19401
# Poissons Ratio (y) = -0.04178 -0.14040
# Poissons Ratio (z) = 0.16556 -0.08331
#
# Static dielectric constant tensor:
#      x y z
#    x 1.854670 0.000000 0.087190 
#    y 0.000000 1.839500 0.000000 
#    z 0.087190 0.000000 1.861200 
# 
# From -- ./inp_files/49113.got.cif
#   From: 2010.05.17/outbox.cif.g08.bks.cpg/sg10_25_cif.got.tgz:49113.got - 2010.06.03 11:33:40.
