data_PCOD9145613
_publ_section_title
;
Structure prediction by ZEFSAII (Michael W. Deem and Ramdas Pophale) SiO2 
 PCOD9145613
Probable space group: P 2/M
;
_chemical_formula_sum "Si O2"
_cell_formula_units_Z 22
_cell_length_a 20.468385
_cell_length_b 12.509409
_cell_length_c 5.303550
_cell_angle_alpha 90.000000
_cell_angle_beta 71.870397
_cell_angle_gamma 90.000000
_cell_volume 1290.544371
_symmetry_space_group_name_H-M "P 2/M"
_symmetry_group_IT_number 10
_symmetry_cell_setting 'monoclinic'
loop_
_space_group_symop_operation_xyz
x,y,z
-x,y,-z
-x,-y,-z
x,-y,z
loop_
_atom_site_type_symbol
_atom_site_label
_atom_site_fract_x
_atom_site_fract_y
_atom_site_fract_z
Si Si1 0.147654 0.124436 0.414570
Si Si2 0.000000 0.197203 0.500000
Si Si3 0.935851 0.385247 0.894419
Si Si4 0.336321 0.629589 0.703343
Si Si5 0.190697 0.746812 0.855794
Si Si6 0.578422 0.629288 0.899477
O O1 0.063651 0.132276 0.539481
O O2 0.179317 0.179357 0.624772
O O3 0.165798 0.000000 0.374981
O O4 0.174004 0.186485 0.131832
O O5 0.041134 0.280779 0.280477
O O6 0.927146 0.500000 0.768085
O O7 0.864543 0.350103 0.103676
O O8 0.000000 0.397960 0.000000
O O9 0.324857 0.500000 0.717465
O O10 0.265147 0.693258 0.780941
O O11 0.381479 0.657418 0.403544
O O12 0.378633 0.658425 0.904022
O O13 0.574653 0.500000 0.905926
O O14 0.500000 0.669491 0.000000
#
# Coordination Sequence:
#
# PCOD9145613 Si02
#       6
#     4   2   4   4   4   4
#     4  11  23  38  56  73  98 131 178 232 281 315
#     4  10  20  36  52  76  96 134 176 230 268 322
#     4  10  19  33  50  73 104 140 176 212 254 306
#     4  10  19  32  51  79 113 147 173 205 253 305
#     4  11  22  37  53  78 105 137 177 221 263 317
#     4   9  17  30  50  77 112 149 178 201 236 297
#
# _framework density 17.047070999999999
#
# number of rings (size 3 to 8) (size 9 to 14) (size 15 to 20)
#    0.000    1.818    1.818    3.273    0.000    2.182 
#    0.000    4.545    0.000    0.000    0.000    0.000 
#    0.000   50.909    0.000    0.000    0.000    0.000 
#
# Total GULP energy -122506.431503 kJ/mol
# GULP energy per Si atom -5568.474159 kJ/mol
# Density = 1.700827 g / cm^3
# Si number density = 17.047071 Si / 1000 Ang^3
#
#
#
# Elastic Constant Matrix: (Units=GPa)
#
#
# Indices 1 2 3 4 5 6 
#
# 1 149.6007 50.7953 69.2391 0.0000 -9.9385 0.0000
# 2 50.7953 75.5946 40.0440 0.0000 -2.7971 0.0000
# 3 69.2391 40.0440 115.0244 0.0000 5.0989 0.0000
# 4 0.0000 0.0000 0.0000 19.1417 0.0000 4.9631
# 5 -9.9385 -2.7971 5.0989 0.0000 30.9418 0.0000
# 6 0.0000 0.0000 0.0000 4.9631 0.0000 26.3870
#
#
#
# Elastic Compliance Matrix: (Units=1/GPa)
#
#
# Indices 1 2 3 4 5 6 
#
# 1 0.010827 -0.004396 -0.005161 0.000000 0.003931 0.000000
# 2 -0.004396 0.018185 -0.003722 0.000000 0.000846 0.000000
# 3 -0.005161 -0.003722 0.013282 0.000000 -0.004183 0.000000
# 4 0.000000 0.000000 0.000000 0.054920 0.000000 -0.010330
# 5 0.003931 0.000846 -0.004183 0.000000 0.034347 0.000000
# 6 0.000000 0.000000 0.000000 -0.010330 0.000000 0.039840
#
#
# Mechanical properties :
#
#
# Convention : Reuss Voigt Hill
#
# Bulk Modulus (GPa) = 63.55070 73.37518 68.46294
# Shear Modulus (GPa) = 24.60566 27.30352 25.95459
#
# Velocity S-wave (km/s) = 3.80333 4.00641 3.90619
# Velocity P-wave (km/s) = 7.52645 8.03355 7.78413
#
# Compressibility (1/GPa) = 0.01573547
#
# Stress axis : x y z
#
# Youngs Moduli (GPa) = 92.36347 54.98989 75.29011
#
# Poissons Ratio (x) = 0.24171 0.38859
# Poissons Ratio (y) = 0.40599 0.28027
# Poissons Ratio (z) = 0.47671 0.20470
#
# Static dielectric constant tensor:
#      x y z
#    x 1.589020 0.000000 -0.025550 
#    y 0.000000 1.628180 0.000000 
#    z -0.025550 0.000000 1.560750 
# 
# From -- ./inp_files/10921.got.cif
#   From: 2010.05.17/outbox.cif.g08.bks.cpg/sg10_6_cif.got.tgz:10921.got - 2010.06.03 11:33:40.
