data_PCOD9145930
_publ_section_title
;
Structure prediction by ZEFSAII (Michael W. Deem and Ramdas Pophale) SiO2 
 PCOD9145930
Probable space group: P 2/M
;
_chemical_formula_sum "Si O2"
_cell_formula_units_Z 32
_cell_length_a 29.250791
_cell_length_b 7.569701
_cell_length_c 10.788214
_cell_angle_alpha 90.000000
_cell_angle_beta 150.270038
_cell_angle_gamma 90.000000
_cell_volume 1184.598682
_symmetry_space_group_name_H-M "P 2/M"
_symmetry_group_IT_number 10
_symmetry_cell_setting 'monoclinic'
loop_
_space_group_symop_operation_xyz
x,y,z
-x,y,-z
-x,-y,-z
x,-y,z
loop_
_atom_site_type_symbol
_atom_site_label
_atom_site_fract_x
_atom_site_fract_y
_atom_site_fract_z
Si Si1 0.026709 0.289351 0.244090
Si Si2 0.847093 0.202401 0.946934
Si Si3 0.367913 0.713941 0.776519
Si Si4 0.352070 0.790449 0.468364
Si Si5 0.697756 0.212350 0.018345
Si Si6 0.517034 0.794832 0.708588
Si Si7 0.867019 0.290720 0.263232
Si Si8 0.186162 0.703437 0.463663
O O1 0.041839 0.500000 0.273881
O O2 0.075170 0.220288 0.483892
O O3 0.087989 0.217747 0.274359
O O4 0.918405 0.267556 0.011803
O O5 0.748411 0.291252 0.742000
O O6 0.831414 0.000000 0.880925
O O7 0.892406 0.215795 0.190057
O O8 0.370613 0.500000 0.790558
O O9 0.398750 0.770704 0.713292
O O10 0.261756 0.778474 0.547421
O O11 0.425025 0.787202 0.026263
O O12 0.419647 0.715234 0.522491
O O13 0.340902 0.000000 0.415105
O O14 0.759916 0.254525 0.045729
O O15 0.755669 0.291798 0.269587
O O16 0.696281 0.000000 0.028244
O O17 0.591660 0.273937 0.784332
O O18 0.499409 0.000000 0.636687
O O19 0.882082 0.500000 0.292543
O O20 0.172651 0.500000 0.395715
#
# Coordination Sequence:
#
# PCOD9145930 Si02
#       8
#     4   4   4   4   4   4   4   4
#     4   9  18  34  55  76 100 132 165 200 252 311
#     4  11  23  36  51  73 101 134 174 216 250 289
#     4  10  19  32  54  82 105 129 168 213 252 295
#     4  10  22  38  51  69 103 142 174 206 251 302
#     4   9  16  28  51  80 102 125 164 209 248 291
#     4   9  18  34  55  76 102 137 170 203 250 304
#     4  10  20  35  55  77 103 134 164 201 255 311
#     4   8  16  31  50  75 106 133 159 200 254 305
#
# _framework density 27.013369000000001
#
# number of rings (size 3 to 8) (size 9 to 14) (size 15 to 20)
#    0.000    2.500    0.000    3.000    0.000    8.000 
#    0.000    1.250    0.000    7.500    0.000    0.000 
#    0.000    0.000    0.000    0.000    0.000    0.000 
#
# Total GULP energy -178954.919165 kJ/mol
# GULP energy per Si atom -5592.341224 kJ/mol
# Density = 2.695189 g / cm^3
# Si number density = 27.013369 Si / 1000 Ang^3
#
#
#
# Elastic Constant Matrix: (Units=GPa)
#
#
# Indices 1 2 3 4 5 6 
#
# 1 235.2323 6.6144 52.2828 0.0000 41.3404 0.0000
# 2 6.6144 93.3945 3.1297 0.0000 -0.9146 0.0000
# 3 52.2828 3.1297 121.0646 0.0000 36.2743 0.0000
# 4 0.0000 0.0000 0.0000 -58.8394 0.0000 -30.9778
# 5 41.3404 -0.9146 36.2743 0.0000 61.4625 0.0000
# 6 0.0000 0.0000 0.0000 -30.9778 0.0000 15.0663
#
#
#
# Elastic Compliance Matrix: (Units=1/GPa)
#
#
# Indices 1 2 3 4 5 6 
#
# 1 0.005020 -0.000334 -0.001392 0.000000 -0.002560 0.000000
# 2 -0.000334 0.010747 -0.000302 0.000000 0.000563 0.000000
# 3 -0.001392 -0.000302 0.010435 0.000000 -0.005227 0.000000
# 4 0.000000 0.000000 0.000000 -0.008161 0.000000 -0.016780
# 5 -0.002560 0.000563 -0.005227 0.000000 0.021085 0.000000
# 6 0.000000 0.000000 0.000000 -0.016780 0.000000 0.031872
#
#
# Mechanical properties :
#
#
# Convention : Reuss Voigt Hill
#
# Bulk Modulus (GPa) = 45.15767 63.74945 54.45356
# Shear Modulus (GPa) = 60.65325 29.38216 45.01771
#
# Velocity S-wave (km/s) = 4.74361 3.30159 4.08670
# Velocity P-wave (km/s) = 6.83780 6.17936 6.51690
#
# Compressibility (1/GPa) = 0.02214463
#
# Stress axis : x y z
#
# Youngs Moduli (GPa) = 199.21144 93.05300 95.82944
#
# Poissons Ratio (x) = 0.03107 0.13342
# Poissons Ratio (y) = 0.06652 0.02897
# Poissons Ratio (z) = 0.27736 0.02813
#
# Static dielectric constant tensor:
#      x y z
#    x 2.099940 0.000000 0.025280 
#    y 0.000000 1.988700 0.000000 
#    z 0.025280 0.000000 2.252440 
# 
# From -- ./inp_files/58344.got.cif
#   From: 2010.05.17/outbox.cif.g08.bks.cpg/sg10_30_cif.got.tgz:58344.got - 2010.06.03 11:33:40.
