data_PCOD9145312
_publ_section_title
;
Structure prediction by ZEFSAII (Michael W. Deem and Ramdas Pophale) SiO2 
 PCOD9145312
Probable space group: P 2/M
;
_chemical_formula_sum "Si O2"
_cell_formula_units_Z 32
_cell_length_a 12.688700
_cell_length_b 10.579802
_cell_length_c 24.747829
_cell_angle_alpha 90.000000
_cell_angle_beta 150.886646
_cell_angle_gamma 90.000000
_cell_volume 1616.402266
_symmetry_space_group_name_H-M "P 2/M"
_symmetry_group_IT_number 10
_symmetry_cell_setting 'monoclinic'
loop_
_space_group_symop_operation_xyz
x,y,z
-x,y,-z
-x,-y,-z
x,-y,z
loop_
_atom_site_type_symbol
_atom_site_label
_atom_site_fract_x
_atom_site_fract_y
_atom_site_fract_z
Si Si1 0.927619 0.646863 0.622642
Si Si2 0.582738 0.645411 0.177635
Si Si3 0.308930 0.653350 0.954451
Si Si4 0.377189 0.134929 0.717728
Si Si5 0.333222 0.643208 0.269142
Si Si6 0.156660 0.652261 0.299654
Si Si7 0.854732 0.859296 0.883794
Si Si8 0.186215 0.706735 0.546554
O O1 0.861310 0.500000 0.582687
O O2 0.816745 0.698827 0.627176
O O3 0.890443 0.717338 0.549478
O O4 0.186202 0.644090 0.749938
O O5 0.547974 0.500000 0.180880
O O6 0.615940 0.745952 0.239551
O O7 0.389602 0.684638 0.050987
O O8 0.306952 0.500000 0.951896
O O9 0.072836 0.695402 0.828873
O O10 0.500000 0.696570 0.000000
O O11 0.616543 0.126354 0.801433
O O12 0.230552 0.167124 0.600532
O O13 0.317916 0.000000 0.716577
O O14 0.248027 0.500000 0.225509
O O15 0.337592 0.674335 0.335166
O O16 0.175137 0.745589 0.171414
O O17 0.573023 0.647601 0.350895
O O18 0.142705 0.500000 0.299994
O O19 0.922826 0.000000 0.893834
O O20 0.000000 0.824384 0.000000
O O21 0.000000 0.641103 0.500000
#
# Coordination Sequence:
#
# PCOD9145312 Si02
#       8
#     4   4   4   4   4   4   4   4
#     4  10  19  32  53  80 114 153 186 227 282 339
#     4  10  19  31  53  86 113 143 185 227 275 336
#     4   9  15  27  50  79 113 149 181 221 276 337
#     4  10  22  39  57  81 111 145 184 233 289 338
#     4  10  22  36  55  85 116 147 186 242 288 324
#     4   9  18  33  51  80 119 150 185 229 282 338
#     4   9  20  39  58  77 109 153 190 221 275 352
#     4  11  22  38  55  79 109 152 195 235 287 343
#
# _framework density 19.797053999999999
#
# number of rings (size 3 to 8) (size 9 to 14) (size 15 to 20)
#    0.000    2.250    2.500    0.375    1.750    4.500 
#    0.000    1.875    0.000    1.875    0.000    3.500 
#    0.000    0.000    0.000    0.000    0.000    0.000 
#
# Total GULP energy -178182.157904 kJ/mol
# GULP energy per Si atom -5568.192434 kJ/mol
# Density = 1.975199 g / cm^3
# Si number density = 19.797054 Si / 1000 Ang^3
#
#
#
# Elastic Constant Matrix: (Units=GPa)
#
#
# Indices 1 2 3 4 5 6 
#
# 1 120.6757 41.6962 36.5769 0.0000 -19.3711 0.0000
# 2 41.6962 72.2109 23.9093 0.0000 -23.9669 0.0000
# 3 36.5769 23.9093 93.4566 0.0000 -22.0374 0.0000
# 4 0.0000 0.0000 0.0000 21.4414 0.0000 -8.7720
# 5 -19.3711 -23.9669 -22.0374 0.0000 31.8943 0.0000
# 6 0.0000 0.0000 0.0000 -8.7720 0.0000 -35.4780
#
#
#
# Elastic Compliance Matrix: (Units=1/GPa)
#
#
# Indices 1 2 3 4 5 6 
#
# 1 0.011063 -0.005161 -0.002795 0.000000 0.000910 0.000000
# 2 -0.005161 0.021095 -0.000452 0.000000 0.012405 0.000000
# 3 -0.002795 -0.000452 0.013654 0.000000 0.007397 0.000000
# 4 0.000000 0.000000 0.000000 0.042354 0.000000 -0.010472
# 5 0.000910 0.012405 0.007397 0.000000 0.046339 0.000000
# 6 0.000000 0.000000 0.000000 -0.010472 0.000000 -0.025597
#
#
# Mechanical properties :
#
#
# Convention : Reuss Voigt Hill
#
# Bulk Modulus (GPa) = 34.48601 54.52310 44.50456
# Shear Modulus (GPa) = 36.93060 15.84894 26.38977
#
# Velocity S-wave (km/s) = 4.32378 2.83250 3.65501
# Velocity P-wave (km/s) = 6.51033 6.18856 6.35148
#
# Compressibility (1/GPa) = 0.02899726
#
# Stress axis : x y z
#
# Youngs Moduli (GPa) = 90.39132 47.40428 73.23909
#
# Poissons Ratio (x) = 0.24463 0.20470
# Poissons Ratio (y) = 0.46647 0.03309
# Poissons Ratio (z) = 0.25264 0.02142
#
# Static dielectric constant tensor:
#      x y z
#    x 1.747050 0.000000 0.020900 
#    y 0.000000 1.712640 0.000000 
#    z 0.020900 0.000000 1.755530 
# 
# From -- ./inp_files/88954.got.cif
#   From: 2010.05.17/outbox.cif.g08.bks.cpg/sg10_45_cif.got.tgz:88954.got - 2010.06.03 11:33:40.
