data_PCOD9145191
_publ_section_title
;
Structure prediction by ZEFSAII (Michael W. Deem and Ramdas Pophale) SiO2 
 PCOD9145191
Probable space group: P 2/M
;
_chemical_formula_sum "Si O2"
_cell_formula_units_Z 32
_cell_length_a 24.816084
_cell_length_b 8.646390
_cell_length_c 32.144809
_cell_angle_alpha 90.000000
_cell_angle_beta 164.914132
_cell_angle_gamma 90.000000
_cell_volume 1795.134405
_symmetry_space_group_name_H-M "P 2/M"
_symmetry_group_IT_number 10
_symmetry_cell_setting 'monoclinic'
loop_
_space_group_symop_operation_xyz
x,y,z
-x,y,-z
-x,-y,-z
x,-y,z
loop_
_atom_site_type_symbol
_atom_site_label
_atom_site_fract_x
_atom_site_fract_y
_atom_site_fract_z
Si Si1 0.507115 0.814345 0.869473
Si Si2 0.929702 0.684031 0.156916
Si Si3 0.870385 0.820654 0.360060
Si Si4 0.640418 0.814391 0.488924
Si Si5 0.246247 0.316691 0.598117
Si Si6 0.640507 0.187974 0.643631
Si Si7 0.514408 0.314955 0.306107
Si Si8 0.905347 0.186196 0.045311
O O1 0.356713 0.765267 0.795366
O O2 0.389648 0.767242 0.739275
O O3 0.523117 0.000000 0.882544
O O4 0.731271 0.738436 0.035373
O O5 0.927510 0.500000 0.150712
O O6 0.910059 0.760924 0.096752
O O7 0.142136 0.740072 0.335852
O O8 0.000000 0.816034 0.500000
O O9 0.009378 0.727600 0.431281
O O10 0.859148 0.000000 0.338803
O O11 0.468325 0.765284 0.394684
O O12 0.574435 0.763300 0.394014
O O13 0.659965 0.000000 0.505688
O O14 0.274940 0.500000 0.625033
O O15 0.324718 0.274001 0.610854
O O16 0.500000 0.240368 0.500000
O O17 0.877269 0.235625 0.813436
O O18 0.640439 0.000000 0.642595
O O19 0.515337 0.500000 0.311581
O O20 0.290403 0.259497 0.123466
O O21 0.890247 0.000000 0.032559
#
# Coordination Sequence:
#
# PCOD9145191 Si02
#       8
#     4   4   4   4   4   4   4   4
#     4  10  19  32  53  81 112 147 190 236 279 331
#     4  12  23  36  56  86 119 149 186 237 290 340
#     4   8  16  29  47  76 111 144 185 234 278 328
#     4  11  23  41  63  84 110 151 196 234 283 346
#     4  10  19  31  51  78 114 153 186 228 285 339
#     4   9  18  36  61  88 113 141 187 242 284 332
#     4  11  24  40  55  83 123 154 189 237 287 337
#     4  11  21  37  63  87 111 150 195 236 280 339
#
# _framework density 17.825963000000002
#
# number of rings (size 3 to 8) (size 9 to 14) (size 15 to 20)
#    0.000    1.750    2.500    3.750    0.000    4.750 
#    0.000    5.625    0.000    0.750    0.000    5.250 
#    0.000    0.000    0.000    0.000    0.000    0.000 
#
# Total GULP energy -178650.034286 kJ/mol
# GULP energy per Si atom -5582.813571 kJ/mol
# Density = 1.778539 g / cm^3
# Si number density = 17.825963 Si / 1000 Ang^3
#
#
#
# Elastic Constant Matrix: (Units=GPa)
#
#
# Indices 1 2 3 4 5 6 
#
# 1 108.2583 18.0281 55.7093 0.0000 25.4433 0.0000
# 2 18.0281 32.2480 2.9076 0.0000 12.2838 0.0000
# 3 55.7093 2.9076 87.3738 0.0000 24.1267 0.0000
# 4 0.0000 0.0000 0.0000 -9.7724 0.0000 -29.8707
# 5 25.4433 12.2838 24.1267 0.0000 38.1565 0.0000
# 6 0.0000 0.0000 0.0000 -29.8707 0.0000 22.8142
#
#
#
# Elastic Compliance Matrix: (Units=1/GPa)
#
#
# Indices 1 2 3 4 5 6 
#
# 1 0.015642 -0.006995 -0.009065 0.000000 -0.002446 0.000000
# 2 -0.006995 0.038886 0.006463 0.000000 -0.011941 0.000000
# 3 -0.009065 0.006463 0.019282 0.000000 -0.008228 0.000000
# 4 0.000000 0.000000 0.000000 -0.020457 0.000000 -0.026785
# 5 -0.002446 -0.011941 -0.008228 0.000000 0.036886 0.000000
# 6 0.000000 0.000000 0.000000 -0.026785 0.000000 0.008763
#
#
# Mechanical properties :
#
#
# Convention : Reuss Voigt Hill
#
# Bulk Modulus (GPa) = 18.30952 42.35221 30.33086
# Shear Modulus (GPa) = 36.65684 20.32200 28.48942
#
# Velocity S-wave (km/s) = 4.53965 3.38008 4.00208
# Velocity P-wave (km/s) = 6.14584 6.24849 6.19738
#
# Compressibility (1/GPa) = 0.05461640
#
# Stress axis : x y z
#
# Youngs Moduli (GPa) = 63.93142 25.71609 51.86235
#
# Poissons Ratio (x) = 0.17989 0.47012
# Poissons Ratio (y) = 0.44722 -0.33521
# Poissons Ratio (z) = 0.57953 -0.16621
#
# Static dielectric constant tensor:
#      x y z
#    x 1.604800 0.000000 0.035530 
#    y 0.000000 1.600250 0.000000 
#    z 0.035530 0.000000 1.595180 
# 
# From -- ./inp_files/93716.got.cif
#   From: 2010.05.17/outbox.cif.g08.bks.cpg/sg10_47_cif.got.tgz:93716.got - 2010.06.03 11:33:40.
