data_PCOD9145411
_publ_section_title
;
Structure prediction by ZEFSAII (Michael W. Deem and Ramdas Pophale) SiO2 
 PCOD9145411
Probable space group: P 2/M
;
_chemical_formula_sum "Si O2"
_cell_formula_units_Z 32
_cell_length_a 22.077372
_cell_length_b 8.853782
_cell_length_c 12.077847
_cell_angle_alpha 90.000000
_cell_angle_beta 129.137856
_cell_angle_gamma 90.000000
_cell_volume 1831.133745
_symmetry_space_group_name_H-M "P 2/M"
_symmetry_group_IT_number 10
_symmetry_cell_setting 'monoclinic'
loop_
_space_group_symop_operation_xyz
x,y,z
-x,y,-z
-x,-y,-z
x,-y,z
loop_
_atom_site_type_symbol
_atom_site_label
_atom_site_fract_x
_atom_site_fract_y
_atom_site_fract_z
Si Si1 0.457628 0.821825 0.332038
Si Si2 0.260065 0.181894 0.354914
Si Si3 0.329025 0.825261 0.766947
Si Si4 0.082212 0.318563 0.547369
Si Si5 0.287360 0.319765 0.154827
Si Si6 0.163182 0.825731 0.444117
Si Si7 0.591904 0.680515 0.344166
Si Si8 0.760950 0.681499 0.145390
O O1 0.500000 0.806429 0.500000
O O2 0.376414 0.734558 0.245146
O O3 0.513693 0.752555 0.303518
O O4 0.444703 0.000000 0.297730
O O5 0.252614 0.236708 0.221373
O O6 0.186933 0.224999 0.348566
O O7 0.337298 0.257252 0.497224
O O8 0.269435 0.000000 0.371887
O O9 0.246279 0.818891 0.605051
O O10 0.388757 0.735267 0.757998
O O11 0.307889 0.755045 0.861052
O O12 0.352120 0.000000 0.802539
O O13 0.080583 0.500000 0.547381
O O14 0.102165 0.266378 0.446301
O O15 0.155738 0.269980 0.707797
O O16 0.000000 0.262179 0.500000
O O17 0.284602 0.500000 0.168207
O O18 0.245841 0.281800 0.991269
O O19 0.138698 0.000000 0.412526
O O20 0.589590 0.500000 0.347054
O O21 0.754862 0.500000 0.150738
#
# Coordination Sequence:
#
# PCOD9145411 Si02
#       8
#     4   4   4   4   4   4   4   4
#     4  11  22  35  51  71 100 134 171 217 259 299
#     4  10  19  32  49  72 101 133 172 213 252 298
#     4   9  17  31  51  73  99 132 170 209 254 303
#     4   9  17  31  54  81 106 132 162 200 247 298
#     4  11  22  34  51  74 101 135 171 211 258 306
#     4   8  16  29  47  73 102 129 162 206 247 288
#     4  11  20  31  51  75 100 129 168 217 263 302
#     4   9  19  35  52  75 106 134 167 208 251 302
#
# _framework density 17.475511999999998
#
# number of rings (size 3 to 8) (size 9 to 14) (size 15 to 20)
#    0.000    2.250    1.250    3.375    0.000    5.250 
#    0.000    0.625    0.000    4.500    0.000    5.250 
#    0.000    0.000    0.000    0.000    0.000    0.000 
#
# Total GULP energy -178497.933259 kJ/mol
# GULP energy per Si atom -5578.060414 kJ/mol
# Density = 1.743574 g / cm^3
# Si number density = 17.475512 Si / 1000 Ang^3
#
#
#
# Elastic Constant Matrix: (Units=GPa)
#
#
# Indices 1 2 3 4 5 6 
#
# 1 139.3942 31.5421 37.9159 0.0000 -20.8144 0.0000
# 2 31.5421 43.9953 17.4172 0.0000 -8.9987 0.0000
# 3 37.9159 17.4172 45.7091 0.0000 -19.1919 0.0000
# 4 0.0000 0.0000 0.0000 15.5876 0.0000 -9.7108
# 5 -20.8144 -8.9987 -19.1919 0.0000 23.7490 0.0000
# 6 0.0000 0.0000 0.0000 -9.7108 0.0000 32.8939
#
#
#
# Elastic Compliance Matrix: (Units=1/GPa)
#
#
# Indices 1 2 3 4 5 6 
#
# 1 0.010098 -0.004500 -0.005542 0.000000 0.002666 0.000000
# 2 -0.004500 0.028904 -0.006566 0.000000 0.001701 0.000000
# 3 -0.005542 -0.006566 0.039190 0.000000 0.024325 0.000000
# 4 0.000000 0.000000 0.000000 0.078611 0.000000 0.023207
# 5 0.002666 0.001701 0.024325 0.000000 0.064746 0.000000
# 6 0.000000 0.000000 0.000000 0.023207 0.000000 0.037252
#
#
# Mechanical properties :
#
#
# Convention : Reuss Voigt Hill
#
# Bulk Modulus (GPa) = 22.23482 44.76101 33.49792
# Shear Modulus (GPa) = 16.28624 23.92767 20.10695
#
# Velocity S-wave (km/s) = 3.05609 3.70430 3.39570
# Velocity P-wave (km/s) = 5.02035 6.63061 5.88085
#
# Compressibility (1/GPa) = 0.04497450
#
# Stress axis : x y z
#
# Youngs Moduli (GPa) = 99.03189 34.59779 25.51693
#
# Poissons Ratio (x) = 0.15570 0.14141
# Poissons Ratio (y) = 0.44566 0.16755
# Poissons Ratio (z) = 0.54882 0.22718
#
# Static dielectric constant tensor:
#      x y z
#    x 1.597550 0.000000 -0.017350 
#    y 0.000000 1.585520 0.000000 
#    z -0.017350 0.000000 1.595830 
# 
# From -- ./inp_files/55354.got.cif
#   From: 2010.05.17/outbox.cif.g08.bks.cpg/sg10_28_cif.got.tgz:55354.got - 2010.06.03 11:33:40.
