data_PCOD9145901
_publ_section_title
;
Structure prediction by ZEFSAII (Michael W. Deem and Ramdas Pophale) SiO2 
 PCOD9145901
Probable space group: P 2/M
;
_chemical_formula_sum "Si O2"
_cell_formula_units_Z 32
_cell_length_a 12.120619
_cell_length_b 11.146085
_cell_length_c 25.918096
_cell_angle_alpha 90.000000
_cell_angle_beta 151.613027
_cell_angle_gamma 90.000000
_cell_volume 1664.682928
_symmetry_space_group_name_H-M "P 2/M"
_symmetry_group_IT_number 10
_symmetry_cell_setting 'monoclinic'
loop_
_space_group_symop_operation_xyz
x,y,z
-x,y,-z
-x,-y,-z
x,-y,z
loop_
_atom_site_type_symbol
_atom_site_label
_atom_site_fract_x
_atom_site_fract_y
_atom_site_fract_z
Si Si1 0.721542 0.135080 0.887450
Si Si2 0.679310 0.217687 0.533038
Si Si3 0.086645 0.357876 0.752366
Si Si4 0.977075 0.870604 0.565402
Si Si5 0.890488 0.355349 0.123418
Si Si6 0.561826 0.644374 0.892376
Si Si7 0.364878 0.210717 0.661636
Si Si8 0.577683 0.358952 0.664484
O O1 0.636176 0.254533 0.882255
O O2 0.588585 0.148067 0.778171
O O3 0.664683 0.000000 0.884798
O O4 0.000000 0.141595 0.000000
O O5 0.500000 0.159919 0.500000
O O6 0.857364 0.142255 0.571337
O O7 0.537814 0.291748 0.431437
O O8 0.847318 0.301418 0.635720
O O9 0.052051 0.500000 0.742306
O O10 0.160925 0.312653 0.839715
O O11 0.293844 0.339182 0.797451
O O12 0.772723 0.862711 0.439000
O O13 0.171106 0.775659 0.626932
O O14 0.094774 0.000000 0.610548
O O15 0.883011 0.500000 0.121896
O O16 0.154699 0.320137 0.219741
O O17 0.712264 0.324925 0.005284
O O18 0.597897 0.500000 0.894626
O O19 0.445580 0.326802 0.663083
O O20 0.570528 0.500000 0.651727
#
# Coordination Sequence:
#
# PCOD9145901 Si02
#       8
#     4   4   4   4   4   4   4   4
#     4  11  23  38  58  82 111 148 187 230 285 345
#     4  11  21  34  54  82 113 145 180 220 280 346
#     4  10  19  32  54  80 110 146 182 221 269 334
#     4  10  21  38  59  77 102 141 187 237 278 324
#     4   9  17  32  54  79 108 146 185 221 267 325
#     4  10  21  36  56  84 111 143 189 237 279 324
#     4  10  20  37  58  81 105 144 191 228 276 334
#     4  10  20  33  54  83 116 148 178 223 277 334
#
# _framework density 19.222881000000001
#
# number of rings (size 3 to 8) (size 9 to 14) (size 15 to 20)
#    0.000    1.875    1.250    3.750    0.000    3.000 
#    0.000    5.625    0.000    2.250    0.000    0.000 
#    0.000    0.000    0.000    0.000    0.000    0.000 
#
# Total GULP energy -178235.683061 kJ/mol
# GULP energy per Si atom -5569.865096 kJ/mol
# Density = 1.917913 g / cm^3
# Si number density = 19.222881 Si / 1000 Ang^3
#
#
#
# Elastic Constant Matrix: (Units=GPa)
#
#
# Indices 1 2 3 4 5 6 
#
# 1 100.9278 35.6325 10.9256 0.0000 -5.0997 0.0000
# 2 35.6325 50.9774 3.8498 0.0000 1.9287 0.0000
# 3 10.9256 3.8498 93.9033 0.0000 -0.5560 0.0000
# 4 0.0000 0.0000 0.0000 7.0050 0.0000 -4.8438
# 5 -5.0997 1.9287 -0.5560 0.0000 19.6735 0.0000
# 6 0.0000 0.0000 0.0000 -4.8438 0.0000 2.3301
#
#
#
# Elastic Compliance Matrix: (Units=1/GPa)
#
#
# Indices 1 2 3 4 5 6 
#
# 1 0.013658 -0.009627 -0.001168 0.000000 0.004451 0.000000
# 2 -0.009627 0.026539 0.000002 0.000000 -0.005097 0.000000
# 3 -0.001168 0.000002 0.010785 0.000000 0.000002 0.000000
# 4 0.000000 0.000000 0.000000 -0.326342 0.000000 -0.678401
# 5 0.004451 -0.005097 0.000002 0.000000 0.052483 0.000000
# 6 0.000000 0.000000 0.000000 -0.678401 0.000000 -0.981091
#
#
# Mechanical properties :
#
#
# Convention : Reuss Voigt Hill
#
# Bulk Modulus (GPa) = 34.01913 38.51381 36.26647
# Shear Modulus (GPa) = -4.26409 18.82841 7.28216
#
# Velocity S-wave (km/s) = -1.49099 3.13306 1.94846
# Velocity P-wave (km/s) = 3.84338 5.75908 4.89584
#
# Compressibility (1/GPa) = 0.02939522
#
# Stress axis : x y z
#
# Youngs Moduli (GPa) = 73.21553 37.68109 92.72054
#
# Poissons Ratio (x) = 0.36276 0.10831
# Poissons Ratio (y) = 0.70486 -0.00018
# Poissons Ratio (z) = 0.08552 -0.00007
#
# Static dielectric constant tensor:
#      x y z
#    x 1.720760 0.000000 -0.004480 
#    y 0.000000 1.679910 0.000000 
#    z -0.004480 0.000000 1.666430 
# 
# From -- ./inp_files/88936.got.cif
#   From: 2010.05.17/outbox.cif.g08.bks.cpg/sg10_45_cif.got.tgz:88936.got - 2010.06.03 11:33:40.
