data_PCOD9145024
_publ_section_title
;
Structure prediction by ZEFSAII (Michael W. Deem and Ramdas Pophale) SiO2 
 PCOD9145024
Probable space group: P 2/M
;
_chemical_formula_sum "Si O2"
_cell_formula_units_Z 32
_cell_length_a 12.818554
_cell_length_b 7.317360
_cell_length_c 24.739346
_cell_angle_alpha 90.000000
_cell_angle_beta 147.676684
_cell_angle_gamma 90.000000
_cell_volume 1240.762999
_symmetry_space_group_name_H-M "P 2/M"
_symmetry_group_IT_number 10
_symmetry_cell_setting 'monoclinic'
loop_
_space_group_symop_operation_xyz
x,y,z
-x,y,-z
-x,-y,-z
x,-y,z
loop_
_atom_site_type_symbol
_atom_site_label
_atom_site_fract_x
_atom_site_fract_y
_atom_site_fract_z
Si Si1 0.940419 0.791593 0.416276
Si Si2 0.800164 0.290047 0.938306
Si Si3 0.651807 0.220142 0.762644
Si Si4 0.362041 0.205431 0.018074
Si Si5 0.183345 0.777561 0.362556
Si Si6 0.636786 0.791394 0.454135
Si Si7 0.769044 0.223778 0.233616
Si Si8 0.043618 0.222670 0.189528
O O1 0.143255 0.801139 0.472221
O O2 0.000000 0.707873 0.500000
O O3 0.792507 0.715259 0.306507
O O4 0.872168 0.000000 0.398873
O O5 0.836014 0.500000 0.968742
O O6 0.649257 0.285300 0.822502
O O7 0.718764 0.196297 0.955774
O O8 0.000000 0.212426 0.000000
O O9 0.488785 0.287836 0.649531
O O10 0.853347 0.272618 0.821255
O O11 0.639529 0.000000 0.759978
O O12 0.575387 0.288882 0.118470
O O13 0.389397 0.000000 0.008803
O O14 0.179456 0.287527 0.905800
O O15 0.337709 0.711774 0.474771
O O16 0.966643 0.729025 0.288816
O O17 0.180834 0.720348 0.299268
O O18 0.197226 0.000000 0.369807
O O19 0.562142 0.000000 0.428678
O O20 0.760612 0.000000 0.231772
O O21 0.035278 0.000000 0.187217
#
# Coordination Sequence:
#
# PCOD9145024 Si02
#       8
#     4   4   4   4   4   4   4   4
#     4   8  13  21  33  56  89 124 161 194 226 275
#     4  11  23  37  51  68  95 132 162 195 243 290
#     4  10  19  31  49  75  99 125 161 200 242 284
#     4  10  19  31  49  75  99 125 161 200 242 284
#     4   8  14  27  42  66 105 134 156 194 240 285
#     4   8  15  25  40  65  98 131 158 191 237 283
#     4   8  15  25  40  65  98 131 158 191 237 283
#     4   9  17  27  43  68  99 129 159 199 244 283
#
# _framework density 25.790582000000001
#
# number of rings (size 3 to 8) (size 9 to 14) (size 15 to 20)
#    0.000    3.000    1.250    1.875    1.750    1.500 
#    0.000    5.000    0.000    0.000    0.000   12.250 
#    0.000    0.000    0.000    0.000    0.000    0.000 
#
# Total GULP energy -178729.004687 kJ/mol
# GULP energy per Si atom -5585.281396 kJ/mol
# Density = 2.573188 g / cm^3
# Si number density = 25.790582 Si / 1000 Ang^3
#
#
#
# Elastic Constant Matrix: (Units=GPa)
#
#
# Indices 1 2 3 4 5 6 
#
# 1 72.9000 -1.8969 4.5896 0.0000 -21.0378 0.0000
# 2 -1.8969 107.6939 1.9251 0.0000 -1.3717 0.0000
# 3 4.5896 1.9251 153.3579 0.0000 -17.9362 0.0000
# 4 0.0000 0.0000 0.0000 25.7652 0.0000 -21.7610
# 5 -21.0378 -1.3717 -17.9362 0.0000 49.7679 0.0000
# 6 0.0000 0.0000 0.0000 -21.7610 0.0000 -37.7258
#
#
#
# Elastic Compliance Matrix: (Units=1/GPa)
#
#
# Indices 1 2 3 4 5 6 
#
# 1 0.015652 0.000356 0.000315 0.000000 0.006740 0.000000
# 2 0.000356 0.009298 -0.000083 0.000000 0.000377 0.000000
# 3 0.000315 -0.000083 0.006815 0.000000 0.002587 0.000000
# 4 0.000000 0.000000 0.000000 0.026098 0.000000 -0.015054
# 5 0.006740 0.000377 0.002587 0.000000 0.023885 0.000000
# 6 0.000000 0.000000 0.000000 -0.015054 0.000000 -0.017824
#
#
# Mechanical properties :
#
#
# Convention : Reuss Voigt Hill
#
# Bulk Modulus (GPa) = 30.35759 38.13196 34.24477
# Shear Modulus (GPa) = 67.81658 29.51705 48.66681
#
# Velocity S-wave (km/s) = 5.13344 3.38670 4.34867
# Velocity P-wave (km/s) = 6.85074 5.48729 6.20657
#
# Compressibility (1/GPa) = 0.03294069
#
# Stress axis : x y z
#
# Youngs Moduli (GPa) = 63.89042 107.54845 146.73776
#
# Poissons Ratio (x) = -0.03828 -0.04628
# Poissons Ratio (y) = -0.02274 0.01223
# Poissons Ratio (z) = -0.02015 0.00896
#
# Static dielectric constant tensor:
#      x y z
#    x 1.984740 0.000000 0.002860 
#    y 0.000000 2.055130 0.000000 
#    z 0.002860 0.000000 2.069750 
# 
# From -- ./inp_files/93137.got.cif
#   From: 2010.05.17/outbox.cif.g08.bks.cpg/sg10_47_cif.got.tgz:93137.got - 2010.06.03 11:33:40.
