data_PCOD9145122
_publ_section_title
;
Structure prediction by ZEFSAII (Michael W. Deem and Ramdas Pophale) SiO2 
 PCOD9145122
Probable space group: P 2/M
;
_chemical_formula_sum "Si O2"
_cell_formula_units_Z 28
_cell_length_a 12.509290
_cell_length_b 7.819195
_cell_length_c 14.263571
_cell_angle_alpha 90.000000
_cell_angle_beta 124.739348
_cell_angle_gamma 90.000000
_cell_volume 1146.474012
_symmetry_space_group_name_H-M "P 2/M"
_symmetry_group_IT_number 10
_symmetry_cell_setting 'monoclinic'
loop_
_space_group_symop_operation_xyz
x,y,z
-x,y,-z
-x,-y,-z
x,-y,z
loop_
_atom_site_type_symbol
_atom_site_label
_atom_site_fract_x
_atom_site_fract_y
_atom_site_fract_z
Si Si1 0.579023 0.207249 0.343325
Si Si2 0.784363 0.700530 0.296172
Si Si3 0.877787 0.692047 0.052271
Si Si4 0.360645 0.194323 0.952458
Si Si5 0.312642 0.801639 0.414642
Si Si6 0.292577 0.205083 0.195068
Si Si7 0.031467 0.707162 0.311387
O O1 0.704425 0.274364 0.350805
O O2 0.589669 0.265394 0.457202
O O3 0.437531 0.258145 0.231506
O O4 0.585292 0.000000 0.345003
O O5 0.773412 0.500000 0.264987
O O6 0.708272 0.810502 0.181947
O O7 0.934678 0.743702 0.349959
O O8 0.923532 0.500000 0.064971
O O9 0.837428 0.754903 0.928956
O O10 0.735425 0.703203 0.029553
O O11 0.967782 0.770006 0.179925
O O12 0.376012 0.000000 0.997824
O O13 0.500000 0.270907 0.000000
O O14 0.291383 0.725631 0.300759
O O15 0.170935 0.789589 0.390673
O O16 0.347801 0.000000 0.417388
O O17 0.295088 0.000000 0.198304
O O18 0.044932 0.500000 0.313558
#
# Coordination Sequence:
#
# PCOD9145122 Si02
#       7
#     4   4   4   4   4   4   4
#     4  10  21  38  59  84 114 147 185 232 285 334
#     4  10  21  36  55  81 113 148 185 227 277 333
#     4  10  21  36  55  81 113 148 185 227 277 333
#     4  10  19  31  50  78 111 146 183 226 278 332
#     4  10  22  39  60  83 109 147 193 237 277 328
#     4  10  21  38  59  84 114 147 185 232 285 334
#     4   9  21  40  57  79 114 151 184 225 281 335
#
# _framework density 24.422706999999999
#
# number of rings (size 3 to 8) (size 9 to 14) (size 15 to 20)
#    0.000    2.143    0.000    3.429    0.000   12.571 
#    0.000    5.714    0.000    2.571    0.000    0.000 
#    0.000    0.000    0.000    0.000    0.000    0.000 
#
# Total GULP energy -156227.100760 kJ/mol
# GULP energy per Si atom -5579.539313 kJ/mol
# Density = 2.436712 g / cm^3
# Si number density = 24.422707 Si / 1000 Ang^3
#
#
#
# Elastic Constant Matrix: (Units=GPa)
#
#
# Indices 1 2 3 4 5 6 
#
# 1 67.5593 2.3715 0.8438 0.0000 3.1937 0.0000
# 2 2.3715 39.4361 1.8155 0.0000 0.4249 0.0000
# 3 0.8438 1.8155 109.2015 0.0000 -0.6896 0.0000
# 4 0.0000 0.0000 0.0000 3.0489 0.0000 -5.3936
# 5 3.1937 0.4249 -0.6896 0.0000 43.4918 0.0000
# 6 0.0000 0.0000 0.0000 -5.3936 0.0000 21.9926
#
#
#
# Elastic Compliance Matrix: (Units=1/GPa)
#
#
# Indices 1 2 3 4 5 6 
#
# 1 0.014885 -0.000878 -0.000107 0.000000 -0.001086 0.000000
# 2 -0.000878 0.025432 -0.000417 0.000000 -0.000191 0.000000
# 3 -0.000107 -0.000417 0.009166 0.000000 0.000157 0.000000
# 4 0.000000 0.000000 0.000000 0.579331 0.000000 0.142079
# 5 -0.001086 -0.000191 0.000157 0.000000 0.023077 0.000000
# 6 0.000000 0.000000 0.000000 0.142079 0.000000 0.080315
#
#
# Mechanical properties :
#
#
# Convention : Reuss Voigt Hill
#
# Bulk Modulus (GPa) = 21.42379 25.13983 23.28181
# Shear Modulus (GPa) = 6.66160 27.78439 17.22300
#
# Velocity S-wave (km/s) = 1.65334 3.37656 2.65845
# Velocity P-wave (km/s) = 3.52645 5.05149 4.35622
#
# Compressibility (1/GPa) = 0.04667708
#
# Stress axis : x y z
#
# Youngs Moduli (GPa) = 67.18022 39.32119 109.09714
#
# Poissons Ratio (x) = 0.03454 0.01170
# Poissons Ratio (y) = 0.05902 0.04552
# Poissons Ratio (z) = 0.00721 0.01641
#
# Static dielectric constant tensor:
#      x y z
#    x 2.008370 0.000000 -0.049920 
#    y 0.000000 1.910910 0.000000 
#    z -0.049920 0.000000 1.991480 
# 
# From -- ./inp_files/49393.got.cif
#   From: 2010.05.17/outbox.cif.g08.bks.cpg/sg10_25_cif.got.tgz:49393.got - 2010.06.03 11:33:40.
