data_PCOD9145749
_publ_section_title
;
Structure prediction by ZEFSAII (Michael W. Deem and Ramdas Pophale) SiO2 
 PCOD9145749
Probable space group: P 2/M
;
_chemical_formula_sum "Si O2"
_cell_formula_units_Z 32
_cell_length_a 31.959156
_cell_length_b 8.600115
_cell_length_c 12.034917
_cell_angle_alpha 90.000000
_cell_angle_beta 26.522907
_cell_angle_gamma 90.000000
_cell_volume 1477.128151
_symmetry_space_group_name_H-M "P 2/M"
_symmetry_group_IT_number 10
_symmetry_cell_setting 'monoclinic'
loop_
_space_group_symop_operation_xyz
x,y,z
-x,y,-z
-x,-y,-z
x,-y,z
loop_
_atom_site_type_symbol
_atom_site_label
_atom_site_fract_x
_atom_site_fract_y
_atom_site_fract_z
Si Si1 0.954505 0.312776 0.992086
Si Si2 0.452797 0.678096 0.836822
Si Si3 0.624397 0.684216 0.280530
Si Si4 0.283232 0.177504 0.151690
Si Si5 0.200222 0.813617 0.017653
Si Si6 0.108594 0.316044 0.455301
Si Si7 0.789032 0.814231 0.259059
Si Si8 0.576199 0.825374 0.723275
O O1 0.958250 0.500000 0.985510
O O2 0.017331 0.259658 0.737760
O O3 0.849728 0.261175 0.212150
O O4 0.000000 0.256861 0.000000
O O5 0.423174 0.500000 0.901091
O O6 0.520353 0.711041 0.571570
O O7 0.358445 0.778207 0.066636
O O8 0.525576 0.708429 0.761294
O O9 0.634089 0.500000 0.230580
O O10 0.656343 0.790821 0.103136
O O11 0.701358 0.728551 0.190702
O O12 0.253553 0.000000 0.231348
O O13 0.193157 0.282782 0.341571
O O14 0.132875 0.763767 0.279763
O O15 0.212097 0.000000 0.994612
O O16 0.173648 0.772435 0.954085
O O17 0.102790 0.500000 0.448904
O O18 0.678503 0.775580 0.521373
O O19 0.796493 0.000000 0.252934
O O20 0.587706 0.000000 0.644499
O O21 0.500000 0.840282 0.000000
#
# Coordination Sequence:
#
# PCOD9145749 Si02
#       8
#     4   4   4   4   4   4   4   4
#     4  10  24  45  67  90 118 157 202 250 303 362
#     4  11  22  35  54  81 116 158 202 246 293 349
#     4  10  19  32  52  81 117 156 199 242 289 348
#     4  11  22  34  54  83 118 159 197 240 296 353
#     4  10  19  34  59  90 125 160 198 244 304 367
#     4  10  21  39  61  88 123 158 202 255 306 360
#     4  10  22  40  64  93 123 158 198 248 306 360
#     4  10  22  41  62  87 121 158 202 250 296 353
#
# _framework density 21.663658999999999
#
# number of rings (size 3 to 8) (size 9 to 14) (size 15 to 20)
#    0.000    1.750    1.250    4.500    0.000    7.500 
#    0.000    5.000    0.000    0.000    0.000    0.000 
#    0.000    0.000    0.000    0.000    0.000    0.000 
#
# Total GULP energy -178625.143244 kJ/mol
# GULP energy per Si atom -5582.035726 kJ/mol
# Density = 2.161435 g / cm^3
# Si number density = 21.663659 Si / 1000 Ang^3
#
#
#
# Elastic Constant Matrix: (Units=GPa)
#
#
# Indices 1 2 3 4 5 6 
#
# 1 113.7107 6.0226 33.8842 0.0000 -21.1626 0.0000
# 2 6.0226 15.3063 6.4098 0.0000 3.4637 0.0000
# 3 33.8842 6.4098 69.2013 0.0000 -3.3854 0.0000
# 4 0.0000 0.0000 0.0000 12.4432 0.0000 3.6856
# 5 -21.1626 3.4637 -3.3854 0.0000 23.1204 0.0000
# 6 0.0000 0.0000 0.0000 3.6856 0.0000 13.8881
#
#
#
# Elastic Compliance Matrix: (Units=1/GPa)
#
#
# Indices 1 2 3 4 5 6 
#
# 1 0.012835 -0.005551 -0.005192 0.000000 0.011820 0.000000
# 2 -0.005551 0.073367 -0.004899 0.000000 -0.016789 0.000000
# 3 -0.005192 -0.004899 0.017375 0.000000 -0.001475 0.000000
# 4 0.000000 0.000000 0.000000 0.087221 0.000000 -0.023147
# 5 0.011820 -0.016789 -0.001475 0.000000 0.056370 0.000000
# 6 0.000000 0.000000 0.000000 -0.023147 0.000000 0.078147
#
#
# Mechanical properties :
#
#
# Convention : Reuss Voigt Hill
#
# Bulk Modulus (GPa) = 13.83262 32.31683 23.07472
# Shear Modulus (GPa) = 13.13381 20.01712 16.57547
#
# Velocity S-wave (km/s) = 2.46491 3.04303 2.76910
# Velocity P-wave (km/s) = 3.80789 5.22461 4.57147
#
# Compressibility (1/GPa) = 0.07229290
#
# Stress axis : x y z
#
# Youngs Moduli (GPa) = 77.91074 13.63007 57.55508
#
# Poissons Ratio (x) = 0.07565 0.29885
# Poissons Ratio (y) = 0.43245 0.28197
# Poissons Ratio (z) = 0.40454 0.06678
#
# Static dielectric constant tensor:
#      x y z
#    x 1.895450 0.000000 0.032000 
#    y 0.000000 1.752190 0.000000 
#    z 0.032000 0.000000 1.802920 
# 
# From -- ./inp_files/58078.got.cif
#   From: 2010.05.17/outbox.cif.g08.bks.cpg/sg10_30_cif.got.tgz:58078.got - 2010.06.03 11:33:40.
