data_PCOD9145918
_publ_section_title
;
Structure prediction by ZEFSAII (Michael W. Deem and Ramdas Pophale) SiO2 
 PCOD9145918
Probable space group: P 2/M
;
_chemical_formula_sum "Si O2"
_cell_formula_units_Z 28
_cell_length_a 8.184159
_cell_length_b 34.168914
_cell_length_c 5.289223
_cell_angle_alpha 90.000000
_cell_angle_beta 60.940489
_cell_angle_gamma 90.000000
_cell_volume 1292.903238
_symmetry_space_group_name_H-M "P 2/M"
_symmetry_group_IT_number 10
_symmetry_cell_setting 'monoclinic'
loop_
_space_group_symop_operation_xyz
x,y,z
-x,y,-z
-x,-y,-z
x,-y,z
loop_
_atom_site_type_symbol
_atom_site_label
_atom_site_fract_x
_atom_site_fract_y
_atom_site_fract_z
Si Si1 0.770716 0.544937 0.169384
Si Si2 0.775797 0.589157 0.666336
Si Si3 0.872414 0.745672 0.346567
Si Si4 0.271023 0.044687 0.153181
Si Si5 0.872462 0.168162 0.345386
Si Si6 0.720296 0.085111 0.353766
Si Si7 0.385501 0.327253 0.336865
O O1 0.712848 0.500000 0.180919
O O2 0.709215 0.563117 0.481073
O O3 0.709034 0.571801 0.982351
O O4 0.000000 0.545065 0.000000
O O5 0.725526 0.634245 0.665534
O O6 0.000000 0.586196 0.500000
O O7 0.778739 0.788837 0.415645
O O8 0.736073 0.709302 0.478292
O O9 0.000000 0.745211 0.500000
O O10 0.000000 0.741786 0.000000
O O11 0.202403 0.058365 0.478803
O O12 0.221141 0.000000 0.132433
O O13 0.500000 0.046201 0.000000
O O14 0.206486 0.073533 0.978022
O O15 0.746709 0.129963 0.413782
O O16 0.000000 0.164954 0.500000
O O17 0.000000 0.167866 0.000000
O O18 0.500000 0.077179 0.500000
O O19 0.500000 0.339107 0.500000
O O20 0.500000 0.315144 0.000000
#
# Coordination Sequence:
#
# PCOD9145918 Si02
#       7
#     4   4   4   4   4   4   4
#     4   9  17  31  55  86 112 141 193 249 281 314
#     4  10  20  35  58  83 113 154 193 232 282 343
#     4  10  22  42  65  86 112 152 198 233 278 350
#     4   9  17  30  50  77 107 141 184 229 269 315
#     4  10  21  38  59  82 111 146 180 224 281 340
#     4  10  19  32  54  81 107 140 183 229 273 323
#     4  12  25  40  60  89 123 153 188 241 295 338
#
# _framework density 21.656687999999999
#
# number of rings (size 3 to 8) (size 9 to 14) (size 15 to 20)
#    0.000    2.000    0.000    3.857    0.000    5.714 
#    0.000    2.143    0.000   17.143    0.000    0.000 
#    0.000    0.000    0.000    0.000    0.000    0.000 
#
# Total GULP energy -156521.482443 kJ/mol
# GULP energy per Si atom -5590.052944 kJ/mol
# Density = 2.160740 g / cm^3
# Si number density = 21.656688 Si / 1000 Ang^3
#
#
#
# Elastic Constant Matrix: (Units=GPa)
#
#
# Indices 1 2 3 4 5 6 
#
# 1 64.2439 35.6147 42.8053 0.0000 30.2458 0.0000
# 2 35.6147 149.5068 37.9458 0.0000 28.0255 0.0000
# 3 42.8053 37.9458 129.8634 0.0000 38.8541 0.0000
# 4 0.0000 0.0000 0.0000 26.3042 0.0000 34.7995
# 5 30.2458 28.0255 38.8541 0.0000 37.3207 0.0000
# 6 0.0000 0.0000 0.0000 34.7995 0.0000 -61.3439
#
#
#
# Elastic Compliance Matrix: (Units=1/GPa)
#
#
# Indices 1 2 3 4 5 6 
#
# 1 0.026875 -0.002484 -0.003158 0.000000 -0.016627 0.000000
# 2 -0.002484 0.008066 -0.000477 0.000000 -0.003548 0.000000
# 3 -0.003158 -0.000477 0.011631 0.000000 -0.009191 0.000000
# 4 0.000000 0.000000 0.000000 0.021718 0.000000 0.012320
# 5 -0.016627 -0.003548 -0.009191 0.000000 0.052503 0.000000
# 6 0.000000 0.000000 0.000000 0.012320 0.000000 -0.009313
#
#
# Mechanical properties :
#
#
# Convention : Reuss Voigt Hill
#
# Bulk Modulus (GPa) = 29.12470 64.03844 46.58157
# Shear Modulus (GPa) = 36.99274 15.60608 26.29941
#
# Velocity S-wave (km/s) = 4.13745 2.68733 3.48857
# Velocity P-wave (km/s) = 6.02513 6.26602 6.14676
#
# Compressibility (1/GPa) = 0.03433512
#
# Stress axis : x y z
#
# Youngs Moduli (GPa) = 37.20970 123.97067 85.98081
#
# Poissons Ratio (x) = 0.30789 0.27152
# Poissons Ratio (y) = 0.09241 0.04099
# Poissons Ratio (z) = 0.11751 0.05910
#
# Static dielectric constant tensor:
#      x y z
#    x 1.859100 0.000000 0.016610 
#    y 0.000000 1.762550 0.000000 
#    z 0.016610 0.000000 1.804230 
# 
# From -- ./inp_files/5492.got.cif
#   From: 2010.05.17/outbox.cif.g08.bks.cpg/sg10_3_cif.got.tgz:5492.got - 2010.06.03 11:33:40.
