data_PCOD9145409
_publ_section_title
;
Structure prediction by ZEFSAII (Michael W. Deem and Ramdas Pophale) SiO2 
 PCOD9145409
Probable space group: P 2/M
;
_chemical_formula_sum "Si O2"
_cell_formula_units_Z 32
_cell_length_a 18.412393
_cell_length_b 14.112314
_cell_length_c 21.931211
_cell_angle_alpha 90.000000
_cell_angle_beta 160.974861
_cell_angle_gamma 90.000000
_cell_volume 1857.659027
_symmetry_space_group_name_H-M "P 2/M"
_symmetry_group_IT_number 10
_symmetry_cell_setting 'monoclinic'
loop_
_space_group_symop_operation_xyz
x,y,z
-x,y,-z
-x,-y,-z
x,-y,z
loop_
_atom_site_type_symbol
_atom_site_label
_atom_site_fract_x
_atom_site_fract_y
_atom_site_fract_z
Si Si1 0.841570 0.110371 0.314589
Si Si2 0.400782 0.892223 0.143563
Si Si3 0.917278 0.891407 0.786559
Si Si4 0.821856 0.391901 0.413095
Si Si5 0.489122 0.760788 0.099692
Si Si6 0.254375 0.887773 0.225361
Si Si7 0.648099 0.838878 0.457538
Si Si8 0.999983 0.747366 0.657314
O O1 0.635886 0.179753 0.167482
O O2 0.971509 0.156883 0.360936
O O3 0.000000 0.113581 0.500000
O O4 0.781433 0.000000 0.256198
O O5 0.480428 0.829380 0.151257
O O6 0.562357 0.892575 0.329577
O O7 0.368236 0.000000 0.096037
O O8 0.163864 0.850374 0.977665
O O9 0.761700 0.854566 0.717210
O O10 0.806515 0.888229 0.632758
O O11 0.953256 0.000000 0.834284
O O12 0.765818 0.500000 0.384817
O O13 0.616357 0.332564 0.223035
O O14 0.000000 0.392958 0.500000
O O15 0.930325 0.334815 0.555323
O O16 0.242589 0.737054 0.880301
O O17 0.422539 0.826460 0.318110
O O18 0.326947 0.000000 0.278900
O O19 0.000000 0.883742 0.000000
O O20 0.805132 0.758331 0.552813
#
# Coordination Sequence:
#
# PCOD9145409 Si02
#       8
#     4   4   4   4   4   4   4   4
#     4  11  22  38  57  79 117 164 198 228 269 324
#     4  11  21  33  52  79 115 155 199 238 274 326
#     4  10  20  33  48  74 109 155 203 239 275 327
#     4  11  24  45  67  87 111 141 186 243 303 354
#     4  12  22  40  59  84 115 152 190 235 283 341
#     4  10  19  32  49  71 108 157 206 243 276 325
#     4  12  21  34  52  75 109 155 192 241 281 325
#     4  12  24  38  59  87 117 146 194 238 285 343
#
# _framework density 17.22598
#
# number of rings (size 3 to 8) (size 9 to 14) (size 15 to 20)
#    0.000    0.875    6.250    2.250    0.000    5.500 
#    0.000    1.250    0.000    0.000    0.000    0.000 
#    0.000    6.500    0.000    0.000    0.000    0.000 
#
# Total GULP energy -178478.295400 kJ/mol
# GULP energy per Si atom -5577.446731 kJ/mol
# Density = 1.718677 g / cm^3
# Si number density = 17.225980 Si / 1000 Ang^3
#
#
#
# Elastic Constant Matrix: (Units=GPa)
#
#
# Indices 1 2 3 4 5 6 
#
# 1 110.6351 34.4922 36.8228 0.0000 7.6836 0.0000
# 2 34.4922 89.2482 40.7255 0.0000 2.8602 0.0000
# 3 36.8228 40.7255 113.2972 0.0000 -2.5429 0.0000
# 4 0.0000 0.0000 0.0000 5.1983 0.0000 1.6842
# 5 7.6836 2.8602 -2.5429 0.0000 35.1964 0.0000
# 6 0.0000 0.0000 0.0000 1.6842 0.0000 20.8962
#
#
#
# Elastic Compliance Matrix: (Units=1/GPa)
#
#
# Indices 1 2 3 4 5 6 
#
# 1 0.010985 -0.003011 -0.002540 0.000000 -0.002337 0.000000
# 2 -0.003011 0.014302 -0.004180 0.000000 -0.000807 0.000000
# 3 -0.002540 -0.004180 0.011193 0.000000 0.001703 0.000000
# 4 0.000000 0.000000 0.000000 0.197530 0.000000 -0.015920
# 5 -0.002337 -0.000807 0.001703 0.000000 0.029111 0.000000
# 6 0.000000 0.000000 0.000000 -0.015920 0.000000 0.049139
#
#
# Mechanical properties :
#
#
# Convention : Reuss Voigt Hill
#
# Bulk Modulus (GPa) = 58.76824 59.69573 59.23199
# Shear Modulus (GPa) = 14.81937 25.66749 20.24343
#
# Velocity S-wave (km/s) = 2.93626 3.86430 3.43179
# Velocity P-wave (km/s) = 6.75911 7.39189 7.08257
#
# Compressibility (1/GPa) = 0.01701599
#
# Stress axis : x y z
#
# Youngs Moduli (GPa) = 91.02987 69.92046 89.34290
#
# Poissons Ratio (x) = 0.21056 0.22696
# Poissons Ratio (y) = 0.27414 0.37348
# Poissons Ratio (z) = 0.23125 0.29229
#
# Static dielectric constant tensor:
#      x y z
#    x 1.634050 0.000000 0.015850 
#    y 0.000000 1.545640 0.000000 
#    z 0.015850 0.000000 1.642300 
# 
# From -- ./inp_files/85979.got.cif
#   From: 2010.05.17/outbox.cif.g08.bks.cpg/sg10_43_cif.got.tgz:85979.got - 2010.06.03 11:33:40.
