data_PCOD9145847
_publ_section_title
;
Structure prediction by ZEFSAII (Michael W. Deem and Ramdas Pophale) SiO2 
 PCOD9145847
Probable space group: P 2/M
;
_chemical_formula_sum "Si O2"
_cell_formula_units_Z 28
_cell_length_a 12.238298
_cell_length_b 7.579175
_cell_length_c 15.612989
_cell_angle_alpha 90.000000
_cell_angle_beta 57.546124
_cell_angle_gamma 90.000000
_cell_volume 1222.026813
_symmetry_space_group_name_H-M "P 2/M"
_symmetry_group_IT_number 10
_symmetry_cell_setting 'monoclinic'
loop_
_space_group_symop_operation_xyz
x,y,z
-x,y,-z
-x,-y,-z
x,-y,z
loop_
_atom_site_type_symbol
_atom_site_label
_atom_site_fract_x
_atom_site_fract_y
_atom_site_fract_z
Si Si1 0.361222 0.798138 0.035302
Si Si2 0.085347 0.793106 0.193653
Si Si3 0.646772 0.709671 0.655685
Si Si4 0.912856 0.286117 0.617023
Si Si5 0.369079 0.709164 0.838344
Si Si6 0.826362 0.786464 0.229328
Si Si7 0.355097 0.212319 0.540099
O O1 0.229071 0.714023 0.126081
O O2 0.366914 0.000000 0.066476
O O3 0.500000 0.715237 0.000000
O O4 0.348911 0.797058 0.938250
O O5 0.039734 0.777650 0.310887
O O6 0.973052 0.721189 0.179531
O O7 0.099556 0.000000 0.166136
O O8 0.642682 0.500000 0.670294
O O9 0.765880 0.777307 0.662129
O O10 0.503907 0.776742 0.739778
O O11 0.677712 0.740271 0.543150
O O12 0.914298 0.500000 0.617970
O O13 0.000000 0.229892 0.500000
O O14 0.381234 0.500000 0.848081
O O15 0.251375 0.737928 0.822798
O O16 0.742965 0.723343 0.346185
O O17 0.830209 0.000000 0.231238
O O18 0.500000 0.276849 0.500000
O O19 0.356884 0.000000 0.544482
#
# Coordination Sequence:
#
# PCOD9145847 Si02
#       7
#     4   4   4   4   4   4   4
#     4  10  22  41  63  85 110 143 185 232 283 334
#     4  10  22  39  60  85 111 146 188 231 280 329
#     4  10  21  35  53  81 115 149 186 230 278 330
#     4  10  21  37  57  83 116 151 185 224 276 334
#     4  11  23  37  57  85 113 146 189 231 277 331
#     4  10  21  38  57  81 116 149 184 230 278 331
#     4  10  19  32  53  81 111 148 189 226 271 324
#
# _framework density 22.912752999999999
#
# number of rings (size 3 to 8) (size 9 to 14) (size 15 to 20)
#    0.000    1.857    1.429    2.143    0.000    4.286 
#    0.000    2.857    0.000    0.000    0.000    0.000 
#    0.000    0.000    0.000    0.000    0.000    0.000 
#
# Total GULP energy -156530.442939 kJ/mol
# GULP energy per Si atom -5590.372962 kJ/mol
# Density = 2.286060 g / cm^3
# Si number density = 22.912753 Si / 1000 Ang^3
#
#
#
# Elastic Constant Matrix: (Units=GPa)
#
#
# Indices 1 2 3 4 5 6 
#
# 1 157.2138 1.1037 35.1212 0.0000 -11.5997 0.0000
# 2 1.1037 57.5162 -7.9015 0.0000 -14.4711 0.0000
# 3 35.1212 -7.9015 87.0331 0.0000 -4.1374 0.0000
# 4 0.0000 0.0000 0.0000 21.2543 0.0000 12.2266
# 5 -11.5997 -14.4711 -4.1374 0.0000 40.7246 0.0000
# 6 0.0000 0.0000 0.0000 12.2266 0.0000 8.3825
#
#
#
# Elastic Compliance Matrix: (Units=1/GPa)
#
#
# Indices 1 2 3 4 5 6 
#
# 1 0.007112 -0.000091 -0.002797 0.000000 0.001709 0.000000
# 2 -0.000091 0.019472 0.002142 0.000000 0.007111 0.000000
# 3 -0.002797 0.002142 0.012874 0.000000 0.001272 0.000000
# 4 0.000000 0.000000 0.000000 0.292329 0.000000 -0.426387
# 5 0.001709 0.007111 0.001272 0.000000 0.027698 0.000000
# 6 0.000000 0.000000 0.000000 -0.426387 0.000000 0.741217
#
#
# Mechanical properties :
#
#
# Convention : Reuss Voigt Hill
#
# Bulk Modulus (GPa) = 26.33877 39.82334 33.08105
# Shear Modulus (GPa) = 4.48492 32.30157 18.39324
#
# Velocity S-wave (km/s) = 1.40058 3.75876 2.83636
# Velocity P-wave (km/s) = 3.75975 6.02128 5.01954
#
# Compressibility (1/GPa) = 0.03796685
#
# Stress axis : x y z
#
# Youngs Moduli (GPa) = 140.59968 51.35696 77.67835
#
# Poissons Ratio (x) = 0.00466 0.21727
# Poissons Ratio (y) = 0.01274 -0.16642
# Poissons Ratio (z) = 0.39327 -0.11003
#
# Static dielectric constant tensor:
#      x y z
#    x 1.863160 0.000000 -0.050870 
#    y 0.000000 1.868730 0.000000 
#    z -0.050870 0.000000 1.826220 
# 
# From -- ./inp_files/49562.got.cif
#   From: 2010.05.17/outbox.cif.g08.bks.cpg/sg10_25_cif.got.tgz:49562.got - 2010.06.03 11:33:40.
