data_PCOD9145057
_publ_section_title
;
Structure prediction by ZEFSAII (Michael W. Deem and Ramdas Pophale) SiO2 
 PCOD9145057
Probable space group: P 2/M
;
_chemical_formula_sum "Si O2"
_cell_formula_units_Z 32
_cell_length_a 20.722047
_cell_length_b 7.367234
_cell_length_c 26.960266
_cell_angle_alpha 90.000000
_cell_angle_beta 21.183294
_cell_angle_gamma 90.000000
_cell_volume 1487.279565
_symmetry_space_group_name_H-M "P 2/M"
_symmetry_group_IT_number 10
_symmetry_cell_setting 'monoclinic'
loop_
_space_group_symop_operation_xyz
x,y,z
-x,y,-z
-x,-y,-z
x,-y,z
loop_
_atom_site_type_symbol
_atom_site_label
_atom_site_fract_x
_atom_site_fract_y
_atom_site_fract_z
Si Si1 0.670934 0.288196 0.350100
Si Si2 0.039204 0.219546 0.139373
Si Si3 0.905819 0.221608 0.687636
Si Si4 0.801841 0.284676 0.152201
Si Si5 0.616893 0.778833 0.813950
Si Si6 0.722593 0.221677 0.627894
Si Si7 0.357347 0.217540 0.839157
Si Si8 0.205993 0.778550 0.122855
O O1 0.500000 0.207489 0.500000
O O2 0.628487 0.500000 0.371711
O O3 0.718591 0.208905 0.262221
O O4 0.846851 0.277638 0.257802
O O5 0.091162 0.278252 0.157502
O O6 0.040693 0.000000 0.137784
O O7 0.193393 0.282773 0.990848
O O8 0.744050 0.277899 0.767733
O O9 0.871240 0.279818 0.768836
O O10 0.093598 0.280044 0.529350
O O11 0.906727 0.000000 0.687262
O O12 0.824412 0.500000 0.143979
O O13 0.682587 0.259961 0.189125
O O14 0.000000 0.209929 0.000000
O O15 0.696474 0.722701 0.703778
O O16 0.615180 0.000000 0.814987
O O17 0.411867 0.721723 0.967833
O O18 0.547627 0.281419 0.723049
O O19 0.725057 0.000000 0.626146
O O20 0.359096 0.000000 0.842908
O O21 0.206882 0.000000 0.122346
#
# Coordination Sequence:
#
# PCOD9145057 Si02
#       8
#     4   4   4   4   4   4   4   4
#     4  10  22  39  56  75 100 127 157 199 248 292
#     4  10  19  32  51  73 101 133 162 199 245 292
#     4   9  16  23  36  59  89 125 162 198 235 281
#     4  10  20  35  55  76  96 123 161 203 240 283
#     4   9  14  23  38  56  85 126 164 194 232 284
#     4   9  16  26  38  59  91 124 158 196 240 282
#     4  10  19  31  50  74 101 132 163 201 246 290
#     4   9  16  26  39  60  91 125 159 195 238 283
#
# _framework density 21.515795000000001
#
# number of rings (size 3 to 8) (size 9 to 14) (size 15 to 20)
#    0.000    2.500    2.500    0.750    0.000    5.000 
#    0.000    1.250    0.000    0.000    0.000    0.000 
#    0.000    6.000    0.000    0.000    0.000    0.000 
#
# Total GULP energy -178805.534803 kJ/mol
# GULP energy per Si atom -5587.672963 kJ/mol
# Density = 2.146682 g / cm^3
# Si number density = 21.515795 Si / 1000 Ang^3
#
#
#
# Elastic Constant Matrix: (Units=GPa)
#
#
# Indices 1 2 3 4 5 6 
#
# 1 199.6747 -11.1459 100.2218 0.0000 28.9838 0.0000
# 2 -11.1459 75.6883 -0.9459 0.0000 9.5577 0.0000
# 3 100.2218 -0.9459 142.6524 0.0000 32.5246 0.0000
# 4 0.0000 0.0000 0.0000 -17.9072 0.0000 -12.6305
# 5 28.9838 9.5577 32.5246 0.0000 32.7031 0.0000
# 6 0.0000 0.0000 0.0000 -12.6305 0.0000 25.7756
#
#
#
# Elastic Compliance Matrix: (Units=1/GPa)
#
#
# Indices 1 2 3 4 5 6 
#
# 1 0.007970 0.001424 -0.005023 0.000000 -0.002483 0.000000
# 2 0.001424 0.014162 0.000420 0.000000 -0.005819 0.000000
# 3 -0.005023 0.000420 0.012357 0.000000 -0.007960 0.000000
# 4 0.000000 0.000000 0.000000 -0.041500 0.000000 -0.020336
# 5 -0.002483 -0.005819 -0.007960 0.000000 0.042397 0.000000
# 6 0.000000 0.000000 0.000000 -0.020336 0.000000 0.028832
#
#
# Mechanical properties :
#
#
# Convention : Reuss Voigt Hill
#
# Bulk Modulus (GPa) = 35.54899 66.03057 50.78978
# Shear Modulus (GPa) = 62.53805 30.10665 46.32235
#
# Velocity S-wave (km/s) = 5.39715 3.74476 4.64502
# Velocity P-wave (km/s) = 7.44292 7.03232 7.24053
#
# Compressibility (1/GPa) = 0.02813019
#
# Stress axis : x y z
#
# Youngs Moduli (GPa) = 125.47830 70.61207 80.92603
#
# Poissons Ratio (x) = -0.10058 0.40652
# Poissons Ratio (y) = -0.17873 -0.03398
# Poissons Ratio (z) = 0.63032 -0.02965
#
# Static dielectric constant tensor:
#      x y z
#    x 1.735300 0.000000 0.018980 
#    y 0.000000 1.816710 0.000000 
#    z 0.018980 0.000000 1.746070 
# 
# From -- ./inp_files/34844.got.cif
#   From: 2010.05.17/outbox.cif.g08.bks.cpg/sg10_18_cif.got.tgz:34844.got - 2010.06.03 11:33:40.
