data_PCOD9145446
_publ_section_title
;
Structure prediction by ZEFSAII (Michael W. Deem and Ramdas Pophale) SiO2 
 PCOD9145446
Probable space group: P 2/M
;
_chemical_formula_sum "Si O2"
_cell_formula_units_Z 32
_cell_length_a 12.714285
_cell_length_b 7.367574
_cell_length_c 30.895643
_cell_angle_alpha 90.000000
_cell_angle_beta 26.453973
_cell_angle_gamma 90.000000
_cell_volume 1289.260501
_symmetry_space_group_name_H-M "P 2/M"
_symmetry_group_IT_number 10
_symmetry_cell_setting 'monoclinic'
loop_
_space_group_symop_operation_xyz
x,y,z
-x,y,-z
-x,-y,-z
x,-y,z
loop_
_atom_site_type_symbol
_atom_site_label
_atom_site_fract_x
_atom_site_fract_y
_atom_site_fract_z
Si Si1 0.828843 0.782134 0.798604
Si Si2 0.542912 0.707185 0.130741
Si Si3 0.236197 0.217924 0.083311
Si Si4 0.153808 0.282191 0.341259
Si Si5 0.997937 0.291976 0.080813
Si Si6 0.347430 0.712336 0.443423
Si Si7 0.508588 0.719098 0.704032
Si Si8 0.677942 0.780948 0.398897
O O1 0.592808 0.704509 0.865335
O O2 0.893825 0.738406 0.824050
O O3 0.057608 0.720740 0.688319
O O4 0.798461 0.000000 0.808195
O O5 0.581510 0.500000 0.131356
O O6 0.344233 0.789103 0.235777
O O7 0.801833 0.787372 0.025262
O O8 0.117062 0.293787 0.084617
O O9 0.242099 0.000000 0.074776
O O10 0.500000 0.274136 0.000000
O O11 0.140524 0.500000 0.338109
O O12 0.280293 0.250046 0.340525
O O13 0.885655 0.213071 0.445933
O O14 0.964502 0.500000 0.078738
O O15 0.738010 0.211831 0.184463
O O16 0.292770 0.500000 0.456187
O O17 0.419653 0.787821 0.369886
O O18 0.569489 0.729163 0.393047
O O19 0.475963 0.500000 0.712235
O O20 0.500000 0.711598 0.500000
O O21 0.684450 0.000000 0.397648
#
# Coordination Sequence:
#
# PCOD9145446 Si02
#       8
#     4   4   4   4   4   4   4   4
#     4  10  20  34  51  71  99 136 172 202 242 299
#     4  10  20  32  49  75 103 132 167 206 249 294
#     4  10  19  32  50  71  96 132 171 201 239 293
#     4   9  18  33  53  76 101 130 166 208 252 301
#     4  10  20  32  49  76 105 132 164 206 252 293
#     4  10  19  33  56  80  99 127 170 213 250 289
#     4   9  18  33  53  77 103 130 165 209 255 298
#     4  10  21  35  51  74 105 138 166 198 248 304
#
# _framework density 24.820430000000002
#
# number of rings (size 3 to 8) (size 9 to 14) (size 15 to 20)
#    0.000    2.250    1.250    1.875    0.000    3.500 
#    0.000    2.500    0.000    3.750    0.000    1.750 
#    0.000    0.000    0.000    0.000    0.000    0.000 
#
# Total GULP energy -178708.162422 kJ/mol
# GULP energy per Si atom -5584.630076 kJ/mol
# Density = 2.476394 g / cm^3
# Si number density = 24.820430 Si / 1000 Ang^3
#
#
#
# Elastic Constant Matrix: (Units=GPa)
#
#
# Indices 1 2 3 4 5 6 
#
# 1 54.8185 -7.0365 9.6072 0.0000 -0.3601 0.0000
# 2 -7.0365 88.7860 9.7914 0.0000 1.3322 0.0000
# 3 9.6072 9.7914 131.3347 0.0000 -8.1869 0.0000
# 4 0.0000 0.0000 0.0000 -8.5440 0.0000 -3.4250
# 5 -0.3601 1.3322 -8.1869 0.0000 35.8921 0.0000
# 6 0.0000 0.0000 0.0000 -3.4250 0.0000 19.3672
#
#
#
# Elastic Compliance Matrix: (Units=1/GPa)
#
#
# Indices 1 2 3 4 5 6 
#
# 1 0.018717 0.001653 -0.001506 0.000000 -0.000217 0.000000
# 2 0.001653 0.011516 -0.001020 0.000000 -0.000643 0.000000
# 3 -0.001506 -0.001020 0.007914 0.000000 0.001828 0.000000
# 4 0.000000 0.000000 0.000000 -0.109293 0.000000 -0.019328
# 5 -0.000217 -0.000643 0.001828 0.000000 0.028300 0.000000
# 6 0.000000 0.000000 0.000000 -0.019328 0.000000 0.048216
#
#
# Mechanical properties :
#
#
# Convention : Reuss Voigt Hill
#
# Bulk Modulus (GPa) = 27.47143 33.29595 30.38369
# Shear Modulus (GPa) = 259.75383 26.84818 143.30101
#
# Velocity S-wave (km/s) = 10.24111 3.29248 7.60661
# Velocity P-wave (km/s) = 12.28547 5.28184 9.45596
#
# Compressibility (1/GPa) = 0.03640145
#
# Stress axis : x y z
#
# Youngs Moduli (GPa) = 53.42835 86.83491 126.35441
#
# Poissons Ratio (x) = -0.14351 0.19027
# Poissons Ratio (y) = -0.08830 0.12883
# Poissons Ratio (z) = 0.08046 0.08853
#
# Static dielectric constant tensor:
#      x y z
#    x 1.904670 0.000000 0.073960 
#    y 0.000000 1.956430 0.000000 
#    z 0.073960 0.000000 2.047350 
# 
# From -- ./inp_files/88925.got.cif
#   From: 2010.05.17/outbox.cif.g08.bks.cpg/sg10_45_cif.got.tgz:88925.got - 2010.06.03 11:33:40.
