data_PCOD9145011
_publ_section_title
;
Structure prediction by ZEFSAII (Michael W. Deem and Ramdas Pophale) SiO2 
 PCOD9145011
Probable space group: P 2/M
;
_chemical_formula_sum "Si O2"
_cell_formula_units_Z 28
_cell_length_a 8.364358
_cell_length_b 19.403419
_cell_length_c 12.201238
_cell_angle_alpha 90.000000
_cell_angle_beta 33.397823
_cell_angle_gamma 90.000000
_cell_volume 1090.013496
_symmetry_space_group_name_H-M "P 2/M"
_symmetry_group_IT_number 10
_symmetry_cell_setting 'monoclinic'
loop_
_space_group_symop_operation_xyz
x,y,z
-x,y,-z
-x,-y,-z
x,-y,z
loop_
_atom_site_type_symbol
_atom_site_label
_atom_site_fract_x
_atom_site_fract_y
_atom_site_fract_z
Si Si1 0.277044 0.849606 0.405793
Si Si2 0.272118 0.727012 0.040544
Si Si3 0.454735 0.573673 0.679969
Si Si4 0.832986 0.574727 0.919100
Si Si5 0.664946 0.075250 0.018632
Si Si6 0.267128 0.301957 0.412029
Si Si7 0.154985 0.158114 0.791622
O O1 0.503711 0.866306 0.179252
O O2 0.157451 0.773823 0.505733
O O3 0.506491 0.856453 0.376878
O O4 0.000000 0.884384 0.500000
O O5 0.207595 0.648175 0.115341
O O6 0.457743 0.717667 0.822135
O O7 0.500000 0.756202 0.000000
O O8 0.980287 0.770246 0.179316
O O9 0.598104 0.500000 0.573391
O O10 0.379539 0.574362 0.852794
O O11 0.627113 0.643312 0.560938
O O12 0.152306 0.575637 0.789809
O O13 0.794500 0.500000 0.884968
O O14 0.652573 0.000000 0.081524
O O15 0.500000 0.070350 0.000000
O O16 0.995325 0.098811 0.813230
O O17 0.000000 0.335121 0.500000
O O18 0.000000 0.153105 0.000000
#
# Coordination Sequence:
#
# PCOD9145011 Si02
#       7
#     4   4   4   4   4   4   4
#     4  10  21  36  57  82 112 144 181 226 271 315
#     4  11  20  31  54  79 105 141 182 226 274 326
#     4   8  14  26  46  70  95 134 184 229 267 314
#     4   8  15  26  44  70  99 130 177 231 271 312
#     4  10  21  38  61  86 114 144 179 220 259 313
#     4  10  19  31  49  74 109 139 177 227 272 319
#     4  10  19  34  58  82 105 144 185 219 257 318
#
# _framework density 25.687754000000002
#
# number of rings (size 3 to 8) (size 9 to 14) (size 15 to 20)
#    0.000    2.429    2.857    2.143    2.000    3.429 
#    0.000    0.714    0.000    4.286    0.000    2.000 
#    0.000    0.000    0.000    0.000    0.000    0.000 
#
# Total GULP energy -155946.032197 kJ/mol
# GULP energy per Si atom -5569.501150 kJ/mol
# Density = 2.562929 g / cm^3
# Si number density = 25.687754 Si / 1000 Ang^3
#
#
#
# Elastic Constant Matrix: (Units=GPa)
#
#
# Indices 1 2 3 4 5 6 
#
# 1 101.1294 14.4996 43.5237 0.0000 -36.2158 0.0000
# 2 14.4996 111.8271 6.7245 0.0000 -14.9974 0.0000
# 3 43.5237 6.7245 112.7035 0.0000 -25.8673 0.0000
# 4 0.0000 0.0000 0.0000 1.7495 0.0000 -18.0352
# 5 -36.2158 -14.9974 -25.8673 0.0000 57.6423 0.0000
# 6 0.0000 0.0000 0.0000 -18.0352 0.0000 22.6999
#
#
#
# Elastic Compliance Matrix: (Units=1/GPa)
#
#
# Indices 1 2 3 4 5 6 
#
# 1 0.014128 -0.000665 -0.003811 0.000000 0.006993 0.000000
# 2 -0.000665 0.009297 0.000180 0.000000 0.002082 0.000000
# 3 -0.003811 0.000180 0.010920 0.000000 0.002553 0.000000
# 4 0.000000 0.000000 0.000000 -0.079493 0.000000 -0.063158
# 5 0.006993 0.002082 0.002553 0.000000 0.023429 0.000000
# 6 0.000000 0.000000 0.000000 -0.063158 0.000000 -0.006126
#
#
# Mechanical properties :
#
#
# Convention : Reuss Voigt Hill
#
# Bulk Modulus (GPa) = 38.83111 50.57285 44.70198
# Shear Modulus (GPa) = -468.66603 33.81247 -217.42678
#
# Velocity S-wave (km/s) = -13.52196 3.63200 -9.21010
# Velocity P-wave (km/s) = 15.12090 6.10892 9.78067
#
# Compressibility (1/GPa) = 0.02575255
#
# Stress axis : x y z
#
# Youngs Moduli (GPa) = 70.77967 107.56195 91.57671
#
# Poissons Ratio (x) = 0.07151 0.34903
# Poissons Ratio (y) = 0.04706 -0.01647
# Poissons Ratio (z) = 0.26976 -0.01935
#
# Static dielectric constant tensor:
#      x y z
#    x 2.074470 0.000000 0.027690 
#    y 0.000000 2.113680 0.000000 
#    z 0.027690 0.000000 2.182400 
# 
# From -- ./inp_files/75513.got.cif
#   From: 2010.05.17/outbox.cif.g08.bks.cpg/sg10_38_cif.got.tgz:75513.got - 2010.06.03 11:33:40.
