data_PCOD9145794
_publ_section_title
;
Structure prediction by ZEFSAII (Michael W. Deem and Ramdas Pophale) SiO2 
 PCOD9145794
Probable space group: P 2/M
;
_chemical_formula_sum "Si O2"
_cell_formula_units_Z 20
_cell_length_a 22.567476
_cell_length_b 7.492110
_cell_length_c 8.717188
_cell_angle_alpha 90.000000
_cell_angle_beta 45.455935
_cell_angle_gamma 90.000000
_cell_volume 1050.454196
_symmetry_space_group_name_H-M "P 2/M"
_symmetry_group_IT_number 10
_symmetry_cell_setting 'monoclinic'
loop_
_space_group_symop_operation_xyz
x,y,z
-x,y,-z
-x,-y,-z
x,-y,z
loop_
_atom_site_type_symbol
_atom_site_label
_atom_site_fract_x
_atom_site_fract_y
_atom_site_fract_z
Si Si1 0.079345 0.000000 0.243331
Si Si2 0.822618 0.297204 0.488317
Si Si3 0.731817 0.000000 0.090698
Si Si4 0.252322 0.000000 0.575743
Si Si5 0.585771 0.000000 0.934130
Si Si6 0.994423 0.290347 0.828500
Si Si7 0.336316 0.292206 0.000475
O O1 0.000000 0.000000 0.500000
O O2 0.068165 0.170856 0.152886
O O3 0.172220 0.000000 0.141150
O O4 0.830921 0.500000 0.416877
O O5 0.911544 0.250512 0.398960
O O6 0.748565 0.289497 0.744909
O O7 0.798706 0.169291 0.393254
O O8 0.734442 0.000000 0.268553
O O9 0.685289 0.825421 0.109127
O O10 0.339164 0.000000 0.325298
O O11 0.598907 0.824888 0.017067
O O12 0.500000 0.000000 0.000000
O O13 0.976909 0.500000 0.841666
O O14 0.000000 0.250175 0.000000
O O15 0.358777 0.500000 0.934434
#
# Coordination Sequence:
#
# PCOD9145794 Si02
#       7
#     2   4   2   2   2   4   4
#     4  12  23  32  47  72 103 138 174 214 256 294
#     4   9  17  32  52  70  93 132 178 215 249 295
#     4  11  22  33  49  75 106 139 170 204 248 299
#     4  10  19  32  53  78 103 130 164 210 254 294
#     4   9  19  37  61  85 101 121 162 206 246 297
#     4  10  20  33  49  69  95 130 174 223 264 292
#     4   9  19  36  55  74 102 138 167 195 241 302
#
# _framework density 19.039384999999999
#
# number of rings (size 3 to 8) (size 9 to 14) (size 15 to 20)
#    0.000    2.200    0.000    3.900    0.000    2.400 
#    0.000    2.000    0.000    1.200    0.000    0.000 
#    0.000    0.000    0.000    0.000    0.000    0.000 
#
# Total GULP energy -111649.249245 kJ/mol
# GULP energy per Si atom -5582.462462 kJ/mol
# Density = 1.899605 g / cm^3
# Si number density = 19.039385 Si / 1000 Ang^3
#
#
#
# Elastic Constant Matrix: (Units=GPa)
#
#
# Indices 1 2 3 4 5 6 
#
# 1 100.3898 69.5089 2.9457 0.0000 -3.1473 0.0000
# 2 69.5089 144.6151 17.6730 0.0000 12.2995 0.0000
# 3 2.9457 17.6730 17.1395 0.0000 11.4798 0.0000
# 4 0.0000 0.0000 0.0000 24.2073 0.0000 24.7930
# 5 -3.1473 12.2995 11.4798 0.0000 33.8712 0.0000
# 6 0.0000 0.0000 0.0000 24.7930 0.0000 62.3291
#
#
#
# Elastic Compliance Matrix: (Units=1/GPa)
#
#
# Indices 1 2 3 4 5 6 
#
# 1 0.015667 -0.008252 0.003666 0.000000 0.003210 0.000000
# 2 -0.008252 0.012258 -0.009996 0.000000 -0.001830 0.000000
# 3 0.003666 -0.009996 0.084558 0.000000 -0.024688 0.000000
# 4 0.000000 0.000000 0.000000 0.069710 0.000000 -0.027729
# 5 0.003210 -0.001830 -0.024688 0.000000 0.038854 0.000000
# 6 0.000000 0.000000 0.000000 -0.027729 0.000000 0.027074
#
#
# Mechanical properties :
#
#
# Convention : Reuss Voigt Hill
#
# Bulk Modulus (GPa) = 12.00188 49.15551 30.57869
# Shear Modulus (GPa) = 16.39037 35.54931 25.96984
#
# Velocity S-wave (km/s) = 2.93724 4.32574 3.69725
# Velocity P-wave (km/s) = 4.22144 7.12904 5.85849
#
# Compressibility (1/GPa) = 0.08332028
#
# Stress axis : x y z
#
# Youngs Moduli (GPa) = 63.82642 81.57811 11.82627
#
# Poissons Ratio (x) = 0.67314 -0.04335
# Poissons Ratio (y) = 0.52666 0.11821
# Poissons Ratio (z) = -0.23397 0.81543
#
# Static dielectric constant tensor:
#      x y z
#    x 1.626320 0.000000 -0.004400 
#    y 0.000000 1.670790 0.000000 
#    z -0.004400 0.000000 1.699030 
# 
# From -- ./inp_files/31174.got.cif
#   From: 2010.05.17/outbox.cif.g08.bks.cpg/sg10_16_cif.got.tgz:31174.got - 2010.06.03 11:33:40.
