data_PCOD9145541
_publ_section_title
;
Structure prediction by ZEFSAII (Michael W. Deem and Ramdas Pophale) SiO2 
 PCOD9145541
Probable space group: P 2/M
;
_chemical_formula_sum "Si O2"
_cell_formula_units_Z 28
_cell_length_a 23.610363
_cell_length_b 9.476295
_cell_length_c 20.595643
_cell_angle_alpha 90.000000
_cell_angle_beta 160.191368
_cell_angle_gamma 90.000000
_cell_volume 1561.572321
_symmetry_space_group_name_H-M "P 2/M"
_symmetry_group_IT_number 10
_symmetry_cell_setting 'monoclinic'
loop_
_space_group_symop_operation_xyz
x,y,z
-x,y,-z
-x,-y,-z
x,-y,z
loop_
_atom_site_type_symbol
_atom_site_label
_atom_site_fract_x
_atom_site_fract_y
_atom_site_fract_z
Si Si1 0.961705 0.172276 0.885116
Si Si2 0.344134 0.836070 0.645271
Si Si3 0.090063 0.336395 0.662283
Si Si4 0.397462 0.172025 0.556759
Si Si5 0.482152 0.663607 0.054373
Si Si6 0.238159 0.827977 0.078860
Si Si7 0.957004 0.163929 0.258142
O O1 0.777560 0.218536 0.663267
O O2 0.960921 0.000000 0.882762
O O3 0.000000 0.215260 0.000000
O O4 0.108144 0.218538 0.993850
O O5 0.404411 0.784872 0.639840
O O6 0.415375 0.749296 0.782048
O O7 0.143204 0.830734 0.429612
O O8 0.394431 0.000000 0.706608
O O9 0.038141 0.500000 0.614645
O O10 0.048699 0.250703 0.682026
O O11 0.000000 0.282169 0.500000
O O12 0.287931 0.331905 0.863796
O O13 0.568701 0.215452 0.706098
O O14 0.393623 0.000000 0.552686
O O15 0.538356 0.500000 0.114860
O O16 0.500000 0.717824 0.000000
O O17 0.234554 0.000000 0.075489
O O18 0.168982 0.784868 0.933552
O O19 0.917746 0.000000 0.229925
#
# Coordination Sequence:
#
# PCOD9145541 Si02
#       7
#     4   4   4   4   4   4   4
#     4   9  16  26  40  62  95 131 167 205 247 303
#     4  10  19  32  51  73  98 130 168 210 253 300
#     4  10  21  36  52  71  97 129 165 207 256 306
#     4   9  16  27  43  64  93 128 165 206 251 295
#     4  10  21  36  52  71  97 129 165 207 256 306
#     4   9  16  27  43  64  93 128 165 206 251 295
#     4  10  19  32  51  73  98 130 168 210 253 300
#
# _framework density 17.930644999999998
#
# number of rings (size 3 to 8) (size 9 to 14) (size 15 to 20)
#    0.000    2.429    1.429    1.714    0.000    4.571 
#    0.000    2.857    0.000    0.000    0.000    0.000 
#    0.000    2.286    0.000    6.000    0.000    5.714 
#
# Total GULP energy -156144.276981 kJ/mol
# GULP energy per Si atom -5576.581321 kJ/mol
# Density = 1.788983 g / cm^3
# Si number density = 17.930645 Si / 1000 Ang^3
#
#
#
# Elastic Constant Matrix: (Units=GPa)
#
#
# Indices 1 2 3 4 5 6 
#
# 1 129.2491 23.0717 70.2699 0.0000 -6.2110 0.0000
# 2 23.0717 14.0478 19.0037 0.0000 -4.4534 0.0000
# 3 70.2699 19.0037 119.1733 0.0000 -4.8182 0.0000
# 4 0.0000 0.0000 0.0000 3.9242 0.0000 13.1037
# 5 -6.2110 -4.4534 -4.8182 0.0000 28.1763 0.0000
# 6 0.0000 0.0000 0.0000 13.1037 0.0000 -8.0510
#
#
#
# Elastic Compliance Matrix: (Units=1/GPa)
#
#
# Indices 1 2 3 4 5 6 
#
# 1 0.013330 -0.014456 -0.005567 0.000000 -0.000298 0.000000
# 2 -0.014456 0.110626 -0.008598 0.000000 0.012828 0.000000
# 3 -0.005567 -0.008598 0.013030 0.000000 -0.000358 0.000000
# 4 0.000000 0.000000 0.000000 0.039601 0.000000 0.064455
# 5 -0.000298 0.012828 -0.000358 0.000000 0.037391 0.000000
# 6 0.000000 0.000000 0.000000 0.064455 0.000000 -0.019302
#
#
# Mechanical properties :
#
#
# Convention : Reuss Voigt Hill
#
# Bulk Modulus (GPa) = 12.54016 54.12897 33.33457
# Shear Modulus (GPa) = 17.95340 14.81824 16.38582
#
# Velocity S-wave (km/s) = 3.16772 2.87787 3.02627
# Velocity P-wave (km/s) = 4.51532 6.42622 5.55358
#
# Compressibility (1/GPa) = 0.07974378
#
# Stress axis : x y z
#
# Youngs Moduli (GPa) = 75.02106 9.03948 76.74589
#
# Poissons Ratio (x) = 0.13068 0.42721
# Poissons Ratio (y) = 1.08453 0.65986
# Poissons Ratio (z) = 0.41761 0.07772
#
# Static dielectric constant tensor:
#      x y z
#    x 1.606930 0.000000 0.018010 
#    y 0.000000 1.590700 0.000000 
#    z 0.018010 0.000000 1.623390 
# 
# From -- ./inp_files/37956.got.cif
#   From: 2010.05.17/outbox.cif.g08.bks.cpg/sg10_19_cif.got.tgz:37956.got - 2010.06.03 11:33:40.
