data_PCOD9145810
_publ_section_title
;
Structure prediction by ZEFSAII (Michael W. Deem and Ramdas Pophale) SiO2 
 PCOD9145810
Probable space group: P 2/M
;
_chemical_formula_sum "Si O2"
_cell_formula_units_Z 32
_cell_length_a 11.061266
_cell_length_b 7.419978
_cell_length_c 16.629391
_cell_angle_alpha 90.000000
_cell_angle_beta 96.346113
_cell_angle_gamma 90.000000
_cell_volume 1356.483117
_symmetry_space_group_name_H-M "P 2/M"
_symmetry_group_IT_number 10
_symmetry_cell_setting 'monoclinic'
loop_
_space_group_symop_operation_xyz
x,y,z
-x,y,-z
-x,-y,-z
x,-y,z
loop_
_atom_site_type_symbol
_atom_site_label
_atom_site_fract_x
_atom_site_fract_y
_atom_site_fract_z
Si Si1 0.307210 0.794040 0.890776
Si Si2 0.562303 0.218473 0.867957
Si Si3 0.165853 0.294278 0.730890
Si Si4 0.367678 0.292301 0.470780
Si Si5 0.931656 0.218573 0.817337
Si Si6 0.870937 0.279139 0.453350
Si Si7 0.178094 0.216385 0.029863
Si Si8 0.325585 0.782625 0.283751
O O1 0.441031 0.710999 0.900990
O O2 0.263059 0.797013 0.796059
O O3 0.321985 0.000000 0.920320
O O4 0.201782 0.717772 0.940929
O O5 0.688590 0.254039 0.922058
O O6 0.578694 0.277930 0.777000
O O7 0.552873 0.000000 0.865648
O O8 0.206272 0.500000 0.724854
O O9 0.143914 0.221319 0.640277
O O10 0.041664 0.288166 0.772531
O O11 0.500000 0.210643 0.500000
O O12 0.373711 0.500000 0.499201
O O13 0.246943 0.217655 0.504953
O O14 0.347694 0.287941 0.373926
O O15 0.916039 0.281362 0.909031
O O16 0.806884 0.263841 0.761543
O O17 0.942749 0.000000 0.820240
O O18 0.874089 0.500000 0.454938
O O19 0.000000 0.220462 0.500000
O O20 0.154970 0.000000 0.025286
O O21 0.330272 0.000000 0.288316
#
# Coordination Sequence:
#
# PCOD9145810 Si02
#       8
#     4   4   4   4   4   4   4   4
#     4  10  19  32  53  79 107 139 175 214 256 308
#     4   8  15  29  52  80 107 136 173 214 256 308
#     4  11  23  36  53  76 105 138 172 216 268 315
#     4  10  21  35  54  79 105 138 181 222 260 318
#     4   9  18  35  56  77 103 134 176 220 257 306
#     4   9  19  37  57  74  98 137 182 222 262 314
#     4   8  15  30  54  80 103 135 178 218 254 300
#     4   9  18  33  54  80 107 134 165 214 272 314
#
# _framework density 23.590415
#
# number of rings (size 3 to 8) (size 9 to 14) (size 15 to 20)
#    0.000    2.750    0.000    3.000    1.750    3.750 
#    0.000    4.375    0.000    6.375    0.000    0.000 
#    0.000    0.000    0.000    0.000    0.000    0.000 
#
# Total GULP energy -178661.947066 kJ/mol
# GULP energy per Si atom -5583.185846 kJ/mol
# Density = 2.353672 g / cm^3
# Si number density = 23.590415 Si / 1000 Ang^3
#
#
#
# Elastic Constant Matrix: (Units=GPa)
#
#
# Indices 1 2 3 4 5 6 
#
# 1 131.2798 1.7342 49.9995 0.0000 -19.3961 0.0000
# 2 1.7342 68.4006 -4.4055 0.0000 -2.8608 0.0000
# 3 49.9995 -4.4055 161.9496 0.0000 -15.8813 0.0000
# 4 0.0000 0.0000 0.0000 25.0674 0.0000 -2.9520
# 5 -19.3961 -2.8608 -15.8813 0.0000 26.8600 0.0000
# 6 0.0000 0.0000 0.0000 -2.9520 0.0000 8.5376
#
#
#
# Elastic Compliance Matrix: (Units=1/GPa)
#
#
# Indices 1 2 3 4 5 6 
#
# 1 0.009301 -0.000166 -0.002356 0.000000 0.005306 0.000000
# 2 -0.000166 0.014741 0.000631 0.000000 0.001823 0.000000
# 3 -0.002356 0.000631 0.007175 0.000000 0.002608 0.000000
# 4 0.000000 0.000000 0.000000 0.041586 0.000000 0.014379
# 5 0.005306 0.001823 0.002608 0.000000 0.042798 0.000000
# 6 0.000000 0.000000 0.000000 0.014379 0.000000 0.122100
#
#
# Mechanical properties :
#
#
# Convention : Reuss Voigt Hill
#
# Bulk Modulus (GPa) = 36.44874 50.69848 43.57361
# Shear Modulus (GPa) = 19.95003 33.04646 26.49824
#
# Velocity S-wave (km/s) = 2.91122 3.74684 3.35515
# Velocity P-wave (km/s) = 5.17537 6.34478 5.78968
#
# Compressibility (1/GPa) = 0.02743579
#
# Stress axis : x y z
#
# Youngs Moduli (GPa) = 107.52032 67.83869 139.37317
#
# Poissons Ratio (x) = 0.01124 0.32831
# Poissons Ratio (y) = 0.01781 -0.08794
# Poissons Ratio (z) = 0.25328 -0.04280
#
# Static dielectric constant tensor:
#      x y z
#    x 1.886990 0.000000 -0.011140 
#    y 0.000000 1.915870 0.000000 
#    z -0.011140 0.000000 1.872220 
# 
# From -- ./inp_files/63776.got.cif
#   From: 2010.05.17/outbox.cif.g08.bks.cpg/sg10_32_cif.got.tgz:63776.got - 2010.06.03 11:33:40.
