data_PCOD9145046
_publ_section_title
;
Structure prediction by ZEFSAII (Michael W. Deem and Ramdas Pophale) SiO2 
 PCOD9145046
Probable space group: P 2/M
;
_chemical_formula_sum "Si O2"
_cell_formula_units_Z 28
_cell_length_a 30.550615
_cell_length_b 7.561949
_cell_length_c 9.407917
_cell_angle_alpha 90.000000
_cell_angle_beta 140.725793
_cell_angle_gamma 90.000000
_cell_volume 1375.856530
_symmetry_space_group_name_H-M "P 2/M"
_symmetry_group_IT_number 10
_symmetry_cell_setting 'monoclinic'
loop_
_space_group_symop_operation_xyz
x,y,z
-x,y,-z
-x,-y,-z
x,-y,z
loop_
_atom_site_type_symbol
_atom_site_label
_atom_site_fract_x
_atom_site_fract_y
_atom_site_fract_z
Si Si1 0.783679 0.215912 0.854894
Si Si2 0.066883 0.209420 0.746607
Si Si3 0.633942 0.288882 0.163920
Si Si4 0.066811 0.714618 0.081029
Si Si5 0.366536 0.211179 0.502604
Si Si6 0.216575 0.704896 0.480031
Si Si7 0.504775 0.789928 0.353258
O O1 0.710320 0.273968 0.734497
O O2 0.783481 0.284253 0.692257
O O3 0.784157 0.000000 0.849814
O O4 0.856547 0.275988 0.103552
O O5 0.000000 0.286061 0.500000
O O6 0.067965 0.000000 0.719273
O O7 0.060652 0.233503 0.900500
O O8 0.638236 0.500000 0.167299
O O9 0.625259 0.242537 0.308237
O O10 0.708127 0.217252 0.293652
O O11 0.567306 0.231627 0.909454
O O12 0.068745 0.500000 0.090310
O O13 0.141034 0.780065 0.328092
O O14 0.000000 0.774796 0.000000
O O15 0.431017 0.283670 0.576369
O O16 0.365957 0.000000 0.483100
O O17 0.216496 0.500000 0.525052
O O18 0.500000 0.715777 0.500000
O O19 0.517005 0.000000 0.396796
#
# Coordination Sequence:
#
# PCOD9145046 Si02
#       7
#     4   4   4   4   4   4   4
#     4   8  14  26  45  66  87 115 151 187 223 262
#     4   9  17  29  45  67  95 122 149 186 229 269
#     4  10  19  31  50  73  93 115 148 190 231 270
#     4   9  17  30  48  68  91 121 155 187 220 264
#     4   9  17  31  51  70  88 116 155 193 224 261
#     4   8  15  28  45  66  91 116 145 185 227 262
#     4  10  21  35  48  65  93 125 153 183 222 269
#
# _framework density 20.350960000000001
#
# number of rings (size 3 to 8) (size 9 to 14) (size 15 to 20)
#    0.000    3.000    0.000    0.857    0.000    3.714 
#    0.000    1.429    0.000    1.714    0.000    0.000 
#    0.000    0.000    0.000    0.000    0.000    0.000 
#
# Total GULP energy -155947.690382 kJ/mol
# GULP energy per Si atom -5569.560371 kJ/mol
# Density = 2.030464 g / cm^3
# Si number density = 20.350960 Si / 1000 Ang^3
#
#
#
# Elastic Constant Matrix: (Units=GPa)
#
#
# Indices 1 2 3 4 5 6 
#
# 1 132.5643 -3.3342 99.7471 0.0000 54.6830 0.0000
# 2 -3.3342 49.6003 -3.8173 0.0000 3.2141 0.0000
# 3 99.7471 -3.8173 168.5568 0.0000 57.7729 0.0000
# 4 0.0000 0.0000 0.0000 -9.1282 0.0000 -7.0505
# 5 54.6830 3.2141 57.7729 0.0000 44.0958 0.0000
# 6 0.0000 0.0000 0.0000 -7.0505 0.0000 14.3567
#
#
#
# Elastic Compliance Matrix: (Units=1/GPa)
#
#
# Indices 1 2 3 4 5 6 
#
# 1 0.017935 0.001802 -0.005272 0.000000 -0.015466 0.000000
# 2 0.001802 0.020727 0.001247 0.000000 -0.005379 0.000000
# 3 -0.005272 0.001247 0.012472 0.000000 -0.009893 0.000000
# 4 0.000000 0.000000 0.000000 -0.079424 0.000000 -0.039005
# 5 -0.015466 -0.005379 -0.009893 0.000000 0.055210 0.000000
# 6 0.000000 0.000000 0.000000 -0.039005 0.000000 0.050499
#
#
# Mechanical properties :
#
#
# Convention : Reuss Voigt Hill
#
# Bulk Modulus (GPa) = 21.41921 59.54583 40.48252
# Shear Modulus (GPa) = 51.32003 27.07325 39.19664
#
# Velocity S-wave (km/s) = 5.02715 3.65131 4.39342
# Velocity P-wave (km/s) = 6.65162 6.86288 6.75807
#
# Compressibility (1/GPa) = 0.04668706
#
# Stress axis : x y z
#
# Youngs Moduli (GPa) = 55.75607 48.24676 80.18262
#
# Poissons Ratio (x) = -0.08695 0.42271
# Poissons Ratio (y) = -0.10048 -0.09995
# Poissons Ratio (z) = 0.29394 -0.06014
#
# Static dielectric constant tensor:
#      x y z
#    x 1.741170 0.000000 0.070570 
#    y 0.000000 1.799060 0.000000 
#    z 0.070570 0.000000 1.744490 
# 
# From -- ./inp_files/37957.got.cif
#   From: 2010.05.17/outbox.cif.g08.bks.cpg/sg10_19_cif.got.tgz:37957.got - 2010.06.03 11:33:40.
