data_PCOD9145453
_publ_section_title
;
Structure prediction by ZEFSAII (Michael W. Deem and Ramdas Pophale) SiO2 
 PCOD9145453
Probable space group: P 2/M
;
_chemical_formula_sum "Si O2"
_cell_formula_units_Z 28
_cell_length_a 15.457699
_cell_length_b 7.444326
_cell_length_c 11.579277
_cell_angle_alpha 90.000000
_cell_angle_beta 116.258977
_cell_angle_gamma 90.000000
_cell_volume 1194.947803
_symmetry_space_group_name_H-M "P 2/M"
_symmetry_group_IT_number 10
_symmetry_cell_setting 'monoclinic'
loop_
_space_group_symop_operation_xyz
x,y,z
-x,y,-z
-x,-y,-z
x,-y,z
loop_
_atom_site_type_symbol
_atom_site_label
_atom_site_fract_x
_atom_site_fract_y
_atom_site_fract_z
Si Si1 0.813521 0.701674 0.862393
Si Si2 0.694295 0.711212 0.152099
Si Si3 0.406667 0.717434 0.674733
Si Si4 0.379381 0.792646 0.131426
Si Si5 0.049897 0.718462 0.412706
Si Si6 0.757204 0.280550 0.581270
Si Si7 0.889491 0.720189 0.142274
O O1 0.852190 0.500000 0.863493
O O2 0.707183 0.691009 0.856859
O O3 0.793871 0.786272 0.726670
O O4 0.877419 0.782213 0.003181
O O5 0.710305 0.500000 0.182042
O O6 0.649371 0.783287 0.243422
O O7 0.796721 0.779709 0.163461
O O8 0.620264 0.733406 0.002000
O O9 0.405200 0.500000 0.675564
O O10 0.517621 0.770120 0.748974
O O11 0.346339 0.777145 0.527331
O O12 0.351696 0.000000 0.117568
O O13 0.047921 0.500000 0.414464
O O14 0.160603 0.768938 0.462293
O O15 0.000000 0.782148 0.500000
O O16 0.985910 0.772866 0.265148
O O17 0.753941 0.500000 0.587079
O O18 0.885846 0.500000 0.136055
#
# Coordination Sequence:
#
# PCOD9145453 Si02
#       7
#     4   4   4   4   4   4   4
#     4   9  18  34  51  70  99 133 170 205 242 291
#     4   9  17  31  51  75 102 131 162 197 244 301
#     4  10  19  32  50  72 100 133 166 201 246 297
#     4  11  22  34  50  72  97 127 167 212 254 294
#     4   9  15  24  42  73 108 132 155 196 247 291
#     4   9  18  30  47  72 101 134 168 201 239 291
#     4   8  14  25  44  69  99 132 159 193 241 286
#
# _framework density 23.431986999999999
#
# number of rings (size 3 to 8) (size 9 to 14) (size 15 to 20)
#    0.000    2.714    0.000    3.429    0.000    6.857 
#    0.000    6.429    0.000    0.000    0.000   12.000 
#    0.000   17.143    0.000    0.000    0.000    0.000 
#
# Total GULP energy -156377.765301 kJ/mol
# GULP energy per Si atom -5584.920189 kJ/mol
# Density = 2.337865 g / cm^3
# Si number density = 23.431987 Si / 1000 Ang^3
#
#
#
# Elastic Constant Matrix: (Units=GPa)
#
#
# Indices 1 2 3 4 5 6 
#
# 1 25.4904 -8.0826 20.2574 0.0000 8.8306 0.0000
# 2 -8.0826 66.9541 -26.9746 0.0000 -8.0246 0.0000
# 3 20.2574 -26.9746 94.6189 0.0000 5.5346 0.0000
# 4 0.0000 0.0000 0.0000 -71.9050 0.0000 -10.6356
# 5 8.8306 -8.0246 5.5346 0.0000 40.8610 0.0000
# 6 0.0000 0.0000 0.0000 -10.6356 0.0000 -41.3916
#
#
#
# Elastic Compliance Matrix: (Units=1/GPa)
#
#
# Indices 1 2 3 4 5 6 
#
# 1 0.050785 0.000952 -0.010050 0.000000 -0.009427 0.000000
# 2 0.000952 0.017189 0.004547 0.000000 0.002554 0.000000
# 3 -0.010050 0.004547 0.013948 0.000000 0.001176 0.000000
# 4 0.000000 0.000000 0.000000 -0.014457 0.000000 0.003715
# 5 -0.009427 0.002554 0.001176 0.000000 0.026853 0.000000
# 6 0.000000 0.000000 0.000000 0.003715 0.000000 -0.025114
#
#
# Mechanical properties :
#
#
# Convention : Reuss Voigt Hill
#
# Bulk Modulus (GPa) = 13.73263 17.49598 15.61431
# Shear Modulus (GPa) = 48.74291 -1.02958 23.85667
#
# Velocity S-wave (km/s) = 4.56585 -0.66358 3.19427
# Velocity P-wave (km/s) = 5.80253 2.62598 4.50362
#
# Compressibility (1/GPa) = 0.07281925
#
# Stress axis : x y z
#
# Youngs Moduli (GPa) = 19.69084 58.17831 71.69540
#
# Poissons Ratio (x) = -0.05538 0.72054
# Poissons Ratio (y) = -0.01874 -0.32600
# Poissons Ratio (z) = 0.19789 -0.26454
#
# Static dielectric constant tensor:
#      x y z
#    x 1.851270 0.000000 -0.018980 
#    y 0.000000 1.943920 0.000000 
#    z -0.018980 0.000000 1.878940 
# 
# From -- ./inp_files/49077.got.cif
#   From: 2010.05.17/outbox.cif.g08.bks.cpg/sg10_25_cif.got.tgz:49077.got - 2010.06.03 11:33:40.
