data_PCOD9145875
_publ_section_title
;
Structure prediction by ZEFSAII (Michael W. Deem and Ramdas Pophale) SiO2 
 PCOD9145875
Probable space group: P 2/M
;
_chemical_formula_sum "Si O2"
_cell_formula_units_Z 24
_cell_length_a 18.688711
_cell_length_b 7.670635
_cell_length_c 28.170329
_cell_angle_alpha 90.000000
_cell_angle_beta 19.169888
_cell_angle_gamma 90.000000
_cell_volume 1326.069938
_symmetry_space_group_name_H-M "P 2/M"
_symmetry_group_IT_number 10
_symmetry_cell_setting 'monoclinic'
loop_
_space_group_symop_operation_xyz
x,y,z
-x,y,-z
-x,-y,-z
x,-y,z
loop_
_atom_site_type_symbol
_atom_site_label
_atom_site_fract_x
_atom_site_fract_y
_atom_site_fract_z
Si Si1 0.322048 0.797121 0.272093
Si Si2 0.885300 0.699423 0.498734
Si Si3 0.781263 0.211396 0.112080
Si Si4 0.392653 0.500000 0.490942
Si Si5 0.848666 0.500000 0.257279
Si Si6 0.193581 0.211628 0.014380
Si Si7 0.359201 0.798986 0.436545
O O1 0.250561 0.779061 0.372161
O O2 0.136289 0.705900 0.357736
O O3 0.308533 0.000000 0.268608
O O4 0.571881 0.742374 0.109848
O O5 0.816861 0.500000 0.537145
O O6 0.834116 0.788975 0.480979
O O7 0.569809 0.262394 0.274236
O O8 0.782516 0.000000 0.112371
O O9 0.781091 0.257953 0.057137
O O10 0.000000 0.275350 0.000000
O O11 0.648004 0.500000 0.345718
O O12 0.257089 0.500000 0.624422
O O13 0.337143 0.669101 0.494123
O O14 0.998875 0.328939 0.156099
O O15 0.160827 0.000000 0.038745
O O16 0.390018 0.000000 0.432063
#
# Coordination Sequence:
#
# PCOD9145875 Si02
#       7
#     4   4   4   2   2   4   4
#     4  10  19  32  53  86 126 162 197 229 281 354
#     4  11  20  31  53  88 126 161 197 228 283 356
#     4   9  17  30  52  84 116 148 184 225 286 354
#     4  11  26  45  58  89 106 155 207 248 290 350
#     4  11  26  43  64  79 118 147 205 256 288 336
#     4  10  21  37  60  88 118 155 191 235 295 351
#     4  11  21  38  61  85 121 155 188 242 294 348
#
# _framework density 18.098592
#
# number of rings (size 3 to 8) (size 9 to 14) (size 15 to 20)
#    0.000    1.667    2.500    4.000    2.333    3.333 
#    0.000    3.333    0.000    2.000    0.000    3.500 
#    0.000    0.000    0.000    0.000    0.000    0.000 
#
# Total GULP energy -133979.267410 kJ/mol
# GULP energy per Si atom -5582.469475 kJ/mol
# Density = 1.805740 g / cm^3
# Si number density = 18.098592 Si / 1000 Ang^3
#
#
#
# Elastic Constant Matrix: (Units=GPa)
#
#
# Indices 1 2 3 4 5 6 
#
# 1 101.3597 35.0982 46.3089 0.0000 -9.4367 0.0000
# 2 35.0982 78.3022 25.4433 0.0000 0.4195 0.0000
# 3 46.3089 25.4433 71.9594 0.0000 -11.3966 0.0000
# 4 0.0000 0.0000 0.0000 26.5535 0.0000 1.7695
# 5 -9.4367 0.4195 -11.3966 0.0000 27.0661 0.0000
# 6 0.0000 0.0000 0.0000 1.7695 0.0000 26.9584
#
#
#
# Elastic Compliance Matrix: (Units=1/GPa)
#
#
# Indices 1 2 3 4 5 6 
#
# 1 0.015137 -0.004218 -0.007933 0.000000 0.002003 0.000000
# 2 -0.004218 0.015769 -0.003357 0.000000 -0.003128 0.000000
# 3 -0.007933 -0.003357 0.021171 0.000000 0.006200 0.000000
# 4 0.000000 0.000000 0.000000 0.037825 0.000000 -0.002483
# 5 0.002003 -0.003128 0.006200 0.000000 0.040304 0.000000
# 6 0.000000 0.000000 0.000000 -0.002483 0.000000 0.037257
#
#
# Mechanical properties :
#
#
# Convention : Reuss Voigt Hill
#
# Bulk Modulus (GPa) = 47.47880 51.70245 49.59063
# Shear Modulus (GPa) = 24.33096 25.76700 25.04898
#
# Velocity S-wave (km/s) = 3.67052 3.77729 3.72429
# Velocity P-wave (km/s) = 6.65237 6.90312 6.77890
#
# Compressibility (1/GPa) = 0.02106203
#
# Stress axis : x y z
#
# Youngs Moduli (GPa) = 66.06206 63.41465 47.23521
#
# Poissons Ratio (x) = 0.26750 0.37471
# Poissons Ratio (y) = 0.27866 0.15855
# Poissons Ratio (z) = 0.52406 0.21285
#
# Static dielectric constant tensor:
#      x y z
#    x 1.624040 0.000000 -0.043560 
#    y 0.000000 1.636130 0.000000 
#    z -0.043560 0.000000 1.614900 
# 
# From -- ./inp_files/93373.got.cif
#   From: 2010.05.17/outbox.cif.g08.bks.cpg/sg10_47_cif.got.tgz:93373.got - 2010.06.03 11:33:40.
