data_PCOD9145826
_publ_section_title
;
Structure prediction by ZEFSAII (Michael W. Deem and Ramdas Pophale) SiO2 
 PCOD9145826
Probable space group: P 2/M
;
_chemical_formula_sum "Si O2"
_cell_formula_units_Z 18
_cell_length_a 6.956882
_cell_length_b 22.240273
_cell_length_c 5.339120
_cell_angle_alpha 90.000000
_cell_angle_beta 77.627890
_cell_angle_gamma 90.000000
_cell_volume 806.900008
_symmetry_space_group_name_H-M "P 2/M"
_symmetry_group_IT_number 10
_symmetry_cell_setting 'monoclinic'
loop_
_space_group_symop_operation_xyz
x,y,z
-x,y,-z
-x,-y,-z
x,-y,z
loop_
_atom_site_type_symbol
_atom_site_label
_atom_site_fract_x
_atom_site_fract_y
_atom_site_fract_z
Si Si1 0.132886 0.933491 0.711986
Si Si2 0.722030 0.241911 0.721476
Si Si3 0.865674 0.369279 0.787552
Si Si4 0.134760 0.500000 0.211857
Si Si5 0.720658 0.192956 0.221591
O O1 0.272433 0.876171 0.699585
O O2 0.000000 0.926407 0.500000
O O3 0.226947 0.000000 0.671067
O O4 0.000000 0.933081 0.000000
O O5 0.730738 0.310893 0.801659
O O6 0.810923 0.232089 0.421383
O O7 0.500309 0.217712 0.749931
O O8 0.810677 0.202494 0.921686
O O9 0.761873 0.434905 0.820638
O O10 0.000000 0.368638 0.500000
O O11 0.000000 0.364118 0.000000
O O12 0.000000 0.500000 0.500000
O O13 0.000000 0.500000 0.000000
#
# Coordination Sequence:
#
# PCOD9145826 Si02
#       5
#     4   4   4   2   4
#     4  10  21  37  58  82 106 134 172 219 267 316
#     4  10  21  35  52  77 109 144 176 215 260 313
#     4  10  19  32  53  80 107 139 179 220 262 308
#     4   8  16  30  48  74 106 136 172 218 264 308
#     4  10  21  37  53  75 110 142 174 214 260 319
#
# _framework density 22.307599
#
# number of rings (size 3 to 8) (size 9 to 14) (size 15 to 20)
#    0.000    2.222    0.000    2.667    0.000    5.333 
#    0.000    4.444    0.000    5.333    0.000    0.000 
#    0.000    0.000    0.000    0.000    0.000    0.000 
#
# Total GULP energy -100434.474962 kJ/mol
# GULP energy per Si atom -5579.693053 kJ/mol
# Density = 2.225683 g / cm^3
# Si number density = 22.307599 Si / 1000 Ang^3
#
#
#
# Elastic Constant Matrix: (Units=GPa)
#
#
# Indices 1 2 3 4 5 6 
#
# 1 60.2984 49.8358 25.2963 0.0000 11.4046 0.0000
# 2 49.8358 275.6363 33.1668 0.0000 31.1318 0.0000
# 3 25.2963 33.1668 202.5221 0.0000 20.2801 0.0000
# 4 0.0000 0.0000 0.0000 36.8487 0.0000 5.3497
# 5 11.4046 31.1318 20.2801 0.0000 25.9141 0.0000
# 6 0.0000 0.0000 0.0000 5.3497 0.0000 9.3988
#
#
#
# Elastic Compliance Matrix: (Units=1/GPa)
#
#
# Indices 1 2 3 4 5 6 
#
# 1 0.020582 -0.003061 -0.001661 0.000000 -0.004082 0.000000
# 2 -0.003061 0.004660 0.000049 0.000000 -0.004289 0.000000
# 3 -0.001661 0.000049 0.005501 0.000000 -0.003632 0.000000
# 4 0.000000 0.000000 0.000000 0.029583 0.000000 -0.016838
# 5 -0.004082 -0.004289 -0.003632 0.000000 0.048381 0.000000
# 6 0.000000 0.000000 0.000000 -0.016838 0.000000 0.115980
#
#
# Mechanical properties :
#
#
# Convention : Reuss Voigt Hill
#
# Bulk Modulus (GPa) = 46.73390 83.89495 65.31443
# Shear Modulus (GPa) = 20.73266 43.10951 31.92108
#
# Velocity S-wave (km/s) = 3.05191 4.40079 3.78690
# Velocity P-wave (km/s) = 5.78050 7.96948 6.96156
#
# Compressibility (1/GPa) = 0.02139774
#
# Stress axis : x y z
#
# Youngs Moduli (GPa) = 48.58514 214.59572 181.78592
#
# Poissons Ratio (x) = 0.65677 0.30194
# Poissons Ratio (y) = 0.14870 -0.00884
# Poissons Ratio (z) = 0.08070 -0.01044
#
# Static dielectric constant tensor:
#      x y z
#    x 1.558540 0.000000 0.094810 
#    y 0.000000 1.843290 0.000000 
#    z 0.094810 0.000000 1.815260 
# 
# From -- ./inp_files/4117.got.cif
#   From: 2010.05.17/outbox.cif.g08.bks.cpg/sg10_3_cif.got.tgz:4117.got - 2010.06.03 11:33:40.
