data_PCOD9145692
_publ_section_title
;
Structure prediction by ZEFSAII (Michael W. Deem and Ramdas Pophale) SiO2 
 PCOD9145692
Probable space group: P 2/M
;
_chemical_formula_sum "Si O2"
_cell_formula_units_Z 28
_cell_length_a 15.522267
_cell_length_b 7.732174
_cell_length_c 17.187476
_cell_angle_alpha 90.000000
_cell_angle_beta 46.371321
_cell_angle_gamma 90.000000
_cell_volume 1493.149880
_symmetry_space_group_name_H-M "P 2/M"
_symmetry_group_IT_number 10
_symmetry_cell_setting 'monoclinic'
loop_
_space_group_symop_operation_xyz
x,y,z
-x,y,-z
-x,-y,-z
x,-y,z
loop_
_atom_site_type_symbol
_atom_site_label
_atom_site_fract_x
_atom_site_fract_y
_atom_site_fract_z
Si Si1 0.380544 0.703188 0.913851
Si Si2 0.753299 0.798577 0.847641
Si Si3 0.185970 0.209087 0.916840
Si Si4 0.355249 0.700382 0.242522
Si Si5 0.974442 0.209381 0.307958
Si Si6 0.881830 0.705839 0.530772
Si Si7 0.057413 0.210825 0.845273
O O1 0.388960 0.500000 0.927085
O O2 0.305335 0.725851 0.882230
O O3 0.513988 0.776694 0.825747
O O4 0.306641 0.784129 0.030853
O O5 0.677067 0.707846 0.828479
O O6 0.888704 0.731312 0.766084
O O7 0.758412 0.000000 0.822788
O O8 0.154043 0.265971 0.849167
O O9 0.189537 0.000000 0.915423
O O10 0.072432 0.261229 0.040625
O O11 0.363516 0.500000 0.262341
O O12 0.241368 0.777766 0.358230
O O13 0.898294 0.266443 0.429047
O O14 0.929442 0.268994 0.251505
O O15 0.976722 0.000000 0.305228
O O16 0.880398 0.500000 0.547759
O O17 0.000000 0.777193 0.500000
O O18 0.058428 0.000000 0.844564
#
# Coordination Sequence:
#
# PCOD9145692 Si02
#       7
#     4   4   4   4   4   4   4
#     4  11  22  34  50  73 106 140 167 204 252 300
#     4  11  21  33  52  77 104 134 169 206 246 301
#     4   9  16  31  54  75 100 133 168 202 248 305
#     4  10  22  38  51  69 102 140 173 207 252 298
#     4  10  19  32  52  78 105 129 161 207 257 298
#     4  10  20  35  54  72  95 133 176 211 247 294
#     4   8  15  30  52  76 102 132 161 202 258 302
#
# _framework density 18.752305
#
# number of rings (size 3 to 8) (size 9 to 14) (size 15 to 20)
#    0.000    2.143    2.857    2.143    0.000    4.286 
#    0.000    2.143    0.000    0.857    0.000    6.000 
#    0.000    0.000    0.000    0.000    0.000    0.000 
#
# Total GULP energy -156255.412203 kJ/mol
# GULP energy per Si atom -5580.550436 kJ/mol
# Density = 1.870962 g / cm^3
# Si number density = 18.752305 Si / 1000 Ang^3
#
#
#
# Elastic Constant Matrix: (Units=GPa)
#
#
# Indices 1 2 3 4 5 6 
#
# 1 134.4039 -10.1364 60.8317 0.0000 -1.5318 0.0000
# 2 -10.1364 26.5042 0.6978 0.0000 -4.6408 0.0000
# 3 60.8317 0.6978 74.1875 0.0000 -8.7182 0.0000
# 4 0.0000 0.0000 0.0000 15.6423 0.0000 10.9479
# 5 -1.5318 -4.6408 -8.7182 0.0000 28.4411 0.0000
# 6 0.0000 0.0000 0.0000 10.9479 0.0000 26.6354
#
#
#
# Elastic Compliance Matrix: (Units=1/GPa)
#
#
# Indices 1 2 3 4 5 6 
#
# 1 0.012553 0.004767 -0.010547 0.000000 -0.001779 0.000000
# 2 0.004767 0.040661 -0.003612 0.000000 0.005784 0.000000
# 3 -0.010547 -0.003612 0.022849 0.000000 0.005847 0.000000
# 4 0.000000 0.000000 0.000000 0.089747 0.000000 -0.036889
# 5 -0.001779 0.005784 0.005847 0.000000 0.037801 0.000000
# 6 0.000000 0.000000 0.000000 -0.036889 0.000000 0.052706
#
#
# Mechanical properties :
#
#
# Convention : Reuss Voigt Hill
#
# Bulk Modulus (GPa) = 17.45822 37.54240 27.50031
# Shear Modulus (GPa) = 16.99561 26.39059 21.69310
#
# Velocity S-wave (km/s) = 3.01378 3.75550 3.40490
# Velocity P-wave (km/s) = 4.63040 6.23448 5.49133
#
# Compressibility (1/GPa) = 0.05727960
#
# Stress axis : x y z
#
# Youngs Moduli (GPa) = 79.66101 24.59363 43.76604
#
# Poissons Ratio (x) = -0.11724 0.46161
# Poissons Ratio (y) = -0.37975 0.15806
# Poissons Ratio (z) = 0.84020 0.08882
#
# Static dielectric constant tensor:
#      x y z
#    x 1.649210 0.000000 -0.013850 
#    y 0.000000 1.699690 0.000000 
#    z -0.013850 0.000000 1.636230 
# 
# From -- ./inp_files/49135.got.cif
#   From: 2010.05.17/outbox.cif.g08.bks.cpg/sg10_25_cif.got.tgz:49135.got - 2010.06.03 11:33:40.
