data_PCOD9145814
_publ_section_title
;
Structure prediction by ZEFSAII (Michael W. Deem and Ramdas Pophale) SiO2 
 PCOD9145814
Probable space group: P 2/M
;
_chemical_formula_sum "Si O2"
_cell_formula_units_Z 30
_cell_length_a 30.080876
_cell_length_b 7.743253
_cell_length_c 19.555936
_cell_angle_alpha 90.000000
_cell_angle_beta 16.906387
_cell_angle_gamma 90.000000
_cell_volume 1324.646993
_symmetry_space_group_name_H-M "P 2/M"
_symmetry_group_IT_number 10
_symmetry_cell_setting 'monoclinic'
loop_
_space_group_symop_operation_xyz
x,y,z
-x,y,-z
-x,-y,-z
x,-y,z
loop_
_atom_site_type_symbol
_atom_site_label
_atom_site_fract_x
_atom_site_fract_y
_atom_site_fract_z
Si Si1 0.048456 0.706718 0.215420
Si Si2 0.388096 0.301027 0.036156
Si Si3 0.947135 0.203907 0.502637
Si Si4 0.859707 0.203003 0.064332
Si Si5 0.204195 0.794756 0.600454
Si Si6 0.530555 0.000000 0.192708
Si Si7 0.619707 0.686233 0.525103
Si Si8 0.294228 0.291868 0.320294
O O1 0.049092 0.500000 0.214057
O O2 0.149833 0.769227 0.003029
O O3 0.069613 0.768698 0.261885
O O4 0.877266 0.769948 0.447376
O O5 0.444899 0.500000 0.944591
O O6 0.205232 0.306126 0.291654
O O7 0.395438 0.245571 0.105181
O O8 0.442814 0.154076 0.904095
O O9 0.000000 0.255113 0.500000
O O10 0.909109 0.000000 0.561551
O O11 0.030362 0.257451 0.838478
O O12 0.849859 0.000000 0.094269
O O13 0.730504 0.297201 0.297182
O O14 0.270124 0.703333 0.570051
O O15 0.302886 0.763536 0.386603
O O16 0.211711 0.000000 0.605347
O O17 0.492256 0.152823 0.304972
O O18 0.542353 0.500000 0.639824
O O19 0.296374 0.500000 0.317486
#
# Coordination Sequence:
#
# PCOD9145814 Si02
#       8
#     4   4   4   4   4   2   4   4
#     4   9  17  29  49  81 116 147 175 208 263 333
#     4  10  21  38  60  81 107 147 184 219 268 325
#     4  10  19  33  57  92 126 148 170 209 263 323
#     4  10  19  34  55  79 109 143 180 225 282 339
#     4  10  19  32  53  79 108 140 175 226 292 342
#     4  12  24  42  55  74 105 142 196 238 269 314
#     4  12  24  38  55  76 104 141 188 241 284 318
#     4   8  16  30  50  77 105 137 178 217 267 334
#
# _framework density 22.647542999999999
#
# number of rings (size 3 to 8) (size 9 to 14) (size 15 to 20)
#    0.000    2.000    2.000    3.200    0.933    5.867 
#    0.000    1.333    0.000    2.400    0.000    1.867 
#    0.000    3.200    0.000    0.000    0.000    0.000 
#
# Total GULP energy -167134.274828 kJ/mol
# GULP energy per Si atom -5571.142494 kJ/mol
# Density = 2.259600 g / cm^3
# Si number density = 22.647543 Si / 1000 Ang^3
#
#
#
# Elastic Constant Matrix: (Units=GPa)
#
#
# Indices 1 2 3 4 5 6 
#
# 1 91.3064 4.6635 24.7935 0.0000 30.9155 0.0000
# 2 4.6635 120.4528 23.4159 0.0000 10.4616 0.0000
# 3 24.7935 23.4159 78.4839 0.0000 43.0793 0.0000
# 4 0.0000 0.0000 0.0000 43.0990 0.0000 14.9914
# 5 30.9155 10.4616 43.0793 0.0000 35.4039 0.0000
# 6 0.0000 0.0000 0.0000 14.9914 0.0000 21.5198
#
#
#
# Elastic Compliance Matrix: (Units=1/GPa)
#
#
# Indices 1 2 3 4 5 6 
#
# 1 0.017243 -0.000120 0.008533 0.000000 -0.025404 0.000000
# 2 -0.000120 0.008852 -0.003688 0.000000 0.001977 0.000000
# 3 0.008533 -0.003688 0.044076 0.000000 -0.059993 0.000000
# 4 0.000000 0.000000 0.000000 0.030623 0.000000 -0.021333
# 5 -0.025404 0.001977 -0.059993 0.000000 0.122844 0.000000
# 6 0.000000 0.000000 0.000000 -0.021333 0.000000 0.061330
#
#
# Mechanical properties :
#
#
# Convention : Reuss Voigt Hill
#
# Bulk Modulus (GPa) = 12.55961 43.99876 28.27918
# Shear Modulus (GPa) = 16.55315 35.82923 26.19119
#
# Velocity S-wave (km/s) = 2.70645 3.98180 3.40438
# Velocity P-wave (km/s) = 3.91462 6.37255 5.28837
#
# Compressibility (1/GPa) = 0.07962033
#
# Stress axis : x y z
#
# Youngs Moduli (GPa) = 57.99492 112.96962 22.68816
#
# Poissons Ratio (x) = 0.01355 -0.19360
# Poissons Ratio (y) = 0.00696 0.08368
# Poissons Ratio (z) = -0.49487 0.41665
#
# Static dielectric constant tensor:
#      x y z
#    x 1.889880 0.000000 -0.036880 
#    y 0.000000 1.811170 0.000000 
#    z -0.036880 0.000000 1.915640 
# 
# From -- ./inp_files/80695.got.cif
#   From: 2010.05.17/outbox.cif.g08.bks.cpg/sg10_41_cif.got.tgz:80695.got - 2010.06.03 11:33:40.
