data_PCOD9145102
_publ_section_title
;
Structure prediction by ZEFSAII (Michael W. Deem and Ramdas Pophale) SiO2 
 PCOD9145102
Probable space group: P 2/M
;
_chemical_formula_sum "Si O2"
_cell_formula_units_Z 18
_cell_length_a 7.681067
_cell_length_b 12.784363
_cell_length_c 11.358702
_cell_angle_alpha 90.000000
_cell_angle_beta 67.223478
_cell_angle_gamma 90.000000
_cell_volume 1028.420140
_symmetry_space_group_name_H-M "P 2/M"
_symmetry_group_IT_number 10
_symmetry_cell_setting 'monoclinic'
loop_
_space_group_symop_operation_xyz
x,y,z
-x,y,-z
-x,-y,-z
x,-y,z
loop_
_atom_site_type_symbol
_atom_site_label
_atom_site_fract_x
_atom_site_fract_y
_atom_site_fract_z
Si Si1 0.055030 0.380506 0.610778
Si Si2 0.500000 0.217496 0.000000
Si Si3 0.623551 0.619061 0.771194
Si Si4 0.391012 0.256834 0.644165
Si Si5 0.208407 0.123479 0.904954
O O1 0.122052 0.500000 0.571093
O O2 0.212269 0.320622 0.641428
O O3 0.000000 0.330227 0.500000
O O4 0.849544 0.385557 0.722323
O O5 0.435657 0.296520 0.117960
O O6 0.659210 0.146867 0.017814
O O7 0.552231 0.500000 0.806476
O O8 0.538081 0.665078 0.671799
O O9 0.500000 0.211905 0.500000
O O10 0.303652 0.179317 0.766078
O O11 0.196236 0.000000 0.884329
O O12 0.000000 0.161621 0.000000
#
# Coordination Sequence:
#
# PCOD9145102 Si02
#       5
#     4   2   4   4   4
#     4  10  19  31  50  76 109 145 176 205 249 312
#     4  10  20  36  58  80 104 138 180 222 264 314
#     4  10  20  33  52  80 113 145 176 212 256 312
#     4  11  21  34  55  82 110 140 177 220 265 312
#     4  10  22  40  60  78 102 138 180 226 273 321
#
# _framework density 17.502573999999999
#
# number of rings (size 3 to 8) (size 9 to 14) (size 15 to 20)
#    0.000    1.778    2.222    2.667    0.000    1.333 
#    0.000    0.000    0.000   11.333    0.000    0.000 
#    0.000    0.000    0.000    0.000    0.000    0.000 
#
# Total GULP energy -100216.959012 kJ/mol
# GULP energy per Si atom -5567.608834 kJ/mol
# Density = 1.746274 g / cm^3
# Si number density = 17.502574 Si / 1000 Ang^3
#
#
#
# Elastic Constant Matrix: (Units=GPa)
#
#
# Indices 1 2 3 4 5 6 
#
# 1 128.3620 27.0002 44.0618 0.0000 7.3222 0.0000
# 2 27.0002 55.2347 25.5432 0.0000 -1.6890 0.0000
# 3 44.0618 25.5432 79.8117 0.0000 7.5725 0.0000
# 4 0.0000 0.0000 0.0000 19.5577 0.0000 1.6091
# 5 7.3222 -1.6890 7.5725 0.0000 29.9889 0.0000
# 6 0.0000 0.0000 0.0000 1.6091 0.0000 28.6638
#
#
#
# Elastic Compliance Matrix: (Units=1/GPa)
#
#
# Indices 1 2 3 4 5 6 
#
# 1 0.010013 -0.002874 -0.004468 0.000000 -0.001478 0.000000
# 2 -0.002874 0.022338 -0.005890 0.000000 0.003447 0.000000
# 3 -0.004468 -0.005890 0.017222 0.000000 -0.003589 0.000000
# 4 0.000000 0.000000 0.000000 0.051368 0.000000 -0.002884
# 5 -0.001478 0.003447 -0.003589 0.000000 0.034807 0.000000
# 6 0.000000 0.000000 0.000000 -0.002884 0.000000 0.035049
#
#
# Mechanical properties :
#
#
# Convention : Reuss Voigt Hill
#
# Bulk Modulus (GPa) = 43.27083 50.73541 47.00312
# Shear Modulus (GPa) = 24.39461 26.76231 25.57846
#
# Velocity S-wave (km/s) = 3.73738 3.91455 3.82699
# Velocity P-wave (km/s) = 6.58788 7.03434 6.81477
#
# Compressibility (1/GPa) = 0.02311026
#
# Stress axis : x y z
#
# Youngs Moduli (GPa) = 99.87109 44.76586 58.06635
#
# Poissons Ratio (x) = 0.12864 0.25943
# Poissons Ratio (y) = 0.28699 0.34200
# Poissons Ratio (z) = 0.44621 0.26367
#
# Static dielectric constant tensor:
#      x y z
#    x 1.601730 0.000000 -0.031380 
#    y 0.000000 1.582760 0.000000 
#    z -0.031380 0.000000 1.661470 
# 
# From -- ./inp_files/6585.got.cif
#   From: 2010.05.17/outbox.cif.g08.bks.cpg/sg10_4_cif.got.tgz:6585.got - 2010.06.03 11:33:40.
