data_PCOD9145203
_publ_section_title
;
Structure prediction by ZEFSAII (Michael W. Deem and Ramdas Pophale) SiO2 
 PCOD9145203
Probable space group: P 2/M
;
_chemical_formula_sum "Si O2"
_cell_formula_units_Z 32
_cell_length_a 15.091227
_cell_length_b 7.411375
_cell_length_c 24.146159
_cell_angle_alpha 90.000000
_cell_angle_beta 30.727950
_cell_angle_gamma 90.000000
_cell_volume 1379.940187
_symmetry_space_group_name_H-M "P 2/M"
_symmetry_group_IT_number 10
_symmetry_cell_setting 'monoclinic'
loop_
_space_group_symop_operation_xyz
x,y,z
-x,y,-z
-x,-y,-z
x,-y,z
loop_
_atom_site_type_symbol
_atom_site_label
_atom_site_fract_x
_atom_site_fract_y
_atom_site_fract_z
Si Si1 0.017032 0.783713 0.669140
Si Si2 0.684200 0.285852 0.920237
Si Si3 0.796096 0.712644 0.978045
Si Si4 0.381116 0.779267 0.512691
Si Si5 0.501749 0.794669 0.328307
Si Si6 0.080294 0.780072 0.398278
Si Si7 0.453636 0.782062 0.232117
Si Si8 0.098851 0.718579 0.890376
O O1 0.834733 0.738365 0.794808
O O2 0.015772 0.719221 0.605979
O O3 0.179437 0.722969 0.619218
O O4 0.029607 0.000000 0.660047
O O5 0.659433 0.500000 0.941934
O O6 0.500000 0.210983 0.000000
O O7 0.744680 0.209398 0.946578
O O8 0.827965 0.500000 0.953965
O O9 0.633728 0.729583 0.106905
O O10 0.972739 0.784167 0.909526
O O11 0.500000 0.717577 0.500000
O O12 0.450598 0.717893 0.415264
O O13 0.388122 0.000000 0.510431
O O14 0.441716 0.714638 0.301925
O O15 0.709568 0.795135 0.214115
O O16 0.432571 0.000000 0.365902
O O17 0.283163 0.726926 0.289732
O O18 0.000000 0.721970 0.500000
O O19 0.074017 0.000000 0.401559
O O20 0.454005 0.000000 0.234292
O O21 0.115015 0.500000 0.880014
O O22 0.000000 0.764285 0.000000
#
# Coordination Sequence:
#
# PCOD9145203 Si02
#       8
#     4   4   4   4   4   4   4   4
#     4  10  20  35  58  83 107 141 184 224 263 315
#     4  10  22  39  57  78 109 146 179 219 271 321
#     4  10  21  36  53  73 102 141 176 207 261 324
#     4   9  19  35  53  77 109 142 176 218 269 317
#     4  10  20  33  53  78 106 138 175 218 265 314
#     4   9  17  31  53  79 107 136 169 212 264 314
#     4  10  19  31  51  80 106 130 168 219 262 306
#     4  10  20  35  53  75 105 140 175 216 263 315
#
# _framework density 23.189412000000001
#
# number of rings (size 3 to 8) (size 9 to 14) (size 15 to 20)
#    0.000    2.250    1.250    1.500    1.750    4.500 
#    0.000    0.625    0.000    3.750    0.000    0.000 
#    0.000    0.000    0.000    0.000    0.000    0.000 
#
# Total GULP energy -178837.019622 kJ/mol
# GULP energy per Si atom -5588.656863 kJ/mol
# Density = 2.313663 g / cm^3
# Si number density = 23.189412 Si / 1000 Ang^3
#
#
#
# Elastic Constant Matrix: (Units=GPa)
#
#
# Indices 1 2 3 4 5 6 
#
# 1 182.3822 6.0322 24.8938 0.0000 -5.2865 0.0000
# 2 6.0322 73.8731 -18.5890 0.0000 -0.9917 0.0000
# 3 24.8938 -18.5890 59.2007 0.0000 -3.7542 0.0000
# 4 0.0000 0.0000 0.0000 24.4708 0.0000 2.1893
# 5 -5.2865 -0.9917 -3.7542 0.0000 44.1572 0.0000
# 6 0.0000 0.0000 0.0000 2.1893 0.0000 -12.4587
#
#
#
# Elastic Compliance Matrix: (Units=1/GPa)
#
#
# Indices 1 2 3 4 5 6 
#
# 1 0.005922 -0.001191 -0.002836 0.000000 0.000441 0.000000
# 2 -0.001191 0.014961 0.005239 0.000000 0.000639 0.000000
# 3 -0.002836 0.005239 0.019822 0.000000 0.001463 0.000000
# 4 0.000000 0.000000 0.000000 0.040232 0.000000 0.007070
# 5 0.000441 0.000639 0.001463 0.000000 0.022838 0.000000
# 6 0.000000 0.000000 0.000000 0.007070 0.000000 -0.079023
#
#
# Mechanical properties :
#
#
# Convention : Reuss Voigt Hill
#
# Bulk Modulus (GPa) = 23.18661 37.79222 30.48941
# Shear Modulus (GPa) = 136.21466 31.44180 83.82823
#
# Velocity S-wave (km/s) = 7.67252 3.68621 6.01896
# Velocity P-wave (km/s) = 9.40800 5.86942 7.84094
#
# Compressibility (1/GPa) = 0.04312834
#
# Stress axis : x y z
#
# Youngs Moduli (GPa) = 168.85215 66.84063 50.44811
#
# Poissons Ratio (x) = 0.07964 0.14309
# Poissons Ratio (y) = 0.20118 -0.26431
# Poissons Ratio (z) = 0.47894 -0.35019
#
# Static dielectric constant tensor:
#      x y z
#    x 1.886730 0.000000 -0.006760 
#    y 0.000000 1.879430 0.000000 
#    z -0.006760 0.000000 1.811190 
# 
# From -- ./inp_files/71514.got.cif
#   From: 2010.05.17/outbox.cif.g08.bks.cpg/sg10_36_cif.got.tgz:71514.got - 2010.06.03 11:33:40.
