data_PCOD9145969
_publ_section_title
;
Structure prediction by ZEFSAII (Michael W. Deem and Ramdas Pophale) SiO2 
 PCOD9145969
Probable space group: P 2/M
;
_chemical_formula_sum "Si O2"
_cell_formula_units_Z 32
_cell_length_a 20.854318
_cell_length_b 11.133405
_cell_length_c 21.945144
_cell_angle_alpha 90.000000
_cell_angle_beta 19.561385
_cell_angle_gamma 90.000000
_cell_volume 1705.962175
_symmetry_space_group_name_H-M "P 2/M"
_symmetry_group_IT_number 10
_symmetry_cell_setting 'monoclinic'
loop_
_space_group_symop_operation_xyz
x,y,z
-x,y,-z
-x,-y,-z
x,-y,z
loop_
_atom_site_type_symbol
_atom_site_label
_atom_site_fract_x
_atom_site_fract_y
_atom_site_fract_z
Si Si1 0.710288 0.138896 0.130655
Si Si2 0.959126 0.135546 0.469064
Si Si3 0.112320 0.858082 0.702706
Si Si4 0.689573 0.370044 0.955196
Si Si5 0.528735 0.370783 0.233276
Si Si6 0.478284 0.857538 0.451743
Si Si7 0.610620 0.129093 0.964619
Si Si8 0.118300 0.287088 0.571762
O O1 0.586210 0.246388 0.213547
O O2 0.668947 0.151285 0.239786
O O3 0.651759 0.000000 0.167435
O O4 0.924113 0.154739 0.913493
O O5 0.000000 0.186577 0.500000
O O6 0.840421 0.211440 0.526843
O O7 0.882661 0.000000 0.546263
O O8 0.165445 0.126476 0.252337
O O9 0.297390 0.811672 0.574353
O O10 0.088546 0.794918 0.658691
O O11 0.138466 0.000000 0.667404
O O12 0.627720 0.500000 0.985162
O O13 0.917500 0.354696 0.741445
O O14 0.646798 0.371108 0.064960
O O15 0.583549 0.253149 0.023824
O O16 0.568773 0.500000 0.229011
O O17 0.304308 0.364858 0.418941
O O18 0.500000 0.806027 0.500000
O O19 0.437953 0.000000 0.495047
O O20 0.566294 0.000000 0.035052
O O21 0.500000 0.132577 0.000000
#
# Coordination Sequence:
#
# PCOD9145969 Si02
#       8
#     4   4   4   4   4   4   4   4
#     4  10  20  35  57  86 116 149 190 231 276 330
#     4   9  19  33  50  77 110 141 178 229 287 336
#     4  10  19  32  54  86 116 146 190 235 281 332
#     4  10  22  38  54  78 110 141 180 231 286 341
#     4  11  23  37  56  84 113 146 189 234 284 340
#     4   9  18  33  54  85 124 155 183 226 279 333
#     4   9  19  35  55  77 103 137 181 227 279 341
#     4  11  20  35  58  77 108 148 190 235 281 336
#
# _framework density 18.757743000000001
#
# number of rings (size 3 to 8) (size 9 to 14) (size 15 to 20)
#    0.000    2.125    2.500    0.750    1.750    2.250 
#    0.000    2.500    0.000    2.250    0.000    0.875 
#    0.000    0.000    0.000    0.000    0.000    0.000 
#
# Total GULP energy -178202.229985 kJ/mol
# GULP energy per Si atom -5568.819687 kJ/mol
# Density = 1.871505 g / cm^3
# Si number density = 18.757743 Si / 1000 Ang^3
#
#
#
# Elastic Constant Matrix: (Units=GPa)
#
#
# Indices 1 2 3 4 5 6 
#
# 1 80.3292 47.1690 12.3986 0.0000 17.4027 0.0000
# 2 47.1690 115.5491 24.0327 0.0000 11.1510 0.0000
# 3 12.3986 24.0327 68.9626 0.0000 4.4501 0.0000
# 4 0.0000 0.0000 0.0000 49.2443 0.0000 -1.0121
# 5 17.4027 11.1510 4.4501 0.0000 23.1127 0.0000
# 6 0.0000 0.0000 0.0000 -1.0121 0.0000 3.7667
#
#
#
# Elastic Compliance Matrix: (Units=1/GPa)
#
#
# Indices 1 2 3 4 5 6 
#
# 1 0.018674 -0.006494 -0.000394 0.000000 -0.010851 0.000000
# 2 -0.006494 0.011954 -0.002979 0.000000 -0.000304 0.000000
# 3 -0.000394 -0.002979 0.015693 0.000000 -0.001288 0.000000
# 4 0.000000 0.000000 0.000000 0.020420 0.000000 0.005487
# 5 -0.010851 -0.000304 -0.001288 0.000000 0.051832 0.000000
# 6 0.000000 0.000000 0.000000 0.005487 0.000000 0.266962
#
#
# Mechanical properties :
#
#
# Convention : Reuss Voigt Hill
#
# Bulk Modulus (GPa) = 37.61196 48.00463 42.80829
# Shear Modulus (GPa) = 12.07354 27.30743 19.69048
#
# Velocity S-wave (km/s) = 2.53979 3.81963 3.24346
# Velocity P-wave (km/s) = 5.35683 6.71567 6.07437
#
# Compressibility (1/GPa) = 0.02658729
#
# Stress axis : x y z
#
# Youngs Moduli (GPa) = 53.55171 83.65351 63.72422
#
# Poissons Ratio (x) = 0.54322 0.02511
# Poissons Ratio (y) = 0.34775 0.18982
# Poissons Ratio (z) = 0.02110 0.24918
#
# Static dielectric constant tensor:
#      x y z
#    x 1.613140 0.000000 0.026670 
#    y 0.000000 1.697740 0.000000 
#    z 0.026670 0.000000 1.643090 
# 
# From -- ./inp_files/86264.got.cif
#   From: 2010.05.17/outbox.cif.g08.bks.cpg/sg10_44_cif.got.tgz:86264.got - 2010.06.03 11:33:40.
