data_PCOD9145520
_publ_section_title
;
Structure prediction by ZEFSAII (Michael W. Deem and Ramdas Pophale) SiO2 
 PCOD9145520
Probable space group: P 2/M
;
_chemical_formula_sum "Si O2"
_cell_formula_units_Z 32
_cell_length_a 21.693601
_cell_length_b 7.613243
_cell_length_c 14.619125
_cell_angle_alpha 90.000000
_cell_angle_beta 136.887012
_cell_angle_gamma 90.000000
_cell_volume 1650.147060
_symmetry_space_group_name_H-M "P 2/M"
_symmetry_group_IT_number 10
_symmetry_cell_setting 'monoclinic'
loop_
_space_group_symop_operation_xyz
x,y,z
-x,y,-z
-x,-y,-z
x,-y,z
loop_
_atom_site_type_symbol
_atom_site_label
_atom_site_fract_x
_atom_site_fract_y
_atom_site_fract_z
Si Si1 0.636480 0.215894 0.911828
Si Si2 0.307514 0.788591 0.638283
Si Si3 0.786438 0.202033 0.943747
Si Si4 0.600942 0.214496 0.080481
Si Si5 0.842235 0.707293 0.660323
Si Si6 0.029108 0.204078 0.933594
Si Si7 0.296424 0.292646 0.332477
Si Si8 0.446293 0.211661 0.631320
O O1 0.727199 0.279506 0.961223
O O2 0.547936 0.271353 0.758872
O O3 0.637081 0.000000 0.911225
O O4 0.625148 0.271251 0.004579
O O5 0.331900 0.727751 0.766208
O O6 0.211987 0.738702 0.491656
O O7 0.383661 0.726662 0.648386
O O8 0.312405 0.000000 0.644134
O O9 0.723509 0.205158 0.785528
O O10 0.805134 0.000000 0.990285
O O11 0.881779 0.282906 0.016020
O O12 0.600983 0.000000 0.079036
O O13 0.500000 0.267463 0.000000
O O14 0.852523 0.500000 0.684239
O O15 0.776760 0.773221 0.671506
O O16 0.940735 0.788097 0.775358
O O17 0.052459 0.000000 0.977849
O O18 0.000000 0.283120 0.000000
O O19 0.282606 0.500000 0.305756
O O20 0.394231 0.264528 0.483113
O O21 0.446703 0.000000 0.634104
#
# Coordination Sequence:
#
# PCOD9145520 Si02
#       8
#     4   4   4   4   4   4   4   4
#     4   9  17  29  47  73 101 127 159 197 239 284
#     4   9  16  27  49  76 100 125 155 193 237 285
#     4  10  20  33  49  70  97 128 160 199 242 285
#     4   9  14  25  48  78 103 123 154 198 241 279
#     4  10  20  32  49  72  98 125 158 202 244 284
#     4  10  19  32  51  72  94 123 161 203 244 286
#     4  10  20  32  46  67  97 131 164 197 234 282
#     4   9  16  28  47  70  97 129 161 192 229 281
#
# _framework density 19.392213000000002
#
# number of rings (size 3 to 8) (size 9 to 14) (size 15 to 20)
#    0.000    2.500    2.500    0.750    0.000    2.250 
#    0.000    3.125    0.000    2.625    0.000    5.250 
#    0.000    0.000    0.000    0.000    0.000    0.000 
#
# Total GULP energy -178544.105141 kJ/mol
# GULP energy per Si atom -5579.503286 kJ/mol
# Density = 1.934808 g / cm^3
# Si number density = 19.392213 Si / 1000 Ang^3
#
#
#
# Elastic Constant Matrix: (Units=GPa)
#
#
# Indices 1 2 3 4 5 6 
#
# 1 138.3827 3.1644 68.6997 0.0000 11.0250 0.0000
# 2 3.1644 41.2242 -5.3361 0.0000 3.1800 0.0000
# 3 68.6997 -5.3361 108.6000 0.0000 6.6604 0.0000
# 4 0.0000 0.0000 0.0000 -385.2161 0.0000 16.5180
# 5 11.0250 3.1800 6.6604 0.0000 24.7395 0.0000
# 6 0.0000 0.0000 0.0000 16.5180 0.0000 -1.0702
#
#
#
# Elastic Compliance Matrix: (Units=1/GPa)
#
#
# Indices 1 2 3 4 5 6 
#
# 1 0.010840 -0.001489 -0.006757 0.000000 -0.002820 0.000000
# 2 -0.001489 0.024923 0.002361 0.000000 -0.003176 0.000000
# 3 -0.006757 0.002361 0.013658 0.000000 -0.000969 0.000000
# 4 0.000000 0.000000 0.000000 -0.007676 0.000000 -0.118465
# 5 -0.002820 -0.003176 -0.000969 0.000000 0.042347 0.000000
# 6 0.000000 0.000000 0.000000 -0.118465 0.000000 -2.762730
#
#
# Mechanical properties :
#
#
# Convention : Reuss Voigt Hill
#
# Bulk Modulus (GPa) = 26.56030 46.80698 36.68364
# Shear Modulus (GPa) = -1.88372 -57.53078 -29.70725
#
# Velocity S-wave (km/s) = -0.98666 -5.45265 -3.91822
# Velocity P-wave (km/s) = 3.52535 3.93095 1.22969
#
# Compressibility (1/GPa) = 0.03765018
#
# Stress axis : x y z
#
# Youngs Moduli (GPa) = 92.25303 40.12430 73.21581
#
# Poissons Ratio (x) = 0.05975 0.49475
# Poissons Ratio (y) = 0.13738 -0.17289
# Poissons Ratio (z) = 0.62339 -0.09475
#
# Static dielectric constant tensor:
#      x y z
#    x 1.684780 0.000000 0.008910 
#    y 0.000000 1.718090 0.000000 
#    z 0.008910 0.000000 1.672260 
# 
# From -- ./inp_files/66068.got.cif
#   From: 2010.05.17/outbox.cif.g08.bks.cpg/sg10_34_cif.got.tgz:66068.got - 2010.06.03 11:33:40.
