data_PCOD9145207
_publ_section_title
;
Structure prediction by ZEFSAII (Michael W. Deem and Ramdas Pophale) SiO2 
 PCOD9145207
Probable space group: P 2/M
;
_chemical_formula_sum "Si O2"
_cell_formula_units_Z 28
_cell_length_a 13.791605
_cell_length_b 13.962667
_cell_length_c 7.145760
_cell_angle_alpha 90.000000
_cell_angle_beta 121.562156
_cell_angle_gamma 90.000000
_cell_volume 1172.487820
_symmetry_space_group_name_H-M "P 2/M"
_symmetry_group_IT_number 10
_symmetry_cell_setting 'monoclinic'
loop_
_space_group_symop_operation_xyz
x,y,z
-x,y,-z
-x,-y,-z
x,-y,z
loop_
_atom_site_type_symbol
_atom_site_label
_atom_site_fract_x
_atom_site_fract_y
_atom_site_fract_z
Si Si1 0.120139 0.761605 0.619802
Si Si2 0.738910 0.607357 0.099248
Si Si3 0.115573 0.684935 0.226711
Si Si4 0.294508 0.892166 0.946255
Si Si5 0.534757 0.269849 0.816095
Si Si6 0.338317 0.394982 0.537258
Si Si7 0.136940 0.898332 0.146127
O O1 0.164743 0.688906 0.825238
O O2 0.091874 0.688717 0.423744
O O3 0.000000 0.817770 0.500000
O O4 0.228783 0.832355 0.718334
O O5 0.772968 0.500000 0.088335
O O6 0.699206 0.607765 0.279690
O O7 0.627495 0.646447 0.883644
O O8 0.221904 0.616366 0.304818
O O9 0.160967 0.793797 0.248306
O O10 0.000000 0.667350 0.000000
O O11 0.398671 0.830531 0.136927
O O12 0.196009 0.898266 0.003692
O O13 0.327873 0.000000 0.927372
O O14 0.422852 0.305425 0.595860
O O15 0.500000 0.268456 0.000000
O O16 0.389941 0.500000 0.558062
O O17 0.172004 0.000000 0.273846
O O18 0.000000 0.899622 0.000000
#
# Coordination Sequence:
#
# PCOD9145207 Si02
#       7
#     4   4   4   4   4   4   4
#     4  10  19  31  51  80 109 139 177 221 272 325
#     4   8  15  28  48  76 107 137 173 220 272 324
#     4  10  20  34  53  77 110 149 184 225 273 323
#     4  10  21  36  56  83 111 139 178 230 280 328
#     4   9  17  32  54  80 110 143 179 224 278 328
#     4   9  17  31  53  78 104 141 185 223 267 325
#     4   9  18  35  57  77 102 140 180 219 271 330
#
# _framework density 23.880846999999999
#
# number of rings (size 3 to 8) (size 9 to 14) (size 15 to 20)
#    0.000    2.714    0.000    3.000    0.000    3.429 
#    0.000    1.429    0.000   10.286    0.000    0.000 
#    0.000    0.000    0.000    0.000    0.000    0.286 
#
# Total GULP energy -156034.256864 kJ/mol
# GULP energy per Si atom -5572.652031 kJ/mol
# Density = 2.382649 g / cm^3
# Si number density = 23.880847 Si / 1000 Ang^3
#
#
#
# Elastic Constant Matrix: (Units=GPa)
#
#
# Indices 1 2 3 4 5 6 
#
# 1 72.8030 15.2025 22.5566 0.0000 12.2243 0.0000
# 2 15.2025 158.6922 43.2640 0.0000 37.8945 0.0000
# 3 22.5566 43.2640 122.1790 0.0000 37.7513 0.0000
# 4 0.0000 0.0000 0.0000 8.3570 0.0000 -18.3941
# 5 12.2243 37.8945 37.7513 0.0000 32.3872 0.0000
# 6 0.0000 0.0000 0.0000 -18.3941 0.0000 -12.6345
#
#
#
# Elastic Compliance Matrix: (Units=1/GPa)
#
#
# Indices 1 2 3 4 5 6 
#
# 1 0.014859 -0.000129 -0.001581 0.000000 -0.003615 0.000000
# 2 -0.000129 0.008747 0.000115 0.000000 -0.010320 0.000000
# 3 -0.001581 0.000115 0.012961 0.000000 -0.014646 0.000000
# 4 0.000000 0.000000 0.000000 0.028461 0.000000 -0.041435
# 5 -0.003615 -0.010320 -0.014646 0.000000 0.061387 0.000000
# 6 0.000000 0.000000 0.000000 -0.041435 0.000000 -0.018825
#
#
# Mechanical properties :
#
#
# Convention : Reuss Voigt Hill
#
# Bulk Modulus (GPa) = 29.96024 57.30227 43.63125
# Shear Modulus (GPa) = 41.01557 23.79868 32.40713
#
# Velocity S-wave (km/s) = 4.14878 3.16026 3.68779
# Velocity P-wave (km/s) = 5.96010 6.11257 6.03681
#
# Compressibility (1/GPa) = 0.03337757
#
# Stress axis : x y z
#
# Youngs Moduli (GPa) = 67.29751 114.32855 77.15402
#
# Poissons Ratio (x) = 0.01480 0.12195
# Poissons Ratio (y) = 0.00871 -0.00889
# Poissons Ratio (z) = 0.10637 -0.01317
#
# Static dielectric constant tensor:
#      x y z
#    x 2.072110 0.000000 -0.111160 
#    y 0.000000 1.931390 0.000000 
#    z -0.111160 0.000000 2.001300 
# 
# From -- ./inp_files/29606.got.cif
#   From: 2010.05.17/outbox.cif.g08.bks.cpg/sg10_15_cif.got.tgz:29606.got - 2010.06.03 11:33:40.
