data_PCOD9145063
_publ_section_title
;
Structure prediction by ZEFSAII (Michael W. Deem and Ramdas Pophale) SiO2 
 PCOD9145063
Probable space group: P 2/M
;
_chemical_formula_sum "Si O2"
_cell_formula_units_Z 32
_cell_length_a 16.156849
_cell_length_b 7.743671
_cell_length_c 26.909622
_cell_angle_alpha 90.000000
_cell_angle_beta 149.966972
_cell_angle_gamma 90.000000
_cell_volume 1685.056579
_symmetry_space_group_name_H-M "P 2/M"
_symmetry_group_IT_number 10
_symmetry_cell_setting 'monoclinic'
loop_
_space_group_symop_operation_xyz
x,y,z
-x,y,-z
-x,-y,-z
x,-y,z
loop_
_atom_site_type_symbol
_atom_site_label
_atom_site_fract_x
_atom_site_fract_y
_atom_site_fract_z
Si Si1 0.254748 0.789346 0.818964
Si Si2 0.236967 0.211561 0.343643
Si Si3 0.134764 0.788519 0.864507
Si Si4 0.651191 0.704555 0.287443
Si Si5 0.567062 0.791063 0.916948
Si Si6 0.963915 0.799046 0.385596
Si Si7 0.564069 0.796084 0.459182
Si Si8 0.672326 0.696442 0.406851
O O1 0.217350 0.734565 0.855214
O O2 0.428968 0.735435 0.885747
O O3 0.112254 0.735471 0.706161
O O4 0.254899 0.000000 0.818795
O O5 0.295144 0.267489 0.429179
O O6 0.385018 0.269262 0.384182
O O7 0.054667 0.270569 0.233929
O O8 0.229461 0.000000 0.339273
O O9 0.134231 0.000000 0.864401
O O10 0.253821 0.733394 0.971208
O O11 0.684093 0.500000 0.308300
O O12 0.500114 0.731843 0.171123
O O13 0.814020 0.785006 0.346708
O O14 0.622426 0.775285 0.327826
O O15 0.564760 0.000000 0.915055
O O16 0.128489 0.704040 0.487552
O O17 0.009512 0.000000 0.403328
O O18 0.606158 0.771283 0.423860
O O19 0.557495 0.000000 0.464696
O O20 0.614270 0.500000 0.376454
#
# Coordination Sequence:
#
# PCOD9145063 Si02
#       8
#     4   4   4   4   4   4   4   4
#     4   8  14  24  41  69  99 122 147 182 226 275
#     4   8  15  28  48  75 101 123 150 189 239 286
#     4   9  14  23  44  71  97 122 151 191 236 278
#     4  10  21  35  47  62  93 131 160 193 236 277
#     4   9  17  28  45  69  93 122 162 199 227 266
#     4  10  19  31  50  74  97 123 157 193 228 274
#     4   9  17  31  51  73  97 124 155 191 231 281
#     4  11  22  33  47  68  94 126 160 192 235 284
#
# _framework density 18.990459999999999
#
# number of rings (size 3 to 8) (size 9 to 14) (size 15 to 20)
#    0.000    2.750    0.000    4.125    0.000    7.000 
#    0.000    1.250    0.000   10.500    0.000    5.250 
#    0.000    0.000    0.000    0.000    0.000    0.000 
#
# Total GULP energy -178470.276903 kJ/mol
# GULP energy per Si atom -5577.196153 kJ/mol
# Density = 1.894724 g / cm^3
# Si number density = 18.990460 Si / 1000 Ang^3
#
#
#
# Elastic Constant Matrix: (Units=GPa)
#
#
# Indices 1 2 3 4 5 6 
#
# 1 109.7008 -4.9357 75.0809 0.0000 -20.6434 0.0000
# 2 -4.9357 24.2154 -2.2956 0.0000 0.6977 0.0000
# 3 75.0809 -2.2956 148.1027 0.0000 -6.4057 0.0000
# 4 0.0000 0.0000 0.0000 8.2604 0.0000 -14.4080
# 5 -20.6434 0.6977 -6.4057 0.0000 17.2155 0.0000
# 6 0.0000 0.0000 0.0000 -14.4080 0.0000 15.2912
#
#
#
# Elastic Compliance Matrix: (Units=1/GPa)
#
#
# Indices 1 2 3 4 5 6 
#
# 1 0.018741 0.002449 -0.008634 0.000000 0.019160 0.000000
# 2 0.002449 0.041713 -0.000550 0.000000 0.001042 0.000000
# 3 -0.008634 -0.000550 0.010848 0.000000 -0.006294 0.000000
# 4 0.000000 0.000000 0.000000 -0.188133 0.000000 -0.177267
# 5 0.019160 0.001042 -0.006294 0.000000 0.078679 0.000000
# 6 0.000000 0.000000 0.000000 -0.177267 0.000000 -0.101631
#
#
# Mechanical properties :
#
#
# Convention : Reuss Voigt Hill
#
# Bulk Modulus (GPa) = 17.29126 46.41312 31.85219
# Shear Modulus (GPa) = -46.71318 22.43138 -12.14090
#
# Velocity S-wave (km/s) = -4.96504 3.44058 -2.53121
# Velocity P-wave (km/s) = 4.87277 6.34639 2.87514
#
# Compressibility (1/GPa) = 0.05783267
#
# Stress axis : x y z
#
# Youngs Moduli (GPa) = 53.35990 23.97328 92.18049
#
# Poissons Ratio (x) = -0.05872 0.79588
# Poissons Ratio (y) = -0.13069 0.05071
# Poissons Ratio (z) = 0.46071 0.01319
#
# Static dielectric constant tensor:
#      x y z
#    x 1.657950 0.000000 -0.018770 
#    y 0.000000 1.704180 0.000000 
#    z -0.018770 0.000000 1.662330 
# 
# From -- ./inp_files/93138.got.cif
#   From: 2010.05.17/outbox.cif.g08.bks.cpg/sg10_47_cif.got.tgz:93138.got - 2010.06.03 11:33:40.
