data_PCOD9145499
_publ_section_title
;
Structure prediction by ZEFSAII (Michael W. Deem and Ramdas Pophale) SiO2 
 PCOD9145499
Probable space group: P 2/M
;
_chemical_formula_sum "Si O2"
_cell_formula_units_Z 32
_cell_length_a 20.405779
_cell_length_b 7.383119
_cell_length_c 26.848209
_cell_angle_alpha 90.000000
_cell_angle_beta 20.106711
_cell_angle_gamma 90.000000
_cell_volume 1390.515859
_symmetry_space_group_name_H-M "P 2/M"
_symmetry_group_IT_number 10
_symmetry_cell_setting 'monoclinic'
loop_
_space_group_symop_operation_xyz
x,y,z
-x,y,-z
-x,-y,-z
x,-y,z
loop_
_atom_site_type_symbol
_atom_site_label
_atom_site_fract_x
_atom_site_fract_y
_atom_site_fract_z
Si Si1 0.937011 0.279041 0.135472
Si Si2 0.145586 0.794060 0.356869
Si Si3 0.278731 0.221495 0.157110
Si Si4 0.881170 0.217183 0.834899
Si Si5 0.590504 0.721024 0.318845
Si Si6 0.254371 0.707490 0.626875
Si Si7 0.623421 0.278625 0.184946
Si Si8 0.498094 0.288708 0.833802
O O1 0.943749 0.500000 0.132322
O O2 0.802573 0.229547 0.185243
O O3 0.830749 0.214585 0.261431
O O4 0.155566 0.220752 0.977149
O O5 0.175318 0.714006 0.281028
O O6 0.350574 0.799793 0.237404
O O7 0.000000 0.708347 0.500000
O O8 0.076437 0.000000 0.397879
O O9 0.178599 0.277740 0.177569
O O10 0.279747 0.000000 0.157371
O O11 0.500000 0.277474 0.000000
O O12 0.080864 0.290301 0.711731
O O13 0.893036 0.000000 0.826342
O O14 0.712612 0.270576 0.992904
O O15 0.582076 0.500000 0.324813
O O16 0.437824 0.786537 0.468388
O O17 0.549305 0.778669 0.291878
O O18 0.305164 0.500000 0.602949
O O19 0.622281 0.500000 0.184436
O O20 0.509534 0.218559 0.217293
O O21 0.548664 0.500000 0.796478
#
# Coordination Sequence:
#
# PCOD9145499 Si02
#       8
#     4   4   4   4   4   4   4   4
#     4   9  15  27  48  74 105 139 175 214 258 307
#     4  10  21  38  59  82 107 139 177 212 252 309
#     4   9  17  33  56  78 101 131 173 218 250 292
#     4  11  21  35  57  78 101 139 181 213 256 313
#     4   9  17  28  47  75 107 141 174 211 259 314
#     4  10  19  32  50  79 110 133 168 221 268 302
#     4   9  17  29  47  75 108 139 172 214 261 308
#     4  11  21  35  55  80 111 138 169 218 269 306
#
# _framework density 23.013041000000001
#
# number of rings (size 3 to 8) (size 9 to 14) (size 15 to 20)
#    0.000    2.250    2.500    1.500    0.000    4.250 
#    0.000    1.875    0.000    2.250    0.000    0.875 
#    0.000    0.000    0.000    0.000    0.000    0.000 
#
# Total GULP energy -178847.015009 kJ/mol
# GULP energy per Si atom -5588.969219 kJ/mol
# Density = 2.296066 g / cm^3
# Si number density = 23.013041 Si / 1000 Ang^3
#
#
#
# Elastic Constant Matrix: (Units=GPa)
#
#
# Indices 1 2 3 4 5 6 
#
# 1 93.8895 -1.2885 -18.6947 0.0000 10.1358 0.0000
# 2 -1.2885 85.5941 -5.2236 0.0000 5.2039 0.0000
# 3 -18.6947 -5.2236 46.9006 0.0000 11.5302 0.0000
# 4 0.0000 0.0000 0.0000 -6.4416 0.0000 4.1302
# 5 10.1358 5.2039 11.5302 0.0000 42.8679 0.0000
# 6 0.0000 0.0000 0.0000 4.1302 0.0000 -86.5455
#
#
#
# Elastic Compliance Matrix: (Units=1/GPa)
#
#
# Indices 1 2 3 4 5 6 
#
# 1 0.012404 0.000851 0.006195 0.000000 -0.004702 0.000000
# 2 0.000851 0.011969 0.002226 0.000000 -0.002253 0.000000
# 3 0.006195 0.002226 0.026198 0.000000 -0.008781 0.000000
# 4 0.000000 0.000000 0.000000 -0.160142 0.000000 -0.007642
# 5 -0.004702 -0.002253 -0.008781 0.000000 0.027075 0.000000
# 6 0.000000 0.000000 0.000000 -0.007642 0.000000 -0.011919
#
#
# Mechanical properties :
#
#
# Convention : Reuss Voigt Hill
#
# Bulk Modulus (GPa) = 14.46912 19.55231 17.01071
# Shear Modulus (GPa) = -55.60389 6.74888 -24.42750
#
# Velocity S-wave (km/s) = -4.92081 1.71435 -3.26155
# Velocity P-wave (km/s) = 5.09753 3.52609 2.60303
#
# Compressibility (1/GPa) = 0.06911272
#
# Stress axis : x y z
#
# Youngs Moduli (GPa) = 80.62181 83.55156 38.17134
#
# Poissons Ratio (x) = -0.07107 -0.23647
# Poissons Ratio (y) = -0.06858 -0.08497
# Poissons Ratio (z) = -0.49944 -0.18598
#
# Static dielectric constant tensor:
#      x y z
#    x 1.833680 0.000000 0.026390 
#    y 0.000000 1.885420 0.000000 
#    z 0.026390 0.000000 1.821500 
# 
# From -- ./inp_files/93561.got.cif
#   From: 2010.05.17/outbox.cif.g08.bks.cpg/sg10_47_cif.got.tgz:93561.got - 2010.06.03 11:33:40.
