data_PCOD9145233
_publ_section_title
;
Structure prediction by ZEFSAII (Michael W. Deem and Ramdas Pophale) SiO2 
 PCOD9145233
Probable space group: P 2/M
;
_chemical_formula_sum "Si O2"
_cell_formula_units_Z 32
_cell_length_a 12.262241
_cell_length_b 7.443830
_cell_length_c 22.459200
_cell_angle_alpha 90.000000
_cell_angle_beta 133.468231
_cell_angle_gamma 90.000000
_cell_volume 1487.822670
_symmetry_space_group_name_H-M "P 2/M"
_symmetry_group_IT_number 10
_symmetry_cell_setting 'monoclinic'
loop_
_space_group_symop_operation_xyz
x,y,z
-x,y,-z
-x,-y,-z
x,-y,z
loop_
_atom_site_type_symbol
_atom_site_label
_atom_site_fract_x
_atom_site_fract_y
_atom_site_fract_z
Si Si1 0.238334 0.216079 0.579956
Si Si2 0.909010 0.281478 0.024894
Si Si3 0.431830 0.289217 0.264057
Si Si4 0.129430 0.283294 0.211183
Si Si5 0.976370 0.780484 0.395287
Si Si6 0.569613 0.281715 0.871954
Si Si7 0.937425 0.787881 0.246920
Si Si8 0.625412 0.793873 0.090487
O O1 0.410616 0.271094 0.643483
O O2 0.158667 0.275477 0.611570
O O3 0.130728 0.275694 0.485725
O O4 0.235019 0.000000 0.578830
O O5 0.909088 0.500000 0.024792
O O6 0.000528 0.220994 0.116898
O O7 0.735656 0.227151 0.956582
O O8 0.000000 0.225924 0.000000
O O9 0.399769 0.500000 0.243690
O O10 0.289552 0.216921 0.246951
O O11 0.447170 0.218321 0.202442
O O12 0.130698 0.500000 0.210114
O O13 0.081502 0.232003 0.259328
O O14 0.957978 0.716003 0.321164
O O15 0.977098 0.000000 0.395011
O O16 0.560400 0.500000 0.870236
O O17 0.444775 0.210229 0.869894
O O18 0.790904 0.711392 0.158026
O O19 0.907191 0.000000 0.242573
O O20 0.644046 0.000000 0.076632
O O21 0.500000 0.710063 0.000000
#
# Coordination Sequence:
#
# PCOD9145233 Si02
#       8
#     4   4   4   4   4   4   4   4
#     4   9  17  33  58  80  98 125 167 210 250 301
#     4   9  15  29  51  71  94 131 173 207 241 282
#     4  10  20  33  49  76 108 131 158 207 264 301
#     4  10  20  34  52  73 101 136 173 210 247 293
#     4   8  16  33  56  79  99 127 168 210 247 293
#     4  10  19  31  52  77  99 129 172 212 246 296
#     4  10  20  35  53  72 101 138 171 203 248 300
#     4  10  21  35  50  73 107 138 162 202 259 304
#
# _framework density 21.507940999999999
#
# number of rings (size 3 to 8) (size 9 to 14) (size 15 to 20)
#    0.000    2.500    1.250    2.250    0.000    2.750 
#    0.000    3.125    0.000    4.500    0.000    0.000 
#    0.000    0.000    0.000    0.000    0.000    0.000 
#
# Total GULP energy -178746.755342 kJ/mol
# GULP energy per Si atom -5585.836104 kJ/mol
# Density = 2.145899 g / cm^3
# Si number density = 21.507941 Si / 1000 Ang^3
#
#
#
# Elastic Constant Matrix: (Units=GPa)
#
#
# Indices 1 2 3 4 5 6 
#
# 1 109.5950 -8.0057 53.6330 0.0000 2.4463 0.0000
# 2 -8.0057 64.8999 1.0718 0.0000 -3.4056 0.0000
# 3 53.6330 1.0718 113.4238 0.0000 -2.6257 0.0000
# 4 0.0000 0.0000 0.0000 11.2280 0.0000 1.5031
# 5 2.4463 -3.4056 -2.6257 0.0000 36.5753 0.0000
# 6 0.0000 0.0000 0.0000 1.5031 0.0000 21.1126
#
#
#
# Elastic Compliance Matrix: (Units=1/GPa)
#
#
# Indices 1 2 3 4 5 6 
#
# 1 0.012073 0.001528 -0.005748 0.000000 -0.001078 0.000000
# 2 0.001528 0.015679 -0.000840 0.000000 0.001297 0.000000
# 3 -0.005748 -0.000840 0.011569 0.000000 0.001137 0.000000
# 4 0.000000 0.000000 0.000000 0.089920 0.000000 -0.006402
# 5 -0.001078 0.001297 0.001137 0.000000 0.027615 0.000000
# 6 0.000000 0.000000 0.000000 -0.006402 0.000000 0.047821
#
#
# Mechanical properties :
#
#
# Convention : Reuss Voigt Hill
#
# Bulk Modulus (GPa) = 34.24819 42.36853 38.30836
# Shear Modulus (GPa) = 22.26854 29.86449 26.06652
#
# Velocity S-wave (km/s) = 3.22120 3.73035 3.48508
# Velocity P-wave (km/s) = 5.45829 6.18836 5.83475
#
# Compressibility (1/GPa) = 0.02919862
#
# Stress axis : x y z
#
# Youngs Moduli (GPa) = 82.82801 63.78057 86.43906
#
# Poissons Ratio (x) = -0.09744 0.49687
# Poissons Ratio (y) = -0.12653 0.07265
# Poissons Ratio (z) = 0.47612 0.05361
#
# Static dielectric constant tensor:
#      x y z
#    x 1.749060 0.000000 0.002690 
#    y 0.000000 1.843660 0.000000 
#    z 0.002690 0.000000 1.773420 
# 
# From -- ./inp_files/67346.got.cif
#   From: 2010.05.17/outbox.cif.g08.bks.cpg/sg10_34_cif.got.tgz:67346.got - 2010.06.03 11:33:40.
