data_PCOD9145465
_publ_section_title
;
Structure prediction by ZEFSAII (Michael W. Deem and Ramdas Pophale) SiO2 
 PCOD9145465
Probable space group: P 2/M
;
_chemical_formula_sum "Si O2"
_cell_formula_units_Z 32
_cell_length_a 20.900743
_cell_length_b 13.125273
_cell_length_c 20.905359
_cell_angle_alpha 90.000000
_cell_angle_beta 20.588528
_cell_angle_gamma 90.000000
_cell_volume 2016.710379
_symmetry_space_group_name_H-M "P 2/M"
_symmetry_group_IT_number 10
_symmetry_cell_setting 'monoclinic'
loop_
_space_group_symop_operation_xyz
x,y,z
-x,y,-z
-x,-y,-z
x,-y,z
loop_
_atom_site_type_symbol
_atom_site_label
_atom_site_fract_x
_atom_site_fract_y
_atom_site_fract_z
Si Si1 0.571451 0.382025 0.130428
Si Si2 0.930121 0.279408 0.497798
Si Si3 0.947288 0.123110 0.947223
Si Si4 0.705220 0.876507 0.294518
Si Si5 0.114044 0.232159 0.129316
Si Si6 0.486947 0.737510 0.085703
Si Si7 0.809074 0.880164 0.811650
Si Si8 0.850951 0.383386 0.442331
O O1 0.624347 0.500000 0.085481
O O2 0.563003 0.345920 0.064306
O O3 0.366610 0.370804 0.348863
O O4 0.712413 0.307398 0.032785
O O5 0.722494 0.245088 0.701187
O O6 0.930495 0.358116 0.438538
O O7 0.000000 0.321446 0.500000
O O8 0.054983 0.184777 0.360131
O O9 0.914220 0.176126 0.910844
O O10 0.143444 0.151552 0.794127
O O11 0.943755 0.000000 0.943904
O O12 0.792991 0.151792 0.143940
O O13 0.500000 0.839726 0.500000
O O14 0.699038 0.000000 0.300615
O O15 0.145937 0.152752 0.157576
O O16 0.943656 0.302770 0.308656
O O17 0.500000 0.704744 0.000000
O O18 0.609369 0.837254 0.981878
O O19 0.824725 0.000000 0.788132
O O20 0.891174 0.500000 0.387544
#
# Coordination Sequence:
#
# PCOD9145465 Si02
#       8
#     4   4   4   4   4   4   4   4
#     4   9  19  34  50  68  92 120 152 199 254 299
#     4  10  19  33  48  67  90 113 153 202 246 298
#     4   9  17  29  48  75 106 137 165 194 227 269
#     4   8  15  29  48  73 105 136 166 196 228 268
#     4  10  19  32  50  72  98 127 163 198 234 284
#     4  10  19  33  48  67  90 113 153 202 246 298
#     4  10  21  34  47  64  93 130 162 196 236 284
#     4   9  19  34  50  68  92 120 152 199 254 299
#
# _framework density 15.867425000000001
#
# number of rings (size 3 to 8) (size 9 to 14) (size 15 to 20)
#    0.000    2.625    1.250    1.500    0.000    2.500 
#    0.000    0.000    0.000    4.500    0.000    7.000 
#    0.000   12.000    0.000    0.000    0.000    0.000 
#
# Total GULP energy -178332.932587 kJ/mol
# GULP energy per Si atom -5572.904143 kJ/mol
# Density = 1.583131 g / cm^3
# Si number density = 15.867425 Si / 1000 Ang^3
#
#
#
# Elastic Constant Matrix: (Units=GPa)
#
#
# Indices 1 2 3 4 5 6 
#
# 1 110.5439 20.1140 39.4972 0.0000 10.5878 0.0000
# 2 20.1140 45.9767 12.8434 0.0000 0.9553 0.0000
# 3 39.4972 12.8434 64.2852 0.0000 1.1000 0.0000
# 4 0.0000 0.0000 0.0000 8.5768 0.0000 1.9050
# 5 10.5878 0.9553 1.1000 0.0000 13.7990 0.0000
# 6 0.0000 0.0000 0.0000 1.9050 0.0000 13.8594
#
#
#
# Elastic Compliance Matrix: (Units=1/GPa)
#
#
# Indices 1 2 3 4 5 6 
#
# 1 0.013159 -0.003548 -0.007217 0.000000 -0.009276 0.000000
# 2 -0.003548 0.024013 -0.002639 0.000000 0.001270 0.000000
# 3 -0.007217 -0.002639 0.020447 0.000000 0.004091 0.000000
# 4 0.000000 0.000000 0.000000 0.120265 0.000000 -0.016530
# 5 -0.009276 0.001270 0.004091 0.000000 0.079172 0.000000
# 6 0.000000 0.000000 0.000000 -0.016530 0.000000 0.074425
#
#
# Mechanical properties :
#
#
# Convention : Reuss Voigt Hill
#
# Bulk Modulus (GPa) = 32.45689 40.63501 36.54595
# Shear Modulus (GPa) = 13.56627 17.13713 15.35170
#
# Velocity S-wave (km/s) = 2.92717 3.28993 3.11384
# Velocity P-wave (km/s) = 5.65012 6.33216 6.00084
#
# Compressibility (1/GPa) = 0.03081010
#
# Stress axis : x y z
#
# Youngs Moduli (GPa) = 75.99405 41.64375 48.90595
#
# Poissons Ratio (x) = 0.14775 0.35297
# Poissons Ratio (y) = 0.26962 0.12908
# Poissons Ratio (z) = 0.54848 0.10992
#
# Static dielectric constant tensor:
#      x y z
#    x 1.517490 0.000000 -0.007340 
#    y 0.000000 1.494810 0.000000 
#    z -0.007340 0.000000 1.552310 
# 
# From -- ./inp_files/86244.got.cif
#   From: 2010.05.17/outbox.cif.g08.bks.cpg/sg10_44_cif.got.tgz:86244.got - 2010.06.03 11:33:40.
