data_PCOD9145430
_publ_section_title
;
Structure prediction by ZEFSAII (Michael W. Deem and Ramdas Pophale) SiO2 
 PCOD9145430
Probable space group: P 2/M
;
_chemical_formula_sum "Si O2"
_cell_formula_units_Z 28
_cell_length_a 15.472602
_cell_length_b 8.476723
_cell_length_c 19.804505
_cell_angle_alpha 90.000000
_cell_angle_beta 142.498282
_cell_angle_gamma 90.000000
_cell_volume 1581.318807
_symmetry_space_group_name_H-M "P 2/M"
_symmetry_group_IT_number 10
_symmetry_cell_setting 'monoclinic'
loop_
_space_group_symop_operation_xyz
x,y,z
-x,y,-z
-x,-y,-z
x,-y,z
loop_
_atom_site_type_symbol
_atom_site_label
_atom_site_fract_x
_atom_site_fract_y
_atom_site_fract_z
Si Si1 0.524330 0.683120 0.227661
Si Si2 0.713494 0.188089 0.737463
Si Si3 0.596588 0.310281 0.414718
Si Si4 0.436596 0.693380 0.031995
Si Si5 0.879063 0.309162 0.121110
Si Si6 0.192452 0.682251 0.067725
Si Si7 0.826547 0.811171 0.661931
O O1 0.568148 0.500000 0.248878
O O2 0.605206 0.751475 0.342532
O O3 0.523936 0.750865 0.151977
O O4 0.358350 0.683852 0.147229
O O5 0.556206 0.257020 0.651531
O O6 0.809881 0.234687 0.861543
O O7 0.772606 0.244585 0.702343
O O8 0.701997 0.000000 0.728517
O O9 0.596785 0.500000 0.412739
O O10 0.721457 0.251273 0.539672
O O11 0.439699 0.500000 0.035543
O O12 0.500000 0.744281 0.000000
O O13 0.272333 0.738561 0.941427
O O14 0.880594 0.500000 0.119328
O O15 0.013012 0.248282 0.244961
O O16 0.886276 0.252006 0.047235
O O17 0.151874 0.500000 0.052298
O O18 0.823549 0.000000 0.659537
#
# Coordination Sequence:
#
# PCOD9145430 Si02
#       7
#     4   4   4   4   4   4   4
#     4   7  12  24  43  69  95 116 143 183 228 271
#     4  10  20  32  46  66  92 122 160 203 240 273
#     4  10  19  32  50  68  90 123 163 201 232 269
#     4   8  13  25  50  80 102 116 137 181 237 283
#     4   9  18  32  49  71  97 124 156 191 231 280
#     4   8  15  29  47  66  91 122 156 194 231 272
#     4  11  23  34  44  63  94 129 162 198 237 276
#
# _framework density 17.706738999999999
#
# number of rings (size 3 to 8) (size 9 to 14) (size 15 to 20)
#    0.000    3.000    0.000    4.286    0.000    5.143 
#    0.000    2.857    0.000    1.286    0.000    6.000 
#    0.000    0.000    0.000    0.000    0.000    0.000 
#
# Total GULP energy -156002.016204 kJ/mol
# GULP energy per Si atom -5571.500579 kJ/mol
# Density = 1.766644 g / cm^3
# Si number density = 17.706739 Si / 1000 Ang^3
#
#
#
# Elastic Constant Matrix: (Units=GPa)
#
#
# Indices 1 2 3 4 5 6 
#
# 1 103.7418 15.9398 70.4641 0.0000 -25.7526 0.0000
# 2 15.9398 17.8662 11.1803 0.0000 -2.3775 0.0000
# 3 70.4641 11.1803 111.4044 0.0000 -12.1388 0.0000
# 4 0.0000 0.0000 0.0000 14.1871 0.0000 -11.6225
# 5 -25.7526 -2.3775 -12.1388 0.0000 23.8571 0.0000
# 6 0.0000 0.0000 0.0000 -11.6225 0.0000 25.3121
#
#
#
# Elastic Compliance Matrix: (Units=1/GPa)
#
#
# Indices 1 2 3 4 5 6 
#
# 1 0.024451 -0.011634 -0.012226 0.000000 0.019013 0.000000
# 2 -0.011634 0.065471 0.000138 0.000000 -0.005963 0.000000
# 3 -0.012226 0.000138 0.016155 0.000000 -0.004964 0.000000
# 4 0.000000 0.000000 0.000000 0.112988 0.000000 0.051880
# 5 0.019013 -0.005963 -0.004964 0.000000 0.059320 0.000000
# 6 0.000000 0.000000 0.000000 0.051880 0.000000 0.063329
#
#
# Mechanical properties :
#
#
# Convention : Reuss Voigt Hill
#
# Bulk Modulus (GPa) = 17.05513 47.57564 32.31538
# Shear Modulus (GPa) = 12.23387 21.69981 16.96684
#
# Velocity S-wave (km/s) = 2.63138 3.50453 3.09886
# Velocity P-wave (km/s) = 4.34570 6.58047 5.57619
#
# Compressibility (1/GPa) = 0.05863340
#
# Stress axis : x y z
#
# Youngs Moduli (GPa) = 40.89822 15.27393 61.90151
#
# Poissons Ratio (x) = 0.17769 0.75682
# Poissons Ratio (y) = 0.47579 -0.00855
# Poissons Ratio (z) = 0.50003 -0.00211
#
# Static dielectric constant tensor:
#      x y z
#    x 1.607610 0.000000 -0.029020 
#    y 0.000000 1.604900 0.000000 
#    z -0.029020 0.000000 1.623570 
# 
# From -- ./inp_files/54953.got.cif
#   From: 2010.05.17/outbox.cif.g08.bks.cpg/sg10_28_cif.got.tgz:54953.got - 2010.06.03 11:33:40.
