data_PCOD9145560
_publ_section_title
;
Structure prediction by ZEFSAII (Michael W. Deem and Ramdas Pophale) SiO2 
 PCOD9145560
Probable space group: P 2/M
;
_chemical_formula_sum "Si O2"
_cell_formula_units_Z 28
_cell_length_a 8.131966
_cell_length_b 36.856163
_cell_length_c 5.254732
_cell_angle_alpha 90.000000
_cell_angle_beta 122.104373
_cell_angle_gamma 90.000000
_cell_volume 1334.078456
_symmetry_space_group_name_H-M "P 2/M"
_symmetry_group_IT_number 10
_symmetry_cell_setting 'monoclinic'
loop_
_space_group_symop_operation_xyz
x,y,z
-x,y,-z
-x,-y,-z
x,-y,z
loop_
_atom_site_type_symbol
_atom_site_label
_atom_site_fract_x
_atom_site_fract_y
_atom_site_fract_z
Si Si1 0.634749 0.653157 0.860476
Si Si2 0.631610 0.731757 0.860323
Si Si3 0.867745 0.804853 0.139443
Si Si4 0.862453 0.960990 0.136853
Si Si5 0.137332 0.883020 0.862483
Si Si6 0.235766 0.458864 0.657391
Si Si7 0.224529 0.423707 0.148377
O O1 0.500000 0.653199 0.500000
O O2 0.738761 0.692606 0.940727
O O3 0.763041 0.617429 0.938649
O O4 0.500000 0.650179 0.000000
O O5 0.500000 0.735202 0.500000
O O6 0.500000 0.728528 0.000000
O O7 0.749445 0.768318 0.000507
O O8 0.000000 0.801616 0.500000
O O9 0.757429 0.843894 0.059584
O O10 0.000000 0.807582 0.000000
O O11 0.000000 0.960941 0.500000
O O12 0.754954 0.921994 0.047828
O O13 0.755227 0.000000 0.048191
O O14 0.000000 0.961053 0.000000
O O15 0.000000 0.882910 0.500000
O O16 0.000000 0.883357 0.000000
O O17 0.279670 0.500000 0.617420
O O18 0.303235 0.430930 0.495390
O O19 0.000000 0.456438 0.500000
O O20 0.310121 0.448915 0.998268
O O21 0.000000 0.433639 0.000000
#
# Coordination Sequence:
#
# PCOD9145560 Si02
#       7
#     4   4   4   4   4   4   4
#     4  10  21  37  54  71  98 133 160 192 244 293
#     4  10  21  37  54  73  99 133 169 201 243 303
#     4  10  19  32  51  75 100 127 161 206 255 293
#     4   8  12  18  29  47  75 112 147 178 221 280
#     4   8  14  23  36  57  86 116 147 188 239 286
#     4   9  17  30  50  76 103 128 156 193 234 273
#     4  10  19  32  53  78  98 123 163 201 229 270
#
# _framework density 20.98827
#
# number of rings (size 3 to 8) (size 9 to 14) (size 15 to 20)
#    0.000    2.714    0.000    2.143    0.000    2.286 
#    0.000    2.143    0.000    8.571    0.000    0.000 
#    0.000    1.143    0.000    0.000    0.000    9.143 
#
# Total GULP energy -155909.806598 kJ/mol
# GULP energy per Si atom -5568.207378 kJ/mol
# Density = 2.094050 g / cm^3
# Si number density = 20.988270 Si / 1000 Ang^3
#
#
#
# Elastic Constant Matrix: (Units=GPa)
#
#
# Indices 1 2 3 4 5 6 
#
# 1 40.8402 23.7012 32.7327 0.0000 -25.7588 0.0000
# 2 23.7012 178.5233 9.2874 0.0000 -23.9739 0.0000
# 3 32.7327 9.2874 103.0980 0.0000 -42.2780 0.0000
# 4 0.0000 0.0000 0.0000 45.5150 0.0000 -13.7151
# 5 -25.7588 -23.9739 -42.2780 0.0000 31.9001 0.0000
# 6 0.0000 0.0000 0.0000 -13.7151 0.0000 -13.6955
#
#
#
# Elastic Compliance Matrix: (Units=1/GPa)
#
#
# Indices 1 2 3 4 5 6 
#
# 1 0.050230 -0.001231 0.000912 0.000000 0.040844 0.000000
# 2 -0.001231 0.006707 0.003168 0.000000 0.008245 0.000000
# 3 0.000912 0.003168 0.022787 0.000000 0.033318 0.000000
# 4 0.000000 0.000000 0.000000 0.016878 0.000000 -0.016902
# 5 0.040844 0.008245 0.033318 0.000000 0.114682 0.000000
# 6 0.000000 0.000000 0.000000 -0.016902 0.000000 -0.056091
#
#
# Mechanical properties :
#
#
# Convention : Reuss Voigt Hill
#
# Bulk Modulus (GPa) = 11.70655 50.43378 31.07016
# Shear Modulus (GPa) = 28.09460 29.85993 28.97727
#
# Velocity S-wave (km/s) = 3.66264 3.77596 3.71973
# Velocity P-wave (km/s) = 4.84524 6.56446 5.76925
#
# Compressibility (1/GPa) = 0.08542229
#
# Stress axis : x y z
#
# Youngs Moduli (GPa) = 19.90845 149.08978 43.88384
#
# Poissons Ratio (x) = 0.18356 -0.04004
# Poissons Ratio (y) = 0.02451 -0.13901
# Poissons Ratio (z) = -0.01816 -0.47227
#
# Static dielectric constant tensor:
#      x y z
#    x 1.644390 0.000000 0.076130 
#    y 0.000000 1.863420 0.000000 
#    z 0.076130 0.000000 1.754620 
# 
# From -- ./inp_files/5550.got.cif
#   From: 2010.05.17/outbox.cif.g08.bks.cpg/sg10_3_cif.got.tgz:5550.got - 2010.06.03 11:33:40.
