data_PCOD9145591
_publ_section_title
;
Structure prediction by ZEFSAII (Michael W. Deem and Ramdas Pophale) SiO2 
 PCOD9145591
Probable space group: P 2/M
;
_chemical_formula_sum "Si O2"
_cell_formula_units_Z 28
_cell_length_a 14.901476
_cell_length_b 13.874986
_cell_length_c 9.320527
_cell_angle_alpha 90.000000
_cell_angle_beta 50.997486
_cell_angle_gamma 90.000000
_cell_volume 1497.578074
_symmetry_space_group_name_H-M "P 2/M"
_symmetry_group_IT_number 10
_symmetry_cell_setting 'monoclinic'
loop_
_space_group_symop_operation_xyz
x,y,z
-x,y,-z
-x,-y,-z
x,-y,z
loop_
_atom_site_type_symbol
_atom_site_label
_atom_site_fract_x
_atom_site_fract_y
_atom_site_fract_z
Si Si1 0.552076 0.389657 0.176418
Si Si2 0.239126 0.340389 0.240953
Si Si3 0.289067 0.299176 0.749028
Si Si4 0.624734 0.109046 0.451049
Si Si5 0.821687 0.393312 0.386675
Si Si6 0.408145 0.791301 0.208560
Si Si7 0.916329 0.382446 0.855664
O O1 0.510347 0.500000 0.232335
O O2 0.605619 0.347172 0.269926
O O3 0.464539 0.310988 0.201941
O O4 0.660350 0.388026 0.956717
O O5 0.209546 0.394635 0.415854
O O6 0.291858 0.238169 0.240124
O O7 0.127032 0.343047 0.253668
O O8 0.303170 0.185355 0.716022
O O9 0.274189 0.336465 0.603347
O O10 0.173801 0.336349 0.943062
O O11 0.500000 0.109621 0.500000
O O12 0.611309 0.145978 0.629182
O O13 0.669670 0.000000 0.404564
O O14 0.823104 0.500000 0.322813
O O15 0.952161 0.355139 0.243573
O O16 0.500000 0.832602 0.000000
O O17 0.908445 0.500000 0.863569
#
# Coordination Sequence:
#
# PCOD9145591 Si02
#       7
#     4   4   4   4   4   4   4
#     4  10  20  33  50  78 122 154 177 213 260 328
#     4  10  19  32  51  76 113 152 186 217 255 310
#     4  11  20  36  55  78 109 147 182 222 280 323
#     4  11  23  42  62  82 106 135 181 240 288 330
#     4  11  20  31  53  83 114 151 193 225 258 312
#     4  10  21  37  56  83 111 143 182 220 274 336
#     4  10  21  35  52  80 120 155 186 222 259 313
#
# _framework density 18.696853999999998
#
# number of rings (size 3 to 8) (size 9 to 14) (size 15 to 20)
#    0.000    1.571    2.857    4.286    0.000    6.286 
#    0.000    0.714    0.000    1.714    0.000    1.000 
#    0.000    0.000    0.000    0.000    0.000    0.000 
#
# Total GULP energy -156261.991744 kJ/mol
# GULP energy per Si atom -5580.785419 kJ/mol
# Density = 1.865430 g / cm^3
# Si number density = 18.696854 Si / 1000 Ang^3
#
#
#
# Elastic Constant Matrix: (Units=GPa)
#
#
# Indices 1 2 3 4 5 6 
#
# 1 70.7764 19.4299 20.4316 0.0000 18.8137 0.0000
# 2 19.4299 72.9720 15.4703 0.0000 11.8931 0.0000
# 3 20.4316 15.4703 75.1486 0.0000 13.2678 0.0000
# 4 0.0000 0.0000 0.0000 15.6061 0.0000 1.7900
# 5 18.8137 11.8931 13.2678 0.0000 31.0756 0.0000
# 6 0.0000 0.0000 0.0000 1.7900 0.0000 14.6744
#
#
#
# Elastic Compliance Matrix: (Units=1/GPa)
#
#
# Indices 1 2 3 4 5 6 
#
# 1 0.017997 -0.002793 -0.002794 0.000000 -0.008634 0.000000
# 2 -0.002793 0.015389 -0.001803 0.000000 -0.003429 0.000000
# 3 -0.002794 -0.001803 0.015160 0.000000 -0.004091 0.000000
# 4 0.000000 0.000000 0.000000 0.064987 0.000000 -0.007927
# 5 -0.008634 -0.003429 -0.004091 0.000000 0.040466 0.000000
# 6 0.000000 0.000000 0.000000 -0.007927 0.000000 0.069113
#
#
# Mechanical properties :
#
#
# Convention : Reuss Voigt Hill
#
# Bulk Modulus (GPa) = 29.61502 36.61784 33.11643
# Shear Modulus (GPa) = 20.06852 23.17557 21.62204
#
# Velocity S-wave (km/s) = 3.27978 3.52453 3.40436
# Velocity P-wave (km/s) = 5.49696 6.01587 5.76226
#
# Compressibility (1/GPa) = 0.03376665
#
# Stress axis : x y z
#
# Youngs Moduli (GPa) = 55.56384 64.98315 65.96271
#
# Poissons Ratio (x) = 0.18147 0.18429
# Poissons Ratio (y) = 0.15516 0.11895
# Poissons Ratio (z) = 0.15524 0.11719
#
# Static dielectric constant tensor:
#      x y z
#    x 1.675170 0.000000 0.023250 
#    y 0.000000 1.630210 0.000000 
#    z 0.023250 0.000000 1.704130 
# 
# From -- ./inp_files/28466.got.cif
#   From: 2010.05.17/outbox.cif.g08.bks.cpg/sg10_15_cif.got.tgz:28466.got - 2010.06.03 11:33:40.
