data_PCOD9145964
_publ_section_title
;
Structure prediction by ZEFSAII (Michael W. Deem and Ramdas Pophale) SiO2 
 PCOD9145964
Probable space group: P 2/M
;
_chemical_formula_sum "Si O2"
_cell_formula_units_Z 28
_cell_length_a 11.893876
_cell_length_b 7.531284
_cell_length_c 15.237572
_cell_angle_alpha 90.000000
_cell_angle_beta 113.666923
_cell_angle_gamma 90.000000
_cell_volume 1250.125594
_symmetry_space_group_name_H-M "P 2/M"
_symmetry_group_IT_number 10
_symmetry_cell_setting 'monoclinic'
loop_
_space_group_symop_operation_xyz
x,y,z
-x,y,-z
-x,-y,-z
x,-y,z
loop_
_atom_site_type_symbol
_atom_site_label
_atom_site_fract_x
_atom_site_fract_y
_atom_site_fract_z
Si Si1 0.805009 0.716719 0.955577
Si Si2 0.448321 0.285304 0.388389
Si Si3 0.820418 0.285223 0.650407
Si Si4 0.460544 0.293711 0.080438
Si Si5 0.016699 0.283778 0.146071
Si Si6 0.368574 0.794558 0.710854
Si Si7 0.136591 0.208940 0.536685
O O1 0.805699 0.500000 0.951089
O O2 0.665779 0.780680 0.918911
O O3 0.881470 0.772275 0.893891
O O4 0.885442 0.769666 0.065855
O O5 0.500000 0.233974 0.500000
O O6 0.453034 0.500000 0.384100
O O7 0.306055 0.231427 0.341778
O O8 0.533312 0.216313 0.337618
O O9 0.820548 0.500000 0.647917
O O10 0.936675 0.224877 0.744235
O O11 0.821029 0.224097 0.550643
O O12 0.430993 0.500000 0.053619
O O13 0.569189 0.288220 0.184698
O O14 0.500000 0.213180 0.000000
O O15 0.015995 0.500000 0.147225
O O16 0.241488 0.716303 0.633516
O O17 0.348501 0.000000 0.725973
O O18 0.000000 0.286700 0.500000
O O19 0.127601 0.000000 0.555208
#
# Coordination Sequence:
#
# PCOD9145964 Si02
#       7
#     4   4   4   4   4   4   4
#     4   8  14  28  48  73 105 136 167 210 265 321
#     4  10  19  33  56  85 117 144 173 222 280 329
#     4  10  19  32  54  85 112 139 177 222 271 323
#     4  10  21  36  56  80 107 140 179 226 281 330
#     4   8  14  25  47  76 104 133 167 210 260 315
#     4  11  23  38  58  81 108 146 189 230 272 326
#     4  10  23  41  55  71 104 148 186 220 267 324
#
# _framework density 22.397749000000001
#
# number of rings (size 3 to 8) (size 9 to 14) (size 15 to 20)
#    0.000    2.429    1.429    2.143    0.000    5.429 
#    0.000    1.429    0.000    0.857    0.000    3.000 
#    0.000    0.000    0.000    0.000    0.000    0.000 
#
# Total GULP energy -156358.466492 kJ/mol
# GULP energy per Si atom -5584.230946 kJ/mol
# Density = 2.234677 g / cm^3
# Si number density = 22.397749 Si / 1000 Ang^3
#
#
#
# Elastic Constant Matrix: (Units=GPa)
#
#
# Indices 1 2 3 4 5 6 
#
# 1 94.8467 -1.2624 39.0414 0.0000 24.9955 0.0000
# 2 -1.2624 50.2627 -10.4337 0.0000 2.1644 0.0000
# 3 39.0414 -10.4337 136.5758 0.0000 23.4213 0.0000
# 4 0.0000 0.0000 0.0000 -1.4037 0.0000 12.3830
# 5 24.9955 2.1644 23.4213 0.0000 31.5557 0.0000
# 6 0.0000 0.0000 0.0000 12.3830 0.0000 -11.6141
#
#
#
# Elastic Compliance Matrix: (Units=1/GPa)
#
#
# Indices 1 2 3 4 5 6 
#
# 1 0.013984 0.000259 -0.002378 0.000000 -0.009330 0.000000
# 2 0.000259 0.020456 0.002022 0.000000 -0.003109 0.000000
# 3 -0.002378 0.002022 0.009003 0.000000 -0.004937 0.000000
# 4 0.000000 0.000000 0.000000 0.084751 0.000000 0.090362
# 5 -0.009330 -0.003109 -0.004937 0.000000 0.042958 0.000000
# 6 0.000000 0.000000 0.000000 0.090362 0.000000 0.010243
#
#
# Mechanical properties :
#
#
# Convention : Reuss Voigt Hill
#
# Bulk Modulus (GPa) = 23.12164 37.37508 30.24836
# Shear Modulus (GPa) = 25.50962 20.66359 23.08660
#
# Velocity S-wave (km/s) = 3.37847 3.04069 3.21402
# Velocity P-wave (km/s) = 5.05612 5.38989 5.22567
#
# Compressibility (1/GPa) = 0.04324954
#
# Stress axis : x y z
#
# Youngs Moduli (GPa) = 71.50860 48.88652 111.07689
#
# Poissons Ratio (x) = -0.01268 0.26411
# Poissons Ratio (y) = -0.01855 -0.22457
# Poissons Ratio (z) = 0.17003 -0.09883
#
# Static dielectric constant tensor:
#      x y z
#    x 1.818220 0.000000 0.028840 
#    y 0.000000 1.875620 0.000000 
#    z 0.028840 0.000000 1.810960 
# 
# From -- ./inp_files/63394.got.cif
#   From: 2010.05.17/outbox.cif.g08.bks.cpg/sg10_32_cif.got.tgz:63394.got - 2010.06.03 11:33:40.
