data_PCOD9145610
_publ_section_title
;
Structure prediction by ZEFSAII (Michael W. Deem and Ramdas Pophale) SiO2 
 PCOD9145610
Probable space group: P 2/M
;
_chemical_formula_sum "Si O2"
_cell_formula_units_Z 28
_cell_length_a 27.102570
_cell_length_b 8.877764
_cell_length_c 10.522545
_cell_angle_alpha 90.000000
_cell_angle_beta 39.058910
_cell_angle_gamma 90.000000
_cell_volume 1595.355617
_symmetry_space_group_name_H-M "P 2/M"
_symmetry_group_IT_number 10
_symmetry_cell_setting 'monoclinic'
loop_
_space_group_symop_operation_xyz
x,y,z
-x,y,-z
-x,-y,-z
x,-y,z
loop_
_atom_site_type_symbol
_atom_site_label
_atom_site_fract_x
_atom_site_fract_y
_atom_site_fract_z
Si Si1 0.164157 0.320274 0.322914
Si Si2 0.677665 0.181122 0.386933
Si Si3 0.406319 0.676138 0.687360
Si Si4 0.677665 0.818878 0.902413
Si Si5 0.000000 0.826537 0.345702
Si Si6 0.590178 0.816715 0.819646
Si Si7 0.835843 0.320274 0.979543
O O1 0.166053 0.500000 0.332486
O O2 0.234995 0.244552 0.256476
O O3 0.079798 0.256625 0.532485
O O4 0.174619 0.285704 0.150761
O O5 0.628498 0.244989 0.367191
O O6 0.636082 0.228895 0.600921
O O7 0.765005 0.244553 0.196456
O O8 0.679212 0.000000 0.378341
O O9 0.500000 0.686149 0.500000
O O10 0.383118 0.500000 0.733761
O O11 0.371499 0.755009 0.881183
O O12 0.636080 0.771105 0.854761
O O13 0.679211 0.000000 0.904818
O O14 0.000000 0.825341 0.500000
O O15 1.000000 0.000000 0.304016
O O16 0.079799 0.743376 0.148322
O O17 0.588240 0.000000 0.823521
O O18 0.500000 0.764544 0.000000
O O19 0.833948 0.500000 0.996693
#
# Coordination Sequence:
#
# PCOD9145610 Si02
#       7
#     4   4   4   4   4   4   4
#     4  10  19  32  51  78 115 149 180 221 275 329
#     4  11  21  35  58  82 108 143 186 231 276 328
#     4  11  23  37  53  78 111 142 177 227 283 333
#     4  11  21  35  58  82 108 143 186 231 276 328
#     4   9  17  29  49  78 111 144 185 226 265 321
#     4   9  20  38  57  80 109 142 185 235 282 329
#     4  10  19  32  51  78 115 149 180 221 275 329
#
# _framework density 17.550946
#
# number of rings (size 3 to 8) (size 9 to 14) (size 15 to 20)
#    0.000    1.857    1.429    3.429    0.000    5.143 
#    0.000    2.857    0.000    6.000    0.000    6.000 
#    0.000    0.000    0.000    0.000    0.000    0.000 
#
# Total GULP energy -156357.641452 kJ/mol
# GULP energy per Si atom -5584.201480 kJ/mol
# Density = 1.751100 g / cm^3
# Si number density = 17.550946 Si / 1000 Ang^3
#
#
#
# Elastic Constant Matrix: (Units=GPa)
#
#
# Indices 1 2 3 4 5 6 
#
# 1 140.3595 58.4681 99.2478 0.0000 -13.4519 0.0000
# 2 58.4681 80.1401 58.6110 0.0000 -10.3528 0.0000
# 3 99.2478 58.6110 140.7235 0.0000 -13.6319 0.0000
# 4 0.0000 0.0000 0.0000 17.7278 0.0000 -17.6746
# 5 -13.4519 -10.3528 -13.6319 0.0000 33.4560 0.0000
# 6 0.0000 0.0000 0.0000 -17.6746 0.0000 17.4803
#
#
#
# Elastic Compliance Matrix: (Units=1/GPa)
#
#
# Indices 1 2 3 4 5 6 
#
# 1 0.015405 -0.004638 -0.008820 0.000000 0.001165 0.000000
# 2 -0.004638 0.019562 -0.004655 0.000000 0.002292 0.000000
# 3 -0.008820 -0.004655 0.015390 0.000000 0.001284 0.000000
# 4 0.000000 0.000000 0.000000 -6.981562 0.000000 -7.059168
# 5 0.001165 0.002292 0.001284 0.000000 0.031591 0.000000
# 6 0.000000 0.000000 0.000000 -7.059168 0.000000 -7.080430
#
#
# Mechanical properties :
#
#
# Convention : Reuss Voigt Hill
#
# Bulk Modulus (GPa) = 70.76363 88.20856 79.48610
# Shear Modulus (GPa) = -0.35870 23.39257 11.51693
#
# Velocity S-wave (km/s) = -0.45257 3.65477 2.56442
# Velocity P-wave (km/s) = 6.33509 8.25696 7.35904
#
# Compressibility (1/GPa) = 0.01413155
#
# Stress axis : x y z
#
# Youngs Moduli (GPa) = 64.91520 51.11938 64.97905
#
# Poissons Ratio (x) = 0.23708 0.57311
# Poissons Ratio (y) = 0.30107 0.30245
# Poissons Ratio (z) = 0.57255 0.23794
#
# Static dielectric constant tensor:
#      x y z
#    x 1.581010 0.000000 -0.010710 
#    y 0.000000 1.587630 0.000000 
#    z -0.010710 0.000000 1.581160 
# 
# From -- ./inp_files/36966.got.cif
#   From: 2010.05.17/outbox.cif.g08.bks.cpg/sg10_19_cif.got.tgz:36966.got - 2010.06.03 11:33:40.
