data_PCOD9145669
_publ_section_title
;
Structure prediction by ZEFSAII (Michael W. Deem and Ramdas Pophale) SiO2 
 PCOD9145669
Probable space group: P 2/M
;
_chemical_formula_sum "Si O2"
_cell_formula_units_Z 28
_cell_length_a 30.715808
_cell_length_b 8.914291
_cell_length_c 9.762317
_cell_angle_alpha 90.000000
_cell_angle_beta 37.357134
_cell_angle_gamma 90.000000
_cell_volume 1621.936563
_symmetry_space_group_name_H-M "P 2/M"
_symmetry_group_IT_number 10
_symmetry_cell_setting 'monoclinic'
loop_
_space_group_symop_operation_xyz
x,y,z
-x,y,-z
-x,-y,-z
x,-y,z
loop_
_atom_site_type_symbol
_atom_site_label
_atom_site_fract_x
_atom_site_fract_y
_atom_site_fract_z
Si Si1 0.349410 0.820612 0.727961
Si Si2 0.503933 0.327339 0.656579
Si Si3 0.931077 0.680205 0.083033
Si Si4 0.220860 0.179657 0.534303
Si Si5 0.067298 0.319885 0.241738
Si Si6 0.218625 0.180087 0.859942
Si Si7 0.654709 0.319251 0.959900
O O1 0.427161 0.769662 0.477860
O O2 0.285391 0.774375 0.786828
O O3 0.348413 0.000000 0.745790
O O4 0.338942 0.745372 0.902508
O O5 0.500000 0.326069 0.500000
O O6 0.515092 0.500000 0.670958
O O7 0.424579 0.276049 0.898457
O O8 0.921203 0.500000 0.119391
O O9 0.857930 0.761295 0.309541
O O10 0.943856 0.715720 0.890900
O O11 0.000000 0.722698 0.000000
O O12 0.230220 0.220687 0.671485
O O13 0.282223 0.255409 0.290742
O O14 0.224252 0.000000 0.512899
O O15 0.072062 0.500000 0.242213
O O16 0.000000 0.267917 0.500000
O O17 0.143281 0.250451 0.094248
O O18 0.212541 0.000000 0.881381
O O19 0.656481 0.500000 0.961474
#
# Coordination Sequence:
#
# PCOD9145669 Si02
#       7
#     4   4   4   4   4   4   4
#     4  10  19  32  52  77 102 130 167 207 248 296
#     4   8  16  31  49  71 100 131 164 205 250 293
#     4   9  18  33  51  71  98 130 163 202 247 293
#     4  10  20  35  53  73 101 135 169 205 247 295
#     4   9  18  32  50  72  96 126 165 203 241 289
#     4   9  20  36  51  72 103 135 165 201 247 296
#     4  10  20  34  52  75 102 131 167 209 250 295
#
# _framework density 17.263314000000001
#
# number of rings (size 3 to 8) (size 9 to 14) (size 15 to 20)
#    0.000    2.714    0.000    2.143    0.000    6.571 
#    0.000    2.143    0.000    4.286    0.000    0.000 
#    0.000    0.000    0.000    0.000    0.000    0.000 
#
# Total GULP energy -156108.115653 kJ/mol
# GULP energy per Si atom -5575.289845 kJ/mol
# Density = 1.722402 g / cm^3
# Si number density = 17.263314 Si / 1000 Ang^3
#
#
#
# Elastic Constant Matrix: (Units=GPa)
#
#
# Indices 1 2 3 4 5 6 
#
# 1 131.3670 45.7467 74.9066 0.0000 -38.0881 0.0000
# 2 45.7467 39.2785 49.4912 0.0000 -14.4288 0.0000
# 3 74.9066 49.4912 154.8307 0.0000 -36.3246 0.0000
# 4 0.0000 0.0000 0.0000 -17.7994 0.0000 -7.9342
# 5 -38.0881 -14.4288 -36.3246 0.0000 22.2167 0.0000
# 6 0.0000 0.0000 0.0000 -7.9342 0.0000 24.3232
#
#
#
# Elastic Compliance Matrix: (Units=1/GPa)
#
#
# Indices 1 2 3 4 5 6 
#
# 1 0.019652 -0.015102 0.001497 0.000000 0.026331 0.000000
# 2 -0.015102 0.055314 -0.013012 0.000000 -0.011242 0.000000
# 3 0.001497 -0.013012 0.013811 0.000000 0.016697 0.000000
# 4 0.000000 0.000000 0.000000 -0.049050 0.000000 -0.016000
# 5 0.026331 -0.011242 0.016697 0.000000 0.110152 0.000000
# 6 0.000000 0.000000 0.000000 -0.016000 0.000000 0.035894
#
#
# Mechanical properties :
#
#
# Convention : Reuss Voigt Hill
#
# Bulk Modulus (GPa) = 28.13492 73.97391 51.05442
# Shear Modulus (GPa) = 19.93190 16.10355 18.01773
#
# Velocity S-wave (km/s) = 3.40160 3.05752 3.23414
# Velocity P-wave (km/s) = 5.63567 7.44365 6.60184
#
# Compressibility (1/GPa) = 0.03554302
#
# Stress axis : x y z
#
# Youngs Moduli (GPa) = 50.88552 18.07860 72.40705
#
# Poissons Ratio (x) = 0.27303 -0.10842
# Poissons Ratio (y) = 0.76848 0.94216
# Poissons Ratio (z) = -0.07619 0.23524
#
# Static dielectric constant tensor:
#      x y z
#    x 1.575650 0.000000 -0.005470 
#    y 0.000000 1.575970 0.000000 
#    z -0.005470 0.000000 1.578360 
# 
# From -- ./inp_files/37921.got.cif
#   From: 2010.05.17/outbox.cif.g08.bks.cpg/sg10_19_cif.got.tgz:37921.got - 2010.06.03 11:33:40.
