data_PCOD9145735
_publ_section_title
;
Structure prediction by ZEFSAII (Michael W. Deem and Ramdas Pophale) SiO2 
 PCOD9145735
Probable space group: P 2/M
;
_chemical_formula_sum "Si O2"
_cell_formula_units_Z 24
_cell_length_a 9.310948
_cell_length_b 14.515716
_cell_length_c 15.483886
_cell_angle_alpha 90.000000
_cell_angle_beta 35.792491
_cell_angle_gamma 90.000000
_cell_volume 1223.933562
_symmetry_space_group_name_H-M "P 2/M"
_symmetry_group_IT_number 10
_symmetry_cell_setting 'monoclinic'
loop_
_space_group_symop_operation_xyz
x,y,z
-x,y,-z
-x,-y,-z
x,-y,z
loop_
_atom_site_type_symbol
_atom_site_label
_atom_site_fract_x
_atom_site_fract_y
_atom_site_fract_z
Si Si1 0.148524 0.105090 0.837587
Si Si2 0.506910 0.400746 0.891962
Si Si3 0.871898 0.264252 0.877862
Si Si4 0.861253 0.264333 0.690348
Si Si5 0.340525 0.392259 0.665744
Si Si6 0.393112 0.764057 0.363135
O O1 0.413095 0.154759 0.714971
O O2 0.985939 0.171819 0.858467
O O3 0.172529 0.000000 0.795619
O O4 0.000000 0.104107 0.000000
O O5 0.430735 0.500000 0.894485
O O6 0.778057 0.372087 0.728404
O O7 0.500000 0.407295 0.000000
O O8 0.325351 0.315121 0.964775
O O9 0.779954 0.240123 0.826673
O O10 0.085319 0.341509 0.768324
O O11 0.716067 0.224574 0.679644
O O12 0.146181 0.240577 0.541370
O O13 0.500000 0.386874 0.500000
O O14 0.310245 0.500000 0.702792
O O15 0.466789 0.331173 0.679863
#
# Coordination Sequence:
#
# PCOD9145735 Si02
#       6
#     4   4   4   4   4   4
#     4  10  22  41  64  87 111 145 191 242 297 353
#     4   9  18  31  52  82 115 153 191 229 276 333
#     4  10  19  36  60  82 115 153 195 242 288 341
#     4  10  20  35  55  81 117 155 189 232 287 343
#     4  10  19  32  52  79 114 155 196 235 278 334
#     4  10  21  37  56  81 118 152 188 240 291 342
#
# _framework density 19.608909000000001
#
# number of rings (size 3 to 8) (size 9 to 14) (size 15 to 20)
#    0.000    2.167    1.667    1.500    0.000    2.000 
#    0.000    5.833    0.000   13.000    0.000    0.000 
#    0.000    0.000    0.000    0.000    0.000    0.000 
#
# Total GULP energy -133641.426670 kJ/mol
# GULP energy per Si atom -5568.392778 kJ/mol
# Density = 1.956428 g / cm^3
# Si number density = 19.608909 Si / 1000 Ang^3
#
#
#
# Elastic Constant Matrix: (Units=GPa)
#
#
# Indices 1 2 3 4 5 6 
#
# 1 83.6171 49.0800 9.4873 0.0000 -2.8318 0.0000
# 2 49.0800 170.1225 44.3386 0.0000 -12.6580 0.0000
# 3 9.4873 44.3386 97.2228 0.0000 -19.1998 0.0000
# 4 0.0000 0.0000 0.0000 20.3334 0.0000 -3.9136
# 5 -2.8318 -12.6580 -19.1998 0.0000 21.4960 0.0000
# 6 0.0000 0.0000 0.0000 -3.9136 0.0000 8.4933
#
#
#
# Elastic Compliance Matrix: (Units=1/GPa)
#
#
# Indices 1 2 3 4 5 6 
#
# 1 0.014424 -0.004311 0.000525 0.000000 -0.000169 0.000000
# 2 -0.004311 0.007998 -0.002925 0.000000 0.001529 0.000000
# 3 0.000525 -0.002925 0.013649 0.000000 0.010538 0.000000
# 4 0.000000 0.000000 0.000000 0.053966 0.000000 0.024867
# 5 -0.000169 0.001529 0.010538 0.000000 0.056811 0.000000
# 6 0.000000 0.000000 0.000000 0.024867 0.000000 0.129198
#
#
# Mechanical properties :
#
#
# Convention : Reuss Voigt Hill
#
# Bulk Modulus (GPa) = 44.14959 61.86380 53.00670
# Shear Modulus (GPa) = 16.83398 26.60165 21.71781
#
# Velocity S-wave (km/s) = 2.93317 3.68721 3.33160
# Velocity P-wave (km/s) = 5.83398 7.05299 6.47225
#
# Compressibility (1/GPa) = 0.02265027
#
# Stress axis : x y z
#
# Youngs Moduli (GPa) = 69.32774 125.03396 73.26336
#
# Poissons Ratio (x) = 0.53899 -0.03846
# Poissons Ratio (y) = 0.29886 0.21428
# Poissons Ratio (z) = -0.03639 0.36569
#
# Static dielectric constant tensor:
#      x y z
#    x 1.749830 0.000000 -0.009660 
#    y 0.000000 1.676130 0.000000 
#    z -0.009660 0.000000 1.744610 
# 
# From -- ./inp_files/29296.got.cif
#   From: 2010.05.17/outbox.cif.g08.bks.cpg/sg10_15_cif.got.tgz:29296.got - 2010.06.03 11:33:40.
