data_PCOD9145620
_publ_section_title
;
Structure prediction by ZEFSAII (Michael W. Deem and Ramdas Pophale) SiO2 
 PCOD9145620
Probable space group: P 2/M
;
_chemical_formula_sum "Si O2"
_cell_formula_units_Z 32
_cell_length_a 21.015592
_cell_length_b 12.632851
_cell_length_c 8.946639
_cell_angle_alpha 90.000000
_cell_angle_beta 43.440183
_cell_angle_gamma 90.000000
_cell_volume 1633.190446
_symmetry_space_group_name_H-M "P 2/M"
_symmetry_group_IT_number 10
_symmetry_cell_setting 'monoclinic'
loop_
_space_group_symop_operation_xyz
x,y,z
-x,y,-z
-x,-y,-z
x,-y,z
loop_
_atom_site_type_symbol
_atom_site_label
_atom_site_fract_x
_atom_site_fract_y
_atom_site_fract_z
Si Si1 0.262295 0.882026 0.868627
Si Si2 0.642256 0.222593 0.057984
Si Si3 0.793007 0.623425 0.904870
Si Si4 0.936046 0.770540 0.475783
Si Si5 0.643727 0.881722 0.756000
Si Si6 0.886511 0.735444 0.995840
Si Si7 0.857269 0.120705 0.326154
Si Si8 0.552649 0.125595 0.602362
O O1 0.289577 0.868655 0.993783
O O2 0.164562 0.832395 0.001412
O O3 0.352163 0.833207 0.633723
O O4 0.259623 0.000000 0.820408
O O5 0.538490 0.191137 0.280869
O O6 0.692669 0.326279 0.036421
O O7 0.641992 0.209660 0.881204
O O8 0.797003 0.500000 0.865889
O O9 0.865107 0.689365 0.676628
O O10 0.822238 0.644310 0.029405
O O11 0.887272 0.850623 0.444291
O O12 0.000000 0.817470 0.500000
O O13 0.011635 0.713866 0.239623
O O14 0.746059 0.881027 0.510662
O O15 0.571065 0.868563 0.747410
O O16 0.629194 0.000000 0.847465
O O17 0.887222 0.784272 0.161805
O O18 0.889284 0.000000 0.233903
O O19 0.540755 0.000000 0.585126
#
# Coordination Sequence:
#
# PCOD9145620 Si02
#       8
#     4   4   4   4   4   4   4   4
#     4  10  19  32  51  82 121 158 194 231 281 349
#     4  11  20  33  56  83 111 153 197 249 296 347
#     4  10  23  44  65  84 112 150 203 269 316 348
#     4  10  22  40  60  90 116 155 202 244 293 358
#     4  10  19  32  53  84 122 164 197 228 278 349
#     4  10  21  36  61  85 116 155 201 241 295 352
#     4  11  21  37  58  88 132 168 191 226 286 361
#     4  10  19  32  53  84 123 163 199 232 280 348
#
# _framework density 19.59355
#
# number of rings (size 3 to 8) (size 9 to 14) (size 15 to 20)
#    0.000    1.750    2.500    2.625    0.000    6.000 
#    0.000    2.500    0.000   11.250    0.000    0.000 
#    0.000    0.000    0.000    0.000    0.000    0.000 
#
# Total GULP energy -178143.759127 kJ/mol
# GULP energy per Si atom -5566.992473 kJ/mol
# Density = 1.954895 g / cm^3
# Si number density = 19.593550 Si / 1000 Ang^3
#
#
#
# Elastic Constant Matrix: (Units=GPa)
#
#
# Indices 1 2 3 4 5 6 
#
# 1 130.6769 39.4081 19.3366 0.0000 9.2409 0.0000
# 2 39.4081 76.2707 37.6439 0.0000 -3.0836 0.0000
# 3 19.3366 37.6439 83.6509 0.0000 -2.5114 0.0000
# 4 0.0000 0.0000 0.0000 14.8493 0.0000 4.4131
# 5 9.2409 -3.0836 -2.5114 0.0000 38.1503 0.0000
# 6 0.0000 0.0000 0.0000 4.4131 0.0000 0.6959
#
#
#
# Elastic Compliance Matrix: (Units=1/GPa)
#
#
# Indices 1 2 3 4 5 6 
#
# 1 0.009326 -0.004914 -0.000024 0.000000 -0.002658 0.000000
# 2 -0.004914 0.019473 -0.007559 0.000000 0.002267 0.000000
# 3 -0.000024 -0.007559 0.015374 0.000000 0.000407 0.000000
# 4 0.000000 0.000000 0.000000 -0.076127 0.000000 0.482750
# 5 -0.002658 0.002267 0.000407 0.000000 0.027066 0.000000
# 6 0.000000 0.000000 0.000000 0.482750 0.000000 -1.624360
#
#
# Mechanical properties :
#
#
# Convention : Reuss Voigt Hill
#
# Bulk Modulus (GPa) = 52.14300 53.70842 52.92571
# Shear Modulus (GPa) = -3.12918 23.68643 10.27862
#
# Velocity S-wave (km/s) = -1.26511 3.48068 2.29288
# Velocity P-wave (km/s) = 4.95339 6.60487 5.83782
#
# Compressibility (1/GPa) = 0.01917803
#
# Stress axis : x y z
#
# Youngs Moduli (GPa) = 107.22791 51.35404 65.04548
#
# Poissons Ratio (x) = 0.25236 0.00157
# Poissons Ratio (y) = 0.52693 0.49167
# Poissons Ratio (z) = 0.00259 0.38818
#
# Static dielectric constant tensor:
#      x y z
#    x 1.742460 0.000000 0.037310 
#    y 0.000000 1.668620 0.000000 
#    z 0.037310 0.000000 1.807770 
# 
# From -- ./inp_files/34826.got.cif
#   From: 2010.05.17/outbox.cif.g08.bks.cpg/sg10_18_cif.got.tgz:34826.got - 2010.06.03 11:33:40.
