data_PCOD9145095
_publ_section_title
;
Structure prediction by ZEFSAII (Michael W. Deem and Ramdas Pophale) SiO2 
 PCOD9145095
Probable space group: P 2/M
;
_chemical_formula_sum "Si O2"
_cell_formula_units_Z 28
_cell_length_a 16.111803
_cell_length_b 11.518693
_cell_length_c 21.431382
_cell_angle_alpha 90.000000
_cell_angle_beta 19.867323
_cell_angle_gamma 90.000000
_cell_volume 1351.687025
_symmetry_space_group_name_H-M "P 2/M"
_symmetry_group_IT_number 10
_symmetry_cell_setting 'monoclinic'
loop_
_space_group_symop_operation_xyz
x,y,z
-x,y,-z
-x,-y,-z
x,-y,z
loop_
_atom_site_type_symbol
_atom_site_label
_atom_site_fract_x
_atom_site_fract_y
_atom_site_fract_z
Si Si1 0.077454 0.137006 0.706556
Si Si2 0.634563 0.500000 0.197000
Si Si3 0.780015 0.500000 0.233767
Si Si4 0.973443 0.131016 0.594619
Si Si5 0.756158 0.244329 0.292624
Si Si6 0.392644 0.863236 0.722584
Si Si7 0.547991 0.138259 0.070893
Si Si8 0.537846 0.257071 0.736962
O O1 0.060107 0.203973 0.784402
O O2 0.328293 0.169803 0.494989
O O3 0.097189 0.000000 0.705819
O O4 0.821917 0.155793 0.851949
O O5 0.618256 0.500000 0.284418
O O6 0.521679 0.386890 0.243529
O O7 0.927939 0.500000 0.983330
O O8 0.736268 0.381717 0.301310
O O9 0.687764 0.157848 0.805579
O O10 0.000000 0.126450 0.500000
O O11 0.177578 0.220524 0.472490
O O12 0.029803 0.000000 0.578642
O O13 0.500000 0.194471 0.500000
O O14 0.781435 0.197016 0.204877
O O15 0.375839 0.820864 0.804802
O O16 0.362432 0.000000 0.739422
O O17 0.517175 0.219923 0.153243
O O18 0.531883 0.000000 0.100263
#
# Coordination Sequence:
#
# PCOD9145095 Si02
#       8
#     4   2   2   4   4   4   4   4
#     4   9  18  32  50  76 107 132 158 201 250 292
#     4  11  24  34  51  68 102 132 162 214 255 276
#     4  11  21  38  48  70  98 132 170 209 244 283
#     4   8  15  29  52  77  99 125 161 202 243 295
#     4  10  19  33  53  72  98 133 171 201 239 296
#     4  10  19  31  50  76 103 130 163 203 247 296
#     4   9  17  32  54  78 103 130 160 199 248 298
#     4  11  19  34  51  73  97 132 169 203 246 293
#
# _framework density 20.714856000000001
#
# number of rings (size 3 to 8) (size 9 to 14) (size 15 to 20)
#    0.000    2.286    1.429    3.643    0.000    1.714 
#    0.000    3.929    0.000    6.857    0.000    1.000 
#    0.000    0.000    0.000    0.000    0.000    0.000 
#
# Total GULP energy -156227.260923 kJ/mol
# GULP energy per Si atom -5579.545033 kJ/mol
# Density = 2.066771 g / cm^3
# Si number density = 20.714856 Si / 1000 Ang^3
#
#
#
# Elastic Constant Matrix: (Units=GPa)
#
#
# Indices 1 2 3 4 5 6 
#
# 1 94.6175 39.6837 15.8145 0.0000 -18.8138 0.0000
# 2 39.6837 75.8840 30.0059 0.0000 -21.5380 0.0000
# 3 15.8145 30.0059 87.0332 0.0000 -21.5856 0.0000
# 4 0.0000 0.0000 0.0000 -96.8835 0.0000 62.7666
# 5 -18.8138 -21.5380 -21.5856 0.0000 29.7336 0.0000
# 6 0.0000 0.0000 0.0000 62.7666 0.0000 -33.0954
#
#
#
# Elastic Compliance Matrix: (Units=1/GPa)
#
#
# Indices 1 2 3 4 5 6 
#
# 1 0.014043 -0.006270 0.000838 0.000000 0.004953 0.000000
# 2 -0.006270 0.020224 -0.003883 0.000000 0.007864 0.000000
# 3 0.000838 -0.003883 0.014769 0.000000 0.008440 0.000000
# 4 0.000000 0.000000 0.000000 0.045136 0.000000 0.085601
# 5 0.004953 0.007864 0.008440 0.000000 0.048589 0.000000
# 6 0.000000 0.000000 0.000000 0.085601 0.000000 0.132130
#
#
# Mechanical properties :
#
#
# Convention : Reuss Voigt Hill
#
# Bulk Modulus (GPa) = 32.88632 47.61587 40.25110
# Shear Modulus (GPa) = 16.46601 -8.58036 3.94283
#
# Velocity S-wave (km/s) = 2.82244 -2.03743 1.38113
# Velocity P-wave (km/s) = 5.15089 4.18347 4.69218
#
# Compressibility (1/GPa) = 0.03040778
#
# Stress axis : x y z
#
# Youngs Moduli (GPa) = 71.20929 49.44614 67.70722
#
# Poissons Ratio (x) = 0.31001 -0.05675
# Poissons Ratio (y) = 0.44645 0.26291
# Poissons Ratio (z) = -0.05968 0.19200
#
# Static dielectric constant tensor:
#      x y z
#    x 1.792670 0.000000 0.017110 
#    y 0.000000 1.682000 0.000000 
#    z 0.017110 0.000000 1.836560 
# 
# From -- ./inp_files/93429.got.cif
#   From: 2010.05.17/outbox.cif.g08.bks.cpg/sg10_47_cif.got.tgz:93429.got - 2010.06.03 11:33:40.
