data_PCOD9145521
_publ_section_title
;
Structure prediction by ZEFSAII (Michael W. Deem and Ramdas Pophale) SiO2 
 PCOD9145521
Probable space group: P 2/M
;
_chemical_formula_sum "Si O2"
_cell_formula_units_Z 32
_cell_length_a 22.201146
_cell_length_b 7.325607
_cell_length_c 15.193496
_cell_angle_alpha 90.000000
_cell_angle_beta 35.085489
_cell_angle_gamma 90.000000
_cell_volume 1420.338935
_symmetry_space_group_name_H-M "P 2/M"
_symmetry_group_IT_number 10
_symmetry_cell_setting 'monoclinic'
loop_
_space_group_symop_operation_xyz
x,y,z
-x,y,-z
-x,-y,-z
x,-y,z
loop_
_atom_site_type_symbol
_atom_site_label
_atom_site_fract_x
_atom_site_fract_y
_atom_site_fract_z
Si Si1 0.903438 0.208093 0.732186
Si Si2 0.507062 0.776596 0.205444
Si Si3 0.771914 0.721034 0.063300
Si Si4 0.528934 0.209618 0.371473
Si Si5 0.712380 0.223137 0.856799
Si Si6 0.913440 0.220729 0.368264
Si Si7 0.318027 0.222295 0.306510
Si Si8 0.045130 0.713726 0.036317
O O1 0.828158 0.287239 0.747025
O O2 0.010713 0.287907 0.643326
O O3 0.927329 0.000000 0.677521
O O4 0.827142 0.209421 0.908703
O O5 0.488247 0.712964 0.327661
O O6 0.416308 0.718810 0.247128
O O7 0.508320 0.000000 0.205401
O O8 0.621048 0.720333 0.033229
O O9 0.772759 0.500000 0.058434
O O10 0.654190 0.786289 0.212905
O O11 0.845249 0.784456 0.056193
O O12 0.500000 0.293946 0.500000
O O13 0.490888 0.000000 0.419738
O O14 0.679582 0.277635 0.798169
O O15 0.716178 0.000000 0.854235
O O16 0.794119 0.279703 0.520912
O O17 0.964200 0.270769 0.214160
O O18 0.915724 0.000000 0.370316
O O19 0.320091 0.000000 0.304625
O O20 0.063983 0.500000 0.997211
O O21 0.000000 0.792859 0.000000
#
# Coordination Sequence:
#
# PCOD9145521 Si02
#       8
#     4   4   4   4   4   4   4   4
#     4   9  16  29  49  71  97 127 159 195 242 293
#     4   9  16  28  45  67  98 131 164 199 239 288
#     4  10  19  32  51  72  95 124 160 203 243 283
#     4  10  20  33  50  73  99 129 162 200 247 293
#     4   9  15  25  46  70  94 130 167 199 238 291
#     4   9  18  30  46  73 105 127 152 201 252 288
#     4   9  17  27  42  71 104 129 160 202 246 288
#     4   9  19  35  53  71  93 128 169 200 235 292
#
# _framework density 22.529834000000001
#
# number of rings (size 3 to 8) (size 9 to 14) (size 15 to 20)
#    0.000    2.750    1.250    0.750    0.000    4.000 
#    0.000    3.750    0.000    1.500    0.000    4.375 
#    0.000    0.000    0.000    0.000    0.000    0.000 
#
# Total GULP energy -178661.903379 kJ/mol
# GULP energy per Si atom -5583.184481 kJ/mol
# Density = 2.247856 g / cm^3
# Si number density = 22.529834 Si / 1000 Ang^3
#
#
#
# Elastic Constant Matrix: (Units=GPa)
#
#
# Indices 1 2 3 4 5 6 
#
# 1 189.0181 2.0713 30.4057 0.0000 13.6765 0.0000
# 2 2.0713 91.0980 -15.3417 0.0000 1.7291 0.0000
# 3 30.4057 -15.3417 40.5966 0.0000 6.1201 0.0000
# 4 0.0000 0.0000 0.0000 14.0868 0.0000 1.3330
# 5 13.6765 1.7291 6.1201 0.0000 35.2140 0.0000
# 6 0.0000 0.0000 0.0000 1.3330 0.0000 -15.3967
#
#
#
# Elastic Compliance Matrix: (Units=1/GPa)
#
#
# Indices 1 2 3 4 5 6 
#
# 1 0.006173 -0.000909 -0.004736 0.000000 -0.001530 0.000000
# 2 -0.000909 0.011923 0.005362 0.000000 -0.001164 0.000000
# 3 -0.004736 0.005362 0.030775 0.000000 -0.003772 0.000000
# 4 0.000000 0.000000 0.000000 0.070412 0.000000 0.006096
# 5 -0.001530 -0.001164 -0.003772 0.000000 0.029705 0.000000
# 6 0.000000 0.000000 0.000000 0.006096 0.000000 -0.064421
#
#
# Mechanical properties :
#
#
# Convention : Reuss Voigt Hill
#
# Bulk Modulus (GPa) = 20.70191 39.44257 30.07224
# Shear Modulus (GPa) = 49.39036 27.01930 38.20483
#
# Velocity S-wave (km/s) = 4.68719 3.46680 4.12241
# Velocity P-wave (km/s) = 6.20497 5.79394 6.00298
#
# Compressibility (1/GPa) = 0.04830472
#
# Stress axis : x y z
#
# Youngs Moduli (GPa) = 161.99496 83.87160 32.49385
#
# Poissons Ratio (x) = 0.07624 0.15390
# Poissons Ratio (y) = 0.14725 -0.17424
# Poissons Ratio (z) = 0.76726 -0.44973
#
# Static dielectric constant tensor:
#      x y z
#    x 1.842230 0.000000 0.006700 
#    y 0.000000 1.847740 0.000000 
#    z 0.006700 0.000000 1.771820 
# 
# From -- ./inp_files/55193.got.cif
#   From: 2010.05.17/outbox.cif.g08.bks.cpg/sg10_28_cif.got.tgz:55193.got - 2010.06.03 11:33:40.
