data_PCOD9145435
_publ_section_title
;
Structure prediction by ZEFSAII (Michael W. Deem and Ramdas Pophale) SiO2 
 PCOD9145435
Probable space group: P 2/M
;
_chemical_formula_sum "Si O2"
_cell_formula_units_Z 32
_cell_length_a 20.375794
_cell_length_b 7.351921
_cell_length_c 14.456302
_cell_angle_alpha 90.000000
_cell_angle_beta 138.978032
_cell_angle_gamma 90.000000
_cell_volume 1421.369464
_symmetry_space_group_name_H-M "P 2/M"
_symmetry_group_IT_number 10
_symmetry_cell_setting 'monoclinic'
loop_
_space_group_symop_operation_xyz
x,y,z
-x,y,-z
-x,-y,-z
x,-y,z
loop_
_atom_site_type_symbol
_atom_site_label
_atom_site_fract_x
_atom_site_fract_y
_atom_site_fract_z
Si Si1 0.528070 0.277289 0.925749
Si Si2 0.822690 0.788758 0.459853
Si Si3 0.809565 0.278282 0.938164
Si Si4 0.777925 0.277330 0.696190
Si Si5 0.033514 0.280958 0.227281
Si Si6 0.268129 0.277800 0.953848
Si Si7 0.638885 0.294020 0.392047
Si Si8 0.901167 0.294512 0.353676
O O1 0.525101 0.500000 0.923941
O O2 0.448276 0.214087 0.763834
O O3 0.500000 0.219176 0.000000
O O4 0.636902 0.221065 0.005087
O O5 0.924844 0.772170 0.627676
O O6 0.736183 0.702677 0.429544
O O7 0.830881 0.699231 0.369070
O O8 0.799638 0.000000 0.423029
O O9 0.811397 0.500000 0.938633
O O10 0.778793 0.219575 0.803178
O O11 0.736208 0.224944 0.943555
O O12 0.922812 0.219373 0.082966
O O13 0.776635 0.500000 0.692203
O O14 0.881020 0.221993 0.754753
O O15 0.684095 0.213722 0.534534
O O16 0.031616 0.500000 0.223632
O O17 0.266459 0.500000 0.948178
O O18 0.164992 0.214136 0.797419
O O19 0.606801 0.500000 0.379994
O O20 0.929787 0.500000 0.354812
O O21 0.000000 0.203515 0.500000
#
# Coordination Sequence:
#
# PCOD9145435 Si02
#       8
#     4   4   4   4   4   4   4   4
#     4   9  16  27  45  67  91 121 157 198 241 282
#     4  11  21  31  46  70  98 124 153 197 246 281
#     4   9  15  25  43  69  98 123 153 196 238 275
#     4   8  14  24  42  68  94 122 157 194 231 275
#     4   9  16  28  47  69  95 129 162 188 224 282
#     4   9  17  27  43  70  97 120 154 200 241 277
#     4   9  17  31  50  69  91 122 159 193 231 284
#     4  10  19  32  50  70  94 128 165 193 225 281
#
# _framework density 22.513497999999998
#
# number of rings (size 3 to 8) (size 9 to 14) (size 15 to 20)
#    0.000    2.750    0.000    3.750    0.000    5.750 
#    0.000    0.625    0.000   13.125    0.000    0.000 
#    0.000    4.000    0.000    0.000    0.000    0.000 
#
# Total GULP energy -178678.132348 kJ/mol
# GULP energy per Si atom -5583.691636 kJ/mol
# Density = 2.246226 g / cm^3
# Si number density = 22.513498 Si / 1000 Ang^3
#
#
#
# Elastic Constant Matrix: (Units=GPa)
#
#
# Indices 1 2 3 4 5 6 
#
# 1 118.3022 0.5764 68.5879 0.0000 -22.8624 0.0000
# 2 0.5764 94.5954 0.9005 0.0000 0.4427 0.0000
# 3 68.5879 0.9005 151.3722 0.0000 -8.7445 0.0000
# 4 0.0000 0.0000 0.0000 -120.5281 0.0000 -40.5967
# 5 -22.8624 0.4427 -8.7445 0.0000 39.2605 0.0000
# 6 0.0000 0.0000 0.0000 -40.5967 0.0000 -63.9081
#
#
#
# Elastic Compliance Matrix: (Units=1/GPa)
#
#
# Indices 1 2 3 4 5 6 
#
# 1 0.012820 -0.000056 -0.005447 0.000000 0.006253 0.000000
# 2 -0.000056 0.010573 -0.000047 0.000000 -0.000162 0.000000
# 3 -0.005447 -0.000047 0.009007 0.000000 -0.001165 0.000000
# 4 0.000000 0.000000 0.000000 -0.010555 0.000000 0.006705
# 5 0.006253 -0.000162 -0.001165 0.000000 0.028854 0.000000
# 6 0.000000 0.000000 0.000000 0.006705 0.000000 -0.019907
#
#
# Mechanical properties :
#
#
# Convention : Reuss Voigt Hill
#
# Bulk Modulus (GPa) = 46.94764 56.04437 51.49601
# Shear Modulus (GPa) = 102.05813 -9.42150 46.31832
#
# Velocity S-wave (km/s) = 6.74021 -2.04790 4.54073
# Velocity P-wave (km/s) = 9.02620 4.39953 7.10028
#
# Compressibility (1/GPa) = 0.02130033
#
# Stress axis : x y z
#
# Youngs Moduli (GPa) = 78.00542 94.58154 111.02052
#
# Poissons Ratio (x) = 0.00525 0.60474
# Poissons Ratio (y) = 0.00433 0.00523
# Poissons Ratio (z) = 0.42491 0.00446
#
# Static dielectric constant tensor:
#      x y z
#    x 1.803360 0.000000 0.006360 
#    y 0.000000 1.867740 0.000000 
#    z 0.006360 0.000000 1.827900 
# 
# From -- ./inp_files/70038.got.cif
#   From: 2010.05.17/outbox.cif.g08.bks.cpg/sg10_36_cif.got.tgz:70038.got - 2010.06.03 11:33:40.
