data_PCOD9145645
_publ_section_title
;
Structure prediction by ZEFSAII (Michael W. Deem and Ramdas Pophale) SiO2 
 PCOD9145645
Probable space group: P 2/M
;
_chemical_formula_sum "Si O2"
_cell_formula_units_Z 28
_cell_length_a 14.030867
_cell_length_b 14.427497
_cell_length_c 8.453224
_cell_angle_alpha 90.000000
_cell_angle_beta 123.846412
_cell_angle_gamma 90.000000
_cell_volume 1421.199582
_symmetry_space_group_name_H-M "P 2/M"
_symmetry_group_IT_number 10
_symmetry_cell_setting 'monoclinic'
loop_
_space_group_symop_operation_xyz
x,y,z
-x,y,-z
-x,-y,-z
x,-y,z
loop_
_atom_site_type_symbol
_atom_site_label
_atom_site_fract_x
_atom_site_fract_y
_atom_site_fract_z
Si Si1 0.597851 0.899018 0.858191
Si Si2 0.254748 0.783074 0.194591
Si Si3 0.141564 0.725726 0.777005
Si Si4 0.071954 0.318315 0.210209
Si Si5 0.758807 0.105743 0.306658
Si Si6 0.386568 0.231258 0.613720
Si Si7 0.252583 0.393780 0.613766
O O1 0.700707 0.881574 0.828163
O O2 0.507164 0.817368 0.752673
O O3 0.544178 0.000000 0.782825
O O4 0.653716 0.896674 0.083084
O O5 0.138792 0.767179 0.187762
O O6 0.355012 0.748541 0.403154
O O7 0.228923 0.729827 0.006987
O O8 0.153015 0.822490 0.692433
O O9 0.180911 0.644886 0.696354
O O10 0.017360 0.711880 0.738191
O O11 0.169074 0.379132 0.384657
O O12 0.000000 0.363664 0.000000
O O13 0.707193 0.155349 0.412721
O O14 0.797659 0.000000 0.365838
O O15 0.358585 0.323415 0.686489
O O16 0.284505 0.500000 0.660616
#
# Coordination Sequence:
#
# PCOD9145645 Si02
#       7
#     4   4   4   4   4   4   4
#     4  10  19  32  54  82 109 142 182 218 256 306
#     4   9  19  33  49  74 108 142 173 213 259 306
#     4   9  18  34  54  75 106 140 175 216 263 311
#     4   9  18  34  55  79 108 141 171 211 265 311
#     4   9  18  32  52  79 108 139 177 217 259 313
#     4  10  19  32  52  75 108 139 172 221 270 310
#     4  10  21  36  56  81 104 133 177 221 265 320
#
# _framework density 19.701664000000001
#
# number of rings (size 3 to 8) (size 9 to 14) (size 15 to 20)
#    0.000    2.571    0.000    1.714    0.000    4.286 
#    0.000    6.429    0.000   38.571    0.000    0.000 
#    0.000    0.000    0.000    0.000    0.000    0.000 
#
# Total GULP energy -155975.141808 kJ/mol
# GULP energy per Si atom -5570.540779 kJ/mol
# Density = 1.965682 g / cm^3
# Si number density = 19.701664 Si / 1000 Ang^3
#
#
#
# Elastic Constant Matrix: (Units=GPa)
#
#
# Indices 1 2 3 4 5 6 
#
# 1 71.5009 43.4485 14.8471 0.0000 -12.5927 0.0000
# 2 43.4485 130.9548 18.3867 0.0000 -3.5991 0.0000
# 3 14.8471 18.3867 62.7429 0.0000 -4.2228 0.0000
# 4 0.0000 0.0000 0.0000 14.4494 0.0000 3.5403
# 5 -12.5927 -3.5991 -4.2228 0.0000 27.4363 0.0000
# 6 0.0000 0.0000 0.0000 3.5403 0.0000 4.9566
#
#
#
# Elastic Compliance Matrix: (Units=1/GPa)
#
#
# Indices 1 2 3 4 5 6 
#
# 1 0.019431 -0.005904 -0.002344 0.000000 0.007783 0.000000
# 2 -0.005904 0.009771 -0.001579 0.000000 -0.001671 0.000000
# 3 -0.002344 -0.001579 0.017046 0.000000 0.001341 0.000000
# 4 0.000000 0.000000 0.000000 0.083887 0.000000 -0.059916
# 5 0.007783 -0.001671 0.001341 0.000000 0.040007 0.000000
# 6 0.000000 0.000000 0.000000 -0.059916 0.000000 0.244544
#
#
# Mechanical properties :
#
#
# Convention : Reuss Voigt Hill
#
# Bulk Modulus (GPa) = 37.60241 46.50702 42.05472
# Shear Modulus (GPa) = 11.28149 21.93623 16.60886
#
# Velocity S-wave (km/s) = 2.39554 3.34041 2.90663
# Velocity P-wave (km/s) = 5.17482 6.20763 5.71461
#
# Compressibility (1/GPa) = 0.02659404
#
# Stress axis : x y z
#
# Youngs Moduli (GPa) = 51.46450 102.34641 58.66612
#
# Poissons Ratio (x) = 0.60423 0.13752
# Poissons Ratio (y) = 0.30384 0.09262
# Poissons Ratio (z) = 0.12064 0.16158
#
# Static dielectric constant tensor:
#      x y z
#    x 1.738080 0.000000 -0.000040 
#    y 0.000000 1.672590 0.000000 
#    z -0.000040 0.000000 1.745150 
# 
# From -- ./inp_files/29217.got.cif
#   From: 2010.05.17/outbox.cif.g08.bks.cpg/sg10_15_cif.got.tgz:29217.got - 2010.06.03 11:33:40.
