data_PCOD9145432
_publ_section_title
;
Structure prediction by ZEFSAII (Michael W. Deem and Ramdas Pophale) SiO2 
 PCOD9145432
Probable space group: P 2/M
;
_chemical_formula_sum "Si O2"
_cell_formula_units_Z 24
_cell_length_a 10.009343
_cell_length_b 7.559834
_cell_length_c 22.791291
_cell_angle_alpha 90.000000
_cell_angle_beta 135.789792
_cell_angle_gamma 90.000000
_cell_volume 1202.546698
_symmetry_space_group_name_H-M "P 2/M"
_symmetry_group_IT_number 10
_symmetry_cell_setting 'monoclinic'
loop_
_space_group_symop_operation_xyz
x,y,z
-x,y,-z
-x,-y,-z
x,-y,z
loop_
_atom_site_type_symbol
_atom_site_label
_atom_site_fract_x
_atom_site_fract_y
_atom_site_fract_z
Si Si1 0.314094 0.212639 0.477481
Si Si2 0.855324 0.283545 0.904138
Si Si3 0.591291 0.204983 0.366902
Si Si4 0.051930 0.712462 0.717441
Si Si5 0.422286 0.294571 0.769829
Si Si6 0.146000 0.285229 0.228049
O O1 0.500000 0.278761 0.500000
O O2 0.312868 0.279738 0.544069
O O3 0.122451 0.251298 0.381678
O O4 0.335000 0.000000 0.488299
O O5 0.852503 0.500000 0.904165
O O6 0.636553 0.220025 0.844103
O O7 0.914096 0.232753 0.856515
O O8 0.000000 0.224713 0.000000
O O9 0.628792 0.288387 0.315376
O O10 0.362723 0.219628 0.305866
O O11 0.645168 0.000000 0.377713
O O12 0.069451 0.500000 0.726914
O O13 0.250425 0.783864 0.753832
O O14 0.988893 0.776688 0.761820
O O15 0.438563 0.500000 0.791652
O O16 0.155061 0.500000 0.232416
#
# Coordination Sequence:
#
# PCOD9145432 Si02
#       6
#     4   4   4   4   4   4
#     4  10  20  33  48  69  97 127 165 206 236 274
#     4   8  14  28  51  73  94 124 158 193 235 284
#     4  10  19  32  50  70  93 127 167 201 238 279
#     4  10  20  32  48  71  99 131 161 196 241 283
#     4   9  19  34  49  70 101 128 157 198 241 285
#     4   9  17  30  49  72  97 125 160 196 236 286
#
# _framework density 19.957644999999999
#
# number of rings (size 3 to 8) (size 9 to 14) (size 15 to 20)
#    0.000    2.667    1.667    1.500    0.000    3.000 
#    0.000    4.167    0.000   13.000    0.000    0.000 
#    0.000   12.000    0.000    0.000    0.000    0.000 
#
# Total GULP energy -133878.209307 kJ/mol
# GULP energy per Si atom -5578.258721 kJ/mol
# Density = 1.991222 g / cm^3
# Si number density = 19.957645 Si / 1000 Ang^3
#
#
#
# Elastic Constant Matrix: (Units=GPa)
#
#
# Indices 1 2 3 4 5 6 
#
# 1 155.4911 -8.1131 81.5720 0.0000 -5.1050 0.0000
# 2 -8.1131 43.2295 -3.9247 0.0000 1.8548 0.0000
# 3 81.5720 -3.9247 154.9146 0.0000 -18.3670 0.0000
# 4 0.0000 0.0000 0.0000 39.8496 0.0000 3.6940
# 5 -5.1050 1.8548 -18.3670 0.0000 18.4917 0.0000
# 6 0.0000 0.0000 0.0000 3.6940 0.0000 0.6049
#
#
#
# Elastic Compliance Matrix: (Units=1/GPa)
#
#
# Indices 1 2 3 4 5 6 
#
# 1 0.009066 0.001357 -0.005054 0.000000 -0.002653 0.000000
# 2 0.001357 0.023452 -0.000402 0.000000 -0.002377 0.000000
# 3 -0.005054 -0.000402 0.010140 0.000000 0.008716 0.000000
# 4 0.000000 0.000000 0.000000 0.057835 0.000000 -0.353201
# 5 -0.002653 -0.002377 0.008716 0.000000 0.062242 0.000000
# 6 0.000000 0.000000 0.000000 -0.353201 0.000000 3.810219
#
#
# Mechanical properties :
#
#
# Convention : Reuss Voigt Hill
#
# Bulk Modulus (GPa) = 29.01977 54.74483 41.88230
# Shear Modulus (GPa) = 1.25230 30.72932 15.99081
#
# Velocity S-wave (km/s) = 0.79300 3.92819 2.83368
# Velocity P-wave (km/s) = 3.92565 6.93284 5.63361
#
# Compressibility (1/GPa) = 0.03445927
#
# Stress axis : x y z
#
# Youngs Moduli (GPa) = 110.29747 42.63949 98.62161
#
# Poissons Ratio (x) = -0.05784 0.49845
# Poissons Ratio (y) = -0.14962 0.03964
# Poissons Ratio (z) = 0.55747 0.01714
#
# Static dielectric constant tensor:
#      x y z
#    x 1.714180 0.000000 -0.016300 
#    y 0.000000 1.744980 0.000000 
#    z -0.016300 0.000000 1.673280 
# 
# From -- ./inp_files/33747.got.cif
#   From: 2010.05.17/outbox.cif.g08.bks.cpg/sg10_17_cif.got.tgz:33747.got - 2010.06.03 11:33:40.
