data_PCOD9145679
_publ_section_title
;
Structure prediction by ZEFSAII (Michael W. Deem and Ramdas Pophale) SiO2 
 PCOD9145679
Probable space group: P 2/M
;
_chemical_formula_sum "Si O2"
_cell_formula_units_Z 32
_cell_length_a 20.320764
_cell_length_b 13.291374
_cell_length_c 20.937499
_cell_angle_alpha 90.000000
_cell_angle_beta 19.869048
_cell_angle_gamma 90.000000
_cell_volume 1921.982894
_symmetry_space_group_name_H-M "P 2/M"
_symmetry_group_IT_number 10
_symmetry_cell_setting 'monoclinic'
loop_
_space_group_symop_operation_xyz
x,y,z
-x,y,-z
-x,-y,-z
x,-y,z
loop_
_atom_site_type_symbol
_atom_site_label
_atom_site_fract_x
_atom_site_fract_y
_atom_site_fract_z
Si Si1 0.767081 0.117182 0.210476
Si Si2 0.454502 0.200484 0.705393
Si Si3 0.481780 0.385490 0.865766
Si Si4 0.209369 0.883703 0.673064
Si Si5 0.154663 0.121241 0.074497
Si Si6 0.888319 0.379797 0.535596
Si Si7 0.937033 0.285791 0.748785
Si Si8 0.315403 0.384768 0.458642
O O1 0.688072 0.182051 0.224126
O O2 0.713955 0.157608 0.329580
O O3 0.700934 0.000000 0.261373
O O4 0.000000 0.116191 0.000000
O O5 0.633909 0.128531 0.524912
O O6 0.552355 0.309928 0.620630
O O7 0.350176 0.167111 0.865867
O O8 0.434369 0.500000 0.926435
O O9 0.280085 0.328535 0.049378
O O10 0.660377 0.352550 0.747782
O O11 0.580645 0.383863 0.705618
O O12 0.007798 0.846786 0.829197
O O13 0.176284 0.000000 0.718201
O O14 0.087395 0.173073 0.201612
O O15 0.164110 0.000000 0.069275
O O16 0.896937 0.500000 0.508770
O O17 0.985137 0.310677 0.392952
O O18 0.000000 0.370035 0.500000
O O19 0.098570 0.341255 0.645822
O O20 0.307574 0.500000 0.488152
#
# Coordination Sequence:
#
# PCOD9145679 Si02
#       8
#     4   4   4   4   4   4   4   4
#     4  10  19  32  52  77 105 136 177 227 281 339
#     4  12  20  34  53  75 106 141 175 222 282 322
#     4   9  17  31  53  78 107 141 175 210 258 315
#     4  10  20  34  52  77 106 139 177 222 279 334
#     4  11  22  34  52  82 111 137 179 226 269 326
#     4   9  19  34  54  86 119 142 176 222 265 318
#     4  11  19  35  55  78 110 146 175 216 270 314
#     4  10  21  34  51  78 105 137 183 222 259 321
#
# _framework density 16.649473
#
# number of rings (size 3 to 8) (size 9 to 14) (size 15 to 20)
#    0.000    1.750    3.750    3.375    0.000    1.500 
#    0.000    1.875    0.000    2.250    0.000    0.875 
#    0.000    0.000    0.000    0.000    0.000    0.000 
#
# Total GULP energy -178167.316208 kJ/mol
# GULP energy per Si atom -5567.728632 kJ/mol
# Density = 1.661158 g / cm^3
# Si number density = 16.649473 Si / 1000 Ang^3
#
#
#
# Elastic Constant Matrix: (Units=GPa)
#
#
# Indices 1 2 3 4 5 6 
#
# 1 81.1840 49.1904 27.8441 0.0000 -10.4961 0.0000
# 2 49.1904 79.1066 31.1892 0.0000 -6.3898 0.0000
# 3 27.8441 31.1892 89.3115 0.0000 -14.0063 0.0000
# 4 0.0000 0.0000 0.0000 22.0404 0.0000 1.3107
# 5 -10.4961 -6.3898 -14.0063 0.0000 27.5287 0.0000
# 6 0.0000 0.0000 0.0000 1.3107 0.0000 19.6846
#
#
#
# Elastic Compliance Matrix: (Units=1/GPa)
#
#
# Indices 1 2 3 4 5 6 
#
# 1 0.020587 -0.011817 -0.001620 0.000000 0.004282 0.000000
# 2 -0.011817 0.021461 -0.004060 0.000000 -0.001590 0.000000
# 3 -0.001620 -0.004060 0.013991 0.000000 0.005559 0.000000
# 4 0.000000 0.000000 0.000000 0.045552 0.000000 -0.003033
# 5 0.004282 -0.001590 0.005559 0.000000 0.040418 0.000000
# 6 0.000000 0.000000 0.000000 -0.003033 0.000000 0.051003
#
#
# Mechanical properties :
#
#
# Convention : Reuss Voigt Hill
#
# Bulk Modulus (GPa) = 47.51475 51.78327 49.64901
# Shear Modulus (GPa) = 21.27468 23.27597 22.27533
#
# Velocity S-wave (km/s) = 3.57851 3.74304 3.66170
# Velocity P-wave (km/s) = 6.75830 7.06046 6.91103
#
# Compressibility (1/GPa) = 0.02104610
#
# Stress axis : x y z
#
# Youngs Moduli (GPa) = 48.57450 46.59511 71.47259
#
# Poissons Ratio (x) = 0.55061 0.11579
# Poissons Ratio (y) = 0.57400 0.29018
# Poissons Ratio (z) = 0.07869 0.18917
#
# Static dielectric constant tensor:
#      x y z
#    x 1.599690 0.000000 -0.001000 
#    y 0.000000 1.565400 0.000000 
#    z -0.001000 0.000000 1.614840 
# 
# From -- ./inp_files/86275.got.cif
#   From: 2010.05.17/outbox.cif.g08.bks.cpg/sg10_44_cif.got.tgz:86275.got - 2010.06.03 11:33:40.
