data_PCOD9145868
_publ_section_title
;
Structure prediction by ZEFSAII (Michael W. Deem and Ramdas Pophale) SiO2 
 PCOD9145868
Probable space group: P 2/M
;
_chemical_formula_sum "Si O2"
_cell_formula_units_Z 28
_cell_length_a 8.374931
_cell_length_b 15.681581
_cell_length_c 19.679090
_cell_angle_alpha 90.000000
_cell_angle_beta 29.446834
_cell_angle_gamma 90.000000
_cell_volume 1270.579553
_symmetry_space_group_name_H-M "P 2/M"
_symmetry_group_IT_number 10
_symmetry_cell_setting 'monoclinic'
loop_
_space_group_symop_operation_xyz
x,y,z
-x,y,-z
-x,-y,-z
x,-y,z
loop_
_atom_site_type_symbol
_atom_site_label
_atom_site_fract_x
_atom_site_fract_y
_atom_site_fract_z
Si Si1 0.222509 0.092593 0.330261
Si Si2 0.570998 0.599417 0.553731
Si Si3 0.464211 0.724107 0.938609
Si Si4 0.824229 0.280493 0.667575
Si Si5 0.292874 0.907983 0.729778
Si Si6 0.396472 0.090551 0.942661
Si Si7 0.259942 0.276975 0.763596
O O1 0.048623 0.181941 0.379447
O O2 0.380196 0.091441 0.346104
O O3 0.532173 0.095417 0.163839
O O4 0.063116 0.000000 0.376752
O O5 0.500000 0.608226 0.500000
O O6 0.608994 0.500000 0.555475
O O7 0.292355 0.643312 0.701722
O O8 0.891268 0.653758 0.452018
O O9 0.662864 0.694693 0.799698
O O10 0.560741 0.824318 0.909143
O O11 0.500000 0.684069 0.000000
O O12 0.077923 0.722536 0.070356
O O13 0.548444 0.279405 0.711754
O O14 0.276188 0.809860 0.711920
O O15 0.284760 0.000000 0.695002
O O16 0.975058 0.910458 0.896568
O O17 0.543838 0.000000 0.910434
#
# Coordination Sequence:
#
# PCOD9145868 Si02
#       7
#     4   4   4   4   4   4   4
#     4   8  13  23  43  74 111 149 187 226 269 318
#     4  11  25  45  66  85 108 142 183 231 294 361
#     4  10  19  32  53  83 121 158 189 230 283 333
#     4  10  20  36  60  88 117 151 193 238 279 327
#     4   8  13  23  43  74 111 149 187 226 269 318
#     4   8  13  21  37  66 106 152 196 231 265 311
#     4  10  20  36  60  88 117 151 193 238 279 327
#
# _framework density 22.037185999999998
#
# number of rings (size 3 to 8) (size 9 to 14) (size 15 to 20)
#    0.000    2.714    0.000    2.143    0.000    6.571 
#    0.000    1.429    0.000   11.143    0.000    0.000 
#    0.000    0.000    0.000    0.000    0.000    0.000 
#
# Total GULP energy -156036.586615 kJ/mol
# GULP energy per Si atom -5572.735236 kJ/mol
# Density = 2.198703 g / cm^3
# Si number density = 22.037186 Si / 1000 Ang^3
#
#
#
# Elastic Constant Matrix: (Units=GPa)
#
#
# Indices 1 2 3 4 5 6 
#
# 1 57.5549 20.9566 11.9035 0.0000 1.4353 0.0000
# 2 20.9566 137.1924 31.7405 0.0000 -0.2082 0.0000
# 3 11.9035 31.7405 87.6535 0.0000 3.5794 0.0000
# 4 0.0000 0.0000 0.0000 12.8190 0.0000 26.6689
# 5 1.4353 -0.2082 3.5794 0.0000 34.0437 0.0000
# 6 0.0000 0.0000 0.0000 26.6689 0.0000 -15.4472
#
#
#
# Elastic Compliance Matrix: (Units=1/GPa)
#
#
# Indices 1 2 3 4 5 6 
#
# 1 0.018624 -0.002474 -0.001608 0.000000 -0.000631 0.000000
# 2 -0.002474 0.008288 -0.002683 0.000000 0.000437 0.000000
# 3 -0.001608 -0.002683 0.012651 0.000000 -0.001279 0.000000
# 4 0.000000 0.000000 0.000000 0.016989 0.000000 0.029331
# 5 -0.000631 0.000437 -0.001279 0.000000 0.029538 0.000000
# 6 0.000000 0.000000 0.000000 0.029331 0.000000 -0.014098
#
#
# Mechanical properties :
#
#
# Convention : Reuss Voigt Hill
#
# Bulk Modulus (GPa) = 38.41197 45.73354 42.07275
# Shear Modulus (GPa) = 53.07957 20.80311 36.94134
#
# Velocity S-wave (km/s) = 4.91311 3.07579 4.09873
# Velocity P-wave (km/s) = 7.04651 5.78031 6.44458
#
# Compressibility (1/GPa) = 0.02603355
#
# Stress axis : x y z
#
# Youngs Moduli (GPa) = 53.69499 120.65095 79.04690
#
# Poissons Ratio (x) = 0.29848 0.12707
# Poissons Ratio (y) = 0.13283 0.21210
# Poissons Ratio (z) = 0.08632 0.32373
#
# Static dielectric constant tensor:
#      x y z
#    x 1.856760 0.000000 0.014140 
#    y 0.000000 1.833480 0.000000 
#    z 0.014140 0.000000 1.839810 
# 
# From -- ./inp_files/82905.got.cif
#   From: 2010.05.17/outbox.cif.g08.bks.cpg/sg10_42_cif.got.tgz:82905.got - 2010.06.03 11:33:40.
