data_PCOD9145020
_publ_section_title
;
Structure prediction by ZEFSAII (Michael W. Deem and Ramdas Pophale) SiO2 
 PCOD9145020
Probable space group: P 2/M
;
_chemical_formula_sum "Si O2"
_cell_formula_units_Z 32
_cell_length_a 13.182325
_cell_length_b 9.118770
_cell_length_c 26.992065
_cell_angle_alpha 90.000000
_cell_angle_beta 32.224238
_cell_angle_gamma 90.000000
_cell_volume 1730.144514
_symmetry_space_group_name_H-M "P 2/M"
_symmetry_group_IT_number 10
_symmetry_cell_setting 'monoclinic'
loop_
_space_group_symop_operation_xyz
x,y,z
-x,y,-z
-x,-y,-z
x,-y,z
loop_
_atom_site_type_symbol
_atom_site_label
_atom_site_fract_x
_atom_site_fract_y
_atom_site_fract_z
Si Si1 0.041876 0.329076 0.425811
Si Si2 0.855725 0.825642 0.409355
Si Si3 0.157338 0.673598 0.975674
Si Si4 0.472717 0.326741 0.584936
Si Si5 0.492032 0.331591 0.237531
Si Si6 0.070560 0.823357 0.727750
Si Si7 0.405162 0.834128 0.708355
Si Si8 0.949933 0.167820 0.880649
O O1 0.980286 0.500000 0.447772
O O2 0.267345 0.322641 0.322062
O O3 0.000000 0.281744 0.500000
O O4 0.940665 0.236898 0.424931
O O5 0.651937 0.749217 0.485358
O O6 0.981001 0.794638 0.308165
O O7 0.830787 0.000000 0.423106
O O8 0.122974 0.500000 0.995116
O O9 0.366898 0.695721 0.866440
O O10 0.000000 0.727614 0.000000
O O11 0.136908 0.744259 0.037953
O O12 0.472321 0.500000 0.577467
O O13 0.272246 0.255232 0.653148
O O14 0.493208 0.282302 0.634174
O O15 0.533702 0.500000 0.237105
O O16 0.543848 0.216095 0.258180
O O17 0.934845 0.778727 0.829700
O O18 0.097165 0.000000 0.721968
O O19 0.177575 0.831070 0.796314
O O20 0.469846 0.000000 0.670306
O O21 0.882634 0.000000 0.910720
#
# Coordination Sequence:
#
# PCOD9145020 Si02
#       8
#     4   4   4   4   4   4   4   4
#     4  10  22  39  57  78 106 141 182 226 270 315
#     4  11  22  37  57  77 104 139 179 227 273 320
#     4  10  19  31  50  78 112 144 176 215 266 326
#     4  11  21  32  51  79 110 142 179 219 265 322
#     4  10  20  34  52  76 109 145 179 223 274 322
#     4   9  20  37  54  77 108 141 176 221 275 321
#     4  10  19  31  49  75 108 143 179 219 265 319
#     4   9  18  32  50  75 107 140 173 212 264 321
#
# _framework density 18.495564999999999
#
# number of rings (size 3 to 8) (size 9 to 14) (size 15 to 20)
#    0.000    2.000    1.250    3.750    0.000    7.000 
#    0.000    0.000    0.000    0.750    0.000    5.250 
#    0.000    0.000    0.000    0.000    0.000    0.000 
#
# Total GULP energy -178453.510109 kJ/mol
# GULP energy per Si atom -5576.672191 kJ/mol
# Density = 1.845347 g / cm^3
# Si number density = 18.495565 Si / 1000 Ang^3
#
#
#
# Elastic Constant Matrix: (Units=GPa)
#
#
# Indices 1 2 3 4 5 6 
#
# 1 65.6399 30.2156 41.2684 0.0000 30.6564 0.0000
# 2 30.2156 47.0484 34.1285 0.0000 14.9073 0.0000
# 3 41.2684 34.1285 116.3313 0.0000 31.4639 0.0000
# 4 0.0000 0.0000 0.0000 25.6238 0.0000 6.9872
# 5 30.6564 14.9073 31.4639 0.0000 34.9930 0.0000
# 6 0.0000 0.0000 0.0000 6.9872 0.0000 -1.0647
#
#
#
# Elastic Compliance Matrix: (Units=1/GPa)
#
#
# Indices 1 2 3 4 5 6 
#
# 1 0.032018 -0.012452 -0.002053 0.000000 -0.020900 0.000000
# 2 -0.012452 0.032760 -0.005774 0.000000 0.002144 0.000000
# 3 -0.002053 -0.005774 0.013037 0.000000 -0.007464 0.000000
# 4 0.000000 0.000000 0.000000 0.013991 0.000000 0.091812
# 5 -0.020900 0.002144 -0.007464 0.000000 0.052685 0.000000
# 6 0.000000 0.000000 0.000000 0.091812 0.000000 -0.336694
#
#
# Mechanical properties :
#
#
# Convention : Reuss Voigt Hill
#
# Bulk Modulus (GPa) = 26.83867 48.91608 37.87738
# Shear Modulus (GPa) = -35.91244 20.13756 -7.88744
#
# Velocity S-wave (km/s) = -4.41123 3.30324 -2.06731
# Velocity P-wave (km/s) = 3.37681 6.40729 3.85036
#
# Compressibility (1/GPa) = 0.03725967
#
# Stress axis : x y z
#
# Youngs Moduli (GPa) = 31.23240 30.52472 76.70480
#
# Poissons Ratio (x) = 0.38008 0.15744
# Poissons Ratio (y) = 0.38889 0.44287
# Poissons Ratio (z) = 0.06411 0.17624
#
# Static dielectric constant tensor:
#      x y z
#    x 1.653060 0.000000 0.031020 
#    y 0.000000 1.626070 0.000000 
#    z 0.031020 0.000000 1.667510 
# 
# From -- ./inp_files/93120.got.cif
#   From: 2010.05.17/outbox.cif.g08.bks.cpg/sg10_47_cif.got.tgz:93120.got - 2010.06.03 11:33:40.
