data_PCOD9145351
_publ_section_title
;
Structure prediction by ZEFSAII (Michael W. Deem and Ramdas Pophale) SiO2 
 PCOD9145351
Probable space group: P 2/M
;
_chemical_formula_sum "Si O2"
_cell_formula_units_Z 30
_cell_length_a 17.666966
_cell_length_b 25.597895
_cell_length_c 16.950517
_cell_angle_alpha 90.000000
_cell_angle_beta 163.166012
_cell_angle_gamma 90.000000
_cell_volume 2219.970374
_symmetry_space_group_name_H-M "P 2/M"
_symmetry_group_IT_number 10
_symmetry_cell_setting 'monoclinic'
loop_
_space_group_symop_operation_xyz
x,y,z
-x,y,-z
-x,-y,-z
x,-y,z
loop_
_atom_site_type_symbol
_atom_site_label
_atom_site_fract_x
_atom_site_fract_y
_atom_site_fract_z
Si Si1 0.077242 0.063254 0.163884
Si Si2 0.576222 0.936833 0.759924
Si Si3 0.253523 0.000000 0.697489
Si Si4 0.103334 0.161575 0.693003
Si Si5 0.462623 0.662837 0.866783
Si Si6 0.750677 0.442071 0.306581
Si Si7 0.384077 0.895430 0.734761
Si Si8 0.964022 0.281850 0.369682
O O1 0.861216 0.078509 0.013004
O O2 0.066442 0.000000 0.149365
O O3 0.000000 0.082689 0.000000
O O4 0.365059 0.076067 0.481509
O O5 0.489979 0.909566 0.754200
O O6 0.572220 0.000000 0.768067
O O7 0.279141 0.051450 0.670139
O O8 0.000000 0.000000 0.500000
O O9 0.500000 0.000000 0.000000
O O10 0.000000 0.154580 0.500000
O O11 0.867607 0.141749 0.512875
O O12 0.137489 0.223200 0.742069
O O13 0.371338 0.130123 0.974379
O O14 0.331964 0.606407 0.721307
O O15 0.254321 0.705577 0.629901
O O16 0.500000 0.665614 0.000000
O O17 0.750684 0.677220 0.125161
O O18 0.799968 0.500000 0.390675
O O19 0.000000 0.428686 0.500000
O O20 0.500000 0.447019 0.000000
O O21 0.000000 0.288647 0.500000
#
# Coordination Sequence:
#
# PCOD9145351 Si02
#       8
#     4   4   2   4   4   4   4   4
#     4   9  17  29  48  68  86 103 118 135 159 203
#     4  10  19  32  46  64  85 101 120 141 175 219
#     4  12  24  36  48  58  71  96 127 154 188 232
#     4  11  22  34  46  57  74  94 129 167 201 229
#     4   9  14  23  36  49  65  83 109 137 177 219
#     4   9  15  21  30  46  67  87 105 128 163 215
#     4  12  22  35  47  61  77  99 121 157 194 232
#     4   9  17  27  39  52  63  84 113 153 188 219
#
# _framework density 13.513693999999999
#
# number of rings (size 3 to 8) (size 9 to 14) (size 15 to 20)
#    0.000    2.000    0.667    6.400    0.000    3.733 
#    0.000    0.000    0.000    0.000    0.000    0.000 
#    0.000    0.000    0.000    0.000    0.000    0.000 
#
# Total GULP energy -167104.713257 kJ/mol
# GULP energy per Si atom -5570.157109 kJ/mol
# Density = 1.348294 g / cm^3
# Si number density = 13.513694 Si / 1000 Ang^3
#
#
#
# Elastic Constant Matrix: (Units=GPa)
#
#
# Indices 1 2 3 4 5 6 
#
# 1 23.5171 7.5141 -1.2152 0.0000 2.1799 0.0000
# 2 7.5141 65.6613 24.0293 0.0000 3.0242 0.0000
# 3 -1.2152 24.0293 67.7291 0.0000 15.4982 0.0000
# 4 0.0000 0.0000 0.0000 15.8021 0.0000 6.6792
# 5 2.1799 3.0242 15.4982 0.0000 15.9118 0.0000
# 6 0.0000 0.0000 0.0000 6.6792 0.0000 3.5873
#
#
#
# Elastic Compliance Matrix: (Units=1/GPa)
#
#
# Indices 1 2 3 4 5 6 
#
# 1 0.045977 -0.006849 0.005660 0.000000 -0.010510 0.000000
# 2 -0.006849 0.018675 -0.007915 0.000000 0.005098 0.000000
# 3 0.005660 -0.007915 0.022529 0.000000 -0.021214 0.000000
# 4 0.000000 0.000000 0.000000 0.297079 0.000000 -0.553132
# 5 -0.010510 0.005098 -0.021214 0.000000 0.083980 0.000000
# 6 0.000000 0.000000 0.000000 -0.553132 0.000000 1.308640
#
#
# Mechanical properties :
#
#
# Convention : Reuss Voigt Hill
#
# Bulk Modulus (GPa) = 14.49850 24.17377 19.33613
# Shear Modulus (GPa) = 2.75015 15.49885 9.12450
#
# Velocity S-wave (km/s) = 1.42811 3.39026 2.60129
# Velocity P-wave (km/s) = 3.67034 5.76649 4.83341
#
# Compressibility (1/GPa) = 0.06897268
#
# Stress axis : x y z
#
# Youngs Moduli (GPa) = 21.74991 53.54679 44.38756
#
# Poissons Ratio (x) = 0.36672 -0.25122
# Poissons Ratio (y) = 0.14896 0.35134
# Poissons Ratio (z) = -0.12310 0.42384
#
# Static dielectric constant tensor:
#      x y z
#    x 1.422760 0.000000 0.012700 
#    y 0.000000 1.542080 0.000000 
#    z 0.012700 0.000000 1.463780 
# 
# From -- ./inp_files/68013.got.cif
#   From: 2010.05.17/outbox.cif.g08.bks.cpg/sg10_35_cif.got.tgz:68013.got - 2010.06.03 11:33:40.
