data_PCOD9145455
_publ_section_title
;
Structure prediction by ZEFSAII (Michael W. Deem and Ramdas Pophale) SiO2 
 PCOD9145455
Probable space group: P 2/M
;
_chemical_formula_sum "Si O2"
_cell_formula_units_Z 32
_cell_length_a 21.619862
_cell_length_b 8.767283
_cell_length_c 14.536081
_cell_angle_alpha 90.000000
_cell_angle_beta 132.839345
_cell_angle_gamma 90.000000
_cell_volume 2020.343056
_symmetry_space_group_name_H-M "P 2/M"
_symmetry_group_IT_number 10
_symmetry_cell_setting 'monoclinic'
loop_
_space_group_symop_operation_xyz
x,y,z
-x,y,-z
-x,-y,-z
x,-y,z
loop_
_atom_site_type_symbol
_atom_site_label
_atom_site_fract_x
_atom_site_fract_y
_atom_site_fract_z
Si Si1 0.504400 0.324685 0.115953
Si Si2 0.093561 0.682041 0.997254
Si Si3 0.836851 0.816587 0.113674
Si Si4 0.006609 0.817253 0.398803
Si Si5 0.672740 0.816590 0.064054
Si Si6 0.318794 0.818229 0.711849
Si Si7 0.905943 0.817606 0.806418
Si Si8 0.837364 0.680915 0.554427
O O1 0.513704 0.500000 0.153963
O O2 0.587524 0.229847 0.224943
O O3 0.500000 0.320517 0.000000
O O4 0.415218 0.256254 0.056755
O O5 0.086900 0.500000 0.995861
O O6 0.122137 0.749729 0.124028
O O7 0.151346 0.734076 0.971372
O O8 0.000425 0.752488 0.885840
O O9 0.918869 0.782282 0.259003
O O10 0.752340 0.772766 0.082523
O O11 0.835679 0.000000 0.098491
O O12 0.000000 0.780914 0.500000
O O13 0.083366 0.731874 0.427901
O O14 0.021465 0.000000 0.405546
O O15 0.688772 0.775511 0.187414
O O16 0.664223 0.000000 0.053089
O O17 0.247249 0.735037 0.581491
O O18 0.308009 0.000000 0.694029
O O19 0.849583 0.762462 0.664864
O O20 0.910030 0.000000 0.814724
O O21 0.838167 0.500000 0.567610
#
# Coordination Sequence:
#
# PCOD9145455 Si02
#       8
#     4   4   4   4   4   4   4   4
#     4   9  17  30  48  72 101 131 164 211 261 299
#     4  11  21  34  52  75 100 126 162 212 261 301
#     4  10  19  32  50  72 100 135 173 208 246 297
#     4  10  20  34  50  68  97 139 178 207 239 290
#     4   9  18  32  51  74 100 135 176 211 244 294
#     4  10  19  33  52  73  99 136 175 211 249 299
#     4  11  21  36  55  72  94 129 169 209 253 303
#     4  12  23  34  49  74 103 132 167 211 257 300
#
# _framework density 15.838894
#
# number of rings (size 3 to 8) (size 9 to 14) (size 15 to 20)
#    0.000    1.750    1.250    5.625    0.000    4.750 
#    0.000    1.250    0.000    0.000    0.000    0.875 
#    0.000    7.000    0.000    0.000    0.000    0.000 
#
# Total GULP energy -178669.881223 kJ/mol
# GULP energy per Si atom -5583.433788 kJ/mol
# Density = 1.580284 g / cm^3
# Si number density = 15.838894 Si / 1000 Ang^3
#
#
#
# Elastic Constant Matrix: (Units=GPa)
#
#
# Indices 1 2 3 4 5 6 
#
# 1 95.2114 52.1056 74.0353 0.0000 -0.1631 0.0000
# 2 52.1056 91.1227 49.0709 0.0000 -0.6255 0.0000
# 3 74.0353 49.0709 79.3464 0.0000 3.6868 0.0000
# 4 0.0000 0.0000 0.0000 18.8393 0.0000 -6.8781
# 5 -0.1631 -0.6255 3.6868 0.0000 24.2797 0.0000
# 6 0.0000 0.0000 0.0000 -6.8781 0.0000 -1.0902
#
#
#
# Elastic Compliance Matrix: (Units=1/GPa)
#
#
# Indices 1 2 3 4 5 6 
#
# 1 0.039968 -0.003893 -0.035141 0.000000 0.005504 0.000000
# 2 -0.003893 0.016929 -0.006905 0.000000 0.001458 0.000000
# 3 -0.035141 -0.006905 0.050035 0.000000 -0.008011 0.000000
# 4 0.000000 0.000000 0.000000 0.016068 0.000000 -0.101378
# 5 0.005504 0.001458 -0.008011 0.000000 0.042478 0.000000
# 6 0.000000 0.000000 0.000000 -0.101378 0.000000 -0.277678
#
#
# Mechanical properties :
#
#
# Convention : Reuss Voigt Hill
#
# Bulk Modulus (GPa) = 66.42948 68.45603 67.44275
# Shear Modulus (GPa) = -326.68150 14.43701 -156.12224
#
# Velocity S-wave (km/s) = -14.37708 3.02237 -9.93896
# Velocity P-wave (km/s) = 15.28296 7.44940 9.43597
#
# Compressibility (1/GPa) = 0.01505356
#
# Stress axis : x y z
#
# Youngs Moduli (GPa) = 25.01999 59.07193 19.98620
#
# Poissons Ratio (x) = 0.22994 0.70234
# Poissons Ratio (y) = 0.09739 0.13800
# Poissons Ratio (z) = 0.87923 0.40789
#
# Static dielectric constant tensor:
#      x y z
#    x 1.517720 0.000000 -0.004850 
#    y 0.000000 1.530380 0.000000 
#    z -0.004850 0.000000 1.513160 
# 
# From -- ./inp_files/66150.got.cif
#   From: 2010.05.17/outbox.cif.g08.bks.cpg/sg10_34_cif.got.tgz:66150.got - 2010.06.03 11:33:40.
