data_PCOD9145791
_publ_section_title
;
Structure prediction by ZEFSAII (Michael W. Deem and Ramdas Pophale) SiO2 
 PCOD9145791
Probable space group: P 2/M
;
_chemical_formula_sum "Si O2"
_cell_formula_units_Z 28
_cell_length_a 30.181444
_cell_length_b 8.734827
_cell_length_c 9.504335
_cell_angle_alpha 90.000000
_cell_angle_beta 141.102570
_cell_angle_gamma 90.000000
_cell_volume 1573.352411
_symmetry_space_group_name_H-M "P 2/M"
_symmetry_group_IT_number 10
_symmetry_cell_setting 'monoclinic'
loop_
_space_group_symop_operation_xyz
x,y,z
-x,y,-z
-x,-y,-z
x,-y,z
loop_
_atom_site_type_symbol
_atom_site_label
_atom_site_fract_x
_atom_site_fract_y
_atom_site_fract_z
Si Si1 0.067207 0.683266 0.072922
Si Si2 0.933502 0.186144 0.241663
Si Si3 0.214827 0.176407 0.455073
Si Si4 0.500567 0.684671 0.664653
Si Si5 0.363515 0.683128 0.817450
Si Si6 0.781111 0.176778 0.877512
Si Si7 0.627862 0.815252 0.474015
O O1 0.070601 0.500000 0.073047
O O2 0.141656 0.744781 0.316211
O O3 0.058247 0.751531 0.895087
O O4 0.000000 0.727895 0.000000
O O5 0.000000 0.230830 0.500000
O O6 0.930616 0.000000 0.228410
O O7 0.856965 0.241985 0.109762
O O8 0.286879 0.258487 0.677151
O O9 0.216028 0.178794 0.286445
O O10 0.215422 0.000000 0.500689
O O11 0.500000 0.729864 0.500000
O O12 0.493479 0.500000 0.654615
O O13 0.436229 0.758594 0.590267
O O14 0.574073 0.725852 0.921838
O O15 0.361692 0.500000 0.798936
O O16 0.379087 0.754329 0.702515
O O17 0.704113 0.242604 0.721013
O O18 0.780026 0.000000 0.921777
O O19 0.630011 0.000000 0.474126
#
# Coordination Sequence:
#
# PCOD9145791 Si02
#       7
#     4   4   4   4   4   4   4
#     4  10  20  33  50  74 105 139 173 209 251 302
#     4   9  17  31  52  75 101 135 173 213 257 303
#     4   9  17  31  52  76 101 129 166 212 256 298
#     4  10  22  38  52  70 102 140 172 205 251 307
#     4  10  19  33  55  78 100 130 168 209 254 303
#     4   7  13  27  46  70  97 123 156 202 251 294
#     4  10  19  32  53  78 102 129 168 217 258 298
#
# _framework density 17.796395
#
# number of rings (size 3 to 8) (size 9 to 14) (size 15 to 20)
#    0.000    2.714    0.000    3.857    0.000    4.571 
#    0.000    2.143    0.000    3.429    0.000    0.000 
#    0.000    0.000    0.000    0.000    0.000    0.000 
#
# Total GULP energy -156022.273853 kJ/mol
# GULP energy per Si atom -5572.224066 kJ/mol
# Density = 1.775589 g / cm^3
# Si number density = 17.796395 Si / 1000 Ang^3
#
#
#
# Elastic Constant Matrix: (Units=GPa)
#
#
# Indices 1 2 3 4 5 6 
#
# 1 107.8094 36.3069 89.0427 0.0000 33.8286 0.0000
# 2 36.3069 36.0246 43.9938 0.0000 13.2328 0.0000
# 3 89.0427 43.9938 175.0489 0.0000 38.9701 0.0000
# 4 0.0000 0.0000 0.0000 17.3245 0.0000 12.0533
# 5 33.8286 13.2328 38.9701 0.0000 29.8792 0.0000
# 6 0.0000 0.0000 0.0000 12.0533 0.0000 19.8718
#
#
#
# Elastic Compliance Matrix: (Units=1/GPa)
#
#
# Indices 1 2 3 4 5 6 
#
# 1 0.020965 -0.010012 -0.005427 0.000000 -0.012224 0.000000
# 2 -0.010012 0.045748 -0.006225 0.000000 -0.000806 0.000000
# 3 -0.005427 -0.006225 0.011352 0.000000 -0.005905 0.000000
# 4 0.000000 0.000000 0.000000 0.099864 0.000000 -0.060573
# 5 -0.012224 -0.000806 -0.005905 0.000000 0.055367 0.000000
# 6 0.000000 0.000000 0.000000 -0.060573 0.000000 0.087063
#
#
# Mechanical properties :
#
#
# Convention : Reuss Voigt Hill
#
# Bulk Modulus (GPa) = 28.78747 73.06331 50.92539
# Shear Modulus (GPa) = 13.32385 23.38442 18.35413
#
# Velocity S-wave (km/s) = 2.73917 3.62884 3.21493
# Velocity P-wave (km/s) = 5.12008 7.66174 6.51604
#
# Compressibility (1/GPa) = 0.03473733
#
# Stress axis : x y z
#
# Youngs Moduli (GPa) = 47.69792 21.85911 88.08756
#
# Poissons Ratio (x) = 0.21885 0.47803
# Poissons Ratio (y) = 0.47755 0.54836
# Poissons Ratio (z) = 0.25885 0.13608
#
# Static dielectric constant tensor:
#      x y z
#    x 1.592500 0.000000 0.031750 
#    y 0.000000 1.603060 0.000000 
#    z 0.031750 0.000000 1.629810 
# 
# From -- ./inp_files/37287.got.cif
#   From: 2010.05.17/outbox.cif.g08.bks.cpg/sg10_19_cif.got.tgz:37287.got - 2010.06.03 11:33:40.
