data_PCOD9145229
_publ_section_title
;
Structure prediction by ZEFSAII (Michael W. Deem and Ramdas Pophale) SiO2 
 PCOD9145229
Probable space group: P 2/M
;
_chemical_formula_sum "Si O2"
_cell_formula_units_Z 28
_cell_length_a 11.414986
_cell_length_b 7.363720
_cell_length_c 15.132798
_cell_angle_alpha 90.000000
_cell_angle_beta 70.150525
_cell_angle_gamma 90.000000
_cell_volume 1196.440981
_symmetry_space_group_name_H-M "P 2/M"
_symmetry_group_IT_number 10
_symmetry_cell_setting 'monoclinic'
loop_
_space_group_symop_operation_xyz
x,y,z
-x,y,-z
-x,-y,-z
x,-y,z
loop_
_atom_site_type_symbol
_atom_site_label
_atom_site_fract_x
_atom_site_fract_y
_atom_site_fract_z
Si Si1 0.894967 0.721745 0.955591
Si Si2 0.931630 0.720597 0.748955
Si Si3 0.375053 0.211249 0.578028
Si Si4 0.523251 0.718788 0.264247
Si Si5 0.754553 0.279543 0.646976
Si Si6 0.602700 0.278466 0.047787
Si Si7 0.122248 0.295067 0.557444
O O1 0.893370 0.500000 0.959280
O O2 0.938042 0.782097 0.847258
O O3 0.748740 0.776465 0.001635
O O4 0.000000 0.778885 0.000000
O O5 0.941371 0.500000 0.750687
O O6 0.802944 0.763596 0.732200
O O7 0.034740 0.789913 0.654049
O O8 0.500000 0.283090 0.500000
O O9 0.384544 0.229115 0.680816
O O10 0.256666 0.304919 0.567685
O O11 0.364361 0.000000 0.557537
O O12 0.519500 0.500000 0.262764
O O13 0.386015 0.784365 0.327659
O O14 0.558288 0.778145 0.157004
O O15 0.753867 0.500000 0.639234
O O16 0.849141 0.215011 0.546484
O O17 0.602956 0.500000 0.044355
O O18 0.500000 0.221530 0.000000
O O19 0.074467 0.500000 0.557376
#
# Coordination Sequence:
#
# PCOD9145229 Si02
#       7
#     4   4   4   4   4   4   4
#     4   9  17  27  39  64 104 141 168 201 252 308
#     4   9  17  28  46  72 106 137 164 203 257 307
#     4  11  23  37  51  71 104 140 173 212 262 310
#     4  10  19  31  54  80 104 135 174 213 256 305
#     4   9  16  28  46  74 104 129 161 209 256 300
#     4   9  17  29  47  74 108 138 168 212 263 309
#     4  10  19  31  52  77 101 131 171 210 251 305
#
# _framework density 23.402740999999999
#
# number of rings (size 3 to 8) (size 9 to 14) (size 15 to 20)
#    0.000    2.429    1.429    1.714    2.000    5.714 
#    0.000    0.000    0.000    3.000    0.000    2.000 
#    0.000    0.000    0.000    0.000    0.000    0.000 
#
# Total GULP energy -156378.534014 kJ/mol
# GULP energy per Si atom -5584.947643 kJ/mol
# Density = 2.334948 g / cm^3
# Si number density = 23.402741 Si / 1000 Ang^3
#
#
#
# Elastic Constant Matrix: (Units=GPa)
#
#
# Indices 1 2 3 4 5 6 
#
# 1 144.5567 4.8344 78.2800 0.0000 19.6777 0.0000
# 2 4.8344 87.8887 4.2953 0.0000 -1.9993 0.0000
# 3 78.2800 4.2953 182.7137 0.0000 26.4751 0.0000
# 4 0.0000 0.0000 0.0000 -3.4580 0.0000 -17.8853
# 5 19.6777 -1.9993 26.4751 0.0000 47.6407 0.0000
# 6 0.0000 0.0000 0.0000 -17.8853 0.0000 -74.9676
#
#
#
# Elastic Compliance Matrix: (Units=1/GPa)
#
#
# Indices 1 2 3 4 5 6 
#
# 1 0.009150 -0.000365 -0.003656 0.000000 -0.001763 0.000000
# 2 -0.000365 0.011426 -0.000222 0.000000 0.000753 0.000000
# 3 -0.003656 -0.000222 0.007425 0.000000 -0.002625 0.000000
# 4 0.000000 0.000000 0.000000 1.236124 0.000000 -0.294907
# 5 -0.001763 0.000753 -0.002625 0.000000 0.023209 0.000000
# 6 0.000000 0.000000 0.000000 -0.294907 0.000000 0.057018
#
#
# Mechanical properties :
#
#
# Convention : Reuss Voigt Hill
#
# Bulk Modulus (GPa) = 51.23916 65.55317 58.39617
# Shear Modulus (GPa) = 3.67825 15.69299 9.68562
#
# Velocity S-wave (km/s) = 1.25504 2.59233 2.03658
# Velocity P-wave (km/s) = 4.90329 6.08539 5.52604
#
# Compressibility (1/GPa) = 0.01951632
#
# Stress axis : x y z
#
# Youngs Moduli (GPa) = 109.29397 87.51933 134.67998
#
# Poissons Ratio (x) = 0.03192 0.49239
# Poissons Ratio (y) = 0.03986 0.02983
# Poissons Ratio (z) = 0.39958 0.01939
#
# Static dielectric constant tensor:
#      x y z
#    x 1.859350 0.000000 -0.018400 
#    y 0.000000 1.905060 0.000000 
#    z -0.018400 0.000000 1.851210 
# 
# From -- ./inp_files/49183.got.cif
#   From: 2010.05.17/outbox.cif.g08.bks.cpg/sg10_25_cif.got.tgz:49183.got - 2010.06.03 11:33:40.
