data_PCOD9145973
_publ_section_title
;
Structure prediction by ZEFSAII (Michael W. Deem and Ramdas Pophale) SiO2 
 PCOD9145973
Probable space group: P 2/M
;
_chemical_formula_sum "Si O2"
_cell_formula_units_Z 32
_cell_length_a 11.463767
_cell_length_b 23.331169
_cell_length_c 5.839620
_cell_angle_alpha 90.000000
_cell_angle_beta 111.878925
_cell_angle_gamma 90.000000
_cell_volume 1449.385654
_symmetry_space_group_name_H-M "P 2/M"
_symmetry_group_IT_number 10
_symmetry_cell_setting 'monoclinic'
loop_
_space_group_symop_operation_xyz
x,y,z
-x,y,-z
-x,-y,-z
x,-y,z
loop_
_atom_site_type_symbol
_atom_site_label
_atom_site_fract_x
_atom_site_fract_y
_atom_site_fract_z
Si Si1 0.636253 0.122335 0.138190
Si Si2 0.122737 0.932026 0.434907
Si Si3 0.308043 0.233671 0.579820
Si Si4 0.292827 0.335641 0.302389
Si Si5 0.827230 0.156546 0.893927
Si Si6 0.046653 0.625169 0.288910
Si Si7 0.430161 0.562434 0.196940
Si Si8 0.881740 0.735644 0.162919
O O1 0.744021 0.087117 0.353353
O O2 0.610683 0.183818 0.243770
O O3 0.500000 0.094426 0.000000
O O4 0.708742 0.136916 0.958163
O O5 0.117586 0.897743 0.194393
O O6 0.000000 0.917268 0.500000
O O7 0.121961 0.000000 0.401380
O O8 0.369086 0.290304 0.512799
O O9 0.228419 0.197324 0.341150
O O10 0.206937 0.257502 0.684665
O O11 0.197347 0.372679 0.389342
O O12 0.355061 0.379350 0.174001
O O13 0.205730 0.295219 0.086022
O O14 0.911083 0.198962 0.113112
O O15 0.000000 0.599483 0.500000
O O16 0.994604 0.690842 0.260757
O O17 0.000000 0.603306 0.000000
O O18 0.500000 0.561581 0.500000
O O19 0.363538 0.500000 0.140733
O O20 0.500000 0.565606 0.000000
#
# Coordination Sequence:
#
# PCOD9145973 Si02
#       8
#     4   4   4   4   4   4   4   4
#     4  10  22  42  61  88 129 163 205 263 334 400
#     4  10  23  44  64  88 120 161 219 278 328 390
#     4   9  18  36  54  86 126 162 201 246 315 393
#     4  10  20  36  58  86 122 162 209 258 322 381
#     4   9  20  40  58  89 120 169 205 260 322 392
#     4  10  19  32  54  87 127 163 198 255 306 395
#     4  10  24  45  66  88 118 166 226 280 324 379
#     4   9  18  35  53  89 127 162 202 247 315 394
#
# _framework density 22.078320000000001
#
# number of rings (size 3 to 8) (size 9 to 14) (size 15 to 20)
#    0.000    2.375    1.250    0.000    1.750    3.250 
#   42.750    1.875    0.000    3.750    0.000    0.000 
#    0.000    0.000    0.000    0.000    0.000    0.000 
#
# Total GULP energy -178209.605242 kJ/mol
# GULP energy per Si atom -5569.050164 kJ/mol
# Density = 2.202807 g / cm^3
# Si number density = 22.078320 Si / 1000 Ang^3
#
#
#
# Elastic Constant Matrix: (Units=GPa)
#
#
# Indices 1 2 3 4 5 6 
#
# 1 85.3414 39.7638 32.6016 0.0000 -10.9331 0.0000
# 2 39.7638 97.0620 16.4138 0.0000 -11.8176 0.0000
# 3 32.6016 16.4138 86.7903 0.0000 -16.8021 0.0000
# 4 0.0000 0.0000 0.0000 143.9742 0.0000 -26.4444
# 5 -10.9331 -11.8176 -16.8021 0.0000 43.4468 0.0000
# 6 0.0000 0.0000 0.0000 -26.4444 0.0000 40.6999
#
#
#
# Elastic Compliance Matrix: (Units=1/GPa)
#
#
# Indices 1 2 3 4 5 6 
#
# 1 0.016388 -0.005801 -0.004935 0.000000 0.000637 0.000000
# 2 -0.005801 0.012911 0.000146 0.000000 0.002108 0.000000
# 3 -0.004935 0.000146 0.014177 0.000000 0.004280 0.000000
# 4 0.000000 0.000000 0.000000 0.007887 0.000000 0.005124
# 5 0.000637 0.002108 0.004280 0.000000 0.025406 0.000000
# 6 0.000000 0.000000 0.000000 0.005124 0.000000 0.027900
#
#
# Mechanical properties :
#
#
# Convention : Reuss Voigt Hill
#
# Bulk Modulus (GPa) = 44.85532 49.63912 47.24722
# Shear Modulus (GPa) = 37.51436 57.65182 47.58309
#
# Velocity S-wave (km/s) = 4.12655 5.11557 4.64744
# Velocity P-wave (km/s) = 6.56240 7.57787 7.08834
#
# Compressibility (1/GPa) = 0.02229390
#
# Stress axis : x y z
#
# Youngs Moduli (GPa) = 61.02118 77.45040 70.53671
#
# Poissons Ratio (x) = 0.44933 0.34812
# Poissons Ratio (y) = 0.35401 -0.01027
# Poissons Ratio (z) = 0.30116 -0.01128
#
# Static dielectric constant tensor:
#      x y z
#    x 1.846950 0.000000 0.004070 
#    y 0.000000 1.823000 0.000000 
#    z 0.004070 0.000000 1.948250 
# 
# From -- ./inp_files/8099.got.cif
#   From: 2010.05.17/outbox.cif.g08.bks.cpg/sg10_5_cif.got.tgz:8099.got - 2010.06.03 11:33:40.
