data_PCOD9145683
_publ_section_title
;
Structure prediction by ZEFSAII (Michael W. Deem and Ramdas Pophale) SiO2 
 PCOD9145683
Probable space group: P 2/M
;
_chemical_formula_sum "Si O2"
_cell_formula_units_Z 28
_cell_length_a 15.121823
_cell_length_b 7.464908
_cell_length_c 21.866670
_cell_angle_alpha 90.000000
_cell_angle_beta 30.434480
_cell_angle_gamma 90.000000
_cell_volume 1250.362431
_symmetry_space_group_name_H-M "P 2/M"
_symmetry_group_IT_number 10
_symmetry_cell_setting 'monoclinic'
loop_
_space_group_symop_operation_xyz
x,y,z
-x,y,-z
-x,-y,-z
x,-y,z
loop_
_atom_site_type_symbol
_atom_site_label
_atom_site_fract_x
_atom_site_fract_y
_atom_site_fract_z
Si Si1 0.743058 0.281207 0.616290
Si Si2 0.908319 0.283854 0.117044
Si Si3 0.689465 0.207615 0.901548
Si Si4 0.886699 0.716701 0.659916
Si Si5 0.975457 0.789224 0.819172
Si Si6 0.343187 0.783116 0.549187
Si Si7 0.474774 0.708938 0.682323
O O1 0.741927 0.500000 0.616299
O O2 0.771717 0.228248 0.669448
O O3 0.569009 0.216443 0.686265
O O4 0.915656 0.227812 0.474909
O O5 0.906762 0.500000 0.120254
O O6 0.708553 0.216191 0.232724
O O7 0.009685 0.226811 0.117107
O O8 0.000000 0.227648 0.000000
O O9 0.808569 0.215204 0.769745
O O10 0.804870 0.287082 0.887783
O O11 0.655399 0.000000 0.938246
O O12 0.500000 0.288960 0.000000
O O13 0.885680 0.500000 0.663526
O O14 0.156777 0.715933 0.683667
O O15 0.976890 0.000000 0.803241
O O16 0.500000 0.722550 0.500000
O O17 0.387988 0.723707 0.454420
O O18 0.343002 0.000000 0.550519
O O19 0.440401 0.500000 0.715645
#
# Coordination Sequence:
#
# PCOD9145683 Si02
#       7
#     4   4   4   4   4   4   4
#     4   8  16  31  52  79 108 135 166 213 265 308
#     4  10  22  37  52  75 107 139 173 215 256 300
#     4  10  22  38  54  75 106 139 174 216 259 303
#     4   9  17  33  56  79 104 135 173 214 259 310
#     4  10  21  38  57  76 103 140 173 211 263 310
#     4  10  19  32  52  78 107 133 167 216 260 302
#     4  10  19  32  52  77 106 140 174 208 256 312
#
# _framework density 22.393505999999999
#
# number of rings (size 3 to 8) (size 9 to 14) (size 15 to 20)
#    0.000    2.429    1.429    1.714    0.000    3.143 
#    0.000    3.571    0.000    0.000    0.000    0.000 
#    0.000    0.000    0.000    0.000    0.000    0.000 
#
# Total GULP energy -156381.122075 kJ/mol
# GULP energy per Si atom -5585.040074 kJ/mol
# Density = 2.234254 g / cm^3
# Si number density = 22.393506 Si / 1000 Ang^3
#
#
#
# Elastic Constant Matrix: (Units=GPa)
#
#
# Indices 1 2 3 4 5 6 
#
# 1 211.7955 -1.2261 62.1554 0.0000 -29.2305 0.0000
# 2 -1.2261 64.8044 -5.8358 0.0000 -14.8232 0.0000
# 3 62.1554 -5.8358 71.8057 0.0000 -6.5682 0.0000
# 4 0.0000 0.0000 0.0000 5.9979 0.0000 11.1636
# 5 -29.2305 -14.8232 -6.5682 0.0000 30.9949 0.0000
# 6 0.0000 0.0000 0.0000 11.1636 0.0000 2.7124
#
#
#
# Elastic Compliance Matrix: (Units=1/GPa)
#
#
# Indices 1 2 3 4 5 6 
#
# 1 0.007215 0.001029 -0.005603 0.000000 0.006109 0.000000
# 2 0.001029 0.017824 0.001454 0.000000 0.009803 0.000000
# 3 -0.005603 0.001454 0.018840 0.000000 -0.000596 0.000000
# 4 0.000000 0.000000 0.000000 -0.025032 0.000000 0.103026
# 5 0.006109 0.009803 -0.000596 0.000000 0.042587 0.000000
# 6 0.000000 0.000000 0.000000 0.103026 0.000000 -0.055353
#
#
# Mechanical properties :
#
#
# Convention : Reuss Voigt Hill
#
# Bulk Modulus (GPa) = 26.56723 50.95475 38.76099
# Shear Modulus (GPa) = 201.08742 27.49518 114.29130
#
# Velocity S-wave (km/s) = 9.48642 3.50783 7.15182
# Velocity P-wave (km/s) = 11.48386 6.26180 9.24903
#
# Compressibility (1/GPa) = 0.03764036
#
# Stress axis : x y z
#
# Youngs Moduli (GPa) = 138.60258 56.10467 53.07871
#
# Poissons Ratio (x) = -0.05775 0.29739
# Poissons Ratio (y) = -0.14267 -0.07719
# Poissons Ratio (z) = 0.77656 -0.08159
#
# Static dielectric constant tensor:
#      x y z
#    x 1.840030 0.000000 -0.042640 
#    y 0.000000 1.857450 0.000000 
#    z -0.042640 0.000000 1.791820 
# 
# From -- ./inp_files/49358.got.cif
#   From: 2010.05.17/outbox.cif.g08.bks.cpg/sg10_25_cif.got.tgz:49358.got - 2010.06.03 11:33:40.
