data_PCOD9145534
_publ_section_title
;
Structure prediction by ZEFSAII (Michael W. Deem and Ramdas Pophale) SiO2 
 PCOD9145534
Probable space group: P 2/M
;
_chemical_formula_sum "Si O2"
_cell_formula_units_Z 24
_cell_length_a 12.690051
_cell_length_b 16.977977
_cell_length_c 5.116866
_cell_angle_alpha 90.000000
_cell_angle_beta 91.227789
_cell_angle_gamma 90.000000
_cell_volume 1102.182803
_symmetry_space_group_name_H-M "P 2/M"
_symmetry_group_IT_number 10
_symmetry_cell_setting 'monoclinic'
loop_
_space_group_symop_operation_xyz
x,y,z
-x,y,-z
-x,-y,-z
x,-y,z
loop_
_atom_site_type_symbol
_atom_site_label
_atom_site_fract_x
_atom_site_fract_y
_atom_site_fract_z
Si Si1 0.391642 0.186676 0.582082
Si Si2 0.383418 0.407423 0.962473
Si Si3 0.247760 0.408179 0.436454
Si Si4 0.660680 0.909266 0.921768
Si Si5 0.162321 0.742343 0.579895
Si Si6 0.110836 0.838522 0.074582
O O1 0.500000 0.227103 0.500000
O O2 0.391853 0.146538 0.864639
O O3 0.287919 0.239800 0.569812
O O4 0.374298 0.118433 0.366018
O O5 0.393332 0.500000 0.035197
O O6 0.336022 0.404878 0.670592
O O7 0.500000 0.371820 0.000000
O O8 0.299466 0.377234 0.169357
O O9 0.216576 0.500000 0.408621
O O10 0.154730 0.349513 0.515259
O O11 0.636832 0.000000 0.968208
O O12 0.786618 0.893304 0.945316
O O13 0.111947 0.798162 0.357751
O O14 0.124903 0.769555 0.860514
O O15 0.000000 0.878401 0.000000
#
# Coordination Sequence:
#
# PCOD9145534 Si02
#       6
#     4   4   4   4   4   4
#     4  10  21  35  52  78 114 153 182 209 253 307
#     4   9  17  28  43  68 100 134 175 216 258 310
#     4  10  19  32  51  73 102 140 177 225 279 311
#     4  10  21  36  56  84 111 137 179 222 256 311
#     4  10  21  37  55  80 108 139 184 223 261 325
#     4  10  21  39  61  80 104 138 173 220 279 325
#
# _framework density 21.774974
#
# number of rings (size 3 to 8) (size 9 to 14) (size 15 to 20)
#    0.000    2.167    0.000    3.000    0.000    5.667 
#    0.000    0.000    0.000    9.000    0.000    0.000 
#    0.000    0.000    0.000    0.000    0.000    0.000 
#
# Total GULP energy -134090.164467 kJ/mol
# GULP energy per Si atom -5587.090186 kJ/mol
# Density = 2.172541 g / cm^3
# Si number density = 21.774974 Si / 1000 Ang^3
#
#
#
# Elastic Constant Matrix: (Units=GPa)
#
#
# Indices 1 2 3 4 5 6 
#
# 1 77.1463 -13.9479 3.4019 0.0000 2.3951 0.0000
# 2 -13.9479 54.5287 3.9137 0.0000 -1.2789 0.0000
# 3 3.4019 3.9137 85.6715 0.0000 -5.2962 0.0000
# 4 0.0000 0.0000 0.0000 11.8823 0.0000 0.4167
# 5 2.3951 -1.2789 -5.2962 0.0000 24.1129 0.0000
# 6 0.0000 0.0000 0.0000 0.4167 0.0000 -0.9783
#
#
#
# Elastic Compliance Matrix: (Units=1/GPa)
#
#
# Indices 1 2 3 4 5 6 
#
# 1 0.013676 0.003523 -0.000787 0.000000 -0.001344 0.000000
# 2 0.003523 0.019322 -0.000994 0.000000 0.000456 0.000000
# 3 -0.000787 -0.000994 0.011913 0.000000 0.002642 0.000000
# 4 0.000000 0.000000 0.000000 0.082920 0.000000 0.035319
# 5 -0.001344 0.000456 0.002642 0.000000 0.042210 0.000000
# 6 0.000000 0.000000 0.000000 0.035319 0.000000 -1.007167
#
#
# Mechanical properties :
#
#
# Convention : Reuss Voigt Hill
#
# Bulk Modulus (GPa) = 20.66383 22.67576 21.66979
# Shear Modulus (GPa) = -6.06444 21.93531 7.93544
#
# Velocity S-wave (km/s) = -1.67066 3.17734 1.91107
# Velocity P-wave (km/s) = 2.40600 4.88845 3.85265
#
# Compressibility (1/GPa) = 0.04839374
#
# Stress axis : x y z
#
# Youngs Moduli (GPa) = 73.12191 51.75396 83.94543
#
# Poissons Ratio (x) = -0.18233 0.06607
# Poissons Ratio (y) = -0.25761 0.08347
# Poissons Ratio (z) = 0.05755 0.05146
#
# Static dielectric constant tensor:
#      x y z
#    x 1.850450 0.000000 -0.004610 
#    y 0.000000 1.786580 0.000000 
#    z -0.004610 0.000000 1.757900 
# 
# From -- ./inp_files/7220.got.cif
#   From: 2010.05.17/outbox.cif.g08.bks.cpg/sg10_4_cif.got.tgz:7220.got - 2010.06.03 11:33:40.
