data_PCOD9145490
_publ_section_title
;
Structure prediction by ZEFSAII (Michael W. Deem and Ramdas Pophale) SiO2 
 PCOD9145490
Probable space group: P 2/M
;
_chemical_formula_sum "Si O2"
_cell_formula_units_Z 32
_cell_length_a 12.697833
_cell_length_b 8.829854
_cell_length_c 24.146878
_cell_angle_alpha 90.000000
_cell_angle_beta 133.512165
_cell_angle_gamma 90.000000
_cell_volume 1963.445300
_symmetry_space_group_name_H-M "P 2/M"
_symmetry_group_IT_number 10
_symmetry_cell_setting 'monoclinic'
loop_
_space_group_symop_operation_xyz
x,y,z
-x,y,-z
-x,-y,-z
x,-y,z
loop_
_atom_site_type_symbol
_atom_site_label
_atom_site_fract_x
_atom_site_fract_y
_atom_site_fract_z
Si Si1 0.321681 0.181562 0.579276
Si Si2 0.558725 0.318615 0.582884
Si Si3 0.964412 0.819468 0.595014
Si Si4 0.608924 0.179705 0.165667
Si Si5 0.836909 0.682437 0.160388
Si Si6 0.275959 0.680241 0.682243
Si Si7 0.124615 0.180984 0.309909
Si Si8 0.384305 0.325716 0.008894
O O1 0.448974 0.247900 0.587397
O O2 0.167806 0.217164 0.493923
O O3 0.322882 0.251927 0.640517
O O4 0.333566 0.000000 0.586343
O O5 0.500000 0.281932 0.500000
O O6 0.562358 0.500000 0.589860
O O7 0.719246 0.250808 0.646526
O O8 0.914348 0.787858 0.639702
O O9 0.109668 0.730203 0.633131
O O10 0.994794 0.000000 0.601798
O O11 0.734386 0.248375 0.171281
O O12 0.631078 0.250851 0.233823
O O13 0.456254 0.225147 0.082275
O O14 0.626330 0.000000 0.174071
O O15 0.832956 0.500000 0.163647
O O16 0.996933 0.745667 0.227524
O O17 0.763950 0.722890 0.074880
O O18 0.287161 0.500000 0.686203
O O19 0.127026 0.000000 0.303730
O O20 0.372289 0.500000 0.023479
O O21 0.500000 0.324809 0.000000
#
# Coordination Sequence:
#
# PCOD9145490 Si02
#       8
#     4   4   4   4   4   4   4   4
#     4  11  23  40  58  75 103 139 181 225 269 317
#     4  11  23  38  57  79 105 136 178 225 269 316
#     4  10  21  36  54  77 106 140 177 219 266 317
#     4  11  20  31  49  74 105 141 178 213 259 315
#     4  10  19  32  50  75 107 140 174 216 264 313
#     4  12  24  36  53  77 108 142 180 221 266 317
#     4  11  21  34  55  80 107 141 179 219 267 316
#     4   8  16  30  47  70 103 139 172 209 259 313
#
# _framework density 16.297881
#
# number of rings (size 3 to 8) (size 9 to 14) (size 15 to 20)
#    0.000    1.500    2.500    4.875    0.000    6.250 
#    0.000    0.000    0.000    0.000    0.000    0.875 
#    0.000    7.000    0.000    0.000    0.000    0.000 
#
# Total GULP energy -178742.205477 kJ/mol
# GULP energy per Si atom -5585.693921 kJ/mol
# Density = 1.626079 g / cm^3
# Si number density = 16.297881 Si / 1000 Ang^3
#
#
#
# Elastic Constant Matrix: (Units=GPa)
#
#
# Indices 1 2 3 4 5 6 
#
# 1 75.7254 55.4836 70.1759 0.0000 -9.2525 0.0000
# 2 55.4836 93.4432 77.1622 0.0000 -2.6175 0.0000
# 3 70.1759 77.1622 162.1622 0.0000 8.0085 0.0000
# 4 0.0000 0.0000 0.0000 28.9021 0.0000 1.8018
# 5 -9.2525 -2.6175 8.0085 0.0000 17.6683 0.0000
# 6 0.0000 0.0000 0.0000 1.8018 0.0000 27.8641
#
#
#
# Elastic Compliance Matrix: (Units=1/GPa)
#
#
# Indices 1 2 3 4 5 6 
#
# 1 0.032844 -0.010493 -0.010222 0.000000 0.020279 0.000000
# 2 -0.010493 0.021757 -0.005830 0.000000 0.000371 0.000000
# 3 -0.010222 -0.005830 0.013984 0.000000 -0.012555 0.000000
# 4 0.000000 0.000000 0.000000 0.034740 0.000000 -0.002246
# 5 0.020279 0.000371 -0.012555 0.000000 0.072964 0.000000
# 6 0.000000 0.000000 0.000000 -0.002246 0.000000 0.036034
#
#
# Mechanical properties :
#
#
# Convention : Reuss Voigt Hill
#
# Bulk Modulus (GPa) = 64.53476 81.88600 73.21038
# Shear Modulus (GPa) = 18.47897 23.45418 20.96657
#
# Velocity S-wave (km/s) = 3.37089 3.79765 3.59062
# Velocity P-wave (km/s) = 7.40496 8.34158 7.88719
#
# Compressibility (1/GPa) = 0.01549553
#
# Stress axis : x y z
#
# Youngs Moduli (GPa) = 30.44668 45.96285 71.50787
#
# Poissons Ratio (x) = 0.48228 0.73096
# Poissons Ratio (y) = 0.31947 0.41690
# Poissons Ratio (z) = 0.31123 0.26797
#
# Static dielectric constant tensor:
#      x y z
#    x 1.510390 0.000000 0.006880 
#    y 0.000000 1.541970 0.000000 
#    z 0.006880 0.000000 1.560350 
# 
# From -- ./inp_files/83642.got.cif
#   From: 2010.05.17/outbox.cif.g08.bks.cpg/sg10_42_cif.got.tgz:83642.got - 2010.06.03 11:33:40.
