data_PCOD9145538
_publ_section_title
;
Structure prediction by ZEFSAII (Michael W. Deem and Ramdas Pophale) SiO2 
 PCOD9145538
Probable space group: P 2/M
;
_chemical_formula_sum "Si O2"
_cell_formula_units_Z 32
_cell_length_a 21.968194
_cell_length_b 7.581753
_cell_length_c 29.011775
_cell_angle_alpha 90.000000
_cell_angle_beta 18.960604
_cell_angle_gamma 90.000000
_cell_volume 1570.044602
_symmetry_space_group_name_H-M "P 2/M"
_symmetry_group_IT_number 10
_symmetry_cell_setting 'monoclinic'
loop_
_space_group_symop_operation_xyz
x,y,z
-x,y,-z
-x,-y,-z
x,-y,z
loop_
_atom_site_type_symbol
_atom_site_label
_atom_site_fract_x
_atom_site_fract_y
_atom_site_fract_z
Si Si1 0.605469 0.790066 0.060348
Si Si2 0.064871 0.216523 0.107189
Si Si3 0.648199 0.215870 0.432224
Si Si4 0.919686 0.711644 0.408993
Si Si5 0.299133 0.201028 0.858571
Si Si6 0.632715 0.290157 0.686972
Si Si7 0.576565 0.787916 0.586634
Si Si8 0.668757 0.707748 0.909503
O O1 0.418895 0.744983 0.223132
O O2 0.618555 0.000000 0.048674
O O3 0.782059 0.725649 0.964571
O O4 0.620387 0.722568 0.997977
O O5 0.857802 0.271078 0.269116
O O6 0.070121 0.000000 0.102548
O O7 0.131306 0.278883 0.009024
O O8 0.500000 0.271633 0.500000
O O9 0.595341 0.276384 0.521266
O O10 0.648379 0.000000 0.432817
O O11 0.932548 0.500000 0.401076
O O12 0.827212 0.767546 0.524087
O O13 0.765655 0.753811 0.480204
O O14 0.124999 0.782512 0.249706
O O15 0.469611 0.199464 0.773635
O O16 0.397924 0.282988 0.743208
O O17 0.245918 0.000000 0.885087
O O18 0.614878 0.500000 0.692357
O O19 0.555529 0.000000 0.600377
O O20 0.679534 0.500000 0.890536
O O21 0.500000 0.784455 0.000000
#
# Coordination Sequence:
#
# PCOD9145538 Si02
#       8
#     4   4   4   4   4   4   4   4
#     4  10  19  32  51  73  96 123 157 195 234 278
#     4   8  14  25  41  61  86 115 145 181 224 267
#     4   9  16  25  38  60  90 120 150 185 226 272
#     4   9  18  32  51  74  96 121 155 193 234 280
#     4   8  14  25  41  63  90 115 144 186 232 274
#     4   9  16  28  48  73  97 119 149 191 236 279
#     4   9  16  27  45  67  89 117 152 189 230 272
#     4  10  21  36  51  69  96 127 158 193 232 276
#
# _framework density 20.381588000000001
#
# number of rings (size 3 to 8) (size 9 to 14) (size 15 to 20)
#    0.000    3.000    0.000    2.250    0.000    2.250 
#    0.000    1.250    0.000    7.875    0.000    0.000 
#    0.000   13.000    0.000    0.000    0.000    0.000 
#
# Total GULP energy -178340.280230 kJ/mol
# GULP energy per Si atom -5573.133757 kJ/mol
# Density = 2.033520 g / cm^3
# Si number density = 20.381588 Si / 1000 Ang^3
#
#
#
# Elastic Constant Matrix: (Units=GPa)
#
#
# Indices 1 2 3 4 5 6 
#
# 1 103.9957 -8.5599 107.6931 0.0000 15.9985 0.0000
# 2 -8.5599 47.9275 -6.7137 0.0000 -4.7189 0.0000
# 3 107.6931 -6.7137 123.7299 0.0000 47.4520 0.0000
# 4 0.0000 0.0000 0.0000 8.8997 0.0000 -0.4815
# 5 15.9985 -4.7189 47.4520 0.0000 21.3832 0.0000
# 6 0.0000 0.0000 0.0000 -0.4815 0.0000 6.3678
#
#
#
# Elastic Compliance Matrix: (Units=1/GPa)
#
#
# Indices 1 2 3 4 5 6 
#
# 1 -0.005019 -0.002150 0.020101 0.000000 -0.041325 0.000000
# 2 -0.002150 0.020762 0.004187 0.000000 -0.003101 0.000000
# 3 0.020101 0.004187 -0.025332 0.000000 0.042100 0.000000
# 4 0.000000 0.000000 0.000000 0.112825 0.000000 0.008532
# 5 -0.041325 -0.003101 0.042100 0.000000 -0.016425 0.000000
# 6 0.000000 0.000000 0.000000 0.008532 0.000000 0.157686
#
#
# Mechanical properties :
#
#
# Convention : Reuss Voigt Hill
#
# Bulk Modulus (GPa) = 28.82966 51.16579 39.99772
# Shear Modulus (GPa) = 23.60915 19.54571 21.57743
#
# Velocity S-wave (km/s) = 3.40716 3.10011 3.25725
# Velocity P-wave (km/s) = 5.44554 6.16220 5.81492
#
# Compressibility (1/GPa) = 0.03468650
#
# Stress axis : x y z
#
# Youngs Moduli (GPa) = -199.23193 48.16465 -39.47525
#
# Poissons Ratio (x) = 0.10353 0.79349
# Poissons Ratio (y) = -0.42826 0.16527
# Poissons Ratio (z) = 4.00475 -0.20165
#
# Static dielectric constant tensor:
#      x y z
#    x 1.688930 0.000000 0.036480 
#    y 0.000000 1.755980 0.000000 
#    z 0.036480 0.000000 1.764460 
# 
# From -- ./inp_files/93619.got.cif
#   From: 2010.05.17/outbox.cif.g08.bks.cpg/sg10_47_cif.got.tgz:93619.got - 2010.06.03 11:33:40.
