data_PCOD9145462
_publ_section_title
;
Structure prediction by ZEFSAII (Michael W. Deem and Ramdas Pophale) SiO2 
 PCOD9145462
Probable space group: P 2/M
;
_chemical_formula_sum "Si O2"
_cell_formula_units_Z 28
_cell_length_a 19.836805
_cell_length_b 7.743942
_cell_length_c 14.835589
_cell_angle_alpha 90.000000
_cell_angle_beta 32.692942
_cell_angle_gamma 90.000000
_cell_volume 1230.955234
_symmetry_space_group_name_H-M "P 2/M"
_symmetry_group_IT_number 10
_symmetry_cell_setting 'monoclinic'
loop_
_space_group_symop_operation_xyz
x,y,z
-x,y,-z
-x,-y,-z
x,-y,z
loop_
_atom_site_type_symbol
_atom_site_label
_atom_site_fract_x
_atom_site_fract_y
_atom_site_fract_z
Si Si1 0.807370 0.292697 0.355417
Si Si2 0.407234 0.791830 0.025077
Si Si3 0.034696 0.710568 0.207469
Si Si4 0.619084 0.804134 0.303867
Si Si5 0.137096 0.696428 0.902503
Si Si6 0.121006 0.708168 0.305947
Si Si7 0.480941 0.207434 0.288839
O O1 0.810051 0.500000 0.345311
O O2 0.874464 0.229438 0.186239
O O3 0.664032 0.241270 0.527366
O O4 0.889906 0.244074 0.349998
O O5 0.258685 0.750990 0.190006
O O6 0.413462 0.000000 0.019338
O O7 0.500000 0.729607 0.000000
O O8 0.470620 0.728758 0.861289
O O9 0.042760 0.500000 0.201190
O O10 0.097549 0.771595 0.229239
O O11 0.097038 0.773077 0.044118
O O12 0.500000 0.819425 0.500000
O O13 0.715408 0.694226 0.250835
O O14 0.573950 0.725958 0.260995
O O15 0.668185 0.000000 0.236391
O O16 0.091490 0.500000 0.955962
O O17 0.115587 0.500000 0.310468
O O18 0.000000 0.767195 0.500000
O O19 0.493915 0.000000 0.276802
#
# Coordination Sequence:
#
# PCOD9145462 Si02
#       7
#     4   4   4   4   4   4   4
#     4  10  20  33  54  82 110 147 189 229 277 333
#     4  10  23  42  63  88 117 150 190 239 290 342
#     4   9  19  36  55  78 114 149 182 230 283 333
#     4  10  19  32  50  72 105 145 177 219 277 329
#     4  10  19  32  53  79 107 142 187 231 272 326
#     4  10  22  40  63  90 118 151 192 237 288 345
#     4  10  21  37  55  78 112 148 187 231 281 335
#
# _framework density 22.746561
#
# number of rings (size 3 to 8) (size 9 to 14) (size 15 to 20)
#    0.000    2.143    1.429    1.286    2.000    3.714 
#    0.000    1.429    0.000    1.714    0.000    0.000 
#    0.000    0.000    0.000    0.000    0.000    0.000 
#
# Total GULP energy -156106.680768 kJ/mol
# GULP energy per Si atom -5575.238599 kJ/mol
# Density = 2.269479 g / cm^3
# Si number density = 22.746561 Si / 1000 Ang^3
#
#
#
# Elastic Constant Matrix: (Units=GPa)
#
#
# Indices 1 2 3 4 5 6 
#
# 1 200.3731 15.2250 57.6460 0.0000 8.3755 0.0000
# 2 15.2250 36.0815 5.8676 0.0000 -0.4008 0.0000
# 3 57.6460 5.8676 102.4421 0.0000 9.1657 0.0000
# 4 0.0000 0.0000 0.0000 -7.0188 0.0000 -7.5998
# 5 8.3755 -0.4008 9.1657 0.0000 32.0113 0.0000
# 6 0.0000 0.0000 0.0000 -7.5998 0.0000 11.0533
#
#
#
# Elastic Compliance Matrix: (Units=1/GPa)
#
#
# Indices 1 2 3 4 5 6 
#
# 1 0.006114 -0.002057 -0.003261 0.000000 -0.000692 0.000000
# 2 -0.002057 0.028689 -0.000581 0.000000 0.001064 0.000000
# 3 -0.003261 -0.000581 0.011858 0.000000 -0.002549 0.000000
# 4 0.000000 0.000000 0.000000 -0.081672 0.000000 -0.056154
# 5 -0.000692 0.001064 -0.002549 0.000000 0.032163 0.000000
# 6 0.000000 0.000000 0.000000 -0.056154 0.000000 0.051861
#
#
# Mechanical properties :
#
#
# Convention : Reuss Voigt Hill
#
# Bulk Modulus (GPa) = 28.68314 55.15264 41.91789
# Shear Modulus (GPa) = 69.02927 24.55302 46.79114
#
# Velocity S-wave (km/s) = 5.51480 3.28901 4.54041
# Velocity P-wave (km/s) = 7.29301 6.22276 6.77903
#
# Compressibility (1/GPa) = 0.03486368
#
# Stress axis : x y z
#
# Youngs Moduli (GPa) = 163.55845 34.85613 84.33232
#
# Poissons Ratio (x) = 0.07171 0.27499
# Poissons Ratio (y) = 0.33649 0.04897
# Poissons Ratio (z) = 0.53332 0.02024
#
# Static dielectric constant tensor:
#      x y z
#    x 2.047600 0.000000 -0.034350 
#    y 0.000000 1.876820 0.000000 
#    z -0.034350 0.000000 1.872950 
# 
# From -- ./inp_files/70170.got.cif
#   From: 2010.05.17/outbox.cif.g08.bks.cpg/sg10_36_cif.got.tgz:70170.got - 2010.06.03 11:33:40.
