data_PCOD9145772
_publ_section_title
;
Structure prediction by ZEFSAII (Michael W. Deem and Ramdas Pophale) SiO2 
 PCOD9145772
Probable space group: P 2/M
;
_chemical_formula_sum "Si O2"
_cell_formula_units_Z 22
_cell_length_a 18.287555
_cell_length_b 11.325849
_cell_length_c 5.264765
_cell_angle_alpha 90.000000
_cell_angle_beta 89.252607
_cell_angle_gamma 90.000000
_cell_volume 1090.356339
_symmetry_space_group_name_H-M "P 2/M"
_symmetry_group_IT_number 10
_symmetry_cell_setting 'monoclinic'
loop_
_space_group_symop_operation_xyz
x,y,z
-x,y,-z
-x,-y,-z
x,-y,z
loop_
_atom_site_type_symbol
_atom_site_label
_atom_site_fract_x
_atom_site_fract_y
_atom_site_fract_z
Si Si1 0.913880 0.632093 0.445358
Si Si2 0.549897 0.000000 0.247553
Si Si3 0.949075 0.870689 0.249747
Si Si4 0.550526 0.739906 0.247406
Si Si5 0.705128 0.360589 0.301029
Si Si6 0.218293 0.641427 0.201344
O O1 0.892932 0.500000 0.345862
O O2 0.904772 0.748487 0.274500
O O3 0.864773 0.654783 0.697153
O O4 0.000000 0.625047 0.500000
O O5 0.500000 0.000000 0.500000
O O6 0.586084 0.128058 0.244593
O O7 0.500000 0.000000 0.000000
O O8 0.000000 0.872804 0.500000
O O9 0.911032 0.000000 0.242938
O O10 0.000000 0.863399 0.000000
O O11 0.500000 0.727654 0.500000
O O12 0.619635 0.655401 0.253884
O O13 0.500000 0.725467 0.000000
O O14 0.719566 0.500000 0.316409
O O15 0.731624 0.311187 0.569993
O O16 0.752601 0.310815 0.065772
O O17 0.229165 0.500000 0.184190
#
# Coordination Sequence:
#
# PCOD9145772 Si02
#       6
#     4   2   4   4   4   4
#     4   9  18  33  56  82 104 133 183 233 264 309
#     4   8  16  30  48  72  98 126 159 200 253 292
#     4   9  18  32  50  73 102 134 164 206 267 319
#     4  10  19  32  53  77 100 130 169 210 246 292
#     4  10  20  34  51  72 104 140 166 199 256 314
#     4   9  19  34  50  71 103 139 167 203 262 312
#
# _framework density 20.176888000000002
#
# number of rings (size 3 to 8) (size 9 to 14) (size 15 to 20)
#    0.000    2.727    0.000    1.091    0.000    4.000 
#    0.000    5.455    4.000    0.000    0.000    0.000 
#    0.000    0.000    0.000    0.000    0.000    0.000 
#
# Total GULP energy -122479.213303 kJ/mol
# GULP energy per Si atom -5567.236968 kJ/mol
# Density = 2.013096 g / cm^3
# Si number density = 20.176888 Si / 1000 Ang^3
#
#
#
# Elastic Constant Matrix: (Units=GPa)
#
#
# Indices 1 2 3 4 5 6 
#
# 1 96.4763 4.3572 30.8310 0.0000 -0.6715 0.0000
# 2 4.3572 103.7745 25.6922 0.0000 -6.2061 0.0000
# 3 30.8310 25.6922 127.2153 0.0000 4.4802 0.0000
# 4 0.0000 0.0000 0.0000 1.7955 0.0000 3.7928
# 5 -0.6715 -6.2061 4.4802 0.0000 23.8380 0.0000
# 6 0.0000 0.0000 0.0000 3.7928 0.0000 -1.6215
#
#
#
# Elastic Compliance Matrix: (Units=1/GPa)
#
#
# Indices 1 2 3 4 5 6 
#
# 1 0.011259 0.000280 -0.002818 0.000000 0.000920 0.000000
# 2 0.000280 0.010375 -0.002274 0.000000 0.003136 0.000000
# 3 -0.002818 -0.002274 0.009087 0.000000 -0.002379 0.000000
# 4 0.000000 0.000000 0.000000 0.093748 0.000000 0.219280
# 5 0.000920 0.003136 -0.002379 0.000000 0.043239 0.000000
# 6 0.000000 0.000000 0.000000 0.219280 0.000000 -0.103807
#
#
# Mechanical properties :
#
#
# Convention : Reuss Voigt Hill
#
# Bulk Modulus (GPa) = 47.39763 49.91411 48.65587
# Shear Modulus (GPa) = 62.06795 22.57478 42.32136
#
# Velocity S-wave (km/s) = 5.55236 3.34854 4.58483
# Velocity P-wave (km/s) = 8.04033 6.30415 7.22458
#
# Compressibility (1/GPa) = 0.02109810
#
# Stress axis : x y z
#
# Youngs Moduli (GPa) = 88.81435 96.38573 110.05322
#
# Poissons Ratio (x) = -0.02697 0.31009
# Poissons Ratio (y) = -0.02485 0.25022
# Poissons Ratio (z) = 0.25025 0.21914
#
# Static dielectric constant tensor:
#      x y z
#    x 1.696250 0.000000 0.026680 
#    y 0.000000 1.791370 0.000000 
#    z 0.026680 0.000000 1.749250 
# 
# From -- ./inp_files/10916.got.cif
#   From: 2010.05.17/outbox.cif.g08.bks.cpg/sg10_6_cif.got.tgz:10916.got - 2010.06.03 11:33:40.
