data_PCOD9145368
_publ_section_title
;
Structure prediction by ZEFSAII (Michael W. Deem and Ramdas Pophale) SiO2 
 PCOD9145368
Probable space group: P 2/M
;
_chemical_formula_sum "Si O2"
_cell_formula_units_Z 32
_cell_length_a 20.626502
_cell_length_b 13.526942
_cell_length_c 20.643086
_cell_angle_alpha 90.000000
_cell_angle_beta 159.143363
_cell_angle_gamma 90.000000
_cell_volume 2050.630835
_symmetry_space_group_name_H-M "P 2/M"
_symmetry_group_IT_number 10
_symmetry_cell_setting 'monoclinic'
loop_
_space_group_symop_operation_xyz
x,y,z
-x,y,-z
-x,-y,-z
x,-y,z
loop_
_atom_site_type_symbol
_atom_site_label
_atom_site_fract_x
_atom_site_fract_y
_atom_site_fract_z
Si Si1 0.497518 0.185919 0.921938
Si Si2 0.705445 0.619950 0.705592
Si Si3 0.161550 0.109555 0.835509
Si Si4 0.124165 0.685645 0.868527
Si Si5 0.885857 0.611438 0.530413
Si Si6 0.946277 0.619618 0.052656
Si Si7 0.462566 0.388689 0.105184
Si Si8 0.079560 0.812929 0.503787
O O1 0.548342 0.301720 0.958042
O O2 0.294823 0.170426 0.706557
O O3 0.500000 0.162171 0.000000
O O4 0.644120 0.125581 0.017927
O O5 0.500000 0.655039 0.500000
O O6 0.700281 0.500000 0.700462
O O7 0.856987 0.647943 0.793590
O O8 0.792270 0.648041 0.856039
O O9 0.134403 0.198456 0.860560
O O10 0.017004 0.125901 0.642673
O O11 0.146610 0.000000 0.848901
O O12 0.089276 0.664429 0.910515
O O13 0.968536 0.638104 0.677418
O O14 0.311843 0.636848 0.018188
O O15 0.940936 0.500000 0.563641
O O16 0.666573 0.615511 0.324432
O O17 0.953622 0.697360 0.545466
O O18 0.943438 0.500000 0.055350
O O19 0.432216 0.500000 0.052048
O O20 0.000000 0.834858 0.500000
#
# Coordination Sequence:
#
# PCOD9145368 Si02
#       8
#     4   4   4   4   4   4   4   4
#     4  10  19  33  48  67  90 111 146 192 235 289
#     4   8  15  27  42  67 103 133 156 179 203 245
#     4  10  22  37  51  66  87 116 152 202 254 291
#     4  10  19  32  48  67  93 122 160 198 230 272
#     4   9  18  30  44  64  92 123 151 182 224 276
#     4   9  16  26  44  70  98 128 156 180 212 256
#     4   9  18  30  44  64  92 123 151 182 224 276
#     4  10  19  33  48  67  90 111 146 192 235 289
#
# _framework density 15.604953999999999
#
# number of rings (size 3 to 8) (size 9 to 14) (size 15 to 20)
#    0.000    2.625    1.250    1.875    0.000    2.500 
#    0.000    2.500    0.000    0.000    0.000    1.750 
#    0.000    1.000    0.000    0.000    0.000    0.000 
#
# Total GULP energy -178343.875475 kJ/mol
# GULP energy per Si atom -5573.246109 kJ/mol
# Density = 1.556944 g / cm^3
# Si number density = 15.604954 Si / 1000 Ang^3
#
#
#
# Elastic Constant Matrix: (Units=GPa)
#
#
# Indices 1 2 3 4 5 6 
#
# 1 66.9221 -4.6559 20.7658 0.0000 -7.8771 0.0000
# 2 -4.6559 58.3837 8.3892 0.0000 3.3187 0.0000
# 3 20.7658 8.3892 76.4292 0.0000 7.7185 0.0000
# 4 0.0000 0.0000 0.0000 -24.4057 0.0000 -4.3312
# 5 -7.8771 3.3187 7.7185 0.0000 5.7184 0.0000
# 6 0.0000 0.0000 0.0000 -4.3312 0.0000 5.2877
#
#
#
# Elastic Compliance Matrix: (Units=1/GPa)
#
#
# Indices 1 2 3 4 5 6 
#
# 1 0.024349 0.000842 -0.011631 0.000000 0.048751 0.000000
# 2 0.000842 0.017814 -0.001456 0.000000 -0.007214 0.000000
# 3 -0.011631 -0.001456 0.020768 0.000000 -0.043208 0.000000
# 4 0.000000 0.000000 0.000000 -0.035774 0.000000 -0.029303
# 5 0.048751 -0.007214 -0.043208 0.000000 0.304536 0.000000
# 6 0.000000 0.000000 0.000000 -0.029303 0.000000 0.165118
#
#
# Mechanical properties :
#
#
# Convention : Reuss Voigt Hill
#
# Bulk Modulus (GPa) = 26.01401 27.85926 26.93664
# Shear Modulus (GPa) = 9.36130 9.13580 9.24855
#
# Velocity S-wave (km/s) = 2.45193 2.42222 2.43712
# Velocity P-wave (km/s) = 4.97217 5.07094 5.02180
#
# Compressibility (1/GPa) = 0.03844082
#
# Stress axis : x y z
#
# Youngs Moduli (GPa) = 41.06996 56.13421 48.15209
#
# Poissons Ratio (x) = -0.04726 0.56007
# Poissons Ratio (y) = -0.03458 0.07009
# Poissons Ratio (z) = 0.47769 0.08171
#
# Static dielectric constant tensor:
#      x y z
#    x 1.482310 0.000000 0.009670 
#    y 0.000000 1.530280 0.000000 
#    z 0.009670 0.000000 1.538270 
# 
# From -- ./inp_files/86256.got.cif
#   From: 2010.05.17/outbox.cif.g08.bks.cpg/sg10_44_cif.got.tgz:86256.got - 2010.06.03 11:33:40.
