data_PCOD9145117
_publ_section_title
;
Structure prediction by ZEFSAII (Michael W. Deem and Ramdas Pophale) SiO2 
 PCOD9145117
Probable space group: P 2/M
;
_chemical_formula_sum "Si O2"
_cell_formula_units_Z 28
_cell_length_a 7.195054
_cell_length_b 14.832960
_cell_length_c 16.501083
_cell_angle_alpha 90.000000
_cell_angle_beta 125.328155
_cell_angle_gamma 90.000000
_cell_volume 1436.767617
_symmetry_space_group_name_H-M "P 2/M"
_symmetry_group_IT_number 10
_symmetry_cell_setting 'monoclinic'
loop_
_space_group_symop_operation_xyz
x,y,z
-x,y,-z
-x,-y,-z
x,-y,z
loop_
_atom_site_type_symbol
_atom_site_label
_atom_site_fract_x
_atom_site_fract_y
_atom_site_fract_z
Si Si1 0.216221 0.649641 0.113815
Si Si2 0.386778 0.601110 0.893412
Si Si3 0.896314 0.109787 0.237805
Si Si4 0.533079 0.169976 0.764073
Si Si5 0.999668 0.899823 0.089619
Si Si6 0.898216 0.603966 0.733021
Si Si7 0.354025 0.780329 0.382739
O O1 0.412341 0.595136 0.119276
O O2 0.339518 0.744087 0.164585
O O3 0.148927 0.608627 0.182827
O O4 0.000000 0.654711 0.000000
O O5 0.315584 0.500000 0.902407
O O6 0.160283 0.638195 0.794598
O O7 0.500000 0.648551 0.000000
O O8 0.685838 0.140826 0.240236
O O9 0.875824 0.140598 0.137432
O O10 0.130562 0.155613 0.326651
O O11 0.910774 0.000000 0.241607
O O12 0.735526 0.097116 0.818895
O O13 0.501631 0.194192 0.661594
O O14 0.900942 0.000000 0.054443
O O15 0.000000 0.858218 0.000000
O O16 0.875642 0.500000 0.698742
O O17 0.737199 0.677637 0.650667
O O18 0.500000 0.790571 0.500000
#
# Coordination Sequence:
#
# PCOD9145117 Si02
#       7
#     4   4   4   4   4   4   4
#     4  11  20  32  51  79 117 157 193 237 285 339
#     4  10  19  31  50  77 111 148 185 227 275 337
#     4  10  21  39  63  87 116 154 194 244 301 356
#     4  10  21  36  54  81 113 151 197 243 292 348
#     4   9  18  34  54  81 117 153 189 227 276 342
#     4  10  21  37  58  85 117 155 197 239 289 352
#     4  10  23  42  61  84 116 150 196 258 311 354
#
# _framework density 19.488189999999999
#
# number of rings (size 3 to 8) (size 9 to 14) (size 15 to 20)
#    0.000    2.000    1.429    2.143    0.000    2.857 
#    2.571    2.857    0.000    0.000    0.000    8.000 
#    0.000    0.000    0.000    0.000    0.000    0.000 
#
# Total GULP energy -156030.197994 kJ/mol
# GULP energy per Si atom -5572.507071 kJ/mol
# Density = 1.944383 g / cm^3
# Si number density = 19.488190 Si / 1000 Ang^3
#
#
#
# Elastic Constant Matrix: (Units=GPa)
#
#
# Indices 1 2 3 4 5 6 
#
# 1 157.5189 27.5780 52.6670 0.0000 -10.2814 0.0000
# 2 27.5780 90.8390 25.3847 0.0000 -3.8361 0.0000
# 3 52.6670 25.3847 128.8757 0.0000 -19.7909 0.0000
# 4 0.0000 0.0000 0.0000 1.2418 0.0000 4.1943
# 5 -10.2814 -3.8361 -19.7909 0.0000 15.8907 0.0000
# 6 0.0000 0.0000 0.0000 4.1943 0.0000 25.8067
#
#
#
# Elastic Compliance Matrix: (Units=1/GPa)
#
#
# Indices 1 2 3 4 5 6 
#
# 1 0.007566 -0.001517 -0.002594 0.000000 0.001299 0.000000
# 2 -0.001517 0.011954 -0.001783 0.000000 -0.000317 0.000000
# 3 -0.002594 -0.001783 0.010939 0.000000 0.011515 0.000000
# 4 0.000000 0.000000 0.000000 1.785217 0.000000 -0.290146
# 5 0.001299 -0.000317 0.011515 0.000000 0.078035 0.000000
# 6 0.000000 0.000000 0.000000 -0.290146 0.000000 0.085906
#
#
# Mechanical properties :
#
#
# Convention : Reuss Voigt Hill
#
# Bulk Modulus (GPa) = 53.55987 65.38812 59.47399
# Shear Modulus (GPa) = 2.50297 26.69477 14.59887
#
# Velocity S-wave (km/s) = 1.13452 3.70509 2.73996
# Velocity P-wave (km/s) = 5.40917 7.20618 6.37135
#
# Compressibility (1/GPa) = 0.01867070
#
# Stress axis : x y z
#
# Youngs Moduli (GPa) = 132.16898 83.65350 91.41661
#
# Poissons Ratio (x) = 0.12693 0.23710
# Poissons Ratio (y) = 0.20055 0.16301
# Poissons Ratio (z) = 0.34280 0.14917
#
# Static dielectric constant tensor:
#      x y z
#    x 1.698850 0.000000 -0.016480 
#    y 0.000000 1.789050 0.000000 
#    z -0.016480 0.000000 1.672120 
# 
# From -- ./inp_files/59462.got.cif
#   From: 2010.05.17/outbox.cif.g08.bks.cpg/sg10_30_cif.got.tgz:59462.got - 2010.06.03 11:33:40.
