data_PCOD9145193
_publ_section_title
;
Structure prediction by ZEFSAII (Michael W. Deem and Ramdas Pophale) SiO2 
 PCOD9145193
Probable space group: P 2/M
;
_chemical_formula_sum "Si O2"
_cell_formula_units_Z 32
_cell_length_a 12.886862
_cell_length_b 9.257627
_cell_length_c 30.281467
_cell_angle_alpha 90.000000
_cell_angle_beta 151.844826
_cell_angle_gamma 90.000000
_cell_volume 1704.660759
_symmetry_space_group_name_H-M "P 2/M"
_symmetry_group_IT_number 10
_symmetry_cell_setting 'monoclinic'
loop_
_space_group_symop_operation_xyz
x,y,z
-x,y,-z
-x,-y,-z
x,-y,z
loop_
_atom_site_type_symbol
_atom_site_label
_atom_site_fract_x
_atom_site_fract_y
_atom_site_fract_z
Si Si1 0.684707 0.167310 0.531572
Si Si2 0.344391 0.665664 0.239581
Si Si3 0.100214 0.172315 0.921224
Si Si4 0.921618 0.828701 0.190846
Si Si5 0.115483 0.327625 0.683071
Si Si6 0.568304 0.173241 0.134361
Si Si7 0.171607 0.675475 0.601896
Si Si8 0.365995 0.335470 0.353765
O O1 0.500000 0.175553 0.500000
O O2 0.569333 0.241835 0.446635
O O3 0.902489 0.254720 0.624908
O O4 0.739075 0.000000 0.544503
O O5 0.321830 0.500000 0.215503
O O6 0.577448 0.726580 0.310598
O O7 0.362810 0.662627 0.299651
O O8 0.122926 0.752513 0.146506
O O9 0.133718 0.201879 0.881295
O O10 0.075778 0.000000 0.916027
O O11 0.319436 0.215752 0.029436
O O12 0.722277 0.798558 0.149235
O O13 0.138323 0.737533 0.283064
O O14 0.973734 0.000000 0.213917
O O15 0.114088 0.500000 0.687638
O O16 0.327077 0.258568 0.785719
O O17 0.103104 0.292663 0.626269
O O18 0.575453 0.000000 0.144797
O O19 0.179660 0.500000 0.600585
O O20 0.000000 0.726537 0.500000
O O21 0.385519 0.500000 0.377313
#
# Coordination Sequence:
#
# PCOD9145193 Si02
#       8
#     4   4   4   4   4   4   4   4
#     4  11  23  37  52  72 104 145 178 205 249 312
#     4   9  18  34  56  80 105 133 169 216 268 316
#     4   9  18  33  54  79 106 140 183 222 255 302
#     4   9  17  31  52  77 106 143 183 216 253 308
#     4  11  23  37  56  81 105 134 176 223 266 311
#     4  10  20  35  53  74 107 147 179 214 263 314
#     4   9  18  36  60  81 103 134 171 213 265 321
#     4  10  19  31  51  79 106 133 169 216 266 311
#
# _framework density 18.772062999999999
#
# number of rings (size 3 to 8) (size 9 to 14) (size 15 to 20)
#    0.000    2.250    0.000    3.000    0.000    9.000 
#    0.000    1.875    0.000   10.125    0.000    0.000 
#    0.000    0.000    0.000    0.000    0.000    0.000 
#
# Total GULP energy -178605.895889 kJ/mol
# GULP energy per Si atom -5581.434247 kJ/mol
# Density = 1.872934 g / cm^3
# Si number density = 18.772063 Si / 1000 Ang^3
#
#
#
# Elastic Constant Matrix: (Units=GPa)
#
#
# Indices 1 2 3 4 5 6 
#
# 1 56.4792 34.3762 45.5450 0.0000 9.4281 0.0000
# 2 34.3762 51.7535 53.2065 0.0000 -1.2692 0.0000
# 3 45.5450 53.2065 141.4874 0.0000 2.8444 0.0000
# 4 0.0000 0.0000 0.0000 32.0945 0.0000 -0.8175
# 5 9.4281 -1.2692 2.8444 0.0000 25.8970 0.0000
# 6 0.0000 0.0000 0.0000 -0.8175 0.0000 17.7355
#
#
#
# Elastic Compliance Matrix: (Units=1/GPa)
#
#
# Indices 1 2 3 4 5 6 
#
# 1 0.034823 -0.019899 -0.003460 0.000000 -0.013273 0.000000
# 2 -0.019899 0.043083 -0.010006 0.000000 0.010455 0.000000
# 3 -0.003460 -0.010006 0.011955 0.000000 -0.000544 0.000000
# 4 0.000000 0.000000 0.000000 0.031195 0.000000 0.001438
# 5 -0.013273 0.010455 -0.000544 0.000000 0.044019 0.000000
# 6 0.000000 0.000000 0.000000 0.001438 0.000000 0.056450
#
#
# Mechanical properties :
#
#
# Convention : Reuss Voigt Hill
#
# Bulk Modulus (GPa) = 43.23086 57.33062 50.28074
# Shear Modulus (GPa) = 16.89387 22.91823 19.90605
#
# Velocity S-wave (km/s) = 3.00317 3.49788 3.25992
# Velocity P-wave (km/s) = 5.92492 6.84984 6.40410
#
# Compressibility (1/GPa) = 0.02313162
#
# Stress axis : x y z
#
# Youngs Moduli (GPa) = 28.71688 23.21077 83.64564
#
# Poissons Ratio (x) = 0.46187 0.28938
# Poissons Ratio (y) = 0.57144 0.83698
# Poissons Ratio (z) = 0.09935 0.23225
#
# Static dielectric constant tensor:
#      x y z
#    x 1.664640 0.000000 -0.003250 
#    y 0.000000 1.634020 0.000000 
#    z -0.003250 0.000000 1.651580 
# 
# From -- ./inp_files/95030.got.cif
#   From: 2010.05.17/outbox.cif.g08.bks.cpg/sg10_48_cif.got.tgz:95030.got - 2010.06.03 11:33:40.
