data_PCOD9145282
_publ_section_title
;
Structure prediction by ZEFSAII (Michael W. Deem and Ramdas Pophale) SiO2 
 PCOD9145282
Probable space group: P 2/M
;
_chemical_formula_sum "Si O2"
_cell_formula_units_Z 26
_cell_length_a 31.980991
_cell_length_b 8.026471
_cell_length_c 5.289364
_cell_angle_alpha 90.000000
_cell_angle_beta 59.646815
_cell_angle_gamma 90.000000
_cell_volume 1171.639474
_symmetry_space_group_name_H-M "P 2/M"
_symmetry_group_IT_number 10
_symmetry_cell_setting 'monoclinic'
loop_
_space_group_symop_operation_xyz
x,y,z
-x,y,-z
-x,-y,-z
x,-y,z
loop_
_atom_site_type_symbol
_atom_site_label
_atom_site_fract_x
_atom_site_fract_y
_atom_site_fract_z
Si Si1 0.193118 0.297699 0.209556
Si Si2 0.865233 0.701801 0.102800
Si Si3 0.304305 0.295795 0.831810
Si Si4 0.472518 0.798951 0.834039
Si Si5 0.360587 0.701059 0.159790
Si Si6 0.966814 0.500000 0.355678
Si Si7 0.057638 0.178448 0.781923
O O1 0.193771 0.500000 0.192394
O O2 0.161298 0.239977 0.068836
O O3 0.248590 0.241183 0.019033
O O4 0.169251 0.257296 0.551144
O O5 0.871552 0.500000 0.076462
O O6 0.915833 0.781457 0.036417
O O7 0.303862 0.500000 0.833055
O O8 0.330610 0.240972 0.495506
O O9 0.334890 0.240975 0.981511
O O10 0.500000 0.737474 0.500000
O O11 0.475334 0.000000 0.825634
O O12 0.500000 0.737330 0.000000
O O13 0.416363 0.751962 0.003769
O O14 0.358756 0.500000 0.164953
O O15 0.934838 0.335210 0.424695
O O16 0.000000 0.500000 0.500000
O O17 0.000000 0.500000 0.000000
O O18 0.074048 0.000000 0.633401
O O19 0.000000 0.168790 0.000000
#
# Coordination Sequence:
#
# PCOD9145282 Si02
#       7
#     4   4   4   4   4   2   4
#     4   9  18  32  55  82 111 145 184 227 277 336
#     4  10  19  34  56  83 110 145 188 230 277 334
#     4   9  17  31  51  80 110 138 178 225 272 328
#     4  10  21  36  52  72 103 142 181 221 269 327
#     4  10  19  31  53  80 107 139 179 227 273 320
#     4  10  22  40  62  86 116 150 192 238 280 342
#     4  10  22  41  63  89 121 158 196 242 297 351
#
# _framework density 22.191126000000001
#
# number of rings (size 3 to 8) (size 9 to 14) (size 15 to 20)
#    0.000    2.308    0.769    1.846    0.000    7.077 
#    0.000    3.846    0.000    5.538    0.000    0.000 
#    0.000    0.000    0.000    0.000    0.000    0.000 
#
# Total GULP energy -145390.902345 kJ/mol
# GULP energy per Si atom -5591.957782 kJ/mol
# Density = 2.214062 g / cm^3
# Si number density = 22.191126 Si / 1000 Ang^3
#
#
#
# Elastic Constant Matrix: (Units=GPa)
#
#
# Indices 1 2 3 4 5 6 
#
# 1 169.9397 14.6104 66.0766 0.0000 1.7926 0.0000
# 2 14.6104 68.2378 5.4288 0.0000 12.6311 0.0000
# 3 66.0766 5.4288 133.9537 0.0000 3.3314 0.0000
# 4 0.0000 0.0000 0.0000 -7.5455 0.0000 22.6871
# 5 1.7926 12.6311 3.3314 0.0000 47.9203 0.0000
# 6 0.0000 0.0000 0.0000 22.6871 0.0000 -57.9917
#
#
#
# Elastic Compliance Matrix: (Units=1/GPa)
#
#
# Indices 1 2 3 4 5 6 
#
# 1 0.007399 -0.001359 -0.003603 0.000000 0.000332 0.000000
# 2 -0.001359 0.015693 0.000136 0.000000 -0.004095 0.000000
# 3 -0.003603 0.000136 0.009250 0.000000 -0.000544 0.000000
# 4 0.000000 0.000000 0.000000 0.751922 0.000000 0.294161
# 5 0.000332 -0.004095 -0.000544 0.000000 0.021973 0.000000
# 6 0.000000 0.000000 0.000000 0.294161 0.000000 0.097836
#
#
# Mechanical properties :
#
#
# Convention : Reuss Voigt Hill
#
# Bulk Modulus (GPa) = 44.07070 60.48476 52.27773
# Shear Modulus (GPa) = 5.42719 15.54432 10.48575
#
# Velocity S-wave (km/s) = 1.56556 2.64952 2.17611
# Velocity P-wave (km/s) = 4.81359 6.05602 5.47019
#
# Compressibility (1/GPa) = 0.02269081
#
# Stress axis : x y z
#
# Youngs Moduli (GPa) = 135.16043 63.72369 108.10286
#
# Poissons Ratio (x) = 0.08660 0.38947
# Poissons Ratio (y) = 0.18367 -0.01472
# Poissons Ratio (z) = 0.48695 -0.00868
#
# Static dielectric constant tensor:
#      x y z
#    x 1.768150 0.000000 -0.006190 
#    y 0.000000 1.855550 0.000000 
#    z -0.006190 0.000000 1.898110 
# 
# From -- ./inp_files/13537.got.cif
#   From: 2010.05.17/outbox.cif.g08.bks.cpg/sg10_7_cif.got.tgz:13537.got - 2010.06.03 11:33:40.
