data_PCOD9145160
_publ_section_title
;
Structure prediction by ZEFSAII (Michael W. Deem and Ramdas Pophale) SiO2 
 PCOD9145160
Probable space group: P 2/M
;
_chemical_formula_sum "Si O2"
_cell_formula_units_Z 28
_cell_length_a 5.385100
_cell_length_b 31.654439
_cell_length_c 8.011189
_cell_angle_alpha 90.000000
_cell_angle_beta 60.879697
_cell_angle_gamma 90.000000
_cell_volume 1192.993050
_symmetry_space_group_name_H-M "P 2/M"
_symmetry_group_IT_number 10
_symmetry_cell_setting 'monoclinic'
loop_
_space_group_symop_operation_xyz
x,y,z
-x,y,-z
-x,-y,-z
x,-y,z
loop_
_atom_site_type_symbol
_atom_site_label
_atom_site_fract_x
_atom_site_fract_y
_atom_site_fract_z
Si Si1 0.831802 0.951310 0.733538
Si Si2 0.209387 0.193114 0.784737
Si Si3 0.666759 0.096304 0.268334
Si Si4 0.162248 0.320630 0.268348
Si Si5 0.346316 0.636920 0.724235
Si Si6 0.713552 0.223660 0.781629
Si Si7 0.341644 0.453594 0.873369
O O1 0.533669 0.928848 0.793175
O O2 0.000000 0.951432 0.500000
O O3 0.033734 0.926025 0.793357
O O4 0.798354 0.000000 0.794619
O O5 0.290898 0.144896 0.792653
O O6 0.500688 0.219474 0.694750
O O7 0.998376 0.195962 0.696070
O O8 0.000000 0.209151 0.000000
O O9 0.500000 0.096439 0.500000
O O10 0.478853 0.337554 0.195026
O O11 0.183635 0.271290 0.222303
O O12 0.000000 0.324060 0.500000
O O13 0.976103 0.348153 0.200410
O O14 0.500000 0.646510 0.500000
O O15 0.393617 0.587664 0.747028
O O16 0.500000 0.210141 0.000000
O O17 0.432104 0.500000 0.777690
O O18 0.500000 0.448539 0.000000
O O19 0.000000 0.454770 0.000000
#
# Coordination Sequence:
#
# PCOD9145160 Si02
#       7
#     4   4   4   4   4   4   4
#     4   9  17  30  49  74 102 128 159 204 251 295
#     4  10  21  36  52  72 102 135 167 209 257 304
#     4  10  19  31  51  76  97 126 168 205 245 300
#     4  10  21  36  55  80 109 139 175 222 269 315
#     4  10  21  37  56  81 112 145 180 219 272 330
#     4  10  21  36  53  74 100 135 175 210 255 313
#     4  10  21  37  57  83 113 145 185 230 271 314
#
# _framework density 23.470381
#
# number of rings (size 3 to 8) (size 9 to 14) (size 15 to 20)
#    0.000    2.143    0.000    3.000    0.000    4.857 
#    0.000    0.000    0.000    7.714    0.000    0.000 
#    0.000    0.000    0.000    0.000    0.000    0.000 
#
# Total GULP energy -156538.117607 kJ/mol
# GULP energy per Si atom -5590.647057 kJ/mol
# Density = 2.341696 g / cm^3
# Si number density = 23.470381 Si / 1000 Ang^3
#
#
#
# Elastic Constant Matrix: (Units=GPa)
#
#
# Indices 1 2 3 4 5 6 
#
# 1 210.4349 63.5358 24.2452 0.0000 -0.2998 0.0000
# 2 63.5358 133.7576 -18.2021 0.0000 9.6128 0.0000
# 3 24.2452 -18.2021 61.3271 0.0000 2.9883 0.0000
# 4 0.0000 0.0000 0.0000 25.9656 0.0000 0.4165
# 5 -0.2998 9.6128 2.9883 0.0000 28.7085 0.0000
# 6 0.0000 0.0000 0.0000 0.4165 0.0000 48.7981
#
#
#
# Elastic Compliance Matrix: (Units=1/GPa)
#
#
# Indices 1 2 3 4 5 6 
#
# 1 0.006251 -0.003579 -0.003614 0.000000 0.001640 0.000000
# 2 -0.003579 0.010081 0.004597 0.000000 -0.003892 0.000000
# 3 -0.003614 0.004597 0.019274 0.000000 -0.003583 0.000000
# 4 0.000000 0.000000 0.000000 0.038518 0.000000 -0.000329
# 5 0.001640 -0.003892 -0.003583 0.000000 0.036526 0.000000
# 6 0.000000 0.000000 0.000000 -0.000329 0.000000 0.020495
#
#
# Mechanical properties :
#
#
# Convention : Reuss Voigt Hill
#
# Bulk Modulus (GPa) = 32.87879 60.51971 46.69925
# Shear Modulus (GPa) = 34.13537 43.09047 38.61292
#
# Velocity S-wave (km/s) = 3.81780 4.28945 4.06048
# Velocity P-wave (km/s) = 5.78560 7.09747 6.47484
#
# Compressibility (1/GPa) = 0.03041474
#
# Stress axis : x y z
#
# Youngs Moduli (GPa) = 159.96560 99.19164 51.88451
#
# Poissons Ratio (x) = 0.35501 0.18749
# Poissons Ratio (y) = 0.57252 -0.23850
# Poissons Ratio (z) = 0.57805 -0.45596
#
# Static dielectric constant tensor:
#      x y z
#    x 1.856030 0.000000 -0.111200 
#    y 0.000000 1.823940 0.000000 
#    z -0.111200 0.000000 1.633890 
# 
# From -- ./inp_files/15879.got.cif
#   From: 2010.05.17/outbox.cif.g08.bks.cpg/sg10_8_cif.got.tgz:15879.got - 2010.06.03 11:33:40.
