data_PCOD9145472
_publ_section_title
;
Structure prediction by ZEFSAII (Michael W. Deem and Ramdas Pophale) SiO2 
 PCOD9145472
Probable space group: P 2/M
;
_chemical_formula_sum "Si O2"
_cell_formula_units_Z 32
_cell_length_a 17.001458
_cell_length_b 8.194314
_cell_length_c 29.693852
_cell_angle_alpha 90.000000
_cell_angle_beta 159.904689
_cell_angle_gamma 90.000000
_cell_volume 1421.336054
_symmetry_space_group_name_H-M "P 2/M"
_symmetry_group_IT_number 10
_symmetry_cell_setting 'monoclinic'
loop_
_space_group_symop_operation_xyz
x,y,z
-x,y,-z
-x,-y,-z
x,-y,z
loop_
_atom_site_type_symbol
_atom_site_label
_atom_site_fract_x
_atom_site_fract_y
_atom_site_fract_z
Si Si1 0.705982 0.812736 0.868802
Si Si2 0.954080 0.690167 0.187188
Si Si3 0.903688 0.301754 0.643246
Si Si4 0.730288 0.310725 0.977984
Si Si5 0.886343 0.698180 0.534646
Si Si6 0.281369 0.690051 0.687742
Si Si7 0.378742 0.811147 0.367034
Si Si8 0.646159 0.308709 0.742622
O O1 0.435519 0.782415 0.734453
O O2 0.762857 0.719885 0.853523
O O3 0.749988 0.000000 0.884314
O O4 0.811446 0.760725 0.973613
O O5 0.886942 0.500000 0.154122
O O6 0.948575 0.757960 0.234815
O O7 0.216760 0.706892 0.312238
O O8 0.813531 0.764026 0.069610
O O9 0.902763 0.500000 0.643454
O O10 0.977621 0.250123 0.632930
O O11 0.641310 0.245148 0.508451
O O12 0.803501 0.500000 0.016636
O O13 0.455189 0.307685 0.824196
O O14 0.900516 0.500000 0.540060
O O15 0.619688 0.739766 0.391758
O O16 0.041450 0.755355 0.576526
O O17 0.263252 0.500000 0.663240
O O18 0.288350 0.786182 0.267314
O O19 0.362615 0.000000 0.371225
O O20 0.653462 0.500000 0.735353
#
# Coordination Sequence:
#
# PCOD9145472 Si02
#       8
#     4   4   4   4   4   4   4   4
#     4  10  19  32  50  73 103 134 166 206 248 294
#     4  10  19  34  55  76  98 131 173 210 250 296
#     4   9  18  33  53  77 104 133 166 207 250 295
#     4   8  17  33  52  72  97 132 171 211 247 288
#     4   8  15  29  51  76 101 130 166 205 248 292
#     4   8  15  31  51  71 100 134 168 204 244 292
#     4  11  22  34  50  76 106 133 163 203 251 302
#     4  10  19  34  54  75 101 133 166 205 251 298
#
# _framework density 22.514026999999999
#
# number of rings (size 3 to 8) (size 9 to 14) (size 15 to 20)
#    0.750    2.000    0.000    3.375    0.000    3.000 
#    0.000    6.875    0.000    7.500    0.000    0.875 
#    0.000    0.000    0.000    0.000    0.000    0.000 
#
# Total GULP energy -178422.730112 kJ/mol
# GULP energy per Si atom -5575.710316 kJ/mol
# Density = 2.246278 g / cm^3
# Si number density = 22.514027 Si / 1000 Ang^3
#
#
#
# Elastic Constant Matrix: (Units=GPa)
#
#
# Indices 1 2 3 4 5 6 
#
# 1 90.5723 -3.5952 32.9428 0.0000 -26.1827 0.0000
# 2 -3.5952 25.5828 0.9850 0.0000 -3.5303 0.0000
# 3 32.9428 0.9850 66.7529 0.0000 -22.6126 0.0000
# 4 0.0000 0.0000 0.0000 2.4827 0.0000 -7.5019
# 5 -26.1827 -3.5303 -22.6126 0.0000 46.4079 0.0000
# 6 0.0000 0.0000 0.0000 -7.5019 0.0000 19.6456
#
#
#
# Elastic Compliance Matrix: (Units=1/GPa)
#
#
# Indices 1 2 3 4 5 6 
#
# 1 0.014843 0.003121 -0.005334 0.000000 0.006012 0.000000
# 2 0.003121 0.040175 -0.000600 0.000000 0.004524 0.000000
# 3 -0.005334 -0.000600 0.019866 0.000000 0.006625 0.000000
# 4 0.000000 0.000000 0.000000 -2.617964 0.000000 -0.999701
# 5 0.006012 0.004524 0.006625 0.000000 0.028512 0.000000
# 6 0.000000 0.000000 0.000000 -0.999701 0.000000 -0.330846
#
#
# Mechanical properties :
#
#
# Convention : Reuss Voigt Hill
#
# Bulk Modulus (GPa) = 14.43912 27.06371 20.75142
# Shear Modulus (GPa) = -1.77513 23.87895 11.05191
#
# Velocity S-wave (km/s) = -0.88891 3.26026 2.21801
# Velocity P-wave (km/s) = 2.31814 5.12048 3.97448
#
# Compressibility (1/GPa) = 0.06925628
#
# Stress axis : x y z
#
# Youngs Moduli (GPa) = 67.37137 24.89124 50.33692
#
# Poissons Ratio (x) = -0.07769 0.26852
# Poissons Ratio (y) = -0.21027 0.03022
# Poissons Ratio (z) = 0.35939 0.01494
#
# Static dielectric constant tensor:
#      x y z
#    x 1.850250 0.000000 -0.041980 
#    y 0.000000 1.785690 0.000000 
#    z -0.041980 0.000000 1.957930 
# 
# From -- ./inp_files/93144.got.cif
#   From: 2010.05.17/outbox.cif.g08.bks.cpg/sg10_47_cif.got.tgz:93144.got - 2010.06.03 11:33:40.
