data_PCOD9145038
_publ_section_title
;
Structure prediction by ZEFSAII (Michael W. Deem and Ramdas Pophale) SiO2 
 PCOD9145038
Probable space group: P 2/M
;
_chemical_formula_sum "Si O2"
_cell_formula_units_Z 32
_cell_length_a 13.251297
_cell_length_b 7.746481
_cell_length_c 34.236564
_cell_angle_alpha 90.000000
_cell_angle_beta 154.481432
_cell_angle_gamma 90.000000
_cell_volume 1514.022472
_symmetry_space_group_name_H-M "P 2/M"
_symmetry_group_IT_number 10
_symmetry_cell_setting 'monoclinic'
loop_
_space_group_symop_operation_xyz
x,y,z
-x,y,-z
-x,-y,-z
x,-y,z
loop_
_atom_site_type_symbol
_atom_site_label
_atom_site_fract_x
_atom_site_fract_y
_atom_site_fract_z
Si Si1 0.897901 0.195683 0.237827
Si Si2 0.978543 0.790756 0.409144
Si Si3 0.240504 0.211799 0.423407
Si Si4 0.988085 0.298207 0.875157
Si Si5 0.686495 0.298078 0.408164
Si Si6 0.788163 0.293160 0.720908
Si Si7 0.492546 0.194636 0.258835
Si Si8 0.496301 0.799506 0.043262
O O1 0.678942 0.278377 0.138222
O O2 0.034085 0.272912 0.322164
O O3 0.096932 0.194690 0.274201
O O4 0.829067 0.000000 0.225146
O O5 0.153800 0.735235 0.436078
O O6 0.077399 0.732816 0.485701
O O7 0.709458 0.728698 0.309986
O O8 0.972358 0.000000 0.407148
O O9 0.500000 0.267914 0.500000
O O10 0.243698 0.000000 0.423338
O O11 0.039641 0.500000 0.891312
O O12 0.906127 0.242564 0.803212
O O13 0.764164 0.274442 0.825077
O O14 0.234552 0.208311 0.968721
O O15 0.664955 0.500000 0.389973
O O16 0.484350 0.257844 0.369072
O O17 0.608097 0.195639 0.342590
O O18 0.820210 0.500000 0.726947
O O19 0.453112 0.000000 0.231648
O O20 0.569440 0.000000 0.064354
O O21 0.500000 0.725956 0.000000
#
# Coordination Sequence:
#
# PCOD9145038 Si02
#       8
#     4   4   4   4   4   4   4   4
#     4  10  19  31  51  75 101 137 174 211 257 307
#     4  10  20  34  52  74  99 132 175 219 261 306
#     4   9  18  33  53  77 103 133 174 217 255 300
#     4  10  20  33  50  74 104 138 170 204 257 316
#     4  10  20  32  48  74 105 137 172 211 258 311
#     4   9  18  30  44  68 102 134 165 203 248 304
#     4  10  20  33  51  74 102 134 170 215 263 309
#     4  10  19  31  49  78 110 136 169 212 260 313
#
# _framework density 21.135750000000002
#
# number of rings (size 3 to 8) (size 9 to 14) (size 15 to 20)
#    0.000    2.250    1.250    3.000    0.000    6.750 
#    0.000    0.625    0.000    3.000    0.000    5.250 
#    0.000    0.000    0.000    0.000    0.000    0.000 
#
# Total GULP energy -178409.720274 kJ/mol
# GULP energy per Si atom -5575.303759 kJ/mol
# Density = 2.108764 g / cm^3
# Si number density = 21.135750 Si / 1000 Ang^3
#
#
#
# Elastic Constant Matrix: (Units=GPa)
#
#
# Indices 1 2 3 4 5 6 
#
# 1 82.5013 -0.0981 28.2680 0.0000 12.4356 0.0000
# 2 -0.0981 26.6577 -2.1269 0.0000 0.2424 0.0000
# 3 28.2680 -2.1269 116.5335 0.0000 4.1554 0.0000
# 4 0.0000 0.0000 0.0000 6.9739 0.0000 5.1496
# 5 12.4356 0.2424 4.1554 0.0000 31.8477 0.0000
# 6 0.0000 0.0000 0.0000 5.1496 0.0000 -27.3989
#
#
#
# Elastic Compliance Matrix: (Units=1/GPa)
#
#
# Indices 1 2 3 4 5 6 
#
# 1 0.013982 -0.000159 -0.003215 0.000000 -0.005039 0.000000
# 2 -0.000159 0.037574 0.000736 0.000000 -0.000320 0.000000
# 3 -0.003215 0.000736 0.009374 0.000000 0.000027 0.000000
# 4 0.000000 0.000000 0.000000 0.125916 0.000000 0.023666
# 5 -0.005039 -0.000320 0.000027 0.000000 0.033366 0.000000
# 6 0.000000 0.000000 0.000000 0.023666 0.000000 -0.032050
#
#
# Mechanical properties :
#
#
# Convention : Reuss Voigt Hill
#
# Bulk Modulus (GPa) = 17.96867 30.86428 24.41648
# Shear Modulus (GPa) = 23.58613 15.59452 19.59032
#
# Velocity S-wave (km/s) = 3.34419 2.71924 3.04777
# Velocity P-wave (km/s) = 4.84060 4.94910 4.89515
#
# Compressibility (1/GPa) = 0.05565243
#
# Stress axis : x y z
#
# Youngs Moduli (GPa) = 71.52120 26.61443 106.68320
#
# Poissons Ratio (x) = 0.00424 0.34297
# Poissons Ratio (y) = 0.01139 -0.07850
# Poissons Ratio (z) = 0.22993 -0.01958
#
# Static dielectric constant tensor:
#      x y z
#    x 1.775790 0.000000 0.029030 
#    y 0.000000 1.773720 0.000000 
#    z 0.029030 0.000000 1.793520 
# 
# From -- ./inp_files/95078.got.cif
#   From: 2010.05.17/outbox.cif.g08.bks.cpg/sg10_48_cif.got.tgz:95078.got - 2010.06.03 11:33:40.
