data_PCOD9145448
_publ_section_title
;
Structure prediction by ZEFSAII (Michael W. Deem and Ramdas Pophale) SiO2 
 PCOD9145448
Probable space group: P 2/M
;
_chemical_formula_sum "Si O2"
_cell_formula_units_Z 32
_cell_length_a 16.403039
_cell_length_b 15.606140
_cell_length_c 22.215880
_cell_angle_alpha 90.000000
_cell_angle_beta 161.143699
_cell_angle_gamma 90.000000
_cell_volume 1838.014707
_symmetry_space_group_name_H-M "P 2/M"
_symmetry_group_IT_number 10
_symmetry_cell_setting 'monoclinic'
loop_
_space_group_symop_operation_xyz
x,y,z
-x,y,-z
-x,-y,-z
x,-y,z
loop_
_atom_site_type_symbol
_atom_site_label
_atom_site_fract_x
_atom_site_fract_y
_atom_site_fract_z
Si Si1 0.277750 0.760031 0.668963
Si Si2 0.030203 0.167314 0.089363
Si Si3 0.513203 0.903411 0.273394
Si Si4 0.469799 0.667312 0.910638
Si Si5 0.013210 0.596589 0.273398
Si Si6 0.590013 0.902066 0.467525
Si Si7 0.222251 0.739970 0.331038
Si Si8 0.090015 0.402066 0.467526
O O1 0.377182 0.832711 0.694440
O O2 0.452090 0.741000 0.848312
O O3 0.247367 0.670252 0.611780
O O4 0.000000 0.781966 0.500000
O O5 0.295455 0.116660 0.276852
O O6 0.047910 0.241000 0.151689
O O7 0.000000 0.200638 0.000000
O O8 0.788457 0.109145 0.933199
O O9 0.613066 0.891825 0.411528
O O10 0.572473 0.000000 0.295452
O O11 0.204546 0.616658 0.723148
O O12 0.500000 0.700635 0.000000
O O13 0.711549 0.609143 0.066804
O O14 0.072481 0.500000 0.295456
O O15 0.122823 0.667290 0.305564
O O16 0.113069 0.608173 0.411531
O O17 0.747368 0.829749 0.611781
O O18 0.652270 0.000000 0.527340
O O19 0.500000 0.718034 0.500000
O O20 0.152277 0.500000 0.527346
#
# Coordination Sequence:
#
# PCOD9145448 Si02
#       8
#     4   4   4   4   4   4   4   4
#     4  10  20  32  49  71  97 128 158 191 231 280
#     4   9  18  32  50  71  94 121 156 199 242 276
#     4  10  19  32  50  71  97 127 157 191 232 281
#     4   9  18  32  50  71  94 121 156 199 242 276
#     4  10  19  32  50  71  97 127 157 191 232 281
#     4   9  18  32  51  74  96 119 153 199 244 279
#     4  10  20  32  49  71  97 128 158 191 231 280
#     4   9  18  32  51  74  96 119 153 199 244 279
#
# _framework density 17.410088999999999
#
# number of rings (size 3 to 8) (size 9 to 14) (size 15 to 20)
#    0.000    2.500    0.000    2.250    0.000    9.000 
#    0.000    0.000    0.000    0.750    0.000    0.000 
#    0.000    0.000    0.000    0.000    0.000    0.000 
#
# Total GULP energy -178496.446400 kJ/mol
# GULP energy per Si atom -5578.013950 kJ/mol
# Density = 1.737046 g / cm^3
# Si number density = 17.410089 Si / 1000 Ang^3
#
#
#
# Elastic Constant Matrix: (Units=GPa)
#
#
# Indices 1 2 3 4 5 6 
#
# 1 105.7671 96.1870 26.2863 0.0000 -6.9506 0.0000
# 2 96.1870 132.4645 33.8151 0.0000 -6.5565 0.0000
# 3 26.2863 33.8151 36.0115 0.0000 -14.5783 0.0000
# 4 0.0000 0.0000 0.0000 7.7171 0.0000 -2.6084
# 5 -6.9506 -6.5565 -14.5783 0.0000 17.7141 0.0000
# 6 0.0000 0.0000 0.0000 -2.6084 0.0000 20.4156
#
#
#
# Elastic Compliance Matrix: (Units=1/GPa)
#
#
# Indices 1 2 3 4 5 6 
#
# 1 0.028054 -0.020159 -0.000169 0.000000 0.003407 0.000000
# 2 -0.020159 0.024859 -0.012155 0.000000 -0.008712 0.000000
# 3 -0.000169 -0.012155 0.056171 0.000000 0.041663 0.000000
# 4 0.000000 0.000000 0.000000 0.135431 0.000000 0.017303
# 5 0.003407 -0.008712 0.041663 0.000000 0.088852 0.000000
# 6 0.000000 0.000000 0.000000 0.017303 0.000000 0.051193
#
#
# Mechanical properties :
#
#
# Convention : Reuss Voigt Hill
#
# Bulk Modulus (GPa) = 22.66581 65.20223 43.93402
# Shear Modulus (GPa) = 10.77052 17.03303 13.90177
#
# Velocity S-wave (km/s) = 2.48994 3.13124 2.82882
# Velocity P-wave (km/s) = 4.61665 7.11372 5.99660
#
# Compressibility (1/GPa) = 0.04411932
#
# Stress axis : x y z
#
# Youngs Moduli (GPa) = 35.64605 40.22700 17.80269
#
# Poissons Ratio (x) = 0.81094 0.00300
# Poissons Ratio (y) = 0.71859 0.21639
# Poissons Ratio (z) = 0.00601 0.48895
#
# Static dielectric constant tensor:
#      x y z
#    x 1.606250 0.000000 -0.015830 
#    y 0.000000 1.564770 0.000000 
#    z -0.015830 0.000000 1.602000 
# 
# From -- ./inp_files/69311.got.cif
#   From: 2010.05.17/outbox.cif.g08.bks.cpg/sg10_35_cif.got.tgz:69311.got - 2010.06.03 11:33:40.
