data_PCOD9145073
_publ_section_title
;
Structure prediction by ZEFSAII (Michael W. Deem and Ramdas Pophale) SiO2 
 PCOD9145073
Probable space group: P 2/M
;
_chemical_formula_sum "Si O2"
_cell_formula_units_Z 32
_cell_length_a 14.742428
_cell_length_b 7.497830
_cell_length_c 20.231249
_cell_angle_alpha 90.000000
_cell_angle_beta 46.679872
_cell_angle_gamma 90.000000
_cell_volume 1626.968977
_symmetry_space_group_name_H-M "P 2/M"
_symmetry_group_IT_number 10
_symmetry_cell_setting 'monoclinic'
loop_
_space_group_symop_operation_xyz
x,y,z
-x,y,-z
-x,-y,-z
x,-y,z
loop_
_atom_site_type_symbol
_atom_site_label
_atom_site_fract_x
_atom_site_fract_y
_atom_site_fract_z
Si Si1 0.477457 0.283330 0.693138
Si Si2 0.476530 0.284619 0.840238
Si Si3 0.232688 0.283910 0.303851
Si Si4 0.875436 0.205254 0.781833
Si Si5 0.151084 0.707287 0.631331
Si Si6 0.229919 0.716811 0.451802
Si Si7 0.379296 0.282055 0.603779
Si Si8 0.625305 0.791836 0.970106
O O1 0.473039 0.500000 0.695698
O O2 0.437930 0.224560 0.786150
O O3 0.623813 0.238562 0.612248
O O4 0.400719 0.220755 0.668193
O O5 0.474386 0.500000 0.842391
O O6 0.621695 0.231952 0.777659
O O7 0.393916 0.219658 0.942062
O O8 0.227363 0.500000 0.304951
O O9 0.155022 0.217294 0.280810
O O10 0.191314 0.223305 0.397671
O O11 0.754960 0.285853 0.878941
O O12 0.010631 0.285114 0.726751
O O13 0.885992 0.000000 0.796568
O O14 0.186053 0.500000 0.606411
O O15 0.160223 0.782042 0.552107
O O16 0.254676 0.781689 0.629347
O O17 0.220357 0.500000 0.453657
O O18 0.500000 0.233389 0.500000
O O19 0.377005 0.500000 0.607378
O O20 0.628155 0.000000 0.948312
O O21 0.500000 0.712666 0.000000
#
# Coordination Sequence:
#
# PCOD9145073 Si02
#       8
#     4   4   4   4   4   4   4   4
#     4   8  13  24  44  76 108 125 148 192 243 284
#     4   9  17  28  49  78 102 121 149 200 250 284
#     4   9  17  30  48  71  98 128 160 194 234 284
#     4  11  23  36  48  65  95 132 164 203 248 287
#     4  10  19  31  50  75 100 130 166 199 231 279
#     4   8  14  26  45  71 102 130 157 191 231 278
#     4   9  14  24  48  79 104 127 158 196 235 279
#     4  10  20  35  52  68  90 125 167 205 244 292
#
# _framework density 19.668475000000001
#
# number of rings (size 3 to 8) (size 9 to 14) (size 15 to 20)
#    0.000    2.750    2.500    1.875    0.000    1.750 
#    0.000    3.125    0.000    2.625    0.000    5.250 
#    0.000    0.000    0.000    0.000    0.000    0.000 
#
# Total GULP energy -178484.684158 kJ/mol
# GULP energy per Si atom -5577.646380 kJ/mol
# Density = 1.962371 g / cm^3
# Si number density = 19.668475 Si / 1000 Ang^3
#
#
#
# Elastic Constant Matrix: (Units=GPa)
#
#
# Indices 1 2 3 4 5 6 
#
# 1 115.8881 -5.6310 70.0979 0.0000 3.2847 0.0000
# 2 -5.6310 46.3105 -4.3965 0.0000 -0.9314 0.0000
# 3 70.0979 -4.3965 115.9413 0.0000 4.0575 0.0000
# 4 0.0000 0.0000 0.0000 22.1680 0.0000 24.6577
# 5 3.2847 -0.9314 4.0575 0.0000 23.5885 0.0000
# 6 0.0000 0.0000 0.0000 24.6577 0.0000 -88.4143
#
#
#
# Elastic Compliance Matrix: (Units=1/GPa)
#
#
# Indices 1 2 3 4 5 6 
#
# 1 0.013645 0.000871 -0.008200 0.000000 -0.000455 0.000000
# 2 0.000871 0.021739 0.000273 0.000000 0.000690 0.000000
# 3 -0.008200 0.000273 0.013635 0.000000 -0.001193 0.000000
# 4 0.000000 0.000000 0.000000 0.034430 0.000000 0.009602
# 5 -0.000455 0.000690 -0.001193 0.000000 0.042689 0.000000
# 6 0.000000 0.000000 0.000000 0.009602 0.000000 -0.008632
#
#
# Mechanical properties :
#
#
# Convention : Reuss Voigt Hill
#
# Bulk Modulus (GPa) = 28.64724 44.25343 36.45033
# Shear Modulus (GPa) = 34.90336 6.00639 20.45487
#
# Velocity S-wave (km/s) = 4.21715 1.74941 3.22837
# Velocity P-wave (km/s) = 6.18944 5.16034 5.69817
#
# Compressibility (1/GPa) = 0.03490738
#
# Stress axis : x y z
#
# Youngs Moduli (GPa) = 73.28946 45.99994 73.33979
#
# Poissons Ratio (x) = -0.04008 0.60142
# Poissons Ratio (y) = -0.06386 -0.02005
# Poissons Ratio (z) = 0.60101 -0.01257
#
# Static dielectric constant tensor:
#      x y z
#    x 1.686080 0.000000 0.017500 
#    y 0.000000 1.752130 0.000000 
#    z 0.017500 0.000000 1.693630 
# 
# From -- ./inp_files/66000.got.cif
#   From: 2010.05.17/outbox.cif.g08.bks.cpg/sg10_33_cif.got.tgz:66000.got - 2010.06.03 11:33:40.
