data_PCOD9145972
_publ_section_title
;
Structure prediction by ZEFSAII (Michael W. Deem and Ramdas Pophale) SiO2 
 PCOD9145972
Probable space group: P 2/M
;
_chemical_formula_sum "Si O2"
_cell_formula_units_Z 24
_cell_length_a 13.143178
_cell_length_b 12.756006
_cell_length_c 10.366701
_cell_angle_alpha 90.000000
_cell_angle_beta 32.995945
_cell_angle_gamma 90.000000
_cell_volume 946.492350
_symmetry_space_group_name_H-M "P 2/M"
_symmetry_group_IT_number 10
_symmetry_cell_setting 'monoclinic'
loop_
_space_group_symop_operation_xyz
x,y,z
-x,y,-z
-x,-y,-z
x,-y,z
loop_
_atom_site_type_symbol
_atom_site_label
_atom_site_fract_x
_atom_site_fract_y
_atom_site_fract_z
Si Si1 0.173079 0.384881 0.573704
Si Si2 0.700908 0.836938 0.244988
Si Si3 0.064797 0.837394 0.747193
Si Si4 0.214593 0.886642 0.314924
Si Si5 0.699853 0.657999 0.836483
Si Si6 0.604798 0.382789 0.215612
O O1 0.111350 0.500000 0.678463
O O2 0.057162 0.288647 0.749348
O O3 0.169591 0.374174 0.421231
O O4 0.387786 0.370752 0.397312
O O5 0.500000 0.880719 0.500000
O O6 0.822647 0.856433 0.242779
O O7 0.657889 0.716137 0.247505
O O8 0.850303 0.876584 0.978227
O O9 0.191868 0.873565 0.493031
O O10 0.306396 0.784550 0.156484
O O11 0.000000 0.883301 0.500000
O O12 0.293498 0.000000 0.196794
O O13 0.500000 0.618332 0.000000
O O14 0.723281 0.621119 0.956540
O O15 0.626102 0.500000 0.249124
#
# Coordination Sequence:
#
# PCOD9145972 Si02
#       6
#     4   4   4   4   4   4
#     4   9  17  32  54  84 120 159 200 245 295 351
#     4  11  22  38  59  82 117 167 205 244 286 345
#     4  10  22  39  60  87 117 159 199 248 301 351
#     4  10  21  40  65  91 118 147 189 249 315 371
#     4   9  18  33  57  88 121 156 193 242 300 359
#     4  10  19  32  54  87 126 165 203 243 285 341
#
# _framework density 25.356781999999999
#
# number of rings (size 3 to 8) (size 9 to 14) (size 15 to 20)
#    0.000    2.167    1.667    1.500    0.000    4.000 
#    0.000    3.333    0.000    7.500    0.000    0.000 
#    0.000    0.000    0.000    0.000    0.000    0.000 
#
# Total GULP energy -134097.761162 kJ/mol
# GULP energy per Si atom -5587.406715 kJ/mol
# Density = 2.529907 g / cm^3
# Si number density = 25.356782 Si / 1000 Ang^3
#
#
#
# Elastic Constant Matrix: (Units=GPa)
#
#
# Indices 1 2 3 4 5 6 
#
# 1 78.1216 -3.5140 8.3374 0.0000 -5.7289 0.0000
# 2 -3.5140 160.6444 4.2535 0.0000 -6.4400 0.0000
# 3 8.3374 4.2535 106.9938 0.0000 -19.4318 0.0000
# 4 0.0000 0.0000 0.0000 -30.9152 0.0000 24.9196
# 5 -5.7289 -6.4400 -19.4318 0.0000 41.3089 0.0000
# 6 0.0000 0.0000 0.0000 24.9196 0.0000 -75.8782
#
#
#
# Elastic Compliance Matrix: (Units=1/GPa)
#
#
# Indices 1 2 3 4 5 6 
#
# 1 0.013008 0.000365 -0.000755 0.000000 0.001506 0.000000
# 2 0.000365 0.006275 -0.000100 0.000000 0.000982 0.000000
# 3 -0.000755 -0.000100 0.010264 0.000000 0.004708 0.000000
# 4 0.000000 0.000000 0.000000 -0.043992 0.000000 -0.014448
# 5 0.001506 0.000982 0.004708 0.000000 0.026785 0.000000
# 6 0.000000 0.000000 0.000000 -0.014448 0.000000 -0.017924
#
#
# Mechanical properties :
#
#
# Convention : Reuss Voigt Hill
#
# Bulk Modulus (GPa) = 35.00363 40.43481 37.71922
# Shear Modulus (GPa) = 1016.95733 9.34862 513.15298
#
# Velocity S-wave (km/s) = 20.04819 1.92220 14.24122
# Velocity P-wave (km/s) = 23.44656 4.57246 16.89154
#
# Compressibility (1/GPa) = 0.02856847
#
# Stress axis : x y z
#
# Youngs Moduli (GPa) = 76.87611 159.36472 97.42630
#
# Poissons Ratio (x) = -0.05815 0.07352
# Poissons Ratio (y) = -0.02805 0.00970
# Poissons Ratio (z) = 0.05801 0.01586
#
# Static dielectric constant tensor:
#      x y z
#    x 1.985170 0.000000 0.005040 
#    y 0.000000 2.005510 0.000000 
#    z 0.005040 0.000000 2.135180 
# 
# From -- ./inp_files/51534.got.cif
#   From: 2010.05.17/outbox.cif.g08.bks.cpg/sg10_26_cif.got.tgz:51534.got - 2010.06.03 11:33:40.
