data_PCOD9145294
_publ_section_title
;
Structure prediction by ZEFSAII (Michael W. Deem and Ramdas Pophale) SiO2 
 PCOD9145294
Probable space group: P 2/M
;
_chemical_formula_sum "Si O2"
_cell_formula_units_Z 28
_cell_length_a 19.266046
_cell_length_b 8.657031
_cell_length_c 15.721251
_cell_angle_alpha 90.000000
_cell_angle_beta 141.884373
_cell_angle_gamma 90.000000
_cell_volume 1618.490317
_symmetry_space_group_name_H-M "P 2/M"
_symmetry_group_IT_number 10
_symmetry_cell_setting 'monoclinic'
loop_
_space_group_symop_operation_xyz
x,y,z
-x,y,-z
-x,-y,-z
x,-y,z
loop_
_atom_site_type_symbol
_atom_site_label
_atom_site_fract_x
_atom_site_fract_y
_atom_site_fract_z
Si Si1 0.155495 0.185445 0.820986
Si Si2 0.500518 0.814995 0.400694
Si Si3 0.905570 0.683511 0.600886
Si Si4 0.721976 0.314552 0.901528
Si Si5 0.134712 0.177390 0.613989
Si Si6 0.873248 0.687923 0.891100
Si Si7 0.740031 0.312986 0.593737
O O1 0.181761 0.236993 0.749235
O O2 0.029438 0.241376 0.723138
O O3 0.154688 0.000000 0.819186
O O4 0.242985 0.247615 0.973892
O O5 0.500000 0.765728 0.500000
O O6 0.395686 0.743164 0.249625
O O7 0.617219 0.760066 0.472133
O O8 0.492133 0.000000 0.390514
O O9 0.921381 0.500000 0.622284
O O10 0.849916 0.726495 0.456728
O O11 0.824129 0.732685 0.598967
O O12 0.721624 0.500000 0.905041
O O13 0.817121 0.263915 0.925132
O O14 0.000000 0.174497 0.500000
O O15 0.170755 0.000000 0.634606
O O16 0.876356 0.500000 0.894564
O O17 0.796313 0.733466 0.737499
O O18 0.000000 0.743282 0.000000
O O19 0.730121 0.500000 0.582845
#
# Coordination Sequence:
#
# PCOD9145294 Si02
#       7
#     4   4   4   4   4   4   4
#     4  10  20  34  52  77 112 146 175 212 263 320
#     4  11  23  38  55  75 103 137 180 224 263 310
#     4  10  19  31  53  83 110 138 176 221 262 308
#     4  11  21  34  56  78 102 138 179 222 263 305
#     4   8  16  31  50  73 106 146 176 206 258 320
#     4   9  17  30  49  74 104 135 166 204 254 310
#     4  10  20  35  54  76 105 139 178 218 261 311
#
# _framework density 17.300072
#
# number of rings (size 3 to 8) (size 9 to 14) (size 15 to 20)
#    0.000    2.143    1.429    3.429    0.000    7.143 
#    0.000    0.000    0.000    3.000    0.000    6.000 
#    0.000    0.000    0.000    0.000    0.000    0.000 
#
# Total GULP energy -156216.663221 kJ/mol
# GULP energy per Si atom -5579.166544 kJ/mol
# Density = 1.726070 g / cm^3
# Si number density = 17.300072 Si / 1000 Ang^3
#
#
#
# Elastic Constant Matrix: (Units=GPa)
#
#
# Indices 1 2 3 4 5 6 
#
# 1 19.8788 8.2308 22.3263 0.0000 -12.0508 0.0000
# 2 8.2308 31.1271 20.8531 0.0000 -4.6488 0.0000
# 3 22.3263 20.8531 124.6026 0.0000 -13.9897 0.0000
# 4 0.0000 0.0000 0.0000 25.1387 0.0000 -4.3675
# 5 -12.0508 -4.6488 -13.9897 0.0000 33.3635 0.0000
# 6 0.0000 0.0000 0.0000 -4.3675 0.0000 12.0607
#
#
#
# Elastic Compliance Matrix: (Units=1/GPa)
#
#
# Indices 1 2 3 4 5 6 
#
# 1 0.080082 -0.011083 -0.009886 0.000000 0.023236 0.000000
# 2 -0.011083 0.037938 -0.004428 0.000000 -0.000574 0.000000
# 3 -0.009886 -0.004428 0.010565 0.000000 0.000242 0.000000
# 4 0.000000 0.000000 0.000000 0.042450 0.000000 0.015372
# 5 0.023236 -0.000574 0.000242 0.000000 0.038387 0.000000
# 6 0.000000 0.000000 0.000000 0.015372 0.000000 0.088481
#
#
# Mechanical properties :
#
#
# Convention : Reuss Voigt Hill
#
# Bulk Modulus (GPa) = 12.85468 30.93654 21.89561
# Shear Modulus (GPa) = 13.34662 22.39245 17.86954
#
# Velocity S-wave (km/s) = 2.78056 3.60162 3.21739
# Velocity P-wave (km/s) = 4.21370 5.93436 5.14645
#
# Compressibility (1/GPa) = 0.07779269
#
# Stress axis : x y z
#
# Youngs Moduli (GPa) = 12.48713 26.35909 94.65179
#
# Poissons Ratio (x) = 0.29214 0.93569
# Poissons Ratio (y) = 0.13839 0.41908
# Poissons Ratio (z) = 0.12344 0.11671
#
# Static dielectric constant tensor:
#      x y z
#    x 1.579960 0.000000 -0.022370 
#    y 0.000000 1.584900 0.000000 
#    z -0.022370 0.000000 1.581250 
# 
# From -- ./inp_files/68705.got.cif
#   From: 2010.05.17/outbox.cif.g08.bks.cpg/sg10_35_cif.got.tgz:68705.got - 2010.06.03 11:33:40.
