data_PCOD9145890
_publ_section_title
;
Structure prediction by ZEFSAII (Michael W. Deem and Ramdas Pophale) SiO2 
 PCOD9145890
Probable space group: P 2/M
;
_chemical_formula_sum "Si O2"
_cell_formula_units_Z 32
_cell_length_a 14.771798
_cell_length_b 8.792363
_cell_length_c 10.672958
_cell_angle_alpha 90.000000
_cell_angle_beta 102.807866
_cell_angle_gamma 90.000000
_cell_volume 1351.703249
_symmetry_space_group_name_H-M "P 2/M"
_symmetry_group_IT_number 10
_symmetry_cell_setting 'monoclinic'
loop_
_space_group_symop_operation_xyz
x,y,z
-x,y,-z
-x,-y,-z
x,-y,z
loop_
_atom_site_type_symbol
_atom_site_label
_atom_site_fract_x
_atom_site_fract_y
_atom_site_fract_z
Si Si1 0.369792 0.823866 0.550588
Si Si2 0.852719 0.179316 0.760942
Si Si3 0.130209 0.823866 0.949414
Si Si4 0.647281 0.820684 0.739057
Si Si5 0.978754 0.679644 0.309424
Si Si6 0.695595 0.323787 0.099204
Si Si7 0.804404 0.676213 0.400794
Si Si8 0.521245 0.679643 0.190575
O O1 0.396010 0.807045 0.413724
O O2 0.261167 0.779962 0.534170
O O3 0.425943 0.719866 0.663521
O O4 0.383529 0.000000 0.590911
O O5 0.750000 0.244918 0.749999
O O6 0.919360 0.253915 0.679942
O O7 0.844454 0.000000 0.730378
O O8 0.896010 0.192957 0.913723
O O9 0.074058 0.719867 0.836479
O O10 0.238834 0.779961 0.965832
O O11 0.116472 0.000000 0.909092
O O12 0.580640 0.746085 0.820057
O O13 0.655546 0.000000 0.769622
O O14 0.985112 0.500000 0.326641
O O15 0.907459 0.732566 0.395784
O O16 0.692484 0.500000 0.054376
O O17 0.750000 0.326572 0.249999
O O18 0.592541 0.267433 0.104215
O O19 0.807514 0.500000 0.445622
O O20 0.514888 0.500000 0.173357
#
# Coordination Sequence:
#
# PCOD9145890 Si02
#       8
#     4   4   4   4   4   4   4   4
#     4  10  19  32  54  80 102 131 170 208 251 300
#     4  10  22  38  52  71 103 138 172 211 251 295
#     4  10  19  32  54  80 102 131 170 208 251 300
#     4  10  22  38  52  71 103 138 172 211 251 295
#     4  10  20  34  54  79 104 132 167 207 253 303
#     4   8  16  31  50  75 105 131 161 206 253 297
#     4   8  16  31  50  75 105 131 161 206 253 297
#     4  10  20  34  54  79 104 132 167 207 253 303
#
# _framework density 23.673833999999999
#
# number of rings (size 3 to 8) (size 9 to 14) (size 15 to 20)
#    0.000    2.500    0.000    3.750    0.000   11.000 
#    0.000    1.250    0.000    7.500    0.000    0.000 
#    0.000    0.000    0.000    0.000    0.000    0.000 
#
# Total GULP energy -178922.793555 kJ/mol
# GULP energy per Si atom -5591.337299 kJ/mol
# Density = 2.361995 g / cm^3
# Si number density = 23.673834 Si / 1000 Ang^3
#
#
#
# Elastic Constant Matrix: (Units=GPa)
#
#
# Indices 1 2 3 4 5 6 
#
# 1 196.4875 26.6722 26.2210 0.0000 -22.3452 0.0000
# 2 26.6722 26.6576 16.5576 0.0000 -20.9252 0.0000
# 3 26.2210 16.5576 63.1993 0.0000 -13.0529 0.0000
# 4 0.0000 0.0000 0.0000 -27.4167 0.0000 11.2661
# 5 -22.3452 -20.9252 -13.0529 0.0000 47.7085 0.0000
# 6 0.0000 0.0000 0.0000 11.2661 0.0000 40.9765
#
#
#
# Elastic Compliance Matrix: (Units=1/GPa)
#
#
# Indices 1 2 3 4 5 6 
#
# 1 0.005953 -0.005073 -0.001086 0.000000 0.000266 0.000000
# 2 -0.005073 0.068790 -0.010786 0.000000 0.024845 0.000000
# 3 -0.001086 -0.010786 0.019096 0.000000 -0.000015 0.000000
# 4 0.000000 0.000000 0.000000 -0.032772 0.000000 0.009010
# 5 0.000266 0.024845 -0.000015 0.000000 0.031978 0.000000
# 6 0.000000 0.000000 0.000000 0.009010 0.000000 0.021927
#
#
# Mechanical properties :
#
#
# Convention : Reuss Voigt Hill
#
# Bulk Modulus (GPa) = 16.68081 47.24958 31.96520
# Shear Modulus (GPa) = 29.61261 26.71324 28.16293
#
# Velocity S-wave (km/s) = 3.54058 3.36279 3.45283
# Velocity P-wave (km/s) = 4.87603 5.92281 5.42473
#
# Compressibility (1/GPa) = 0.05994913
#
# Stress axis : x y z
#
# Youngs Moduli (GPa) = 167.97674 14.53694 52.36605
#
# Poissons Ratio (x) = 0.07375 0.05686
# Poissons Ratio (y) = 0.85217 0.56484
# Poissons Ratio (z) = 0.18240 0.15680
#
# Static dielectric constant tensor:
#      x y z
#    x 1.984250 0.000000 0.081690 
#    y 0.000000 1.786640 0.000000 
#    z 0.081690 0.000000 1.961140 
# 
# From -- ./inp_files/66197.got.cif
#   From: 2010.05.17/outbox.cif.g08.bks.cpg/sg10_34_cif.got.tgz:66197.got - 2010.06.03 11:33:40.
