data_PCOD9145781
_publ_section_title
;
Structure prediction by ZEFSAII (Michael W. Deem and Ramdas Pophale) SiO2 
 PCOD9145781
Probable space group: P 2/M
;
_chemical_formula_sum "Si O2"
_cell_formula_units_Z 32
_cell_length_a 12.594598
_cell_length_b 7.501963
_cell_length_c 19.589321
_cell_angle_alpha 90.000000
_cell_angle_beta 41.545268
_cell_angle_gamma 90.000000
_cell_volume 1227.526020
_symmetry_space_group_name_H-M "P 2/M"
_symmetry_group_IT_number 10
_symmetry_cell_setting 'monoclinic'
loop_
_space_group_symop_operation_xyz
x,y,z
-x,y,-z
-x,-y,-z
x,-y,z
loop_
_atom_site_type_symbol
_atom_site_label
_atom_site_fract_x
_atom_site_fract_y
_atom_site_fract_z
Si Si1 0.596664 0.782433 0.386890
Si Si2 0.799212 0.203254 0.903919
Si Si3 0.095622 0.780614 0.684703
Si Si4 0.192605 0.704535 0.340382
Si Si5 0.052574 0.290230 0.896516
Si Si6 0.590779 0.797001 0.247600
Si Si7 0.470812 0.788111 0.872407
Si Si8 0.166333 0.799444 0.504470
O O1 0.500000 0.727720 0.500000
O O2 0.779112 0.730259 0.316816
O O3 0.521991 0.717811 0.351215
O O4 0.590896 0.000000 0.386862
O O5 0.920279 0.205078 0.910779
O O6 0.916041 0.281291 0.789368
O O7 0.763738 0.000000 0.899336
O O8 0.635414 0.283722 0.013663
O O9 0.169564 0.716343 0.577969
O O10 0.090985 0.000000 0.684870
O O11 0.156025 0.500000 0.344912
O O12 0.338688 0.762816 0.222372
O O13 0.027305 0.806794 0.411835
O O14 0.235081 0.722211 0.400797
O O15 0.065281 0.500000 0.873614
O O16 0.225041 0.200021 0.817464
O O17 0.000000 0.278098 0.000000
O O18 0.581148 0.712847 0.177156
O O19 0.534544 0.000000 0.265242
O O20 0.437607 0.000000 0.889149
O O21 0.227846 0.000000 0.480775
#
# Coordination Sequence:
#
# PCOD9145781 Si02
#       8
#     4   4   4   4   4   4   4   4
#     4   9  17  28  48  80 115 144 178 227 274 320
#     4  10  19  35  56  80 110 147 191 234 277 330
#     4   9  18  32  56  86 114 145 184 232 284 329
#     4  11  23  40  61  84 114 146 180 227 286 343
#     4  11  21  31  46  71 108 149 188 227 269 318
#     4  10  19  32  53  77 105 145 191 232 271 319
#     4  10  21  34  56  86 112 144 190 239 282 325
#     4  10  20  38  65  90 112 139 182 234 279 333
#
# _framework density 26.068691999999999
#
# number of rings (size 3 to 8) (size 9 to 14) (size 15 to 20)
#    0.000    2.000    2.500    2.625    1.750    1.500 
#    0.000    1.875    0.000    4.125    0.000    0.000 
#    0.000    0.000    0.000    0.000    0.000    0.000 
#
# Total GULP energy -178749.887815 kJ/mol
# GULP energy per Si atom -5585.933994 kJ/mol
# Density = 2.600936 g / cm^3
# Si number density = 26.068692 Si / 1000 Ang^3
#
#
#
# Elastic Constant Matrix: (Units=GPa)
#
#
# Indices 1 2 3 4 5 6 
#
# 1 60.5537 -8.7949 -2.0546 0.0000 -2.1866 0.0000
# 2 -8.7949 79.7983 13.2443 0.0000 8.7164 0.0000
# 3 -2.0546 13.2443 174.1471 0.0000 -23.5407 0.0000
# 4 0.0000 0.0000 0.0000 676.3608 0.0000 -616.7802
# 5 -2.1866 8.7164 -23.5407 0.0000 35.1243 0.0000
# 6 0.0000 0.0000 0.0000 -616.7802 0.0000 540.7454
#
#
#
# Elastic Compliance Matrix: (Units=1/GPa)
#
#
# Indices 1 2 3 4 5 6 
#
# 1 0.016799 0.001746 0.000163 0.000000 0.000722 0.000000
# 2 0.001746 0.013455 -0.001583 0.000000 -0.004291 0.000000
# 3 0.000163 -0.001583 0.006509 0.000000 0.004765 0.000000
# 4 0.000000 0.000000 0.000000 -0.036839 0.000000 -0.042018
# 5 0.000722 -0.004291 0.004765 0.000000 0.032774 0.000000
# 6 0.000000 0.000000 0.000000 -0.042018 0.000000 -0.046077
#
#
# Mechanical properties :
#
#
# Convention : Reuss Voigt Hill
#
# Bulk Modulus (GPa) = 26.72709 35.47652 31.10181
# Shear Modulus (GPa) = -3208.02923 271.25306 -1468.38808
#
# Velocity S-wave (km/s) = -35.11805 10.21171 -23.75919
# Velocity P-wave (km/s) = 40.42395 12.35626 27.21597
#
# Compressibility (1/GPa) = 0.03741522
#
# Stress axis : x y z
#
# Youngs Moduli (GPa) = 59.52596 74.31946 153.64025
#
# Poissons Ratio (x) = -0.12973 -0.02505
# Poissons Ratio (y) = -0.10391 0.24318
# Poissons Ratio (z) = -0.00970 0.11763
#
# Static dielectric constant tensor:
#      x y z
#    x 2.082870 0.000000 -0.012270 
#    y 0.000000 1.964600 0.000000 
#    z -0.012270 0.000000 2.184700 
# 
# From -- ./inp_files/84728.got.cif
#   From: 2010.05.17/outbox.cif.g08.bks.cpg/sg10_43_cif.got.tgz:84728.got - 2010.06.03 11:33:40.
