data_PCOD9145061
_publ_section_title
;
Structure prediction by ZEFSAII (Michael W. Deem and Ramdas Pophale) SiO2 
 PCOD9145061
Probable space group: P 2/M
;
_chemical_formula_sum "Si O2"
_cell_formula_units_Z 22
_cell_length_a 7.165469
_cell_length_b 25.799163
_cell_length_c 5.348517
_cell_angle_alpha 90.000000
_cell_angle_beta 78.500522
_cell_angle_gamma 90.000000
_cell_volume 968.895927
_symmetry_space_group_name_H-M "P 2/M"
_symmetry_group_IT_number 10
_symmetry_cell_setting 'monoclinic'
loop_
_space_group_symop_operation_xyz
x,y,z
-x,y,-z
-x,-y,-z
x,-y,z
loop_
_atom_site_type_symbol
_atom_site_label
_atom_site_fract_x
_atom_site_fract_y
_atom_site_fract_z
Si Si1 0.771445 0.440961 0.517706
Si Si2 0.869310 0.000000 0.284066
Si Si3 0.724497 0.224119 0.430765
Si Si4 0.782657 0.602950 0.013673
Si Si5 0.731757 0.721508 0.932533
Si Si6 0.871619 0.112241 0.285425
O O1 0.736589 0.500000 0.448686
O O2 0.702176 0.403503 0.314369
O O3 0.000000 0.434388 0.500000
O O4 0.692535 0.429696 0.814054
O O5 0.767662 0.056038 0.302882
O O6 0.000000 0.000000 0.500000
O O7 0.000000 0.000000 0.000000
O O8 0.500000 0.234141 0.500000
O O9 0.797389 0.243832 0.679789
O O10 0.751757 0.163919 0.357481
O O11 0.802668 0.256283 0.176832
O O12 0.785426 0.661426 0.910720
O O13 0.000000 0.585000 0.000000
O O14 0.500000 0.723522 0.000000
O O15 0.000000 0.110242 0.500000
O O16 0.000000 0.117117 0.000000
#
# Coordination Sequence:
#
# PCOD9145061 Si02
#       6
#     4   2   4   4   4   4
#     4   9  17  30  49  73  99 125 155 197 250 298
#     4   8  16  30  49  74 105 134 164 204 256 308
#     4  10  21  36  52  73 102 137 174 210 254 306
#     4  10  19  31  50  74  96 123 163 206 242 290
#     4  10  21  36  52  70 100 138 168 203 255 305
#     4  10  19  33  54  79 104 135 172 212 255 300
#
# _framework density 22.70626
#
# number of rings (size 3 to 8) (size 9 to 14) (size 15 to 20)
#    0.000    2.364    0.000    2.727    0.000    4.364 
#    0.000    0.455    0.000    3.273    0.000   11.455 
#    0.000    0.000    0.000    0.000    0.000    0.000 
#
# Total GULP energy -122777.554501 kJ/mol
# GULP energy per Si atom -5580.797932 kJ/mol
# Density = 2.265458 g / cm^3
# Si number density = 22.706260 Si / 1000 Ang^3
#
#
#
# Elastic Constant Matrix: (Units=GPa)
#
#
# Indices 1 2 3 4 5 6 
#
# 1 51.9107 -23.5323 27.0595 0.0000 3.0084 0.0000
# 2 -23.5323 92.3381 34.0530 0.0000 14.1759 0.0000
# 3 27.0595 34.0530 176.4184 0.0000 22.8394 0.0000
# 4 0.0000 0.0000 0.0000 49.8614 0.0000 -12.6138
# 5 3.0084 14.1759 22.8394 0.0000 24.1739 0.0000
# 6 0.0000 0.0000 0.0000 -12.6138 0.0000 54.5523
#
#
#
# Elastic Compliance Matrix: (Units=1/GPa)
#
#
# Indices 1 2 3 4 5 6 
#
# 1 0.026501 0.009303 -0.005386 0.000000 -0.003664 0.000000
# 2 0.009303 0.015570 -0.003532 0.000000 -0.006951 0.000000
# 3 -0.005386 -0.003532 0.007772 0.000000 -0.004601 0.000000
# 4 0.000000 0.000000 0.000000 0.021302 0.000000 0.004925
# 5 -0.003664 -0.006951 -0.004601 0.000000 0.050246 0.000000
# 6 0.000000 0.000000 0.000000 0.004925 0.000000 0.019470
#
#
# Mechanical properties :
#
#
# Convention : Reuss Voigt Hill
#
# Bulk Modulus (GPa) = 19.75835 43.98085 31.86960
# Shear Modulus (GPa) = 31.85463 44.58999 38.22231
#
# Velocity S-wave (km/s) = 3.74959 4.43626 4.10730
# Velocity P-wave (km/s) = 5.24085 6.75663 6.04643
#
# Compressibility (1/GPa) = 0.05061151
#
# Stress axis : x y z
#
# Youngs Moduli (GPa) = 37.73464 64.22463 128.66737
#
# Poissons Ratio (x) = -0.59745 0.69300
# Poissons Ratio (y) = -0.35103 0.45451
# Poissons Ratio (z) = 0.20324 0.22687
#
# Static dielectric constant tensor:
#      x y z
#    x 1.878440 0.000000 -0.049200 
#    y 0.000000 1.850040 0.000000 
#    z -0.049200 0.000000 1.894640 
# 
# From -- ./inp_files/5136.got.cif
#   From: 2010.05.17/outbox.cif.g08.bks.cpg/sg10_3_cif.got.tgz:5136.got - 2010.06.03 11:33:40.
