data_PCOD9145584
_publ_section_title
;
Structure prediction by ZEFSAII (Michael W. Deem and Ramdas Pophale) SiO2 
 PCOD9145584
Probable space group: P 2/M
;
_chemical_formula_sum "Si O2"
_cell_formula_units_Z 28
_cell_length_a 7.106753
_cell_length_b 33.926427
_cell_length_c 5.372465
_cell_angle_alpha 90.000000
_cell_angle_beta 102.891477
_cell_angle_gamma 90.000000
_cell_volume 1262.687737
_symmetry_space_group_name_H-M "P 2/M"
_symmetry_group_IT_number 10
_symmetry_cell_setting 'monoclinic'
loop_
_space_group_symop_operation_xyz
x,y,z
-x,y,-z
-x,-y,-z
x,-y,z
loop_
_atom_site_type_symbol
_atom_site_label
_atom_site_fract_x
_atom_site_fract_y
_atom_site_fract_z
Si Si1 0.128715 0.829765 0.289484
Si Si2 0.714379 0.544454 0.940963
Si Si3 0.726824 0.744062 0.561852
Si Si4 0.177914 0.381232 0.737249
Si Si5 0.132577 0.000000 0.289219
Si Si6 0.500000 0.590949 0.500000
Si Si7 0.132155 0.915056 0.288532
Si Si8 0.264552 0.702000 0.942279
O O1 0.245758 0.790021 0.368831
O O2 0.234967 0.872400 0.308696
O O3 0.000000 0.832107 0.500000
O O4 0.000000 0.825874 0.000000
O O5 0.787245 0.500000 0.958962
O O6 0.665377 0.562725 0.659419
O O7 0.500000 0.543251 0.000000
O O8 0.832842 0.577059 0.124641
O O9 0.500000 0.736256 0.500000
O O10 0.797428 0.728487 0.314941
O O11 0.804022 0.720056 0.819034
O O12 0.385693 0.382658 0.660224
O O13 0.191856 0.342612 0.906190
O O14 0.000000 0.377302 0.500000
O O15 0.000000 0.000000 0.500000
O O16 0.238246 0.042493 0.319612
O O17 0.000000 0.000000 0.000000
O O18 0.000000 0.915235 0.500000
O O19 0.000000 0.915047 0.000000
O O20 0.500000 0.701814 0.000000
#
# Coordination Sequence:
#
# PCOD9145584 Si02
#       8
#     4   4   4   4   2   2   4   4
#     4  10  19  32  51  76 108 138 178 227 281 329
#     4   9  19  38  63  90 119 155 194 233 285 343
#     4  10  22  38  59  79 108 145 184 227 280 336
#     4  11  25  40  61  91 119 152 194 238 291 351
#     4   8  12  20  34  56  89 126 169 208 262 320
#     4  10  21  40  66  84 122 156 190 238 286 335
#     4   8  14  23  38  62  93 131 167 216 267 321
#     4  10  22  40  62  82 111 150 187 235 283 336
#
# _framework density 22.17492
#
# number of rings (size 3 to 8) (size 9 to 14) (size 15 to 20)
#    0.000    2.429    0.000    2.357    5.000    3.143 
#    0.000    0.714    0.000    0.000    0.000    0.500 
#    0.000    0.000    0.000   38.429    0.000    1.429 
#
# Total GULP energy -156241.219442 kJ/mol
# GULP energy per Si atom -5580.043552 kJ/mol
# Density = 2.212445 g / cm^3
# Si number density = 22.174920 Si / 1000 Ang^3
#
#
#
# Elastic Constant Matrix: (Units=GPa)
#
#
# Indices 1 2 3 4 5 6 
#
# 1 58.5874 17.3932 29.0011 0.0000 -6.8489 0.0000
# 2 17.3932 204.1364 59.4174 0.0000 -0.5152 0.0000
# 3 29.0011 59.4174 140.7551 0.0000 -11.5651 0.0000
# 4 0.0000 0.0000 0.0000 5.8234 0.0000 1.1710
# 5 -6.8489 -0.5152 -11.5651 0.0000 31.1476 0.0000
# 6 0.0000 0.0000 0.0000 1.1710 0.0000 0.9356
#
#
#
# Elastic Compliance Matrix: (Units=1/GPa)
#
#
# Indices 1 2 3 4 5 6 
#
# 1 0.019319 -0.000628 -0.003473 0.000000 0.002948 0.000000
# 2 -0.000628 0.005625 -0.002320 0.000000 -0.000906 0.000000
# 3 -0.003473 -0.002320 0.009008 0.000000 0.002543 0.000000
# 4 0.000000 0.000000 0.000000 0.229473 0.000000 -0.287198
# 5 0.002948 -0.000906 0.002543 0.000000 0.033683 0.000000
# 6 0.000000 0.000000 0.000000 -0.287198 0.000000 1.428232
#
#
# Mechanical properties :
#
#
# Convention : Reuss Voigt Hill
#
# Bulk Modulus (GPa) = 47.36875 68.34471 57.85673
# Shear Modulus (GPa) = 2.86497 27.42579 15.14538
#
# Velocity S-wave (km/s) = 1.13789 3.52062 2.61625
# Velocity P-wave (km/s) = 4.80980 6.88578 5.93920
#
# Compressibility (1/GPa) = 0.02111096
#
# Stress axis : x y z
#
# Youngs Moduli (GPa) = 51.76321 177.77602 111.00878
#
# Poissons Ratio (x) = 0.11158 0.38556
# Poissons Ratio (y) = 0.03249 0.25750
# Poissons Ratio (z) = 0.17979 0.41238
#
# Static dielectric constant tensor:
#      x y z
#    x 1.944600 0.000000 -0.003140 
#    y 0.000000 1.856660 0.000000 
#    z -0.003140 0.000000 1.855450 
# 
# From -- ./inp_files/5556.got.cif
#   From: 2010.05.17/outbox.cif.g08.bks.cpg/sg10_3_cif.got.tgz:5556.got - 2010.06.03 11:33:40.
