data_PCOD9145174
_publ_section_title
;
Structure prediction by ZEFSAII (Michael W. Deem and Ramdas Pophale) SiO2 
 PCOD9145174
Probable space group: P 2/M
;
_chemical_formula_sum "Si O2"
_cell_formula_units_Z 32
_cell_length_a 18.878099
_cell_length_b 11.587040
_cell_length_c 19.711723
_cell_angle_alpha 90.000000
_cell_angle_beta 21.992629
_cell_angle_gamma 90.000000
_cell_volume 1614.702280
_symmetry_space_group_name_H-M "P 2/M"
_symmetry_group_IT_number 10
_symmetry_cell_setting 'monoclinic'
loop_
_space_group_symop_operation_xyz
x,y,z
-x,y,-z
-x,-y,-z
x,-y,z
loop_
_atom_site_type_symbol
_atom_site_label
_atom_site_fract_x
_atom_site_fract_y
_atom_site_fract_z
Si Si1 0.168942 0.865237 0.499350
Si Si2 0.424468 0.632735 0.751694
Si Si3 0.976929 0.292686 0.942997
Si Si4 0.597291 0.799511 0.101480
Si Si5 0.625544 0.631545 0.446676
Si Si6 0.467899 0.371456 0.949177
Si Si7 0.103063 0.370131 0.481198
Si Si8 0.004316 0.127165 0.203034
O O1 0.393498 0.861096 0.282492
O O2 0.077606 0.752491 0.542741
O O3 0.126456 0.842256 0.616521
O O4 0.104888 0.000000 0.542299
O O5 0.459407 0.500000 0.738584
O O6 0.418891 0.704223 0.825002
O O7 0.581683 0.679903 0.559755
O O8 0.224254 0.646338 0.890245
O O9 0.994843 0.202578 0.865461
O O10 0.159817 0.370530 0.766798
O O11 0.000000 0.249798 0.000000
O O12 0.636110 0.730879 0.997218
O O13 0.781840 0.870935 0.957372
O O14 0.500000 0.690182 0.500000
O O15 0.555082 0.500000 0.516062
O O16 0.382485 0.500000 0.018034
O O17 0.673478 0.374397 0.732075
O O18 0.500000 0.349576 0.000000
O O19 0.054805 0.500000 0.553239
O O20 0.000000 0.363531 0.500000
O O21 0.947896 0.000000 0.231882
#
# Coordination Sequence:
#
# PCOD9145174 Si02
#       8
#     4   4   4   4   4   4   4   4
#     4  10  21  39  61  82 112 151 193 238 283 337
#     4  10  20  33  52  80 112 146 184 230 282 339
#     4  11  21  35  55  78 107 142 184 230 280 346
#     4  10  20  36  58  80 109 146 188 232 279 334
#     4  10  19  31  51  77 110 146 175 216 274 333
#     4   9  18  32  53  82 115 149 182 223 275 333
#     4   9  19  35  57  85 118 151 187 233 286 338
#     4  10  23  40  58  80 106 142 186 238 288 333
#
# _framework density 19.817893999999999
#
# number of rings (size 3 to 8) (size 9 to 14) (size 15 to 20)
#    0.000    2.125    1.250    1.875    1.750    1.500 
#    0.000    3.125    0.000    2.250    0.000    0.000 
#    0.000    0.000    0.000    0.000    0.000    0.000 
#
# Total GULP energy -178178.447031 kJ/mol
# GULP energy per Si atom -5568.076470 kJ/mol
# Density = 1.977279 g / cm^3
# Si number density = 19.817894 Si / 1000 Ang^3
#
#
#
# Elastic Constant Matrix: (Units=GPa)
#
#
# Indices 1 2 3 4 5 6 
#
# 1 70.1674 57.0978 12.2081 0.0000 12.9973 0.0000
# 2 57.0978 116.5044 14.9128 0.0000 18.3641 0.0000
# 3 12.2081 14.9128 72.4745 0.0000 9.5382 0.0000
# 4 0.0000 0.0000 0.0000 9.2394 0.0000 16.0133
# 5 12.9973 18.3641 9.5382 0.0000 33.7962 0.0000
# 6 0.0000 0.0000 0.0000 16.0133 0.0000 -10.5647
#
#
#
# Elastic Compliance Matrix: (Units=1/GPa)
#
#
# Indices 1 2 3 4 5 6 
#
# 1 0.024132 -0.011208 -0.001391 0.000000 -0.002798 0.000000
# 2 -0.011208 0.014714 -0.000680 0.000000 -0.003493 0.000000
# 3 -0.001391 -0.000680 0.014595 0.000000 -0.003215 0.000000
# 4 0.000000 0.000000 0.000000 0.029841 0.000000 0.045231
# 5 -0.002798 -0.003493 -0.003215 0.000000 0.033471 0.000000
# 6 0.000000 0.000000 0.000000 0.045231 0.000000 -0.026097
#
#
# Mechanical properties :
#
#
# Convention : Reuss Voigt Hill
#
# Bulk Modulus (GPa) = 37.19624 47.50929 42.35277
# Shear Modulus (GPa) = 39.62791 18.15600 28.89195
#
# Velocity S-wave (km/s) = 4.47654 3.03007 3.82235
# Velocity P-wave (km/s) = 6.74752 6.02218 6.39514
#
# Compressibility (1/GPa) = 0.02688444
#
# Stress axis : x y z
#
# Youngs Moduli (GPa) = 41.43846 67.96299 68.51560
#
# Poissons Ratio (x) = 0.76172 0.09527
# Poissons Ratio (y) = 0.46444 0.04659
# Poissons Ratio (z) = 0.05762 0.04621
#
# Static dielectric constant tensor:
#      x y z
#    x 1.722000 0.000000 -0.001030 
#    y 0.000000 1.718840 0.000000 
#    z -0.001030 0.000000 1.717030 
# 
# From -- ./inp_files/86253.got.cif
#   From: 2010.05.17/outbox.cif.g08.bks.cpg/sg10_44_cif.got.tgz:86253.got - 2010.06.03 11:33:40.
