data_PCOD9145473
_publ_section_title
;
Structure prediction by ZEFSAII (Michael W. Deem and Ramdas Pophale) SiO2 
 PCOD9145473
Probable space group: P 2/M
;
_chemical_formula_sum "Si O2"
_cell_formula_units_Z 32
_cell_length_a 16.101478
_cell_length_b 16.298638
_cell_length_c 13.843401
_cell_angle_alpha 90.000000
_cell_angle_beta 27.414635
_cell_angle_gamma 90.000000
_cell_volume 1672.708288
_symmetry_space_group_name_H-M "P 2/M"
_symmetry_group_IT_number 10
_symmetry_cell_setting 'monoclinic'
loop_
_space_group_symop_operation_xyz
x,y,z
-x,y,-z
-x,-y,-z
x,-y,z
loop_
_atom_site_type_symbol
_atom_site_label
_atom_site_fract_x
_atom_site_fract_y
_atom_site_fract_z
Si Si1 0.487391 0.097787 0.397275
Si Si2 0.293235 0.272448 0.211308
Si Si3 0.821161 0.137180 0.932902
Si Si4 0.704532 0.600323 0.304105
Si Si5 0.904557 0.093597 0.191813
Si Si6 0.209753 0.911165 0.252067
Si Si7 0.975371 0.301729 0.685040
Si Si8 0.008980 0.401745 0.838019
O O1 0.500000 0.106374 0.500000
O O2 0.638434 0.145682 0.182365
O O3 0.287097 0.128110 0.578692
O O4 0.512788 0.000000 0.348477
O O5 0.295258 0.173013 0.200804
O O6 0.180501 0.307071 0.235893
O O7 0.166211 0.292422 0.433520
O O8 0.500000 0.301334 0.000000
O O9 0.782181 0.092712 0.872265
O O10 0.919447 0.220806 0.801846
O O11 0.957674 0.091883 0.863179
O O12 0.500000 0.629527 0.500000
O O13 0.699079 0.500000 0.310417
O O14 0.808896 0.626166 0.294206
O O15 0.837586 0.625314 0.079612
O O16 0.858190 0.000000 0.209011
O O17 0.000000 0.133312 0.000000
O O18 0.000000 0.906164 0.500000
O O19 0.278921 0.000000 0.215023
O O20 0.989078 0.372046 0.749952
O O21 0.010524 0.500000 0.839406
#
# Coordination Sequence:
#
# PCOD9145473 Si02
#       8
#     4   4   4   4   4   4   4   4
#     4  10  19  32  50  73 103 142 185 220 260 324
#     4  10  21  41  61  79 112 150 184 233 296 350
#     4  11  20  35  53  75 108 142 179 231 282 333
#     4   8  15  31  56  88 121 150 183 224 269 319
#     4  10  19  32  51  72 101 145 184 218 265 319
#     4  10  19  36  59  81 106 139 185 243 289 331
#     4  10  22  40  56  82 111 145 186 232 292 349
#     4   9  18  35  60  86 117 154 190 229 276 335
#
# _framework density 19.130652000000001
#
# number of rings (size 3 to 8) (size 9 to 14) (size 15 to 20)
#    0.000    2.250    3.750    1.875    0.000    3.250 
#    2.250    1.875    0.000    0.750    0.000    0.000 
#    0.000    0.000    0.000    0.000    0.000    0.000 
#
# Total GULP energy -178379.733079 kJ/mol
# GULP energy per Si atom -5574.366659 kJ/mol
# Density = 1.908711 g / cm^3
# Si number density = 19.130652 Si / 1000 Ang^3
#
#
#
# Elastic Constant Matrix: (Units=GPa)
#
#
# Indices 1 2 3 4 5 6 
#
# 1 68.3229 21.7902 77.4979 0.0000 -8.1896 0.0000
# 2 21.7902 13.7414 18.7355 0.0000 1.1203 0.0000
# 3 77.4979 18.7355 165.0077 0.0000 -16.7562 0.0000
# 4 0.0000 0.0000 0.0000 0.4053 0.0000 -7.7605
# 5 -8.1896 1.1203 -16.7562 0.0000 39.9067 0.0000
# 6 0.0000 0.0000 0.0000 -7.7605 0.0000 -11.0710
#
#
#
# Elastic Compliance Matrix: (Units=1/GPa)
#
#
# Indices 1 2 3 4 5 6 
#
# 1 0.058726 -0.067198 -0.019361 0.000000 0.005809 0.000000
# 2 -0.067198 0.164806 0.011467 0.000000 -0.013602 0.000000
# 3 -0.019361 0.011467 0.014013 0.000000 0.001589 0.000000
# 4 0.000000 0.000000 0.000000 0.171082 0.000000 -0.119923
# 5 0.005809 -0.013602 0.001589 0.000000 0.027299 0.000000
# 6 0.000000 0.000000 0.000000 -0.119923 0.000000 -0.006263
#
#
# Mechanical properties :
#
#
# Convention : Reuss Voigt Hill
#
# Bulk Modulus (GPa) = 11.44709 53.67990 32.56350
# Shear Modulus (GPa) = 8.21059 14.45141 11.33100
#
# Velocity S-wave (km/s) = 2.07393 2.75145 2.43635
# Velocity P-wave (km/s) = 3.42513 6.18179 4.99730
#
# Compressibility (1/GPa) = 0.08735846
#
# Stress axis : x y z
#
# Youngs Moduli (GPa) = 17.02836 6.06773 71.36232
#
# Poissons Ratio (x) = 0.40774 1.38167
# Poissons Ratio (y) = 1.14428 -0.81828
# Poissons Ratio (z) = 0.32969 -0.06958
#
# Static dielectric constant tensor:
#      x y z
#    x 1.671310 0.000000 -0.022270 
#    y 0.000000 1.693430 0.000000 
#    z -0.022270 0.000000 1.680140 
# 
# From -- ./inp_files/51929.got.cif
#   From: 2010.05.17/outbox.cif.g08.bks.cpg/sg10_26_cif.got.tgz:51929.got - 2010.06.03 11:33:40.
