data_PCOD9145303
_publ_section_title
;
Structure prediction by ZEFSAII (Michael W. Deem and Ramdas Pophale) SiO2 
 PCOD9145303
Probable space group: P 2/M
;
_chemical_formula_sum "Si O2"
_cell_formula_units_Z 32
_cell_length_a 20.877292
_cell_length_b 7.759273
_cell_length_c 12.613426
_cell_angle_alpha 90.000000
_cell_angle_beta 54.166057
_cell_angle_gamma 90.000000
_cell_volume 1656.523552
_symmetry_space_group_name_H-M "P 2/M"
_symmetry_group_IT_number 10
_symmetry_cell_setting 'monoclinic'
loop_
_space_group_symop_operation_xyz
x,y,z
-x,y,-z
-x,-y,-z
x,-y,z
loop_
_atom_site_type_symbol
_atom_site_label
_atom_site_fract_x
_atom_site_fract_y
_atom_site_fract_z
Si Si1 0.732347 0.210629 0.687830
Si Si2 0.533121 0.701521 0.357607
Si Si3 0.128689 0.207952 0.608555
Si Si4 0.973938 0.789115 0.644000
Si Si5 0.708493 0.708286 0.146957
Si Si6 0.613709 0.800533 0.631765
Si Si7 0.795811 0.794762 0.846823
Si Si8 0.249487 0.297123 0.661272
O O1 0.809464 0.258857 0.543970
O O2 0.655726 0.271224 0.696787
O O3 0.745479 0.270527 0.794839
O O4 0.728642 0.000000 0.689584
O O5 0.500000 0.778522 0.500000
O O6 0.548296 0.500000 0.365036
O O7 0.617685 0.771828 0.239513
O O8 0.464804 0.714725 0.336753
O O9 0.167177 0.269279 0.680611
O O10 0.041687 0.267500 0.660283
O O11 0.128343 0.000000 0.611486
O O12 0.885715 0.728016 0.754819
O O13 0.000000 0.739661 0.500000
O O14 0.973730 0.000000 0.645981
O O15 0.709129 0.500000 0.143225
O O16 0.747843 0.762845 0.220182
O O17 0.754199 0.765474 0.998554
O O18 0.681872 0.789086 0.475681
O O19 0.594278 0.000000 0.668200
O O20 0.802015 0.000000 0.824567
O O21 0.268330 0.500000 0.642205
#
# Coordination Sequence:
#
# PCOD9145303 Si02
#       8
#     4   4   4   4   4   4   4   4
#     4   8  15  29  49  76 107 134 162 205 259 307
#     4  10  19  36  56  74 100 139 179 214 257 310
#     4   9  16  29  52  81 106 129 170 222 259 297
#     4   9  15  28  54  82 106 135 172 214 261 308
#     4  10  22  38  53  71 103 142 176 213 259 309
#     4  10  19  31  53  84 108 127 165 221 265 301
#     4  10  19  33  55  79 104 139 176 209 257 316
#     4  10  19  34  52  72 103 143 176 207 260 315
#
# _framework density 19.317564000000001
#
# number of rings (size 3 to 8) (size 9 to 14) (size 15 to 20)
#    0.000    2.500    2.500    1.500    0.000    1.750 
#    0.000    5.000    0.000    8.250    0.000    0.000 
#    0.000    0.000    0.000    0.000    0.000    0.000 
#
# Total GULP energy -178471.127312 kJ/mol
# GULP energy per Si atom -5577.222729 kJ/mol
# Density = 1.927360 g / cm^3
# Si number density = 19.317564 Si / 1000 Ang^3
#
#
#
# Elastic Constant Matrix: (Units=GPa)
#
#
# Indices 1 2 3 4 5 6 
#
# 1 181.9845 -4.0022 87.3145 0.0000 11.8138 0.0000
# 2 -4.0022 22.8778 -5.0456 0.0000 -1.8364 0.0000
# 3 87.3145 -5.0456 116.0341 0.0000 4.9059 0.0000
# 4 0.0000 0.0000 0.0000 40.6423 0.0000 -14.1438
# 5 11.8138 -1.8364 4.9059 0.0000 28.2317 0.0000
# 6 0.0000 0.0000 0.0000 -14.1438 0.0000 41.8049
#
#
#
# Elastic Compliance Matrix: (Units=1/GPa)
#
#
# Indices 1 2 3 4 5 6 
#
# 1 0.008778 -0.000103 -0.006502 0.000000 -0.002550 0.000000
# 2 -0.000103 0.044319 0.001895 0.000000 0.002597 0.000000
# 3 -0.006502 0.001895 0.013573 0.000000 0.000485 0.000000
# 4 0.000000 0.000000 0.000000 0.027889 0.000000 0.009436
# 5 -0.002550 0.002597 0.000485 0.000000 0.036573 0.000000
# 6 0.000000 0.000000 0.000000 0.009436 0.000000 0.027113
#
#
# Mechanical properties :
#
#
# Convention : Reuss Voigt Hill
#
# Bulk Modulus (GPa) = 17.46748 53.04776 35.25762
# Shear Modulus (GPa) = 26.77424 38.31109 32.54267
#
# Velocity S-wave (km/s) = 3.72695 4.45817 4.10886
# Velocity P-wave (km/s) = 5.25187 7.34989 6.38761
#
# Compressibility (1/GPa) = 0.05724925
#
# Stress axis : x y z
#
# Youngs Moduli (GPa) = 113.92413 22.56375 73.67776
#
# Poissons Ratio (x) = 0.00233 0.47904
# Poissons Ratio (y) = 0.01174 -0.13961
# Poissons Ratio (z) = 0.74072 -0.04276
#
# Static dielectric constant tensor:
#      x y z
#    x 1.698130 0.000000 0.008650 
#    y 0.000000 1.716080 0.000000 
#    z 0.008650 0.000000 1.634370 
# 
# From -- ./inp_files/55276.got.cif
#   From: 2010.05.17/outbox.cif.g08.bks.cpg/sg10_28_cif.got.tgz:55276.got - 2010.06.03 11:33:40.
