data_PCOD9145764
_publ_section_title
;
Structure prediction by ZEFSAII (Michael W. Deem and Ramdas Pophale) SiO2 
 PCOD9145764
Probable space group: P 2/M
;
_chemical_formula_sum "Si O2"
_cell_formula_units_Z 28
_cell_length_a 15.355545
_cell_length_b 7.768800
_cell_length_c 20.896189
_cell_angle_alpha 90.000000
_cell_angle_beta 148.487627
_cell_angle_gamma 90.000000
_cell_volume 1302.939868
_symmetry_space_group_name_H-M "P 2/M"
_symmetry_group_IT_number 10
_symmetry_cell_setting 'monoclinic'
loop_
_space_group_symop_operation_xyz
x,y,z
-x,y,-z
-x,-y,-z
x,-y,z
loop_
_atom_site_type_symbol
_atom_site_label
_atom_site_fract_x
_atom_site_fract_y
_atom_site_fract_z
Si Si1 0.621373 0.291901 0.723715
Si Si2 0.226097 0.697791 0.941412
Si Si3 0.097733 0.191861 0.200510
Si Si4 0.689314 0.709171 0.139534
Si Si5 0.477674 0.710982 0.200564
Si Si6 0.352976 0.694998 0.460494
Si Si7 0.821548 0.289566 0.361330
O O1 0.614286 0.500000 0.716857
O O2 0.782584 0.242830 0.783170
O O3 0.612674 0.233543 0.791055
O O4 0.451560 0.230840 0.582448
O O5 0.274843 0.500000 0.961698
O O6 0.202911 0.765231 0.855060
O O7 0.064520 0.700252 0.884861
O O8 0.376645 0.776672 0.075934
O O9 0.210316 0.203476 0.335008
O O10 0.038701 0.000000 0.152547
O O11 0.688179 0.500000 0.145505
O O12 0.764883 0.769446 0.254555
O O13 0.500000 0.757739 0.000000
O O14 0.471423 0.500000 0.196788
O O15 0.670129 0.758250 0.313804
O O16 0.500000 0.681137 0.500000
O O17 0.292247 0.500000 0.435908
O O18 0.827981 0.500000 0.363507
O O19 0.000000 0.230814 0.500000
#
# Coordination Sequence:
#
# PCOD9145764 Si02
#       7
#     4   4   4   4   4   4   4
#     4   9  18  33  53  75 104 138 173 213 261 315
#     4  10  19  32  53  76 103 139 178 214 257 314
#     4  11  22  34  49  73 105 137 178 223 261 306
#     4   9  15  27  48  74 103 134 168 210 262 314
#     4   9  17  30  49  75 105 138 172 210 259 318
#     4   8  15  30  51  72  96 128 167 211 260 312
#     4   9  16  26  44  76 112 136 163 213 269 315
#
# _framework density 21.489864000000001
#
# number of rings (size 3 to 8) (size 9 to 14) (size 15 to 20)
#    0.000    2.714    1.429    2.143    0.000    4.286 
#    0.000    7.857    0.000    0.429    0.000    0.000 
#    0.000    2.857    0.000    0.000    0.000    0.000 
#
# Total GULP energy -156007.342360 kJ/mol
# GULP energy per Si atom -5571.690799 kJ/mol
# Density = 2.144095 g / cm^3
# Si number density = 21.489864 Si / 1000 Ang^3
#
#
#
# Elastic Constant Matrix: (Units=GPa)
#
#
# Indices 1 2 3 4 5 6 
#
# 1 130.5913 1.6277 52.1805 0.0000 -9.8721 0.0000
# 2 1.6277 28.8472 -2.3128 0.0000 -3.6946 0.0000
# 3 52.1805 -2.3128 103.1879 0.0000 -0.0133 0.0000
# 4 0.0000 0.0000 0.0000 -631.4998 0.0000 -128.4613
# 5 -9.8721 -3.6946 -0.0133 0.0000 32.9237 0.0000
# 6 0.0000 0.0000 0.0000 -128.4613 0.0000 -39.3384
#
#
#
# Elastic Compliance Matrix: (Units=1/GPa)
#
#
# Indices 1 2 3 4 5 6 
#
# 1 0.009887 -0.000589 -0.005012 0.000000 0.002896 0.000000
# 2 -0.000589 0.035270 0.001089 0.000000 0.003782 0.000000
# 3 -0.005012 0.001089 0.012250 0.000000 -0.001376 0.000000
# 4 0.000000 0.000000 0.000000 -0.004717 0.000000 0.015403
# 5 0.002896 0.003782 -0.001376 0.000000 0.031666 0.000000
# 6 0.000000 0.000000 0.000000 0.015403 0.000000 -0.075720
#
#
# Mechanical properties :
#
#
# Convention : Reuss Voigt Hill
#
# Bulk Modulus (GPa) = 20.66879 40.62414 30.64646
# Shear Modulus (GPa) = 147.98487 -113.50752 17.23867
#
# Velocity S-wave (km/s) = 8.30735 -7.27556 2.83535
# Velocity P-wave (km/s) = 10.08241 7.18564 5.00108
#
# Compressibility (1/GPa) = 0.04838214
#
# Stress axis : x y z
#
# Youngs Moduli (GPa) = 101.14770 28.35248 81.63314
#
# Poissons Ratio (x) = 0.01669 0.40917
# Poissons Ratio (y) = 0.05955 -0.08888
# Poissons Ratio (z) = 0.50698 -0.03087
#
# Static dielectric constant tensor:
#      x y z
#    x 1.794720 0.000000 -0.026660 
#    y 0.000000 1.798100 0.000000 
#    z -0.026660 0.000000 1.794960 
# 
# From -- ./inp_files/84980.got.cif
#   From: 2010.05.17/outbox.cif.g08.bks.cpg/sg10_43_cif.got.tgz:84980.got - 2010.06.03 11:33:40.
