data_PCOD9145632
_publ_section_title
;
Structure prediction by ZEFSAII (Michael W. Deem and Ramdas Pophale) SiO2 
 PCOD9145632
Probable space group: P 2/M
;
_chemical_formula_sum "Si O2"
_cell_formula_units_Z 20
_cell_length_a 11.819597
_cell_length_b 8.075526
_cell_length_c 11.845701
_cell_angle_alpha 90.000000
_cell_angle_beta 108.518392
_cell_angle_gamma 90.000000
_cell_volume 1072.121903
_symmetry_space_group_name_H-M "P 2/M"
_symmetry_group_IT_number 10
_symmetry_cell_setting 'monoclinic'
loop_
_space_group_symop_operation_xyz
x,y,z
-x,y,-z
-x,-y,-z
x,-y,z
loop_
_atom_site_type_symbol
_atom_site_label
_atom_site_fract_x
_atom_site_fract_y
_atom_site_fract_z
Si Si1 0.184701 0.299935 0.613788
Si Si2 0.886821 0.702386 0.888820
Si Si3 0.941258 0.702059 0.654110
Si Si4 0.659634 0.307750 0.957783
Si Si5 0.590875 0.189491 0.179379
O O1 0.188562 0.500000 0.616907
O O2 0.146013 0.247708 0.475633
O O3 0.309871 0.235283 0.698074
O O4 0.075383 0.248202 0.661109
O O5 0.885159 0.500000 0.885041
O O6 0.903042 0.759754 0.765419
O O7 0.765243 0.754909 0.911555
O O8 0.000000 0.751535 0.000000
O O9 0.941402 0.500000 0.655168
O O10 0.684247 0.500000 0.992655
O O11 0.530622 0.294166 0.858026
O O12 0.648061 0.216265 0.073499
O O13 0.554903 0.000000 0.179949
#
# Coordination Sequence:
#
# PCOD9145632 Si02
#       5
#     4   4   4   4   4
#     4   9  16  30  53  75  97 127 163 198 235 284
#     4   9  16  27  48  78 104 121 147 196 249 288
#     4   8  15  28  49  78 103 123 155 201 243 280
#     4  10  19  32  52  74  96 125 162 199 238 289
#     4  11  21  33  49  69  98 130 162 203 243 280
#
# _framework density 18.654596000000002
#
# number of rings (size 3 to 8) (size 9 to 14) (size 15 to 20)
#    0.000    2.600    0.000    6.000    0.000    3.200 
#    0.000    3.000    0.000   19.200    0.000    0.000 
#    0.000    0.000    0.000    0.000    0.000    0.000 
#
# Total GULP energy -111576.941188 kJ/mol
# GULP energy per Si atom -5578.847059 kJ/mol
# Density = 1.861214 g / cm^3
# Si number density = 18.654596 Si / 1000 Ang^3
#
#
#
# Elastic Constant Matrix: (Units=GPa)
#
#
# Indices 1 2 3 4 5 6 
#
# 1 119.1630 -6.2182 75.9006 0.0000 -10.7759 0.0000
# 2 -6.2182 18.9268 -5.4622 0.0000 -2.7287 0.0000
# 3 75.9006 -5.4622 107.1081 0.0000 0.6805 0.0000
# 4 0.0000 0.0000 0.0000 -4.5689 0.0000 1.0373
# 5 -10.7759 -2.7287 0.6805 0.0000 30.1038 0.0000
# 6 0.0000 0.0000 0.0000 1.0373 0.0000 -24.0479
#
#
#
# Elastic Compliance Matrix: (Units=1/GPa)
#
#
# Indices 1 2 3 4 5 6 
#
# 1 0.016514 0.003010 -0.011590 0.000000 0.006446 0.000000
# 2 0.003010 0.054875 0.000627 0.000000 0.006037 0.000000
# 3 -0.011590 0.000627 0.017610 0.000000 -0.004490 0.000000
# 4 0.000000 0.000000 0.000000 -0.221036 0.000000 -0.009534
# 5 0.006446 0.006037 -0.004490 0.000000 0.036175 0.000000
# 6 0.000000 0.000000 0.000000 -0.009534 0.000000 -0.041995
#
#
# Mechanical properties :
#
#
# Convention : Reuss Voigt Hill
#
# Bulk Modulus (GPa) = 13.68105 41.51536 27.59821
# Shear Modulus (GPa) = -51.23623 12.36259 -19.43682
#
# Velocity S-wave (km/s) = -5.24646 2.57711 -3.23140
# Velocity P-wave (km/s) = 5.41763 5.58197 0.95071
#
# Compressibility (1/GPa) = 0.07309380
#
# Stress axis : x y z
#
# Youngs Moduli (GPa) = 60.55469 18.22312 56.78642
#
# Poissons Ratio (x) = -0.05485 0.65815
# Poissons Ratio (y) = -0.18227 -0.03561
# Poissons Ratio (z) = 0.70182 -0.01143
#
# Static dielectric constant tensor:
#      x y z
#    x 1.627910 0.000000 0.000690 
#    y 0.000000 1.650520 0.000000 
#    z 0.000690 0.000000 1.632270 
# 
# From -- ./inp_files/44189.got.cif
#   From: 2010.05.17/outbox.cif.g08.bks.cpg/sg10_23_cif.got.tgz:44189.got - 2010.06.03 11:33:40.
