data_PCOD9145860
_publ_section_title
;
Structure prediction by ZEFSAII (Michael W. Deem and Ramdas Pophale) SiO2 
 PCOD9145860
Probable space group: P 2/M
;
_chemical_formula_sum "Si O2"
_cell_formula_units_Z 32
_cell_length_a 12.331530
_cell_length_b 7.611759
_cell_length_c 29.451075
_cell_angle_alpha 90.000000
_cell_angle_beta 31.155885
_cell_angle_gamma 90.000000
_cell_volume 1430.220280
_symmetry_space_group_name_H-M "P 2/M"
_symmetry_group_IT_number 10
_symmetry_cell_setting 'monoclinic'
loop_
_space_group_symop_operation_xyz
x,y,z
-x,y,-z
-x,-y,-z
x,-y,z
loop_
_atom_site_type_symbol
_atom_site_label
_atom_site_fract_x
_atom_site_fract_y
_atom_site_fract_z
Si Si1 0.899229 0.785374 0.584257
Si Si2 0.706638 0.787839 0.322566
Si Si3 0.351766 0.203705 0.013344
Si Si4 0.544499 0.212360 0.216194
Si Si5 0.884301 0.214664 0.163510
Si Si6 0.268591 0.204097 0.515786
Si Si7 0.950793 0.295270 0.320241
Si Si8 0.417532 0.291908 0.160798
O O1 0.664919 0.727192 0.681593
O O2 0.000000 0.732078 0.500000
O O3 0.063201 0.725063 0.563966
O O4 0.890088 0.000000 0.586954
O O5 0.747361 0.737160 0.256470
O O6 0.487085 0.718426 0.420833
O O7 0.892053 0.728853 0.289127
O O8 0.706154 0.000000 0.324476
O O9 0.468141 0.210969 0.923426
O O10 0.316794 0.000000 0.039265
O O11 0.500000 0.280726 0.000000
O O12 0.119923 0.279821 0.087918
O O13 0.756034 0.273458 0.165288
O O14 0.526195 0.263221 0.170212
O O15 0.542778 0.000000 0.218485
O O16 0.894088 0.000000 0.157602
O O17 0.226293 0.213670 0.584306
O O18 0.277341 0.000000 0.499358
O O19 0.950834 0.500000 0.331378
O O20 0.179779 0.221242 0.248891
O O21 0.405509 0.500000 0.156285
#
# Coordination Sequence:
#
# PCOD9145860 Si02
#       8
#     4   4   4   4   4   4   4   4
#     4   9  16  28  51  82 112 144 186 233 278 325
#     4  10  20  35  57  84 115 146 183 234 285 336
#     4  10  21  39  64  90 115 146 186 233 288 348
#     4  10  19  35  60  85 114 150 188 233 284 339
#     4   9  19  36  59  89 116 141 182 235 286 337
#     4  10  19  32  53  83 112 144 188 232 278 334
#     4  11  23  37  53  76 112 153 192 234 279 333
#     4  11  24  40  58  82 115 153 194 239 284 336
#
# _framework density 22.374178000000001
#
# number of rings (size 3 to 8) (size 9 to 14) (size 15 to 20)
#    0.000    2.000    1.250    2.625    0.000    8.250 
#    0.000    4.375    0.000    3.000    0.000    0.000 
#    0.000    0.000    0.000    0.000    0.000    0.000 
#
# Total GULP energy -178776.504730 kJ/mol
# GULP energy per Si atom -5586.765773 kJ/mol
# Density = 2.232325 g / cm^3
# Si number density = 22.374178 Si / 1000 Ang^3
#
#
#
# Elastic Constant Matrix: (Units=GPa)
#
#
# Indices 1 2 3 4 5 6 
#
# 1 158.8013 -6.6355 53.6110 0.0000 -16.7163 0.0000
# 2 -6.6355 46.2744 -2.9744 0.0000 -8.6864 0.0000
# 3 53.6110 -2.9744 98.3449 0.0000 -11.3607 0.0000
# 4 0.0000 0.0000 0.0000-3141.6710 0.0000-2929.3178
# 5 -16.7163 -8.6864 -11.3607 0.0000 37.7242 0.0000
# 6 0.0000 0.0000 0.0000-2929.3178 0.0000-2736.5719
#
#
#
# Elastic Compliance Matrix: (Units=1/GPa)
#
#
# Indices 1 2 3 4 5 6 
#
# 1 0.007986 0.001386 -0.004005 0.000000 0.002652 0.000000
# 2 0.001386 0.022996 0.000645 0.000000 0.006103 0.000000
# 3 -0.004005 0.000645 0.012623 0.000000 0.002175 0.000000
# 4 0.000000 0.000000 0.000000 -0.165791 0.000000 0.177468
# 5 0.002652 0.006103 0.002175 0.000000 0.029744 0.000000
# 6 0.000000 0.000000 0.000000 0.177468 0.000000 -0.190333
#
#
# Mechanical properties :
#
#
# Convention : Reuss Voigt Hill
#
# Bulk Modulus (GPa) = 25.21701 43.49143 34.35422
# Shear Modulus (GPa) = -18.82473 -1150.80911 -584.81692
#
# Velocity S-wave (km/s) = -2.90377 -22.70382 -16.18480
# Velocity P-wave (km/s) = 0.22928 25.84191 18.27227
#
# Compressibility (1/GPa) = 0.03965577
#
# Stress axis : x y z
#
# Youngs Moduli (GPa) = 125.21229 43.48571 79.22322
#
# Poissons Ratio (x) = -0.06025 0.31732
# Poissons Ratio (y) = -0.17348 -0.05112
# Poissons Ratio (z) = 0.50153 -0.02806
#
# Static dielectric constant tensor:
#      x y z
#    x 1.806820 0.000000 -0.026820 
#    y 0.000000 1.837060 0.000000 
#    z -0.026820 0.000000 1.812890 
# 
# From -- ./inp_files/63781.got.cif
#   From: 2010.05.17/outbox.cif.g08.bks.cpg/sg10_32_cif.got.tgz:63781.got - 2010.06.03 11:33:40.
