data_PCOD9145715
_publ_section_title
;
Structure prediction by ZEFSAII (Michael W. Deem and Ramdas Pophale) SiO2 
 PCOD9145715
Probable space group: P 2/M
;
_chemical_formula_sum "Si O2"
_cell_formula_units_Z 24
_cell_length_a 34.186798
_cell_length_b 8.054133
_cell_length_c 11.068657
_cell_angle_alpha 90.000000
_cell_angle_beta 26.938156
_cell_angle_gamma 90.000000
_cell_volume 1380.694759
_symmetry_space_group_name_H-M "P 2/M"
_symmetry_group_IT_number 10
_symmetry_cell_setting 'monoclinic'
loop_
_space_group_symop_operation_xyz
x,y,z
-x,y,-z
-x,-y,-z
x,-y,z
loop_
_atom_site_type_symbol
_atom_site_label
_atom_site_fract_x
_atom_site_fract_y
_atom_site_fract_z
Si Si1 0.420423 0.500000 0.549400
Si Si2 0.049599 0.197800 0.184219
Si Si3 0.692685 0.813904 0.166219
Si Si4 0.384359 0.500000 0.938618
Si Si5 0.909329 0.304495 0.194109
Si Si6 0.727430 0.814938 0.783403
Si Si7 0.870428 0.696690 0.782012
O O1 0.374647 0.665671 0.625665
O O2 0.403119 0.500000 0.742241
O O3 0.523213 0.500000 0.251344
O O4 0.099094 0.264378 0.165942
O O5 0.948813 0.241280 0.481715
O O6 0.058903 0.000000 0.153110
O O7 0.084431 0.278012 0.966278
O O8 0.659359 0.000000 0.281656
O O9 0.717086 0.804740 0.956793
O O10 0.780789 0.782678 0.996118
O O11 0.329158 0.665550 0.115364
O O12 0.900462 0.500000 0.247107
O O13 0.826692 0.212710 0.475110
O O14 0.000000 0.244822 0.000000
O O15 0.699448 0.000000 0.822896
O O16 0.860961 0.500000 0.791342
#
# Coordination Sequence:
#
# PCOD9145715 Si02
#       7
#     2   4   4   2   4   4   4
#     4   9  18  32  52  76 103 137 164 211 265 308
#     4  11  22  34  49  73 103 138 178 214 254 298
#     4  10  19  32  52  79 106 135 173 211 257 309
#     4   9  18  34  51  73 107 134 170 210 257 316
#     4  11  22  35  52  74 104 141 178 213 250 298
#     4  10  20  33  52  76 105 141 174 210 255 303
#     4  11  20  34  52  72 103 139 175 212 257 302
#
# _framework density 17.382553000000001
#
# number of rings (size 3 to 8) (size 9 to 14) (size 15 to 20)
#    0.000    1.667    1.667    5.500    0.000    4.667 
#    0.000    3.333    0.000    0.000    0.000    2.333 
#    0.000    4.000    0.000    0.000    0.000    0.000 
#
# Total GULP energy -134005.781012 kJ/mol
# GULP energy per Si atom -5583.574209 kJ/mol
# Density = 1.734299 g / cm^3
# Si number density = 17.382553 Si / 1000 Ang^3
#
#
#
# Elastic Constant Matrix: (Units=GPa)
#
#
# Indices 1 2 3 4 5 6 
#
# 1 45.9736 33.9494 25.6395 0.0000 -25.7236 0.0000
# 2 33.9494 129.3025 41.5976 0.0000 -25.6958 0.0000
# 3 25.6395 41.5976 63.0681 0.0000 -25.2179 0.0000
# 4 0.0000 0.0000 0.0000 9.8987 0.0000 6.5368
# 5 -25.7236 -25.6958 -25.2179 0.0000 29.4813 0.0000
# 6 0.0000 0.0000 0.0000 6.5368 0.0000 13.5742
#
#
#
# Elastic Compliance Matrix: (Units=1/GPa)
#
#
# Indices 1 2 3 4 5 6 
#
# 1 0.044995 -0.004521 -0.001805 0.000000 0.033776 0.000000
# 2 -0.004521 0.010697 -0.004661 0.000000 0.001392 0.000000
# 3 -0.001805 -0.004661 0.026460 0.000000 0.016996 0.000000
# 4 0.000000 0.000000 0.000000 0.148131 0.000000 -0.071334
# 5 0.033776 0.001392 0.016996 0.000000 0.079141 0.000000
# 6 0.000000 0.000000 0.000000 -0.071334 0.000000 0.108021
#
#
# Mechanical properties :
#
#
# Convention : Reuss Voigt Hill
#
# Bulk Modulus (GPa) = 16.61738 48.96858 32.79298
# Shear Modulus (GPa) = 10.88190 19.73468 15.30829
#
# Velocity S-wave (km/s) = 2.50476 3.37310 2.97083
# Velocity P-wave (km/s) = 4.23623 6.58807 5.53843
#
# Compressibility (1/GPa) = 0.06017798
#
# Stress axis : x y z
#
# Youngs Moduli (GPa) = 22.22450 93.48551 37.79339
#
# Poissons Ratio (x) = 0.42266 0.06822
# Poissons Ratio (y) = 0.10048 0.17615
# Poissons Ratio (z) = 0.04012 0.43572
#
# Static dielectric constant tensor:
#      x y z
#    x 1.572870 0.000000 -0.002900 
#    y 0.000000 1.615260 0.000000 
#    z -0.002900 0.000000 1.559500 
# 
# From -- ./inp_files/37889.got.cif
#   From: 2010.05.17/outbox.cif.g08.bks.cpg/sg10_19_cif.got.tgz:37889.got - 2010.06.03 11:33:40.
