data_PCOD9145921
_publ_section_title
;
Structure prediction by ZEFSAII (Michael W. Deem and Ramdas Pophale) SiO2 
 PCOD9145921
Probable space group: P 2/M
;
_chemical_formula_sum "Si O2"
_cell_formula_units_Z 28
_cell_length_a 11.547110
_cell_length_b 7.714525
_cell_length_c 15.194948
_cell_angle_alpha 90.000000
_cell_angle_beta 67.975005
_cell_angle_gamma 90.000000
_cell_volume 1254.789795
_symmetry_space_group_name_H-M "P 2/M"
_symmetry_group_IT_number 10
_symmetry_cell_setting 'monoclinic'
loop_
_space_group_symop_operation_xyz
x,y,z
-x,y,-z
-x,-y,-z
x,-y,z
loop_
_atom_site_type_symbol
_atom_site_label
_atom_site_fract_x
_atom_site_fract_y
_atom_site_fract_z
Si Si1 0.039089 0.703568 0.124609
Si Si2 0.141634 0.800441 0.458843
Si Si3 0.193850 0.801401 0.920336
Si Si4 0.591675 0.787627 0.554733
Si Si5 0.162425 0.301655 0.258124
Si Si6 0.433238 0.801219 0.764075
Si Si7 0.589185 0.801064 0.898234
O O1 0.009883 0.500000 0.138693
O O2 0.062880 0.769937 0.216235
O O3 0.927621 0.796555 0.106263
O O4 0.156204 0.720694 0.024310
O O5 0.262485 0.728533 0.478083
O O6 0.178798 0.795861 0.344959
O O7 0.000000 0.723688 0.500000
O O8 0.127572 0.000000 0.492538
O O9 0.303976 0.717715 0.831942
O O10 0.229562 0.000000 0.929297
O O11 0.500000 0.739977 0.500000
O O12 0.517767 0.726471 0.662825
O O13 0.599161 0.000000 0.553430
O O14 0.131287 0.500000 0.289169
O O15 0.287411 0.298384 0.164360
O O16 0.511585 0.807944 0.830704
O O17 0.404459 0.000000 0.743207
O O18 0.623316 0.000000 0.913248
O O19 0.500000 0.730579 0.000000
#
# Coordination Sequence:
#
# PCOD9145921 Si02
#       7
#     4   4   4   4   4   4   4
#     4  10  21  36  51  73 112 154 187 224 280 339
#     4  10  21  38  62  88 111 144 195 249 298 351
#     4  10  19  32  54  81 107 142 190 235 278 333
#     4   9  17  32  55  82 113 143 175 230 300 353
#     4  11  23  37  55  80 113 154 191 230 283 345
#     4   9  17  30  50  79 110 138 173 224 284 338
#     4  10  19  33  56  83 113 147 183 231 285 334
#
# _framework density 22.314495999999998
#
# number of rings (size 3 to 8) (size 9 to 14) (size 15 to 20)
#    0.000    2.143    1.429    3.000    0.000    5.143 
#    0.000    4.286    0.000    0.429    0.000    0.000 
#    0.000    0.000    0.000    0.000    0.000    0.000 
#
# Total GULP energy -156112.259592 kJ/mol
# GULP energy per Si atom -5575.437843 kJ/mol
# Density = 2.226371 g / cm^3
# Si number density = 22.314496 Si / 1000 Ang^3
#
#
#
# Elastic Constant Matrix: (Units=GPa)
#
#
# Indices 1 2 3 4 5 6 
#
# 1 140.2040 3.2360 57.2169 0.0000 -1.6180 0.0000
# 2 3.2360 42.4085 -2.7784 0.0000 1.7743 0.0000
# 3 57.2169 -2.7784 88.8971 0.0000 -0.8676 0.0000
# 4 0.0000 0.0000 0.0000 -12.3573 0.0000 11.9284
# 5 -1.6180 1.7743 -0.8676 0.0000 36.6915 0.0000
# 6 0.0000 0.0000 0.0000 11.9284 0.0000 -6.2948
#
#
#
# Elastic Compliance Matrix: (Units=1/GPa)
#
#
# Indices 1 2 3 4 5 6 
#
# 1 0.009734 -0.001169 -0.006298 0.000000 0.000337 0.000000
# 2 -0.001169 0.023816 0.001486 0.000000 -0.001168 0.000000
# 3 -0.006298 0.001486 0.015349 0.000000 0.000013 0.000000
# 4 0.000000 0.000000 0.000000 0.097593 0.000000 0.184936
# 5 0.000337 -0.001168 0.000013 0.000000 0.027326 0.000000
# 6 0.000000 0.000000 0.000000 0.184936 0.000000 0.191586
#
#
# Mechanical properties :
#
#
# Convention : Reuss Voigt Hill
#
# Bulk Modulus (GPa) = 27.07493 42.98429 35.02961
# Shear Modulus (GPa) = 12.83107 17.86357 15.34732
#
# Velocity S-wave (km/s) = 2.40054 2.83244 2.62539
# Velocity P-wave (km/s) = 4.45456 5.47739 4.99224
#
# Compressibility (1/GPa) = 0.03693454
#
# Stress axis : x y z
#
# Youngs Moduli (GPa) = 102.73715 41.98931 65.15010
#
# Poissons Ratio (x) = 0.04910 0.41032
# Poissons Ratio (y) = 0.12014 -0.09679
# Poissons Ratio (z) = 0.64705 -0.06238
#
# Static dielectric constant tensor:
#      x y z
#    x 1.890660 0.000000 -0.041540 
#    y 0.000000 1.849670 0.000000 
#    z -0.041540 0.000000 1.812750 
# 
# From -- ./inp_files/63667.got.cif
#   From: 2010.05.17/outbox.cif.g08.bks.cpg/sg10_32_cif.got.tgz:63667.got - 2010.06.03 11:33:40.
