data_PCOD9145967
_publ_section_title
;
Structure prediction by ZEFSAII (Michael W. Deem and Ramdas Pophale) SiO2 
 PCOD9145967
Probable space group: P 2/M
;
_chemical_formula_sum "Si O2"
_cell_formula_units_Z 28
_cell_length_a 22.780186
_cell_length_b 13.048279
_cell_length_c 9.094773
_cell_angle_alpha 90.000000
_cell_angle_beta 147.868128
_cell_angle_gamma 90.000000
_cell_volume 1437.830314
_symmetry_space_group_name_H-M "P 2/M"
_symmetry_group_IT_number 10
_symmetry_cell_setting 'monoclinic'
loop_
_space_group_symop_operation_xyz
x,y,z
-x,y,-z
-x,-y,-z
x,-y,z
loop_
_atom_site_type_symbol
_atom_site_label
_atom_site_fract_x
_atom_site_fract_y
_atom_site_fract_z
Si Si1 0.373165 0.380165 0.283743
Si Si2 0.390500 0.885103 0.690293
Si Si3 0.250942 0.746987 0.779085
Si Si4 0.868165 0.119572 0.233919
Si Si5 0.868338 0.379476 0.732926
Si Si6 0.240821 0.264256 0.243585
Si Si7 0.542926 0.884053 0.748809
O O1 0.500000 0.369140 0.500000
O O2 0.353388 0.500000 0.265188
O O3 0.337356 0.320711 0.355908
O O4 0.294247 0.336595 0.988703
O O5 0.290388 0.809641 0.473931
O O6 0.434142 0.891384 0.616416
O O7 0.367644 0.000000 0.697849
O O8 0.500000 0.845286 0.000000
O O9 0.172381 0.825835 0.701987
O O10 0.192295 0.689063 0.520524
O O11 0.362006 0.813015 0.982612
O O12 0.000000 0.120341 0.500000
O O13 0.831332 0.000000 0.146645
O O14 0.820865 0.189905 0.001906
O O15 0.841910 0.500000 0.655264
O O16 0.831763 0.344306 0.818920
O O17 0.000000 0.366283 0.000000
O O18 0.500000 0.848465 0.500000
O O19 0.586965 0.000000 0.826414
#
# Coordination Sequence:
#
# PCOD9145967 Si02
#       7
#     4   4   4   4   4   4   4
#     4  10  21  36  56  85 116 146 186 236 290 350
#     4  10  20  33  51  78 111 143 176 215 263 331
#     4  11  20  36  60  82 112 153 193 239 291 341
#     4  10  21  37  58  86 116 146 187 238 291 350
#     4  11  25  43  60  81 111 151 205 260 301 341
#     4  11  21  37  61  83 112 153 191 234 292 346
#     4  10  19  32  54  85 116 146 181 220 270 338
#
# _framework density 19.473786
#
# number of rings (size 3 to 8) (size 9 to 14) (size 15 to 20)
#    0.000    1.571    0.000    6.429    0.000    1.143 
#    0.000    2.143    0.000   16.714    0.000    0.000 
#    0.000    0.000    0.000    0.000    0.000    0.000 
#
# Total GULP energy -156234.578137 kJ/mol
# GULP energy per Si atom -5579.806362 kJ/mol
# Density = 1.942946 g / cm^3
# Si number density = 19.473786 Si / 1000 Ang^3
#
#
#
# Elastic Constant Matrix: (Units=GPa)
#
#
# Indices 1 2 3 4 5 6 
#
# 1 94.3237 38.6237 29.9802 0.0000 5.4864 0.0000
# 2 38.6237 145.7762 60.4326 0.0000 1.2792 0.0000
# 3 29.9802 60.4326 75.9824 0.0000 -2.2140 0.0000
# 4 0.0000 0.0000 0.0000 28.9928 0.0000 2.0411
# 5 5.4864 1.2792 -2.2140 0.0000 32.8935 0.0000
# 6 0.0000 0.0000 0.0000 2.0411 0.0000 25.6585
#
#
#
# Elastic Compliance Matrix: (Units=1/GPa)
#
#
# Indices 1 2 3 4 5 6 
#
# 1 0.012627 -0.001839 -0.003586 0.000000 -0.002276 0.000000
# 2 -0.001839 0.010532 -0.007669 0.000000 -0.000619 0.000000
# 3 -0.003586 -0.007669 0.020742 0.000000 0.002292 0.000000
# 4 0.000000 0.000000 0.000000 0.034686 0.000000 -0.002759
# 5 -0.002276 -0.000619 0.002292 0.000000 0.030959 0.000000
# 6 0.000000 0.000000 0.000000 -0.002759 0.000000 0.039193
#
#
# Mechanical properties :
#
#
# Convention : Reuss Voigt Hill
#
# Bulk Modulus (GPa) = 56.45477 63.79504 60.12490
# Shear Modulus (GPa) = 27.65029 29.97867 28.81448
#
# Velocity S-wave (km/s) = 3.77221 3.92782 3.85080
# Velocity P-wave (km/s) = 6.93007 7.30760 7.12133
#
# Compressibility (1/GPa) = 0.01771329
#
# Stress axis : x y z
#
# Youngs Moduli (GPa) = 79.19570 94.95172 48.21147
#
# Poissons Ratio (x) = 0.17462 0.17288
# Poissons Ratio (y) = 0.14564 0.36972
# Poissons Ratio (z) = 0.28398 0.72816
#
# Static dielectric constant tensor:
#      x y z
#    x 1.727460 0.000000 -0.013370 
#    y 0.000000 1.718610 0.000000 
#    z -0.013370 0.000000 1.667700 
# 
# From -- ./inp_files/35293.got.cif
#   From: 2010.05.17/outbox.cif.g08.bks.cpg/sg10_18_cif.got.tgz:35293.got - 2010.06.03 11:33:40.
