data_PCOD9145702
_publ_section_title
;
Structure prediction by ZEFSAII (Michael W. Deem and Ramdas Pophale) SiO2 
 PCOD9145702
Probable space group: P 2/M
;
_chemical_formula_sum "Si O2"
_cell_formula_units_Z 32
_cell_length_a 20.244253
_cell_length_b 8.860824
_cell_length_c 25.593539
_cell_angle_alpha 90.000000
_cell_angle_beta 157.818914
_cell_angle_gamma 90.000000
_cell_volume 1733.259439
_symmetry_space_group_name_H-M "P 2/M"
_symmetry_group_IT_number 10
_symmetry_cell_setting 'monoclinic'
loop_
_space_group_symop_operation_xyz
x,y,z
-x,y,-z
-x,-y,-z
x,-y,z
loop_
_atom_site_type_symbol
_atom_site_label
_atom_site_fract_x
_atom_site_fract_y
_atom_site_fract_z
Si Si1 0.913096 0.178044 0.696701
Si Si2 0.882817 0.826513 0.994474
Si Si3 0.775663 0.323338 0.013034
Si Si4 0.751822 0.174521 0.779913
Si Si5 0.867635 0.315834 0.356548
Si Si6 0.571668 0.676700 0.496437
Si Si7 0.533799 0.319118 0.930697
Si Si8 0.882139 0.317497 0.247454
O O1 0.736047 0.239988 0.592168
O O2 0.067130 0.225003 0.848876
O O3 0.973690 0.253066 0.686554
O O4 0.902824 0.000000 0.682785
O O5 0.768076 0.721835 0.947368
O O6 0.087703 0.782745 0.140815
O O7 0.872911 0.000000 0.005500
O O8 0.819492 0.824737 0.888622
O O9 0.817369 0.500000 0.049707
O O10 0.610207 0.292820 0.928700
O O11 0.594339 0.289370 0.660991
O O12 0.701288 0.000000 0.730805
O O13 0.865759 0.500000 0.357841
O O14 0.665062 0.262507 0.212499
O O15 0.918394 0.275592 0.334090
O O16 0.000000 0.266029 0.500000
O O17 0.500000 0.733163 0.500000
O O18 0.612334 0.500000 0.531067
O O19 0.522775 0.500000 0.931192
O O20 0.687759 0.267897 0.083776
O O21 0.883371 0.500000 0.244700
#
# Coordination Sequence:
#
# PCOD9145702 Si02
#       8
#     4   4   4   4   4   4   4   4
#     4  11  22  36  55  77 105 141 180 219 268 327
#     4   9  18  34  54  75 104 140 180 218 260 316
#     4  10  19  32  52  78 107 136 173 222 270 313
#     4   9  19  35  53  74 102 141 181 217 260 320
#     4   9  16  28  50  80 109 138 174 219 270 323
#     4  11  23  37  54  79 108 137 175 227 277 319
#     4   8  15  28  47  73 105 138 175 213 262 321
#     4   9  17  32  54  78 105 139 177 224 270 317
#
# _framework density 18.462326000000001
#
# number of rings (size 3 to 8) (size 9 to 14) (size 15 to 20)
#    0.000    2.500    0.000    4.500    0.000    5.500 
#    2.250    1.250    0.000    7.125    0.000    0.000 
#    0.000    0.000    0.000    0.000    0.000    0.000 
#
# Total GULP energy -178298.030163 kJ/mol
# GULP energy per Si atom -5571.813443 kJ/mol
# Density = 1.842030 g / cm^3
# Si number density = 18.462326 Si / 1000 Ang^3
#
#
#
# Elastic Constant Matrix: (Units=GPa)
#
#
# Indices 1 2 3 4 5 6 
#
# 1 134.0504 39.9339 59.5937 0.0000 2.1762 0.0000
# 2 39.9339 31.4917 23.9317 0.0000 7.3023 0.0000
# 3 59.5937 23.9317 79.6123 0.0000 13.3091 0.0000
# 4 0.0000 0.0000 0.0000 25.4113 0.0000 0.6470
# 5 2.1762 7.3023 13.3091 0.0000 21.5828 0.0000
# 6 0.0000 0.0000 0.0000 0.6470 0.0000 17.8876
#
#
#
# Elastic Compliance Matrix: (Units=1/GPa)
#
#
# Indices 1 2 3 4 5 6 
#
# 1 0.015787 -0.015530 -0.008653 0.000000 0.008999 0.000000
# 2 -0.015530 0.057409 -0.002951 0.000000 -0.016038 0.000000
# 3 -0.008653 -0.002951 0.021867 0.000000 -0.011613 0.000000
# 4 0.000000 0.000000 0.000000 0.039389 0.000000 -0.001425
# 5 0.008999 -0.016038 -0.011613 0.000000 0.058013 0.000000
# 6 0.000000 0.000000 0.000000 -0.001425 0.000000 0.055956
#
#
# Mechanical properties :
#
#
# Convention : Reuss Voigt Hill
#
# Bulk Modulus (GPa) = 24.51347 54.67479 39.59413
# Shear Modulus (GPa) = 15.80831 21.08937 18.44884
#
# Velocity S-wave (km/s) = 2.92934 3.38345 3.16455
# Velocity P-wave (km/s) = 4.97472 6.70389 5.90296
#
# Compressibility (1/GPa) = 0.04079391
#
# Stress axis : x y z
#
# Youngs Moduli (GPa) = 63.34248 17.41879 45.73083
#
# Poissons Ratio (x) = 0.27051 0.39573
# Poissons Ratio (y) = 0.98370 0.13497
# Poissons Ratio (z) = 0.54813 0.05141
#
# Static dielectric constant tensor:
#      x y z
#    x 1.680620 0.000000 -0.019720 
#    y 0.000000 1.627400 0.000000 
#    z -0.019720 0.000000 1.666610 
# 
# From -- ./inp_files/93783.got.cif
#   From: 2010.05.17/outbox.cif.g08.bks.cpg/sg10_47_cif.got.tgz:93783.got - 2010.06.03 11:33:40.
