data_PCOD9145719
_publ_section_title
;
Structure prediction by ZEFSAII (Michael W. Deem and Ramdas Pophale) SiO2 
 PCOD9145719
Probable space group: P 2/M
;
_chemical_formula_sum "Si O2"
_cell_formula_units_Z 32
_cell_length_a 21.120297
_cell_length_b 8.773381
_cell_length_c 26.833828
_cell_angle_alpha 90.000000
_cell_angle_beta 21.472437
_cell_angle_gamma 90.000000
_cell_volume 1820.096089
_symmetry_space_group_name_H-M "P 2/M"
_symmetry_group_IT_number 10
_symmetry_cell_setting 'monoclinic'
loop_
_space_group_symop_operation_xyz
x,y,z
-x,y,-z
-x,-y,-z
x,-y,z
loop_
_atom_site_type_symbol
_atom_site_label
_atom_site_fract_x
_atom_site_fract_y
_atom_site_fract_z
Si Si1 0.465447 0.315251 0.211860
Si Si2 0.438789 0.684561 0.967813
Si Si3 0.096457 0.816864 0.827927
Si Si4 0.716747 0.316008 0.117423
Si Si5 0.636738 0.319016 0.288386
Si Si6 0.217655 0.315768 0.220917
Si Si7 0.637542 0.825307 0.445008
Si Si8 0.919017 0.182678 0.505596
O O1 0.454582 0.500000 0.218978
O O2 0.550800 0.264524 0.096864
O O3 0.584191 0.269661 0.171366
O O4 0.272815 0.250298 0.357385
O O5 0.431325 0.500000 0.973187
O O6 0.620097 0.724061 0.861927
O O7 0.281837 0.733950 0.118811
O O8 0.213472 0.757469 0.787957
O O9 0.189162 0.767396 0.708399
O O10 0.100613 0.000000 0.825815
O O11 0.904582 0.754815 0.971940
O O12 0.731588 0.500000 0.105194
O O13 0.652366 0.272499 0.219608
O O14 0.658834 0.500000 0.275882
O O15 0.452942 0.271859 0.446239
O O16 0.200198 0.500000 0.234044
O O17 0.045993 0.243411 0.369416
O O18 0.500000 0.827399 0.500000
O O19 0.659581 0.000000 0.445559
O O20 0.000000 0.228037 0.500000
O O21 0.911902 0.000000 0.508957
#
# Coordination Sequence:
#
# PCOD9145719 Si02
#       8
#     4   4   4   4   4   4   4   4
#     4  10  20  37  57  74 100 139 177 212 258 309
#     4   8  15  29  53  80 100 124 166 214 251 297
#     4  10  20  34  54  78 103 136 177 214 255 311
#     4  10  22  36  51  76 106 136 173 217 260 306
#     4  10  19  32  52  79 108 135 170 218 263 300
#     4   9  16  30  54  81 102 126 167 212 253 298
#     4   8  16  31  50  75 103 131 169 212 252 303
#     4  11  22  34  50  78 109 135 167 208 254 307
#
# _framework density 17.581489000000001
#
# number of rings (size 3 to 8) (size 9 to 14) (size 15 to 20)
#    0.000    2.500    1.250    3.000    0.000    6.250 
#    0.000    3.125    0.000    6.000    0.000    0.000 
#    0.000    0.000    0.000    0.000    0.000    0.000 
#
# Total GULP energy -178423.238730 kJ/mol
# GULP energy per Si atom -5575.726210 kJ/mol
# Density = 1.754147 g / cm^3
# Si number density = 17.581489 Si / 1000 Ang^3
#
#
#
# Elastic Constant Matrix: (Units=GPa)
#
#
# Indices 1 2 3 4 5 6 
#
# 1 120.1752 34.8008 114.5010 0.0000 5.2267 0.0000
# 2 34.8008 19.6104 37.6862 0.0000 4.1170 0.0000
# 3 114.5010 37.6862 140.3571 0.0000 47.6665 0.0000
# 4 0.0000 0.0000 0.0000 16.9592 0.0000 5.5753
# 5 5.2267 4.1170 47.6665 0.0000 9.0861 0.0000
# 6 0.0000 0.0000 0.0000 5.5753 0.0000 -54.4586
#
#
#
# Elastic Compliance Matrix: (Units=1/GPa)
#
#
# Indices 1 2 3 4 5 6 
#
# 1 0.011812 -0.026559 0.005482 0.000000 -0.023517 0.000000
# 2 -0.026559 0.109458 -0.005031 0.000000 -0.007928 0.000000
# 3 0.005482 -0.005031 -0.005502 0.000000 0.027990 0.000000
# 4 0.000000 0.000000 0.000000 0.057045 0.000000 0.005840
# 5 -0.023517 -0.007928 0.027990 0.000000 -0.019658 0.000000
# 6 0.000000 0.000000 0.000000 0.005840 0.000000 -0.017765
#
#
# Mechanical properties :
#
#
# Convention : Reuss Voigt Hill
#
# Bulk Modulus (GPa) = 15.73522 72.67984 44.20753
# Shear Modulus (GPa) = 23.94730 0.52765 12.23748
#
# Velocity S-wave (km/s) = 3.69463 0.54842 2.64113
# Velocity P-wave (km/s) = 5.21246 6.46758 5.87364
#
# Compressibility (1/GPa) = 0.06355170
#
# Stress axis : x y z
#
# Youngs Moduli (GPa) = 84.65658 9.13593 -181.75470
#
# Poissons Ratio (x) = 0.24264 0.99630
# Poissons Ratio (y) = 2.24843 -0.91432
# Poissons Ratio (z) = -0.46405 0.04596
#
# Static dielectric constant tensor:
#      x y z
#    x 1.592510 0.000000 0.028680 
#    y 0.000000 1.589820 0.000000 
#    z 0.028680 0.000000 1.593370 
# 
# From -- ./inp_files/93661.got.cif
#   From: 2010.05.17/outbox.cif.g08.bks.cpg/sg10_47_cif.got.tgz:93661.got - 2010.06.03 11:33:40.
