data_PCOD9145946
_publ_section_title
;
Structure prediction by ZEFSAII (Michael W. Deem and Ramdas Pophale) SiO2 
 PCOD9145946
Probable space group: P 2/M
;
_chemical_formula_sum "Si O2"
_cell_formula_units_Z 32
_cell_length_a 32.862225
_cell_length_b 8.021961
_cell_length_c 13.171101
_cell_angle_alpha 90.000000
_cell_angle_beta 153.445154
_cell_angle_gamma 90.000000
_cell_volume 1552.243489
_symmetry_space_group_name_H-M "P 2/M"
_symmetry_group_IT_number 10
_symmetry_cell_setting 'monoclinic'
loop_
_space_group_symop_operation_xyz
x,y,z
-x,y,-z
-x,-y,-z
x,-y,z
loop_
_atom_site_type_symbol
_atom_site_label
_atom_site_fract_x
_atom_site_fract_y
_atom_site_fract_z
Si Si1 0.327550 0.696888 0.370897
Si Si2 0.794675 0.198141 0.185698
Si Si3 0.885023 0.307768 0.592253
Si Si4 0.399535 0.201460 0.749873
Si Si5 0.213287 0.798488 0.421612
Si Si6 0.134491 0.192085 0.868125
Si Si7 0.403898 0.300141 0.327748
Si Si8 0.075526 0.196359 0.943597
O O1 0.304800 0.500000 0.318540
O O2 0.370359 0.745822 0.572515
O O3 0.395305 0.730175 0.428776
O O4 0.235668 0.797457 0.142246
O O5 0.825145 0.279992 0.358085
O O6 0.850951 0.263840 0.212456
O O7 0.811146 0.000000 0.230212
O O8 0.687847 0.226666 0.925655
O O9 0.908952 0.500000 0.656404
O O10 0.832212 0.252547 0.574782
O O11 0.979425 0.213480 0.784030
O O12 0.317542 0.257151 0.640497
O O13 0.401851 0.000000 0.758838
O O14 0.500000 0.264543 0.000000
O O15 0.211715 0.000000 0.414009
O O16 0.153517 0.735162 0.192383
O O17 0.074730 0.267076 0.826585
O O18 0.106350 0.000000 0.789503
O O19 0.500000 0.237733 0.500000
O O20 0.400031 0.500000 0.302556
O O21 0.094856 0.000000 0.973792
#
# Coordination Sequence:
#
# PCOD9145946 Si02
#       8
#     4   4   4   4   4   4   4   4
#     4  10  19  32  54  82 114 149 186 233 286 342
#     4  10  21  38  60  85 116 152 197 243 288 343
#     4  12  26  40  56  83 122 159 194 241 295 350
#     4  10  21  38  60  86 115 149 191 241 292 342
#     4  10  21  40  63  85 114 153 196 241 290 346
#     4   9  18  36  62  87 111 146 190 237 285 341
#     4   9  19  36  57  83 117 155 192 233 288 347
#     4  10  20  38  64  88 113 149 195 241 291 350
#
# _framework density 20.615323
#
# number of rings (size 3 to 8) (size 9 to 14) (size 15 to 20)
#    0.000    2.000    1.250    2.250    0.000    6.000 
#    0.000    5.000    0.000    0.000    0.000    0.000 
#    0.000    0.000    0.000    0.000    0.000    0.000 
#
# Total GULP energy -178647.934779 kJ/mol
# GULP energy per Si atom -5582.747962 kJ/mol
# Density = 2.056840 g / cm^3
# Si number density = 20.615323 Si / 1000 Ang^3
#
#
#
# Elastic Constant Matrix: (Units=GPa)
#
#
# Indices 1 2 3 4 5 6 
#
# 1 134.9900 10.9001 38.9359 0.0000 17.4052 0.0000
# 2 10.9001 15.9739 -3.7216 0.0000 5.9308 0.0000
# 3 38.9359 -3.7216 67.4372 0.0000 6.8757 0.0000
# 4 0.0000 0.0000 0.0000 -218.3971 0.0000 -74.9924
# 5 17.4052 5.9308 6.8757 0.0000 23.3498 0.0000
# 6 0.0000 0.0000 0.0000 -74.9924 0.0000 -10.9294
#
#
#
# Elastic Compliance Matrix: (Units=1/GPa)
#
#
# Indices 1 2 3 4 5 6 
#
# 1 0.010167 -0.006753 -0.005820 0.000000 -0.004150 0.000000
# 2 -0.006753 0.075861 0.009832 0.000000 -0.017130 0.000000
# 3 -0.005820 0.009832 0.019117 0.000000 -0.003789 0.000000
# 4 0.000000 0.000000 0.000000 0.003377 0.000000 -0.023168
# 5 -0.004150 -0.017130 -0.003789 0.000000 0.051387 0.000000
# 6 0.000000 0.000000 0.000000 -0.023168 0.000000 0.067471
#
#
# Mechanical properties :
#
#
# Convention : Reuss Voigt Hill
#
# Bulk Modulus (GPa) = 10.03373 34.51441 22.27407
# Shear Modulus (GPa) = 18.79126 -29.70957 -5.45916
#
# Velocity S-wave (km/s) = 3.02241 -3.80035 -1.62907
# Velocity P-wave (km/s) = 4.13009 1.57431 2.69993
#
# Compressibility (1/GPa) = 0.09966386
#
# Stress axis : x y z
#
# Youngs Moduli (GPa) = 98.35925 13.18209 52.30815
#
# Poissons Ratio (x) = 0.08901 0.30441
# Poissons Ratio (y) = 0.66419 -0.51428
# Poissons Ratio (z) = 0.57240 -0.12960
#
# Static dielectric constant tensor:
#      x y z
#    x 1.757770 0.000000 0.007090 
#    y 0.000000 1.736730 0.000000 
#    z 0.007090 0.000000 1.713320 
# 
# From -- ./inp_files/58220.got.cif
#   From: 2010.05.17/outbox.cif.g08.bks.cpg/sg10_30_cif.got.tgz:58220.got - 2010.06.03 11:33:40.
