data_PCOD9145088
_publ_section_title
;
Structure prediction by ZEFSAII (Michael W. Deem and Ramdas Pophale) SiO2 
 PCOD9145088
Probable space group: P 2/M
;
_chemical_formula_sum "Si O2"
_cell_formula_units_Z 32
_cell_length_a 12.536489
_cell_length_b 8.848179
_cell_length_c 34.248837
_cell_angle_alpha 90.000000
_cell_angle_beta 149.374539
_cell_angle_gamma 90.000000
_cell_volume 1935.329583
_symmetry_space_group_name_H-M "P 2/M"
_symmetry_group_IT_number 10
_symmetry_cell_setting 'monoclinic'
loop_
_space_group_symop_operation_xyz
x,y,z
-x,y,-z
-x,-y,-z
x,-y,z
loop_
_atom_site_type_symbol
_atom_site_label
_atom_site_fract_x
_atom_site_fract_y
_atom_site_fract_z
Si Si1 0.640689 0.674388 0.504810
Si Si2 0.967029 0.679372 0.188127
Si Si3 0.141161 0.819751 0.082993
Si Si4 0.120793 0.679865 0.928908
Si Si5 0.728692 0.179553 0.655943
Si Si6 0.455334 0.819145 0.910146
Si Si7 0.005843 0.820687 0.665187
Si Si8 0.448531 0.319775 0.821518
O O1 0.500000 0.676454 0.500000
O O2 0.683956 0.500000 0.508848
O O3 0.495034 0.752638 0.426712
O O4 0.850478 0.762592 0.582538
O O5 0.946184 0.500000 0.188607
O O6 0.971645 0.705116 0.143254
O O7 0.762895 0.762083 0.141015
O O8 0.167060 0.742200 0.274050
O O9 0.363045 0.740614 0.145724
O O10 0.021283 0.753094 0.082388
O O11 0.166736 0.000000 0.094957
O O12 0.000000 0.791837 0.000000
O O13 0.139132 0.500000 0.941145
O O14 0.350326 0.753495 0.004367
O O15 0.885722 0.206651 0.668594
O O16 0.713924 0.000000 0.656559
O O17 0.474811 0.755864 0.872375
O O18 0.462165 0.000000 0.911523
O O19 0.223829 0.733068 0.734801
O O20 0.040921 0.000000 0.673060
O O21 0.456938 0.500000 0.827877
#
# Coordination Sequence:
#
# PCOD9145088 Si02
#       8
#     4   4   4   4   4   4   4   4
#     4   9  17  29  47  72 105 142 178 214 259 316
#     4  11  23  37  54  78 109 143 182 223 265 318
#     4  11  23  39  59  80 104 136 178 226 274 321
#     4  11  24  40  57  78 104 140 183 226 270 318
#     4  10  19  31  50  75 107 144 179 216 263 316
#     4  12  23  36  54  78 107 142 181 221 268 320
#     4  10  19  32  50  76 109 140 177 220 263 317
#     4  12  23  35  56  80 107 142 180 222 270 319
#
# _framework density 16.534652000000001
#
# number of rings (size 3 to 8) (size 9 to 14) (size 15 to 20)
#    0.000    1.250    2.500    4.875    0.000    6.500 
#    0.000    0.000    0.000    0.000    0.000    0.875 
#    0.000    7.000    0.000    0.000    0.000    0.000 
#
# Total GULP energy -178831.245070 kJ/mol
# GULP energy per Si atom -5588.476408 kJ/mol
# Density = 1.649702 g / cm^3
# Si number density = 16.534652 Si / 1000 Ang^3
#
#
#
# Elastic Constant Matrix: (Units=GPa)
#
#
# Indices 1 2 3 4 5 6 
#
# 1 36.4638 33.3334 27.6723 0.0000 -11.6137 0.0000
# 2 33.3334 112.6971 71.4185 0.0000 -9.2353 0.0000
# 3 27.6723 71.4185 139.4426 0.0000 -12.3686 0.0000
# 4 0.0000 0.0000 0.0000 39.9424 0.0000 -0.8860
# 5 -11.6137 -9.2353 -12.3686 0.0000 15.5185 0.0000
# 6 0.0000 0.0000 0.0000 -0.8860 0.0000 13.9292
#
#
#
# Elastic Compliance Matrix: (Units=1/GPa)
#
#
# Indices 1 2 3 4 5 6 
#
# 1 0.047205 -0.010823 -0.001358 0.000000 0.027803 0.000000
# 2 -0.010823 0.015720 -0.006233 0.000000 -0.003712 0.000000
# 3 -0.001358 -0.006233 0.010991 0.000000 0.004034 0.000000
# 4 0.000000 0.000000 0.000000 0.025071 0.000000 0.001595
# 5 0.027803 -0.003712 0.004034 0.000000 0.086253 0.000000
# 6 0.000000 0.000000 0.000000 0.001595 0.000000 0.071893
#
#
# Mechanical properties :
#
#
# Convention : Reuss Voigt Hill
#
# Bulk Modulus (GPa) = 26.96316 61.49466 44.22891
# Shear Modulus (GPa) = 16.32256 24.28996 20.30626
#
# Velocity S-wave (km/s) = 3.14534 3.83696 3.50823
# Velocity P-wave (km/s) = 5.43446 7.54333 6.57401
#
# Compressibility (1/GPa) = 0.03708764
#
# Stress axis : x y z
#
# Youngs Moduli (GPa) = 21.18442 63.61221 90.98222
#
# Poissons Ratio (x) = 0.68846 0.12359
# Poissons Ratio (y) = 0.22928 0.56709
# Poissons Ratio (z) = 0.02878 0.39649
#
# Static dielectric constant tensor:
#      x y z
#    x 1.525630 0.000000 -0.003770 
#    y 0.000000 1.549260 0.000000 
#    z -0.003770 0.000000 1.551730 
# 
# From -- ./inp_files/49905.got.cif
#   From: 2010.05.17/outbox.cif.g08.bks.cpg/sg10_25_cif.got.tgz:49905.got - 2010.06.03 11:33:40.
