data_PCOD9145976
_publ_section_title
;
Structure prediction by ZEFSAII (Michael W. Deem and Ramdas Pophale) SiO2 
 PCOD9145976
Probable space group: P 2/M
;
_chemical_formula_sum "Si O2"
_cell_formula_units_Z 20
_cell_length_a 5.965806
_cell_length_b 11.252161
_cell_length_c 12.694293
_cell_angle_alpha 90.000000
_cell_angle_beta 92.194145
_cell_angle_gamma 90.000000
_cell_volume 851.520397
_symmetry_space_group_name_H-M "P 2/M"
_symmetry_group_IT_number 10
_symmetry_cell_setting 'monoclinic'
loop_
_space_group_symop_operation_xyz
x,y,z
-x,y,-z
-x,-y,-z
x,-y,z
loop_
_atom_site_type_symbol
_atom_site_label
_atom_site_fract_x
_atom_site_fract_y
_atom_site_fract_z
Si Si1 0.181070 0.866272 0.596678
Si Si2 0.135207 0.760660 0.246515
Si Si3 0.764517 0.370025 0.124253
Si Si4 0.258617 0.842822 0.033189
Si Si5 0.529005 0.360498 0.344657
O O1 0.329630 0.745177 0.596657
O O2 0.000000 0.865284 0.500000
O O3 0.041350 0.847984 0.701775
O O4 0.289139 0.000000 0.598082
O O5 0.267152 0.832453 0.159436
O O6 0.279610 0.692281 0.336118
O O7 0.002667 0.659649 0.180923
O O8 0.750210 0.500000 0.080309
O O9 0.601520 0.359414 0.222328
O O10 0.735818 0.279822 0.030305
O O11 0.500000 0.891699 0.000000
O O12 0.000000 0.883653 0.000000
O O13 0.550486 0.500000 0.379100
#
# Coordination Sequence:
#
# PCOD9145976 Si02
#       5
#     4   4   4   4   4
#     4  10  24  46  67  88 119 166 223 276 332 402
#     4  10  20  35  59  89 126 165 212 269 327 386
#     4   9  18  31  51  86 131 175 212 255 311 386
#     4  10  19  32  54  89 132 180 219 265 321 394
#     4  10  20  36  63  96 129 163 207 267 335 397
#
# _framework density 23.487400000000001
#
# number of rings (size 3 to 8) (size 9 to 14) (size 15 to 20)
#    0.000    2.200    2.000    0.600    0.000    7.600 
#    0.000    3.000    0.000   15.600    0.000    0.000 
#    0.000    0.000    0.000    0.000    0.000    0.000 
#
# Total GULP energy -111380.493864 kJ/mol
# GULP energy per Si atom -5569.024693 kJ/mol
# Density = 2.343394 g / cm^3
# Si number density = 23.487400 Si / 1000 Ang^3
#
#
#
# Elastic Constant Matrix: (Units=GPa)
#
#
# Indices 1 2 3 4 5 6 
#
# 1 112.6138 34.8246 11.7215 0.0000 7.2437 0.0000
# 2 34.8246 209.9298 39.4711 0.0000 24.1134 0.0000
# 3 11.7215 39.4711 81.1119 0.0000 -6.2483 0.0000
# 4 0.0000 0.0000 0.0000 30.2837 0.0000 3.9500
# 5 7.2437 24.1134 -6.2483 0.0000 42.1999 0.0000
# 6 0.0000 0.0000 0.0000 3.9500 0.0000 5.5965
#
#
#
# Elastic Compliance Matrix: (Units=1/GPa)
#
#
# Indices 1 2 3 4 5 6 
#
# 1 0.009429 -0.001298 -0.000808 0.000000 -0.000997 0.000000
# 2 -0.001298 0.005957 -0.002991 0.000000 -0.003624 0.000000
# 3 -0.000808 -0.002991 0.014205 0.000000 0.003951 0.000000
# 4 0.000000 0.000000 0.000000 0.036369 0.000000 -0.025669
# 5 -0.000997 -0.003624 0.003951 0.000000 0.026524 0.000000
# 6 0.000000 0.000000 0.000000 -0.025669 0.000000 0.196800
#
#
# Mechanical properties :
#
#
# Convention : Reuss Voigt Hill
#
# Bulk Modulus (GPa) = 51.54856 63.96556 57.75706
# Shear Modulus (GPa) = 16.34287 36.79193 26.56740
#
# Velocity S-wave (km/s) = 2.64069 3.96214 3.36688
# Velocity P-wave (km/s) = 5.59398 6.94439 6.30544
#
# Compressibility (1/GPa) = 0.01939918
#
# Stress axis : x y z
#
# Youngs Moduli (GPa) = 106.05082 167.85915 70.39745
#
# Poissons Ratio (x) = 0.21786 0.05687
# Poissons Ratio (y) = 0.13764 0.21053
# Poissons Ratio (z) = 0.08567 0.50201
#
# Static dielectric constant tensor:
#      x y z
#    x 1.989990 0.000000 -0.012690 
#    y 0.000000 1.882320 0.000000 
#    z -0.012690 0.000000 1.865900 
# 
# From -- ./inp_files/8965.got.cif
#   From: 2010.05.17/outbox.cif.g08.bks.cpg/sg10_5_cif.got.tgz:8965.got - 2010.06.03 11:33:40.
