data_PCOD9145468
_publ_section_title
;
Structure prediction by ZEFSAII (Michael W. Deem and Ramdas Pophale) SiO2 
 PCOD9145468
Probable space group: P 2/M
;
_chemical_formula_sum "Si O2"
_cell_formula_units_Z 32
_cell_length_a 11.085248
_cell_length_b 9.111361
_cell_length_c 21.261202
_cell_angle_alpha 90.000000
_cell_angle_beta 54.745103
_cell_angle_gamma 90.000000
_cell_volume 1753.564406
_symmetry_space_group_name_H-M "P 2/M"
_symmetry_group_IT_number 10
_symmetry_cell_setting 'monoclinic'
loop_
_space_group_symop_operation_xyz
x,y,z
-x,y,-z
-x,-y,-z
x,-y,z
loop_
_atom_site_type_symbol
_atom_site_label
_atom_site_fract_x
_atom_site_fract_y
_atom_site_fract_z
Si Si1 0.394930 0.325575 0.661533
Si Si2 0.766595 0.177504 0.079234
Si Si3 0.032741 0.177047 0.092645
Si Si4 0.061635 0.674646 0.613167
Si Si5 0.497313 0.176370 0.759542
Si Si6 0.334636 0.171818 0.475000
Si Si7 0.190152 0.170059 0.379427
Si Si8 0.954301 0.325751 0.243575
O O1 0.420765 0.500000 0.651767
O O2 0.435292 0.260627 0.717672
O O3 0.505969 0.246765 0.579797
O O4 0.222100 0.297949 0.703738
O O5 0.884764 0.219294 0.097910
O O6 0.603507 0.219709 0.150906
O O7 0.770130 0.000000 0.075943
O O8 0.831547 0.226561 0.992777
O O9 0.027045 0.243414 0.163406
O O10 0.034018 0.000000 0.096368
O O11 0.079741 0.500000 0.605993
O O12 0.220086 0.748875 0.555035
O O13 0.996917 0.716793 0.700965
O O14 0.947521 0.729126 0.595020
O O15 0.672152 0.203117 0.708314
O O16 0.479988 0.000000 0.754173
O O17 0.257813 0.185647 0.428803
O O18 0.349176 0.000000 0.484816
O O19 0.144613 0.000000 0.385800
O O20 0.975998 0.500000 0.228924
#
# Coordination Sequence:
#
# PCOD9145468 Si02
#       8
#     4   4   4   4   4   4   4   4
#     4  10  19  32  50  73 102 133 165 199 243 298
#     4   8  14  26  48  79 106 128 160 203 248 291
#     4   9  16  28  50  76 102 133 168 201 239 295
#     4  11  23  37  52  70  97 135 172 206 247 294
#     4   9  16  30  52  76 105 132 158 202 256 296
#     4  10  21  37  56  77 100 123 158 211 259 297
#     4   9  19  34  53  76  99 125 161 209 253 292
#     4  10  22  36  48  69 105 140 167 202 245 291
#
# _framework density 18.248545
#
# number of rings (size 3 to 8) (size 9 to 14) (size 15 to 20)
#    0.000    2.500    1.250    3.000    0.000    6.000 
#    0.000    4.375    0.000    0.750    0.000    5.250 
#    0.000    0.000    0.000    0.000    0.000    0.000 
#
# Total GULP energy -178468.813237 kJ/mol
# GULP energy per Si atom -5577.150414 kJ/mol
# Density = 1.820701 g / cm^3
# Si number density = 18.248545 Si / 1000 Ang^3
#
#
#
# Elastic Constant Matrix: (Units=GPa)
#
#
# Indices 1 2 3 4 5 6 
#
# 1 21.1372 14.7218 5.4226 0.0000 0.9543 0.0000
# 2 14.7218 35.4635 29.6944 0.0000 -1.7820 0.0000
# 3 5.4226 29.6944 125.1814 0.0000 -3.8334 0.0000
# 4 0.0000 0.0000 0.0000 12.5073 0.0000 15.0739
# 5 0.9543 -1.7820 -3.8334 0.0000 20.4618 0.0000
# 6 0.0000 0.0000 0.0000 15.0739 0.0000 1.7346
#
#
#
# Elastic Compliance Matrix: (Units=1/GPa)
#
#
# Indices 1 2 3 4 5 6 
#
# 1 0.069276 -0.032911 0.004646 0.000000 -0.005227 0.000000
# 2 -0.032911 0.050868 -0.010519 0.000000 0.003994 0.000000
# 3 0.004646 -0.010519 0.010307 0.000000 0.000798 0.000000
# 4 0.000000 0.000000 0.000000 -0.008440 0.000000 0.073343
# 5 -0.005227 0.003994 0.000798 0.000000 0.049613 0.000000
# 6 0.000000 0.000000 0.000000 0.073343 0.000000 -0.060855
#
#
# Mechanical properties :
#
#
# Convention : Reuss Voigt Hill
#
# Bulk Modulus (GPa) = 18.90935 31.27329 25.09132
# Shear Modulus (GPa) = 24.27603 15.73698 20.00650
#
# Velocity S-wave (km/s) = 3.65128 2.93980 3.31469
# Velocity P-wave (km/s) = 5.30664 5.35704 5.33190
#
# Compressibility (1/GPa) = 0.05288389
#
# Stress axis : x y z
#
# Youngs Moduli (GPa) = 14.43498 19.65859 97.02412
#
# Poissons Ratio (x) = 0.64698 -0.45076
# Poissons Ratio (y) = 0.47507 1.02055
# Poissons Ratio (z) = -0.06706 0.20678
#
# Static dielectric constant tensor:
#      x y z
#    x 1.615160 0.000000 -0.003190 
#    y 0.000000 1.606490 0.000000 
#    z -0.003190 0.000000 1.664220 
# 
# From -- ./inp_files/54921.got.cif
#   From: 2010.05.17/outbox.cif.g08.bks.cpg/sg10_28_cif.got.tgz:54921.got - 2010.06.03 11:33:40.
