data_PCOD9145268
_publ_section_title
;
Structure prediction by ZEFSAII (Michael W. Deem and Ramdas Pophale) SiO2 
 PCOD9145268
Probable space group: P 2/M
;
_chemical_formula_sum "Si O2"
_cell_formula_units_Z 28
_cell_length_a 10.479484
_cell_length_b 17.778579
_cell_length_c 17.976195
_cell_angle_alpha 90.000000
_cell_angle_beta 21.835365
_cell_angle_gamma 90.000000
_cell_volume 1245.686063
_symmetry_space_group_name_H-M "P 2/M"
_symmetry_group_IT_number 10
_symmetry_cell_setting 'monoclinic'
loop_
_space_group_symop_operation_xyz
x,y,z
-x,y,-z
-x,-y,-z
x,-y,z
loop_
_atom_site_type_symbol
_atom_site_label
_atom_site_fract_x
_atom_site_fract_y
_atom_site_fract_z
Si Si1 0.851923 0.083065 0.662637
Si Si2 0.405032 0.665201 0.700846
Si Si3 0.954716 0.085571 0.936641
Si Si4 0.918448 0.236901 0.701116
Si Si5 0.614391 0.339115 0.748415
Si Si6 0.386848 0.500000 0.397349
Si Si7 0.382250 0.500000 0.218805
Si Si8 0.864968 0.775682 0.260573
O O1 0.983377 0.151476 0.640649
O O2 0.000000 0.091053 0.500000
O O3 0.944965 0.000000 0.641375
O O4 0.443563 0.086021 0.871985
O O5 0.384047 0.675649 0.800937
O O6 0.441221 0.576243 0.667861
O O7 0.130698 0.705567 0.797795
O O8 0.758988 0.707404 0.487024
O O9 0.116689 0.149389 0.798134
O O10 0.086017 0.000000 0.854645
O O11 0.000000 0.102621 0.000000
O O12 0.656275 0.270612 0.782227
O O13 0.866680 0.232940 0.817452
O O14 0.497373 0.413973 0.856199
O O15 0.000000 0.353456 0.500000
O O16 0.395600 0.500000 0.302466
O O17 0.979152 0.500000 0.629547
O O18 0.500000 0.777024 0.500000
#
# Coordination Sequence:
#
# PCOD9145268 Si02
#       8
#     4   4   4   4   4   2   2   4
#     4  10  22  39  64  93 119 153 204 258 305 364
#     4   9  17  30  51  83 121 164 206 248 300 362
#     4  10  24  44  65  90 122 162 208 253 307 371
#     4  10  19  31  52  82 120 154 194 247 299 356
#     4   9  13  23  46  72 108 154 197 249 294 346
#     4   9  12  24  46  77 118 158 203 256 294 347
#     4   9  10  20  39  74 110 147 198 260 301 333
#     4  10  23  38  55  88 131 164 201 247 307 369
#
# _framework density 22.477574000000001
#
# number of rings (size 3 to 8) (size 9 to 14) (size 15 to 20)
#    0.000    2.429    4.286    1.286    6.000    1.429 
#    0.000    5.357    0.000    0.000    0.000    2.500 
#    0.000   11.429    0.000    0.000    0.000    0.000 
#
# Total GULP energy -156231.410286 kJ/mol
# GULP energy per Si atom -5579.693224 kJ/mol
# Density = 2.242641 g / cm^3
# Si number density = 22.477574 Si / 1000 Ang^3
#
#
#
# Elastic Constant Matrix: (Units=GPa)
#
#
# Indices 1 2 3 4 5 6 
#
# 1 137.2733 108.8473 21.5959 0.0000 3.8356 0.0000
# 2 108.8473 206.4016 27.2302 0.0000 16.6442 0.0000
# 3 21.5959 27.2302 51.5214 0.0000 -1.1432 0.0000
# 4 0.0000 0.0000 0.0000 11.1059 0.0000 -0.5932
# 5 3.8356 16.6442 -1.1432 0.0000 25.1895 0.0000
# 6 0.0000 0.0000 0.0000 -0.5932 0.0000 -41.5912
#
#
#
# Elastic Compliance Matrix: (Units=1/GPa)
#
#
# Indices 1 2 3 4 5 6 
#
# 1 0.012829 -0.006727 -0.001769 0.000000 0.002411 0.000000
# 2 -0.006727 0.009077 -0.002090 0.000000 -0.005068 0.000000
# 3 -0.001769 -0.002090 0.021314 0.000000 0.002618 0.000000
# 4 0.000000 0.000000 0.000000 0.089974 0.000000 -0.001283
# 5 0.002411 -0.005068 0.002618 0.000000 0.042800 0.000000
# 6 0.000000 0.000000 0.000000 -0.001283 0.000000 -0.024025
#
#
# Mechanical properties :
#
#
# Convention : Reuss Voigt Hill
#
# Bulk Modulus (GPa) = 45.35499 78.94923 62.15211
# Shear Modulus (GPa) = 27.70251 14.77569 21.23910
#
# Velocity S-wave (km/s) = 3.51444 2.56667 3.07726
# Velocity P-wave (km/s) = 6.05723 6.63201 6.35112
#
# Compressibility (1/GPa) = 0.02204829
#
# Stress axis : x y z
#
# Youngs Moduli (GPa) = 77.94561 110.17141 46.91837
#
# Poissons Ratio (x) = 0.74110 0.08299
# Poissons Ratio (y) = 0.52432 0.09807
# Poissons Ratio (z) = 0.13788 0.23027
#
# Static dielectric constant tensor:
#      x y z
#    x 1.824230 0.000000 -0.056070 
#    y 0.000000 1.829590 0.000000 
#    z -0.056070 0.000000 1.995260 
# 
# From -- ./inp_files/84221.got.cif
#   From: 2010.05.17/outbox.cif.g08.bks.cpg/sg10_43_cif.got.tgz:84221.got - 2010.06.03 11:33:40.
