data_PCOD9145238
_publ_section_title
;
Structure prediction by ZEFSAII (Michael W. Deem and Ramdas Pophale) SiO2 
 PCOD9145238
Probable space group: P 2/M
;
_chemical_formula_sum "Si O2"
_cell_formula_units_Z 30
_cell_length_a 30.661296
_cell_length_b 10.351624
_cell_length_c 30.661347
_cell_angle_alpha 90.000000
_cell_angle_beta 170.056881
_cell_angle_gamma 90.000000
_cell_volume 1680.382525
_symmetry_space_group_name_H-M "P 2/M"
_symmetry_group_IT_number 10
_symmetry_cell_setting 'monoclinic'
loop_
_space_group_symop_operation_xyz
x,y,z
-x,y,-z
-x,-y,-z
x,-y,z
loop_
_atom_site_type_symbol
_atom_site_label
_atom_site_fract_x
_atom_site_fract_y
_atom_site_fract_z
Si Si1 0.877955 0.344932 0.621700
Si Si2 0.735136 0.500000 0.764864
Si Si3 0.552240 0.842954 0.947537
Si Si4 0.698540 0.276545 0.801336
Si Si5 0.260168 0.147179 0.239835
Si Si6 0.024709 0.844511 0.475073
Si Si7 0.172133 0.342959 0.327723
Si Si8 0.405362 0.657215 0.094295
O O1 0.876507 0.500000 0.623211
O O2 0.853056 0.298935 0.646888
O O3 0.142634 0.311120 0.859837
O O4 0.639659 0.311135 0.356902
O O5 0.500000 0.500000 0.500000
O O6 0.718072 0.381716 0.781923
O O7 0.000000 0.500000 0.000000
O O8 0.289592 0.812053 0.713271
O O9 0.557028 0.000000 0.942769
O O10 0.573389 0.749798 0.926655
O O11 0.786372 0.812074 0.210085
O O12 0.713650 0.150321 0.786315
O O13 0.435162 0.294750 0.566597
O O14 0.933186 0.294747 0.064643
O O15 0.500000 0.207881 0.500000
O O16 0.252146 0.000000 0.247855
O O17 0.000000 0.207879 0.000000
O O18 0.000000 0.792581 0.500000
O O19 0.023140 0.000000 0.476722
O O20 0.173012 0.500000 0.326827
O O21 0.410009 0.500000 0.089684
#
# Coordination Sequence:
#
# PCOD9145238 Si02
#       8
#     4   2   4   4   4   4   4   4
#     4   9  19  33  54  74  99 131 169 211 245 300
#     4  12  22  32  46  72 108 130 148 180 242 302
#     4  10  19  31  52  78 105 136 173 218 265 310
#     4  12  21  34  53  76 103 129 158 200 245 292
#     4  10  21  38  56  72  93 129 172 204 230 273
#     4   9  17  30  49  75 105 140 180 217 253 304
#     4  11  20  35  52  78 104 130 164 199 248 302
#     4  10  19  34  53  77 101 133 175 216 262 304
#
# _framework density 17.853076000000001
#
# number of rings (size 3 to 8) (size 9 to 14) (size 15 to 20)
#    0.000    1.733    1.333    4.400    0.000    3.733 
#    0.000    0.000    0.000    7.200    0.000    0.000 
#    0.000    0.000    0.000    0.000    0.000    0.000 
#
# Total GULP energy -167272.780870 kJ/mol
# GULP energy per Si atom -5575.759362 kJ/mol
# Density = 1.781244 g / cm^3
# Si number density = 17.853076 Si / 1000 Ang^3
#
#
#
# Elastic Constant Matrix: (Units=GPa)
#
#
# Indices 1 2 3 4 5 6 
#
# 1 189.7348 36.4116 125.2364 0.0000 -0.8755 0.0000
# 2 36.4116 40.2883 30.2494 0.0000 -0.5539 0.0000
# 3 125.2364 30.2494 225.3238 0.0000 3.9174 0.0000
# 4 0.0000 0.0000 0.0000 -5.0158 0.0000 -3.0348
# 5 -0.8755 -0.5539 3.9174 0.0000 27.9965 0.0000
# 6 0.0000 0.0000 0.0000 -3.0348 0.0000 29.7218
#
#
#
# Elastic Compliance Matrix: (Units=1/GPa)
#
#
# Indices 1 2 3 4 5 6 
#
# 1 0.009149 -0.004925 -0.004438 0.000000 0.000810 0.000000
# 2 -0.004925 0.030287 -0.001339 0.000000 0.000633 0.000000
# 3 -0.004438 -0.001339 0.007105 0.000000 -0.001159 0.000000
# 4 0.000000 0.000000 0.000000 -0.187771 0.000000 -0.019173
# 5 0.000810 0.000633 -0.001159 0.000000 0.035919 0.000000
# 6 0.000000 0.000000 0.000000 -0.019173 0.000000 0.031688
#
#
# Mechanical properties :
#
#
# Convention : Reuss Voigt Hill
#
# Bulk Modulus (GPa) = 39.78502 93.23797 66.51149
# Shear Modulus (GPa) = -114.04760 28.10382 -42.97189
#
# Velocity S-wave (km/s) = -8.00124 3.97189 -4.91141
# Velocity P-wave (km/s) = 7.93894 8.56581 2.27445
#
# Compressibility (1/GPa) = 0.02513509
#
# Stress axis : x y z
#
# Youngs Moduli (GPa) = 109.30640 33.01772 140.75477
#
# Poissons Ratio (x) = 0.16262 0.62463
# Poissons Ratio (y) = 0.53835 0.18854
# Poissons Ratio (z) = 0.48507 0.04423
#
# Static dielectric constant tensor:
#      x y z
#    x 1.597210 0.000000 0.003720 
#    y 0.000000 1.686000 0.000000 
#    z 0.003720 0.000000 1.639390 
# 
# From -- ./inp_files/94061.got.cif
#   From: 2010.05.17/outbox.cif.g08.bks.cpg/sg10_48_cif.got.tgz:94061.got - 2010.06.03 11:33:40.
