data_PCOD9145457
_publ_section_title
;
Structure prediction by ZEFSAII (Michael W. Deem and Ramdas Pophale) SiO2 
 PCOD9145457
Probable space group: P 2/M
;
_chemical_formula_sum "Si O2"
_cell_formula_units_Z 32
_cell_length_a 18.726582
_cell_length_b 15.106141
_cell_length_c 22.193637
_cell_angle_alpha 90.000000
_cell_angle_beta 17.713031
_cell_angle_gamma 90.000000
_cell_volume 1910.164269
_symmetry_space_group_name_H-M "P 2/M"
_symmetry_group_IT_number 10
_symmetry_cell_setting 'monoclinic'
loop_
_space_group_symop_operation_xyz
x,y,z
-x,y,-z
-x,-y,-z
x,-y,z
loop_
_atom_site_type_symbol
_atom_site_label
_atom_site_fract_x
_atom_site_fract_y
_atom_site_fract_z
Si Si1 0.988916 0.396831 0.200648
Si Si2 0.760337 0.595337 0.816644
Si Si3 0.383928 0.604925 0.393421
Si Si4 0.670757 0.282628 0.997428
Si Si5 0.132504 0.863642 0.335174
Si Si6 0.344009 0.100826 0.040464
Si Si7 0.165922 0.685775 0.448640
Si Si8 0.908233 0.393464 0.010204
O O1 0.066591 0.500000 0.139681
O O2 0.779021 0.388034 0.416660
O O3 0.194705 0.333327 0.058081
O O4 0.932535 0.375546 0.176486
O O5 0.800656 0.500000 0.814565
O O6 0.965422 0.611127 0.603648
O O7 0.500000 0.595540 0.000000
O O8 0.767180 0.674253 0.858638
O O9 0.387646 0.500000 0.372267
O O10 0.276796 0.663156 0.425346
O O11 0.644835 0.632794 0.203196
O O12 0.720308 0.177894 0.954855
O O13 0.395432 0.306752 0.222939
O O14 0.403337 0.863381 0.139040
O O15 0.000000 0.904410 0.500000
O O16 0.984084 0.774618 0.442092
O O17 0.167648 0.902013 0.239486
O O18 0.370359 0.000000 0.997097
O O19 0.897706 0.500000 0.025260
O O20 0.000000 0.357249 0.000000
#
# Coordination Sequence:
#
# PCOD9145457 Si02
#       8
#     4   4   4   4   4   4   4   4
#     4  10  19  32  53  75 102 142 178 214 258 307
#     4  11  24  37  50  70 101 135 179 229 267 307
#     4  10  19  32  50  72 100 140 183 212 251 308
#     4  12  22  36  55  75 102 137 178 223 269 317
#     4  11  21  37  55  75  95 129 168 219 270 325
#     4  11  24  39  56  77 101 132 174 222 277 332
#     4  12  22  33  54  73  99 135 177 221 265 314
#     4   9  18  31  48  75 108 138 173 214 253 302
#
# _framework density 16.752486000000001
#
# number of rings (size 3 to 8) (size 9 to 14) (size 15 to 20)
#    0.000    1.250    5.000    2.250    0.000    3.000 
#    0.000    3.750    0.000    0.000    0.000    0.000 
#    0.000    0.500    0.000    3.500    0.000    0.125 
#
# Total GULP energy -178180.755572 kJ/mol
# GULP energy per Si atom -5568.148612 kJ/mol
# Density = 1.671436 g / cm^3
# Si number density = 16.752486 Si / 1000 Ang^3
#
#
#
# Elastic Constant Matrix: (Units=GPa)
#
#
# Indices 1 2 3 4 5 6 
#
# 1 82.4278 35.2987 23.0608 0.0000 7.9301 0.0000
# 2 35.2987 80.0706 19.7271 0.0000 4.2537 0.0000
# 3 23.0608 19.7271 92.1156 0.0000 17.3057 0.0000
# 4 0.0000 0.0000 0.0000 2.9392 0.0000 -0.6219
# 5 7.9301 4.2537 17.3057 0.0000 20.9081 0.0000
# 6 0.0000 0.0000 0.0000 -0.6219 0.0000 4.8293
#
#
#
# Elastic Compliance Matrix: (Units=1/GPa)
#
#
# Indices 1 2 3 4 5 6 
#
# 1 0.015660 -0.006247 -0.002020 0.000000 -0.002997 0.000000
# 2 -0.006247 0.015680 -0.001942 0.000000 0.000787 0.000000
# 3 -0.002020 -0.001942 0.013688 0.000000 -0.010168 0.000000
# 4 0.000000 0.000000 0.000000 0.349763 0.000000 0.045040
# 5 -0.002997 0.000787 -0.010168 0.000000 0.057222 0.000000
# 6 0.000000 0.000000 0.000000 0.045040 0.000000 0.212868
#
#
# Mechanical properties :
#
#
# Convention : Reuss Voigt Hill
#
# Bulk Modulus (GPa) = 40.63239 45.64303 43.13771
# Shear Modulus (GPa) = 7.20980 17.50380 12.35680
#
# Velocity S-wave (km/s) = 2.07679 3.23592 2.71884
# Velocity P-wave (km/s) = 5.48251 6.42388 5.97177
#
# Compressibility (1/GPa) = 0.02461091
#
# Stress axis : x y z
#
# Youngs Moduli (GPa) = 63.85530 63.77739 73.05840
#
# Poissons Ratio (x) = 0.39842 0.14755
# Poissons Ratio (y) = 0.39890 0.14186
# Poissons Ratio (z) = 0.12896 0.12384
#
# Static dielectric constant tensor:
#      x y z
#    x 1.586130 0.000000 0.020880 
#    y 0.000000 1.584240 0.000000 
#    z 0.020880 0.000000 1.618980 
# 
# From -- ./inp_files/85936.got.cif
#   From: 2010.05.17/outbox.cif.g08.bks.cpg/sg10_43_cif.got.tgz:85936.got - 2010.06.03 11:33:40.
