data_PCOD9145842
_publ_section_title
;
Structure prediction by ZEFSAII (Michael W. Deem and Ramdas Pophale) SiO2 
 PCOD9145842
Probable space group: P 2/M
;
_chemical_formula_sum "Si O2"
_cell_formula_units_Z 32
_cell_length_a 13.566726
_cell_length_b 8.973154
_cell_length_c 32.519905
_cell_angle_alpha 90.000000
_cell_angle_beta 155.666976
_cell_angle_gamma 90.000000
_cell_volume 1631.204471
_symmetry_space_group_name_H-M "P 2/M"
_symmetry_group_IT_number 10
_symmetry_cell_setting 'monoclinic'
loop_
_space_group_symop_operation_xyz
x,y,z
-x,y,-z
-x,-y,-z
x,-y,z
loop_
_atom_site_type_symbol
_atom_site_label
_atom_site_fract_x
_atom_site_fract_y
_atom_site_fract_z
Si Si1 0.400832 0.833208 0.050533
Si Si2 0.110770 0.680327 0.635733
Si Si3 0.221972 0.667228 0.907082
Si Si4 0.584834 0.319457 0.405044
Si Si5 0.166238 0.319400 0.307617
Si Si6 0.893997 0.180429 0.275277
Si Si7 0.033059 0.171305 0.056916
Si Si8 0.465772 0.679787 0.267008
O O1 0.653486 0.765405 0.159808
O O2 0.454243 0.000000 0.056112
O O3 0.236930 0.759329 0.953911
O O4 0.231274 0.836075 0.025223
O O5 0.117948 0.500000 0.643649
O O6 0.856262 0.720902 0.518747
O O7 0.120472 0.755947 0.684176
O O8 0.323442 0.721780 0.685050
O O9 0.138211 0.500000 0.884587
O O10 0.050791 0.722548 0.806021
O O11 0.500000 0.662668 0.000000
O O12 0.572986 0.500000 0.399581
O O13 0.404175 0.274466 0.372991
O O14 0.512247 0.268429 0.331623
O O15 0.164716 0.500000 0.312436
O O16 0.112589 0.242678 0.330839
O O17 0.895609 0.000000 0.276993
O O18 0.219332 0.256702 0.155967
O O19 0.120422 0.000000 0.085581
O O20 0.000000 0.243258 0.000000
O O21 0.458128 0.500000 0.264893
#
# Coordination Sequence:
#
# PCOD9145842 Si02
#       8
#     4   4   4   4   4   4   4   4
#     4  10  21  35  53  77 108 150 189 223 267 325
#     4  10  21  38  61  85 109 143 187 232 281 337
#     4  10  19  32  53  81 110 140 175 223 274 318
#     4   9  19  37  61  86 112 144 183 231 284 335
#     4  10  20  36  57  82 114 150 186 224 275 335
#     4  11  23  38  56  80 113 151 190 232 276 325
#     4  10  21  37  55  78 114 154 186 218 267 329
#     4  10  20  37  62  89 113 140 183 236 283 329
#
# _framework density 19.617405999999999
#
# number of rings (size 3 to 8) (size 9 to 14) (size 15 to 20)
#    0.000    2.000    1.250    2.250    0.000    6.500 
#    0.000    4.375    0.000    1.500    0.000    0.000 
#    0.000    0.000    0.000    0.000    0.000    0.000 
#
# Total GULP energy -178459.898631 kJ/mol
# GULP energy per Si atom -5576.871832 kJ/mol
# Density = 1.957276 g / cm^3
# Si number density = 19.617406 Si / 1000 Ang^3
#
#
#
# Elastic Constant Matrix: (Units=GPa)
#
#
# Indices 1 2 3 4 5 6 
#
# 1 124.1471 26.5602 30.8355 0.0000 3.5834 0.0000
# 2 26.5602 14.7511 6.7398 0.0000 -2.9419 0.0000
# 3 30.8355 6.7398 66.4680 0.0000 7.3908 0.0000
# 4 0.0000 0.0000 0.0000 36.5699 0.0000 -22.3239
# 5 3.5834 -2.9419 7.3908 0.0000 31.2902 0.0000
# 6 0.0000 0.0000 0.0000 -22.3239 0.0000 40.1063
#
#
#
# Elastic Compliance Matrix: (Units=1/GPa)
#
#
# Indices 1 2 3 4 5 6 
#
# 1 0.014397 -0.024789 -0.003823 0.000000 -0.003076 0.000000
# 2 -0.024789 0.116101 -0.001851 0.000000 0.014192 0.000000
# 3 -0.003823 -0.001851 0.017435 0.000000 -0.003854 0.000000
# 4 0.000000 0.000000 0.000000 0.041418 0.000000 0.023054
# 5 -0.003076 0.014192 -0.003854 0.000000 0.034556 0.000000
# 6 0.000000 0.000000 0.000000 0.023054 0.000000 0.037766
#
#
# Mechanical properties :
#
#
# Convention : Reuss Voigt Hill
#
# Bulk Modulus (GPa) = 11.49328 37.07078 24.28203
# Shear Modulus (GPa) = 14.22067 31.00866 22.61466
#
# Velocity S-wave (km/s) = 2.69532 3.98008 3.39895
# Velocity P-wave (km/s) = 3.94433 6.32924 5.27338
#
# Compressibility (1/GPa) = 0.08700740
#
# Stress axis : x y z
#
# Youngs Moduli (GPa) = 69.46031 8.61317 57.35686
#
# Poissons Ratio (x) = 0.21351 0.21929
# Poissons Ratio (y) = 1.72184 0.10615
# Poissons Ratio (z) = 0.26556 0.01594
#
# Static dielectric constant tensor:
#      x y z
#    x 1.731290 0.000000 0.001370 
#    y 0.000000 1.700800 0.000000 
#    z 0.001370 0.000000 1.678140 
# 
# From -- ./inp_files/58330.got.cif
#   From: 2010.05.17/outbox.cif.g08.bks.cpg/sg10_30_cif.got.tgz:58330.got - 2010.06.03 11:33:40.
