data_PCOD9145036
_publ_section_title
;
Structure prediction by ZEFSAII (Michael W. Deem and Ramdas Pophale) SiO2 
 PCOD9145036
Probable space group: P 2/M
;
_chemical_formula_sum "Si O2"
_cell_formula_units_Z 32
_cell_length_a 16.912281
_cell_length_b 7.824214
_cell_length_c 25.095894
_cell_angle_alpha 90.000000
_cell_angle_beta 154.510049
_cell_angle_gamma 90.000000
_cell_volume 1429.124939
_symmetry_space_group_name_H-M "P 2/M"
_symmetry_group_IT_number 10
_symmetry_cell_setting 'monoclinic'
loop_
_space_group_symop_operation_xyz
x,y,z
-x,y,-z
-x,-y,-z
x,-y,z
loop_
_atom_site_type_symbol
_atom_site_label
_atom_site_fract_x
_atom_site_fract_y
_atom_site_fract_z
Si Si1 0.795374 0.790221 0.470718
Si Si2 0.126374 0.801224 0.189539
Si Si3 0.275495 0.300051 0.025885
Si Si4 0.819119 0.296449 0.148085
Si Si5 0.798016 0.794484 0.250208
Si Si6 0.504866 0.205263 0.628209
Si Si7 0.340841 0.801623 0.722656
Si Si8 0.223555 0.705298 0.366539
O O1 0.625286 0.731572 0.403463
O O2 0.769635 0.729281 0.394502
O O3 0.990635 0.737794 0.613344
O O4 0.793442 0.000000 0.469485
O O5 0.286487 0.729059 0.248963
O O6 0.212115 0.784095 0.301014
O O7 0.925691 0.718915 0.070931
O O8 0.097112 0.000000 0.159455
O O9 0.320494 0.500000 0.051525
O O10 0.263052 0.229006 0.957432
O O11 0.442717 0.209887 0.157036
O O12 0.821497 0.500000 0.143453
O O13 0.730126 0.257611 0.150582
O O14 0.032643 0.239170 0.278572
O O15 0.694680 0.728748 0.240037
O O16 0.792362 0.000000 0.246629
O O17 0.393484 0.244365 0.506338
O O18 0.517320 0.000000 0.640382
O O19 0.284999 0.000000 0.691854
O O20 0.222947 0.500000 0.360064
#
# Coordination Sequence:
#
# PCOD9145036 Si02
#       8
#     4   4   4   4   4   4   4   4
#     4   9  18  35  57  82 113 142 176 224 273 320
#     4  10  20  33  53  80 108 140 182 226 268 319
#     4  10  22  40  57  76 108 148 186 223 270 324
#     4   9  19  34  52  77 109 144 178 218 269 323
#     4  10  19  33  58  86 110 138 176 224 274 323
#     4  10  19  32  53  81 109 142 181 222 270 320
#     4  10  21  37  58  82 106 141 186 228 271 320
#     4  10  19  31  49  77 114 150 179 214 267 325
#
# _framework density 22.391324999999998
#
# number of rings (size 3 to 8) (size 9 to 14) (size 15 to 20)
#    0.000    2.250    1.250    2.625    0.000    7.500 
#    0.000    4.375    0.000    5.250    0.000    0.000 
#    0.000    0.000    0.000    0.000    0.000    0.000 
#
# Total GULP energy -178656.678433 kJ/mol
# GULP energy per Si atom -5583.021201 kJ/mol
# Density = 2.234036 g / cm^3
# Si number density = 22.391325 Si / 1000 Ang^3
#
#
#
# Elastic Constant Matrix: (Units=GPa)
#
#
# Indices 1 2 3 4 5 6 
#
# 1 30.2553 9.1409 22.2281 0.0000 34.0570 0.0000
# 2 9.1409 23.2171 -11.9899 0.0000 -1.4556 0.0000
# 3 22.2281 -11.9899 50.0158 0.0000 4.2928 0.0000
# 4 0.0000 0.0000 0.0000 13.8549 0.0000 -5.9215
# 5 34.0570 -1.4556 4.2928 0.0000 9.7934 0.0000
# 6 0.0000 0.0000 0.0000 -5.9215 0.0000 29.5753
#
#
#
# Elastic Compliance Matrix: (Units=1/GPa)
#
#
# Indices 1 2 3 4 5 6 
#
# 1 -0.009827 0.007700 0.003306 0.000000 0.033868 0.000000
# 2 0.007700 0.043171 0.009014 0.000000 -0.024310 0.000000
# 3 0.003306 0.009014 0.022400 0.000000 -0.019976 0.000000
# 4 0.000000 0.000000 0.000000 0.078931 0.000000 0.015803
# 5 0.033868 -0.024310 -0.019976 0.000000 -0.010525 0.000000
# 6 0.000000 0.000000 0.000000 0.015803 0.000000 0.036976
#
#
# Mechanical properties :
#
#
# Convention : Reuss Voigt Hill
#
# Bulk Modulus (GPa) = 10.44031 15.80516 13.12273
# Shear Modulus (GPa) = 32.67663 16.25201 24.46432
#
# Velocity S-wave (km/s) = 3.82428 2.69702 3.30901
# Velocity P-wave (km/s) = 4.91660 4.09542 4.52468
#
# Compressibility (1/GPa) = 0.09578261
#
# Stress axis : x y z
#
# Youngs Moduli (GPa) = -101.76359 23.16374 44.64356
#
# Poissons Ratio (x) = -0.17835 -0.14760
# Poissons Ratio (y) = 0.78354 -0.40240
# Poissons Ratio (z) = 0.33644 -0.20879
#
# Static dielectric constant tensor:
#      x y z
#    x 1.867580 0.000000 0.027810 
#    y 0.000000 1.810210 0.000000 
#    z 0.027810 0.000000 1.801170 
# 
# From -- ./inp_files/89577.got.cif
#   From: 2010.05.17/outbox.cif.g08.bks.cpg/sg10_45_cif.got.tgz:89577.got - 2010.06.03 11:33:40.
