data_PCOD9145225
_publ_section_title
;
Structure prediction by ZEFSAII (Michael W. Deem and Ramdas Pophale) SiO2 
 PCOD9145225
Probable space group: P 2/M
;
_chemical_formula_sum "Si O2"
_cell_formula_units_Z 28
_cell_length_a 7.992118
_cell_length_b 17.839698
_cell_length_c 13.205260
_cell_angle_alpha 90.000000
_cell_angle_beta 47.354961
_cell_angle_gamma 90.000000
_cell_volume 1384.896346
_symmetry_space_group_name_H-M "P 2/M"
_symmetry_group_IT_number 10
_symmetry_cell_setting 'monoclinic'
loop_
_space_group_symop_operation_xyz
x,y,z
-x,y,-z
-x,-y,-z
x,-y,z
loop_
_atom_site_type_symbol
_atom_site_label
_atom_site_fract_x
_atom_site_fract_y
_atom_site_fract_z
Si Si1 0.325894 0.828675 0.666139
Si Si2 0.106940 0.692839 0.859577
Si Si3 0.848941 0.674699 0.762306
Si Si4 0.680737 0.086558 0.629541
Si Si5 0.290304 0.586383 0.514447
Si Si6 0.953222 0.844466 0.671955
Si Si7 0.522464 0.586652 0.202122
O O1 0.500000 0.821961 0.500000
O O2 0.283827 0.747653 0.731629
O O3 0.433579 0.885449 0.701355
O O4 0.084720 0.857062 0.722539
O O5 0.244383 0.624032 0.853421
O O6 0.915980 0.673347 0.854106
O O7 0.000000 0.734056 0.000000
O O8 0.861605 0.759770 0.715892
O O9 0.616965 0.634181 0.823993
O O10 0.064485 0.633050 0.624173
O O11 0.752923 0.102839 0.714654
O O12 0.846406 0.137986 0.491863
O O13 0.717113 0.000000 0.588468
O O14 0.500000 0.611728 0.500000
O O15 0.243894 0.500000 0.562655
O O16 0.366516 0.588117 0.367179
O O17 0.553962 0.500000 0.158483
#
# Coordination Sequence:
#
# PCOD9145225 Si02
#       7
#     4   4   4   4   4   4   4
#     4   9  20  36  60  86 111 149 191 233 284 346
#     4  11  25  42  61  85 116 153 197 252 301 347
#     4  11  22  36  61  83 117 157 198 243 291 350
#     4  10  19  31  51  84 122 149 177 227 286 342
#     4  10  20  34  56  87 120 152 191 243 296 343
#     4   9  19  29  48  82 114 150 178 224 279 337
#     4  11  24  38  58  85 116 157 200 246 298 354
#
# _framework density 20.218119000000002
#
# number of rings (size 3 to 8) (size 9 to 14) (size 15 to 20)
#    0.000    1.857    1.429    2.571   10.000    5.714 
#    0.000    0.714    0.000    0.429    0.000    4.000 
#    0.000    0.000    0.000    0.000    0.000    0.000 
#
# Total GULP energy -156140.312322 kJ/mol
# GULP energy per Si atom -5576.439726 kJ/mol
# Density = 2.017210 g / cm^3
# Si number density = 20.218119 Si / 1000 Ang^3
#
#
#
# Elastic Constant Matrix: (Units=GPa)
#
#
# Indices 1 2 3 4 5 6 
#
# 1 159.6852 81.6112 13.7417 0.0000 6.5129 0.0000
# 2 81.6112 81.4188 7.1981 0.0000 5.6880 0.0000
# 3 13.7417 7.1981 30.1481 0.0000 6.0437 0.0000
# 4 0.0000 0.0000 0.0000 -2.3084 0.0000 7.4193
# 5 6.5129 5.6880 6.0437 0.0000 13.9158 0.0000
# 6 0.0000 0.0000 0.0000 7.4193 0.0000 8.6481
#
#
#
# Elastic Compliance Matrix: (Units=1/GPa)
#
#
# Indices 1 2 3 4 5 6 
#
# 1 0.013085 -0.012883 -0.002975 0.000000 0.000434 0.000000
# 2 -0.012883 0.025459 0.000735 0.000000 -0.004696 0.000000
# 3 -0.002975 0.000735 0.037386 0.000000 -0.015145 0.000000
# 4 0.000000 0.000000 0.000000 -0.115293 0.000000 0.098912
# 5 0.000434 -0.004696 -0.015145 0.000000 0.080155 0.000000
# 6 0.000000 0.000000 0.000000 0.098912 0.000000 0.030775
#
#
# Mechanical properties :
#
#
# Convention : Reuss Voigt Hill
#
# Bulk Modulus (GPa) = 21.88983 52.92826 37.40904
# Shear Modulus (GPa) = 42.72036 15.29783 29.00909
#
# Velocity S-wave (km/s) = 4.60170 2.75369 3.79199
# Velocity P-wave (km/s) = 6.25176 6.02876 6.14127
#
# Compressibility (1/GPa) = 0.04568331
#
# Stress axis : x y z
#
# Youngs Moduli (GPa) = 76.42398 39.27916 26.74782
#
# Poissons Ratio (x) = 0.50604 0.07958
# Poissons Ratio (y) = 0.98458 -0.01966
# Poissons Ratio (z) = 0.22738 -0.02887
#
# Static dielectric constant tensor:
#      x y z
#    x 1.809300 0.000000 -0.010110 
#    y 0.000000 1.711820 0.000000 
#    z -0.010110 0.000000 1.732140 
# 
# From -- ./inp_files/35238.got.cif
#   From: 2010.05.17/outbox.cif.g08.bks.cpg/sg10_18_cif.got.tgz:35238.got - 2010.06.03 11:33:40.
