data_PCOD9145141
_publ_section_title
;
Structure prediction by ZEFSAII (Michael W. Deem and Ramdas Pophale) SiO2 
 PCOD9145141
Probable space group: P 2/M
;
_chemical_formula_sum "Si O2"
_cell_formula_units_Z 32
_cell_length_a 20.744935
_cell_length_b 14.915206
_cell_length_c 18.512311
_cell_angle_alpha 90.000000
_cell_angle_beta 20.097672
_cell_angle_gamma 90.000000
_cell_volume 1968.259467
_symmetry_space_group_name_H-M "P 2/M"
_symmetry_group_IT_number 10
_symmetry_cell_setting 'monoclinic'
loop_
_space_group_symop_operation_xyz
x,y,z
-x,y,-z
-x,-y,-z
x,-y,z
loop_
_atom_site_type_symbol
_atom_site_label
_atom_site_fract_x
_atom_site_fract_y
_atom_site_fract_z
Si Si1 0.218984 0.104078 0.098611
Si Si2 0.004921 0.601114 0.613116
Si Si3 0.117527 0.102506 0.941577
Si Si4 0.394880 0.891482 0.761086
Si Si5 0.794807 0.102276 0.399631
Si Si6 0.518402 0.171084 0.056620
Si Si7 0.304072 0.359403 0.171482
Si Si8 0.870035 0.218919 0.460232
O O1 0.039415 0.159270 0.313105
O O2 0.170100 0.000000 0.143041
O O3 0.288098 0.136958 0.946941
O O4 0.384913 0.117191 0.981039
O O5 0.037117 0.500000 0.605224
O O6 0.150931 0.623367 0.394700
O O7 0.051792 0.679739 0.620404
O O8 0.798410 0.605051 0.793221
O O9 0.301865 0.143114 0.785074
O O10 0.164757 0.000000 0.867477
O O11 0.000000 0.145211 0.000000
O O12 0.973349 0.098079 0.159998
O O13 0.612697 0.873244 0.544339
O O14 0.375669 0.000000 0.778332
O O15 0.825656 0.173803 0.429948
O O16 0.764411 0.000000 0.460690
O O17 0.318998 0.207514 0.294629
O O18 0.500000 0.120014 0.000000
O O19 0.647204 0.256882 0.900541
O O20 0.500000 0.394737 0.000000
#
# Coordination Sequence:
#
# PCOD9145141 Si02
#       8
#     4   4   4   4   4   4   4   4
#     4  11  22  35  53  71  97 137 178 215 252 300
#     4  11  23  35  54  78  96 122 164 208 264 324
#     4   9  17  29  46  73 105 133 165 206 244 283
#     4   9  17  30  48  71  96 131 175 202 236 295
#     4  10  19  31  51  73  97 138 176 200 240 298
#     4  11  22  36  53  70  96 130 173 222 262 304
#     4  10  19  37  54  71  92 123 155 208 267 320
#     4  12  21  35  54  73 100 130 170 213 259 301
#
# _framework density 16.258019999999998
#
# number of rings (size 3 to 8) (size 9 to 14) (size 15 to 20)
#    0.000    1.625    6.250    1.125    0.000    2.750 
#    0.000    3.125    0.000    0.000    0.000    0.000 
#    0.000    0.500    0.000    1.250    0.000    0.250 
#
# Total GULP energy -178184.042784 kJ/mol
# GULP energy per Si atom -5568.251337 kJ/mol
# Density = 1.622102 g / cm^3
# Si number density = 16.258020 Si / 1000 Ang^3
#
#
#
# Elastic Constant Matrix: (Units=GPa)
#
#
# Indices 1 2 3 4 5 6 
#
# 1 89.5823 3.2629 -1.5356 0.0000 -32.2738 0.0000
# 2 3.2629 54.3309 0.5728 0.0000 -11.7149 0.0000
# 3 -1.5356 0.5728 31.5175 0.0000 -27.3526 0.0000
# 4 0.0000 0.0000 0.0000 13.7478 0.0000 3.4480
# 5 -32.2738 -11.7149 -27.3526 0.0000 26.5251 0.0000
# 6 0.0000 0.0000 0.0000 3.4480 0.0000 12.1964
#
#
#
# Elastic Compliance Matrix: (Units=1/GPa)
#
#
# Indices 1 2 3 4 5 6 
#
# 1 -0.000451 -0.006497 -0.027323 0.000000 -0.031595 0.000000
# 2 -0.006497 0.015544 -0.014296 0.000000 -0.015783 0.000000
# 3 -0.027323 -0.014296 -0.034973 0.000000 -0.075623 0.000000
# 4 0.000000 0.000000 0.000000 0.078290 0.000000 -0.022133
# 5 -0.031595 -0.015783 -0.075623 0.000000 -0.085695 0.000000
# 6 0.000000 0.000000 0.000000 -0.022133 0.000000 0.088249
#
#
# Mechanical properties :
#
#
# Convention : Reuss Voigt Hill
#
# Bulk Modulus (GPa) = -8.61217 20.00345 5.69564
# Shear Modulus (GPa) = 42.19674 22.03588 32.11631
#
# Velocity S-wave (km/s) = 5.10007 3.68555 4.44938
# Velocity P-wave (km/s) = 5.41963 5.51738 5.46872
#
# Compressibility (1/GPa) = -0.11611476
#
# Stress axis : x y z
#
# Youngs Moduli (GPa) = -2215.27134 64.33553 -28.59379
#
# Poissons Ratio (x) = 0.41801 -0.78128
# Poissons Ratio (y) = -14.39333 -0.40879
# Poissons Ratio (z) = -60.52888 0.91976
#
# Static dielectric constant tensor:
#      x y z
#    x 1.605460 0.000000 -0.030100 
#    y 0.000000 1.541400 0.000000 
#    z -0.030100 0.000000 1.577770 
# 
# From -- ./inp_files/79716.got.cif
#   From: 2010.05.17/outbox.cif.g08.bks.cpg/sg10_40_cif.got.tgz:79716.got - 2010.06.03 11:33:40.
