data_PCOD9145269
_publ_section_title
;
Structure prediction by ZEFSAII (Michael W. Deem and Ramdas Pophale) SiO2 
 PCOD9145269
Probable space group: P 2/M
;
_chemical_formula_sum "Si O2"
_cell_formula_units_Z 32
_cell_length_a 19.145434
_cell_length_b 7.828718
_cell_length_c 27.485343
_cell_angle_alpha 90.000000
_cell_angle_beta 157.000901
_cell_angle_gamma 90.000000
_cell_volume 1609.603651
_symmetry_space_group_name_H-M "P 2/M"
_symmetry_group_IT_number 10
_symmetry_cell_setting 'monoclinic'
loop_
_space_group_symop_operation_xyz
x,y,z
-x,y,-z
-x,-y,-z
x,-y,z
loop_
_atom_site_type_symbol
_atom_site_label
_atom_site_fract_x
_atom_site_fract_y
_atom_site_fract_z
Si Si1 0.936307 0.198243 0.155028
Si Si2 0.408812 0.695681 0.680732
Si Si3 0.572361 0.300802 0.884425
Si Si4 0.871887 0.701418 0.223311
Si Si5 0.344281 0.302949 0.826927
Si Si6 0.269473 0.200646 0.493018
Si Si7 0.015843 0.803082 0.452511
Si Si8 0.666151 0.209152 0.574335
O O1 0.884335 0.214070 0.178667
O O2 0.139203 0.263682 0.281284
O O3 0.934075 0.000000 0.139819
O O4 0.783582 0.290103 0.026696
O O5 0.466769 0.500000 0.713238
O O6 0.508988 0.773952 0.791986
O O7 0.406061 0.772590 0.624862
O O8 0.200304 0.710371 0.560232
O O9 0.514592 0.500000 0.846582
O O10 0.481591 0.225511 0.875505
O O11 0.840313 0.500000 0.195902
O O12 0.715832 0.768907 0.158969
O O13 0.071272 0.721184 0.373883
O O14 0.399195 0.500000 0.870706
O O15 0.155296 0.292977 0.677803
O O16 0.341228 0.263425 0.486895
O O17 0.236303 0.000000 0.466814
O O18 0.000000 0.812786 0.500000
O O19 0.020939 0.000000 0.436845
O O20 0.500000 0.267377 0.500000
O O21 0.665851 0.000000 0.574775
#
# Coordination Sequence:
#
# PCOD9145269 Si02
#       8
#     4   4   4   4   4   4   4   4
#     4  10  21  36  55  78 104 133 169 217 266 312
#     4  11  21  33  51  72 102 145 183 215 258 314
#     4  10  22  37  51  69 100 145 189 219 251 307
#     4  10  19  32  52  73 100 139 178 220 263 308
#     4  10  20  33  49  69  96 140 189 223 257 304
#     4  10  19  31  52  83 111 132 166 219 268 305
#     4  11  21  30  45  71 101 134 177 235 278 296
#     4   8  16  34  60  86 108 130 158 200 259 322
#
# _framework density 19.880671
#
# number of rings (size 3 to 8) (size 9 to 14) (size 15 to 20)
#    0.000    2.000    2.500    2.625    0.000    3.000 
#    0.000    2.500    0.000   14.250    0.000    5.250 
#    0.000    0.000    0.000    0.000    0.000    0.000 
#
# Total GULP energy -178453.643919 kJ/mol
# GULP energy per Si atom -5576.676372 kJ/mol
# Density = 1.983542 g / cm^3
# Si number density = 19.880671 Si / 1000 Ang^3
#
#
#
# Elastic Constant Matrix: (Units=GPa)
#
#
# Indices 1 2 3 4 5 6 
#
# 1 106.0380 -0.6603 58.4970 0.0000 15.2075 0.0000
# 2 -0.6603 35.2798 -6.8261 0.0000 2.7199 0.0000
# 3 58.4970 -6.8261 112.4565 0.0000 3.2457 0.0000
# 4 0.0000 0.0000 0.0000 20.6264 0.0000 -3.7678
# 5 15.2075 2.7199 3.2457 0.0000 15.4428 0.0000
# 6 0.0000 0.0000 0.0000 -3.7678 0.0000 20.3569
#
#
#
# Elastic Compliance Matrix: (Units=1/GPa)
#
#
# Indices 1 2 3 4 5 6 
#
# 1 0.015699 -0.000147 -0.007777 0.000000 -0.013799 0.000000
# 2 -0.000147 0.029146 0.002002 0.000000 -0.005409 0.000000
# 3 -0.007777 0.002002 0.012927 0.000000 0.004589 0.000000
# 4 0.000000 0.000000 0.000000 0.050178 0.000000 0.009287
# 5 -0.013799 -0.005409 0.004589 0.000000 0.078332 0.000000
# 6 0.000000 0.000000 0.000000 0.009287 0.000000 0.050842
#
#
# Mechanical properties :
#
#
# Convention : Reuss Voigt Hill
#
# Bulk Modulus (GPa) = 21.77325 39.53284 30.65304
# Shear Modulus (GPa) = 18.91948 24.80281 21.86114
#
# Velocity S-wave (km/s) = 3.08823 3.53595 3.31965
# Velocity P-wave (km/s) = 4.86744 6.04969 5.49048
#
# Compressibility (1/GPa) = 0.04592792
#
# Stress axis : x y z
#
# Youngs Moduli (GPa) = 63.69905 34.30948 77.35940
#
# Poissons Ratio (x) = 0.00504 0.60161
# Poissons Ratio (y) = 0.00937 -0.15486
# Poissons Ratio (z) = 0.49537 -0.06868
#
# Static dielectric constant tensor:
#      x y z
#    x 1.742540 0.000000 -0.036210 
#    y 0.000000 1.746150 0.000000 
#    z -0.036210 0.000000 1.696110 
# 
# From -- ./inp_files/95673.got.cif
#   From: 2010.05.17/outbox.cif.g08.bks.cpg/sg10_48_cif.got.tgz:95673.got - 2010.06.03 11:33:40.
