data_PCOD9145736
_publ_section_title
;
Structure prediction by ZEFSAII (Michael W. Deem and Ramdas Pophale) SiO2 
 PCOD9145736
Probable space group: P 2/M
;
_chemical_formula_sum "Si O2"
_cell_formula_units_Z 32
_cell_length_a 26.338105
_cell_length_b 7.541594
_cell_length_c 20.627253
_cell_angle_alpha 90.000000
_cell_angle_beta 158.276735
_cell_angle_gamma 90.000000
_cell_volume 1516.478711
_symmetry_space_group_name_H-M "P 2/M"
_symmetry_group_IT_number 10
_symmetry_cell_setting 'monoclinic'
loop_
_space_group_symop_operation_xyz
x,y,z
-x,y,-z
-x,-y,-z
x,-y,z
loop_
_atom_site_type_symbol
_atom_site_label
_atom_site_fract_x
_atom_site_fract_y
_atom_site_fract_z
Si Si1 0.576214 0.290993 0.389678
Si Si2 0.882590 0.712697 0.540254
Si Si3 0.079403 0.717019 0.659707
Si Si4 0.869954 0.210186 0.675776
Si Si5 0.423229 0.283267 0.844456
Si Si6 0.082036 0.785747 0.033346
Si Si7 0.603262 0.710126 0.568058
Si Si8 0.390430 0.717082 0.054765
O O1 0.549510 0.500000 0.364500
O O2 0.722295 0.276107 0.525969
O O3 0.586350 0.216617 0.474688
O O4 0.455665 0.220614 0.200079
O O5 0.881183 0.500000 0.532405
O O6 0.899233 0.751947 0.635642
O O7 0.732560 0.778603 0.342143
O O8 0.996225 0.776149 0.624653
O O9 0.080825 0.500000 0.659817
O O10 0.000000 0.772545 0.500000
O O11 0.237106 0.773688 0.854466
O O12 0.863437 0.000000 0.676590
O O13 0.993697 0.278087 0.867424
O O14 0.421581 0.500000 0.842555
O O15 0.505366 0.228742 0.878203
O O16 0.500000 0.225850 0.000000
O O17 0.239480 0.730545 0.223639
O O18 0.082244 0.000000 0.033291
O O19 0.000000 0.727126 0.000000
O O20 0.500000 0.783707 0.500000
O O21 0.575635 0.500000 0.530960
O O22 0.389063 0.500000 0.054437
#
# Coordination Sequence:
#
# PCOD9145736 Si02
#       8
#     4   4   4   4   4   4   4   4
#     4  10  19  34  55  78 108 143 177 216 272 331
#     4  10  19  32  52  80 109 139 176 219 269 322
#     4   9  17  29  48  79 113 141 174 219 266 313
#     4  11  22  36  56  80 108 140 182 234 275 316
#     4   9  15  24  43  73 104 132 168 213 256 305
#     4  10  21  38  58  80 107 147 195 232 272 328
#     4  10  22  37  56  86 119 145 176 224 280 337
#     4   9  16  27  45  71 104 139 171 208 259 312
#
# _framework density 21.101517000000001
#
# number of rings (size 3 to 8) (size 9 to 14) (size 15 to 20)
#    0.000    2.250    2.500    1.125    0.000    5.500 
#    0.000    2.500    0.000    1.500    0.000    0.000 
#    0.000    0.000    0.000    0.000    0.000    0.000 
#
# Total GULP energy -178702.568444 kJ/mol
# GULP energy per Si atom -5584.455264 kJ/mol
# Density = 2.105349 g / cm^3
# Si number density = 21.101517 Si / 1000 Ang^3
#
#
#
# Elastic Constant Matrix: (Units=GPa)
#
#
# Indices 1 2 3 4 5 6 
#
# 1 74.0147 -3.4647 26.3171 0.0000 -11.4698 0.0000
# 2 -3.4647 50.5875 -3.9370 0.0000 -0.5091 0.0000
# 3 26.3171 -3.9370 120.0802 0.0000 -12.6801 0.0000
# 4 0.0000 0.0000 0.0000 5.0142 0.0000 -7.0615
# 5 -11.4698 -0.5091 -12.6801 0.0000 43.1390 0.0000
# 6 0.0000 0.0000 0.0000 -7.0615 0.0000 -36.5279
#
#
#
# Elastic Compliance Matrix: (Units=1/GPa)
#
#
# Indices 1 2 3 4 5 6 
#
# 1 0.015086 0.000836 -0.002946 0.000000 0.003155 0.000000
# 2 0.000836 0.019873 0.000533 0.000000 0.000613 0.000000
# 3 -0.002946 0.000533 0.009194 0.000000 0.001926 0.000000
# 4 0.000000 0.000000 0.000000 0.156757 0.000000 -0.030304
# 5 0.003155 0.000613 0.001926 0.000000 0.024593 0.000000
# 6 0.000000 0.000000 0.000000 -0.030304 0.000000 -0.021518
#
#
# Mechanical properties :
#
#
# Convention : Reuss Voigt Hill
#
# Bulk Modulus (GPa) = 24.39059 31.39036 27.89048
# Shear Modulus (GPa) = 22.64437 17.37618 20.01028
#
# Velocity S-wave (km/s) = 3.27940 2.87271 3.08277
# Velocity P-wave (km/s) = 5.09147 5.09033 5.09090
#
# Compressibility (1/GPa) = 0.04099941
#
# Stress axis : x y z
#
# Youngs Moduli (GPa) = 66.28521 50.32043 108.76439
#
# Poissons Ratio (x) = -0.04206 0.32040
# Poissons Ratio (y) = -0.05540 -0.05799
# Poissons Ratio (z) = 0.19526 -0.02683
#
# Static dielectric constant tensor:
#      x y z
#    x 1.730210 0.000000 -0.018510 
#    y 0.000000 1.795030 0.000000 
#    z -0.018510 0.000000 1.726520 
# 
# From -- ./inp_files/87039.got.cif
#   From: 2010.05.17/outbox.cif.g08.bks.cpg/sg10_44_cif.got.tgz:87039.got - 2010.06.03 11:33:40.
