data_PCOD9145013
_publ_section_title
;
Structure prediction by ZEFSAII (Michael W. Deem and Ramdas Pophale) SiO2 
 PCOD9145013
Probable space group: P 2/M
;
_chemical_formula_sum "Si O2"
_cell_formula_units_Z 26
_cell_length_a 5.405844
_cell_length_b 12.642770
_cell_length_c 20.395079
_cell_angle_alpha 90.000000
_cell_angle_beta 110.148138
_cell_angle_gamma 90.000000
_cell_volume 1308.599107
_symmetry_space_group_name_H-M "P 2/M"
_symmetry_group_IT_number 10
_symmetry_cell_setting 'monoclinic'
loop_
_space_group_symop_operation_xyz
x,y,z
-x,y,-z
-x,-y,-z
x,-y,z
loop_
_atom_site_type_symbol
_atom_site_label
_atom_site_fract_x
_atom_site_fract_y
_atom_site_fract_z
Si Si1 0.263813 0.115142 0.565838
Si Si2 0.851101 0.116566 0.077918
Si Si3 0.500000 0.298211 0.500000
Si Si4 0.556806 0.813943 0.851137
Si Si5 0.332064 0.253686 0.691651
Si Si6 0.720723 0.324533 0.977421
Si Si7 0.782593 0.623500 0.648346
O O1 0.387603 0.215603 0.541889
O O2 0.238673 0.155032 0.637749
O O3 0.000000 0.103451 0.500000
O O4 0.401823 0.000000 0.575699
O O5 0.158729 0.129271 0.124300
O O6 0.662486 0.129041 0.123860
O O7 0.778520 0.212277 0.021836
O O8 0.808791 0.000000 0.044890
O O9 0.303638 0.364830 0.436531
O O10 0.448787 0.789704 0.769849
O O11 0.615991 0.705861 0.896639
O O12 0.563534 0.318691 0.674462
O O13 0.070646 0.323583 0.680272
O O14 0.500000 0.378848 0.000000
O O15 0.000000 0.378948 0.000000
O O16 0.791014 0.500000 0.665799
#
# Coordination Sequence:
#
# PCOD9145013 Si02
#       7
#     4   4   2   4   4   4   4
#     4  10  20  36  55  78 112 158 196 222 260 318
#     4  10  19  31  49  74 109 151 195 235 270 316
#     4  10  20  38  60  88 110 144 184 244 278 338
#     4  10  20  33  49  72 109 148 184 228 276 324
#     4  11  23  40  57  85 117 149 187 236 279 337
#     4   8  16  28  45  69  99 139 188 226 270 318
#     4  11  23  40  64  87 111 138 180 238 305 353
#
# _framework density 19.868573000000001
#
# number of rings (size 3 to 8) (size 9 to 14) (size 15 to 20)
#    0.000    2.000    1.538    2.308    0.000    6.769 
#    0.000    2.308    0.000    0.000    0.000    0.000 
#    0.000  110.769    0.000    0.000    0.000    0.000 
#
# Total GULP energy -144877.312244 kJ/mol
# GULP energy per Si atom -5572.204317 kJ/mol
# Density = 1.982335 g / cm^3
# Si number density = 19.868573 Si / 1000 Ang^3
#
#
#
# Elastic Constant Matrix: (Units=GPa)
#
#
# Indices 1 2 3 4 5 6 
#
# 1 152.6424 25.7955 35.8556 0.0000 8.3260 0.0000
# 2 25.7955 79.3267 31.0019 0.0000 0.3917 0.0000
# 3 35.8556 31.0019 142.3724 0.0000 -0.3240 0.0000
# 4 0.0000 0.0000 0.0000 3.8051 0.0000 1.8581
# 5 8.3260 0.3917 -0.3240 0.0000 27.9292 0.0000
# 6 0.0000 0.0000 0.0000 1.8581 0.0000 22.4265
#
#
#
# Elastic Compliance Matrix: (Units=1/GPa)
#
#
# Indices 1 2 3 4 5 6 
#
# 1 0.007316 -0.001799 -0.001456 0.000000 -0.002173 0.000000
# 2 -0.001799 0.014223 -0.002643 0.000000 0.000306 0.000000
# 3 -0.001456 -0.002643 0.007967 0.000000 0.000563 0.000000
# 4 0.000000 0.000000 0.000000 0.273886 0.000000 -0.022692
# 5 -0.002173 0.000306 0.000563 0.000000 0.036455 0.000000
# 6 0.000000 0.000000 0.000000 -0.022692 0.000000 0.046470
#
#
# Mechanical properties :
#
#
# Convention : Reuss Voigt Hill
#
# Bulk Modulus (GPa) = 56.46685 62.18306 59.32495
# Shear Modulus (GPa) = 12.37576 29.61140 20.99358
#
# Velocity S-wave (km/s) = 2.49847 3.86471 3.25410
# Velocity P-wave (km/s) = 6.06671 7.16099 6.63644
#
# Compressibility (1/GPa) = 0.01770951
#
# Stress axis : x y z
#
# Youngs Moduli (GPa) = 136.69128 70.31025 125.51391
#
# Poissons Ratio (x) = 0.12651 0.18269
# Poissons Ratio (y) = 0.24596 0.33175
# Poissons Ratio (z) = 0.19896 0.18584
#
# Static dielectric constant tensor:
#      x y z
#    x 1.732950 0.000000 -0.021150 
#    y 0.000000 1.740610 0.000000 
#    z -0.021150 0.000000 1.702970 
# 
# From -- ./inp_files/81237.got.cif
#   From: 2010.05.17/outbox.cif.g08.bks.cpg/sg10_41_cif.got.tgz:81237.got - 2010.06.03 11:33:40.
