data_PCOD9145536
_publ_section_title
;
Structure prediction by ZEFSAII (Michael W. Deem and Ramdas Pophale) SiO2 
 PCOD9145536
Probable space group: P 2/M
;
_chemical_formula_sum "Si O2"
_cell_formula_units_Z 32
_cell_length_a 23.998140
_cell_length_b 8.948326
_cell_length_c 12.717316
_cell_angle_alpha 90.000000
_cell_angle_beta 46.233340
_cell_angle_gamma 90.000000
_cell_volume 1972.195628
_symmetry_space_group_name_H-M "P 2/M"
_symmetry_group_IT_number 10
_symmetry_cell_setting 'monoclinic'
loop_
_space_group_symop_operation_xyz
x,y,z
-x,y,-z
-x,-y,-z
x,-y,z
loop_
_atom_site_type_symbol
_atom_site_label
_atom_site_fract_x
_atom_site_fract_y
_atom_site_fract_z
Si Si1 0.676474 0.677684 0.738066
Si Si2 0.311538 0.678135 0.887022
Si Si3 0.413573 0.177014 0.329156
Si Si4 0.412761 0.821558 0.577556
Si Si5 0.155883 0.822942 0.159110
Si Si6 0.406765 0.821564 0.955007
Si Si7 0.004753 0.327598 0.621355
Si Si8 0.165298 0.177071 0.399395
O O1 0.675700 0.500000 0.750308
O O2 0.642268 0.728479 0.671420
O O3 0.762227 0.740408 0.644508
O O4 0.623395 0.751724 0.897633
O O5 0.312007 0.500000 0.894945
O O6 0.352974 0.732657 0.727013
O O7 0.359724 0.749341 0.920561
O O8 0.225080 0.740661 0.009904
O O9 0.405012 0.208732 0.463965
O O10 0.502468 0.204607 0.180760
O O11 0.398860 0.000000 0.331795
O O12 0.500000 0.785597 0.500000
O O13 0.402246 0.000000 0.608647
O O14 0.168572 0.800357 0.268353
O O15 0.072335 0.755719 0.240892
O O16 0.157859 0.000000 0.137148
O O17 0.393199 0.000000 0.973151
O O18 0.006312 0.500000 0.653421
O O19 0.083971 0.243431 0.544217
O O20 0.000000 0.326799 0.500000
O O21 0.169199 0.000000 0.413354
#
# Coordination Sequence:
#
# PCOD9145536 Si02
#       8
#     4   4   4   4   4   4   4   4
#     4  12  24  35  51  78 111 141 176 222 270 315
#     4  12  23  33  52  81 110 139 174 222 275 315
#     4  10  22  39  58  75  99 139 184 223 263 317
#     4  10  20  39  60  77  99 136 182 223 266 319
#     4  10  19  32  51  74 104 142 180 215 254 315
#     4  11  21  37  56  75 102 141 183 219 261 320
#     4   9  17  29  47  73 107 138 169 214 263 311
#     4  10  19  32  51  73 103 143 182 212 252 316
#
# _framework density 16.225570999999999
#
# number of rings (size 3 to 8) (size 9 to 14) (size 15 to 20)
#    0.000    1.500    2.500    4.125    0.000    5.750 
#    0.000    0.000    0.000    0.000    0.000    0.875 
#    0.000    7.000    0.000    0.000    0.000    0.000 
#
# Total GULP energy -178769.321179 kJ/mol
# GULP energy per Si atom -5586.541287 kJ/mol
# Density = 1.618864 g / cm^3
# Si number density = 16.225571 Si / 1000 Ang^3
#
#
#
# Elastic Constant Matrix: (Units=GPa)
#
#
# Indices 1 2 3 4 5 6 
#
# 1 66.7280 69.3148 67.8308 0.0000 -5.7941 0.0000
# 2 69.3148 124.0348 79.6048 0.0000 -16.5806 0.0000
# 3 67.8308 79.6048 100.0180 0.0000 -22.4068 0.0000
# 4 0.0000 0.0000 0.0000 63.7188 0.0000 -54.4935
# 5 -5.7941 -16.5806 -22.4068 0.0000 21.3290 0.0000
# 6 0.0000 0.0000 0.0000 -54.4935 0.0000 90.8417
#
#
#
# Elastic Compliance Matrix: (Units=1/GPa)
#
#
# Indices 1 2 3 4 5 6 
#
# 1 0.084855 -0.020458 -0.051872 0.000000 -0.047345 0.000000
# 2 -0.020458 0.021439 -0.000916 0.000000 0.010146 0.000000
# 3 -0.051872 -0.000916 0.055698 0.000000 0.043709 0.000000
# 4 0.000000 0.000000 0.000000 0.032227 0.000000 0.019332
# 5 -0.047345 0.010146 0.043709 0.000000 0.087828 0.000000
# 6 0.000000 0.000000 0.000000 0.019332 0.000000 0.022605
#
#
# Mechanical properties :
#
#
# Convention : Reuss Voigt Hill
#
# Bulk Modulus (GPa) = 64.51232 80.47575 72.49403
# Shear Modulus (GPa) = 10.95743 40.11327 25.53535
#
# Velocity S-wave (km/s) = 2.60151 4.97754 3.97138
# Velocity P-wave (km/s) = 6.99069 9.09617 8.11203
#
# Compressibility (1/GPa) = 0.01550092
#
# Stress axis : x y z
#
# Youngs Moduli (GPa) = 11.78479 46.64347 17.95396
#
# Poissons Ratio (x) = 0.95423 0.93130
# Poissons Ratio (y) = 0.24109 0.01645
# Poissons Ratio (z) = 0.61129 0.04273
#
# Static dielectric constant tensor:
#      x y z
#    x 1.523880 0.000000 -0.007180 
#    y 0.000000 1.537080 0.000000 
#    z -0.007180 0.000000 1.527460 
# 
# From -- ./inp_files/55200.got.cif
#   From: 2010.05.17/outbox.cif.g08.bks.cpg/sg10_28_cif.got.tgz:55200.got - 2010.06.03 11:33:40.
