data_PCOD9145459
_publ_section_title
;
Structure prediction by ZEFSAII (Michael W. Deem and Ramdas Pophale) SiO2 
 PCOD9145459
Probable space group: P 2/M
;
_chemical_formula_sum "Si O2"
_cell_formula_units_Z 32
_cell_length_a 21.361527
_cell_length_b 8.761488
_cell_length_c 15.860598
_cell_angle_alpha 90.000000
_cell_angle_beta 42.885473
_cell_angle_gamma 90.000000
_cell_volume 2020.134391
_symmetry_space_group_name_H-M "P 2/M"
_symmetry_group_IT_number 10
_symmetry_cell_setting 'monoclinic'
loop_
_space_group_symop_operation_xyz
x,y,z
-x,y,-z
-x,-y,-z
x,-y,z
loop_
_atom_site_type_symbol
_atom_site_label
_atom_site_fract_x
_atom_site_fract_y
_atom_site_fract_z
Si Si1 0.778065 0.182704 0.058424
Si Si2 0.111167 0.816572 0.218163
Si Si3 0.892455 0.683117 0.099784
Si Si4 0.896279 0.818010 0.420720
Si Si5 0.400553 0.817667 0.505945
Si Si6 0.782174 0.682163 0.379969
Si Si7 0.888527 0.324475 0.605171
Si Si8 0.596550 0.682492 0.309275
O O1 0.843197 0.233381 0.071278
O O2 0.680249 0.262562 0.169094
O O3 0.766657 0.000000 0.071580
O O4 0.826813 0.226247 0.922705
O O5 0.143027 0.743967 0.274721
O O6 0.004367 0.773133 0.307009
O O7 0.112483 0.000000 0.225799
O O8 0.885106 0.500000 0.093703
O O9 0.841304 0.719568 0.237743
O O10 0.000000 0.722479 0.000000
O O11 0.837692 0.736899 0.406566
O O12 0.863753 0.769282 0.546126
O O13 0.890342 0.000000 0.416957
O O14 0.315679 0.764334 0.533084
O O15 0.498319 0.751202 0.379671
O O16 0.385342 0.747517 0.614421
O O17 0.405076 0.000000 0.507716
O O18 0.769107 0.500000 0.394745
O O19 0.860270 0.500000 0.623894
O O20 0.000000 0.319572 0.500000
O O21 0.592015 0.500000 0.317939
#
# Coordination Sequence:
#
# PCOD9145459 Si02
#       8
#     4   4   4   4   4   4   4   4
#     4  11  21  33  50  73 100 133 171 209 248 297
#     4   9  19  33  49  72 102 135 170 209 251 295
#     4  10  21  34  47  66  98 138 173 206 245 291
#     4  10  19  32  50  72 101 136 171 209 251 297
#     4  11  21  35  54  74  96 126 166 210 255 301
#     4  11  21  33  49  72 102 134 169 208 249 297
#     4   9  17  30  49  72  97 128 167 211 255 298
#     4  11  21  35  53  73  98 128 164 209 257 300
#
# _framework density 15.840531
#
# number of rings (size 3 to 8) (size 9 to 14) (size 15 to 20)
#    0.000    1.750    1.250    5.250    0.000    3.750 
#    0.000    0.000    0.000    0.000    0.000    0.875 
#    0.000    7.000    0.000    0.000    0.000    0.000 
#
# Total GULP energy -178669.399611 kJ/mol
# GULP energy per Si atom -5583.418738 kJ/mol
# Density = 1.580448 g / cm^3
# Si number density = 15.840531 Si / 1000 Ang^3
#
#
#
# Elastic Constant Matrix: (Units=GPa)
#
#
# Indices 1 2 3 4 5 6 
#
# 1 69.0549 44.0767 74.1761 0.0000 1.8470 0.0000
# 2 44.0767 86.0902 54.8359 0.0000 1.0014 0.0000
# 3 74.1761 54.8359 109.6143 0.0000 3.0332 0.0000
# 4 0.0000 0.0000 0.0000 28.4234 0.0000 5.5288
# 5 1.8470 1.0014 3.0332 0.0000 25.4206 0.0000
# 6 0.0000 0.0000 0.0000 5.5288 0.0000 33.7696
#
#
#
# Elastic Compliance Matrix: (Units=1/GPa)
#
#
# Indices 1 2 3 4 5 6 
#
# 1 0.055460 -0.006586 -0.034244 0.000000 0.000316 0.000000
# 2 -0.006586 0.017833 -0.004473 0.000000 0.000310 0.000000
# 3 -0.034244 -0.004473 0.034574 0.000000 -0.001461 0.000000
# 4 0.000000 0.000000 0.000000 0.036340 0.000000 -0.005950
# 5 0.000316 0.000310 -0.001461 0.000000 0.039477 0.000000
# 6 0.000000 0.000000 0.000000 -0.005950 0.000000 0.030586
#
#
# Mechanical properties :
#
#
# Convention : Reuss Voigt Hill
#
# Bulk Modulus (GPa) = 57.93381 67.88185 62.90783
# Shear Modulus (GPa) = 16.09635 23.63411 19.86523
#
# Velocity S-wave (km/s) = 3.19117 3.86683 3.54514
# Velocity P-wave (km/s) = 7.08736 7.92987 7.52042
#
# Compressibility (1/GPa) = 0.01726108
#
# Stress axis : x y z
#
# Youngs Moduli (GPa) = 18.03104 56.07493 28.92384
#
# Poissons Ratio (x) = 0.36933 0.99045
# Poissons Ratio (y) = 0.11876 0.12937
# Poissons Ratio (z) = 0.61745 0.25081
#
# Static dielectric constant tensor:
#      x y z
#    x 1.506870 0.000000 -0.006600 
#    y 0.000000 1.529810 0.000000 
#    z -0.006600 0.000000 1.523030 
# 
# From -- ./inp_files/69981.got.cif
#   From: 2010.05.17/outbox.cif.g08.bks.cpg/sg10_35_cif.got.tgz:69981.got - 2010.06.03 11:33:40.
