data_PCOD9145034
_publ_section_title
;
Structure prediction by ZEFSAII (Michael W. Deem and Ramdas Pophale) SiO2 
 PCOD9145034
Probable space group: P 2/M
;
_chemical_formula_sum "Si O2"
_cell_formula_units_Z 28
_cell_length_a 12.818506
_cell_length_b 11.793740
_cell_length_c 24.616480
_cell_angle_alpha 90.000000
_cell_angle_beta 153.279530
_cell_angle_gamma 90.000000
_cell_volume 1673.316364
_symmetry_space_group_name_H-M "P 2/M"
_symmetry_group_IT_number 10
_symmetry_cell_setting 'monoclinic'
loop_
_space_group_symop_operation_xyz
x,y,z
-x,y,-z
-x,-y,-z
x,-y,z
loop_
_atom_site_type_symbol
_atom_site_label
_atom_site_fract_x
_atom_site_fract_y
_atom_site_fract_z
Si Si1 0.753952 0.000000 0.650670
Si Si2 0.490673 0.207648 0.104927
Si Si3 0.960470 0.134658 0.043734
Si Si4 0.612543 0.364466 0.493197
Si Si5 0.810002 0.631662 0.112360
Si Si6 0.294096 0.000000 0.858157
Si Si7 0.149346 0.629807 0.740859
Si Si8 0.764270 0.771374 0.727927
O O1 0.500000 0.000000 0.500000
O O2 0.758380 0.114244 0.689123
O O3 0.018699 0.000000 0.746535
O O4 0.640337 0.110176 0.146092
O O5 0.679755 0.294972 0.215051
O O6 0.301246 0.159930 0.058149
O O7 0.342321 0.278349 0.991479
O O8 0.131156 0.196801 0.165178
O O9 0.000508 0.000000 0.066990
O O10 0.000000 0.169013 0.000000
O O11 0.500000 0.339325 0.500000
O O12 0.587698 0.500000 0.473127
O O13 0.483013 0.288481 0.388895
O O14 0.882627 0.334946 0.617832
O O15 0.776978 0.500000 0.080015
O O16 0.772981 0.635757 0.159651
O O17 0.068380 0.676304 0.220923
O O18 0.500000 0.000000 0.000000
O O19 0.162276 0.500000 0.729960
#
# Coordination Sequence:
#
# PCOD9145034 Si02
#       8
#     2   4   4   4   4   2   4   4
#     4  12  26  34  50  87 128 159 178 212 278 341
#     4  11  21  33  52  77 105 139 182 229 281 325
#     4  10  21  41  60  76  99 135 191 244 287 329
#     4  10  19  32  52  78 113 154 186 208 248 325
#     4  10  19  31  51  77 110 149 183 219 262 326
#     4  12  22  34  50  79 118 155 182 218 274 341
#     4  10  19  31  49  77 111 149 179 208 255 325
#     4  11  20  35  54  79 110 146 186 226 271 325
#
# _framework density 16.733238
#
# number of rings (size 3 to 8) (size 9 to 14) (size 15 to 20)
#    0.000    1.429    2.857    5.143    2.000    1.143 
#    0.000    0.000    0.000   16.286    0.000    5.000 
#    0.000    0.000    0.000    0.000    0.000    0.000 
#
# Total GULP energy -156088.625868 kJ/mol
# GULP energy per Si atom -5574.593781 kJ/mol
# Density = 1.669515 g / cm^3
# Si number density = 16.733238 Si / 1000 Ang^3
#
#
#
# Elastic Constant Matrix: (Units=GPa)
#
#
# Indices 1 2 3 4 5 6 
#
# 1 56.4403 13.6183 48.0984 0.0000 0.4961 0.0000
# 2 13.6183 40.6556 24.4774 0.0000 2.2981 0.0000
# 3 48.0984 24.4774 83.3197 0.0000 13.4674 0.0000
# 4 0.0000 0.0000 0.0000 29.7798 0.0000 6.9146
# 5 0.4961 2.2981 13.4674 0.0000 21.3002 0.0000
# 6 0.0000 0.0000 0.0000 6.9146 0.0000 20.8218
#
#
#
# Elastic Compliance Matrix: (Units=1/GPa)
#
#
# Indices 1 2 3 4 5 6 
#
# 1 0.038662 0.001326 -0.025105 0.000000 0.014830 0.000000
# 2 0.001326 0.030057 -0.010099 0.000000 0.003111 0.000000
# 3 -0.025105 -0.010099 0.032514 0.000000 -0.018883 0.000000
# 4 0.000000 0.000000 0.000000 0.036385 0.000000 -0.012083
# 5 0.014830 0.003111 -0.018883 0.000000 0.058206 0.000000
# 6 0.000000 0.000000 0.000000 -0.012083 0.000000 0.052039
#
#
# Mechanical properties :
#
#
# Convention : Reuss Voigt Hill
#
# Bulk Modulus (GPa) = 29.87098 39.20044 34.53571
# Shear Modulus (GPa) = 15.30093 20.66179 17.98136
#
# Velocity S-wave (km/s) = 3.02719 3.51775 3.28165
# Velocity P-wave (km/s) = 5.48713 6.32273 5.91969
#
# Compressibility (1/GPa) = 0.03347731
#
# Stress axis : x y z
#
# Youngs Moduli (GPa) = 25.86497 33.27047 30.75637
#
# Poissons Ratio (x) = -0.04413 0.77215
# Poissons Ratio (y) = -0.03431 0.31059
# Poissons Ratio (z) = 0.64935 0.33598
#
# Static dielectric constant tensor:
#      x y z
#    x 1.547630 0.000000 0.032110 
#    y 0.000000 1.589210 0.000000 
#    z 0.032110 0.000000 1.622560 
# 
# From -- ./inp_files/55841.got.cif
#   From: 2010.05.17/outbox.cif.g08.bks.cpg/sg10_28_cif.got.tgz:55841.got - 2010.06.03 11:33:40.
