data_PCOD9145977
_publ_section_title
;
Structure prediction by ZEFSAII (Michael W. Deem and Ramdas Pophale) SiO2 
 PCOD9145977
Probable space group: P 2/M
;
_chemical_formula_sum "Si O2"
_cell_formula_units_Z 24
_cell_length_a 12.863337
_cell_length_b 13.699619
_cell_length_c 10.608411
_cell_angle_alpha 90.000000
_cell_angle_beta 34.939202
_cell_angle_gamma 90.000000
_cell_volume 1070.643494
_symmetry_space_group_name_H-M "P 2/M"
_symmetry_group_IT_number 10
_symmetry_cell_setting 'monoclinic'
loop_
_space_group_symop_operation_xyz
x,y,z
-x,y,-z
-x,-y,-z
x,-y,z
loop_
_atom_site_type_symbol
_atom_site_label
_atom_site_fract_x
_atom_site_fract_y
_atom_site_fract_z
Si Si1 0.354472 0.886282 0.250674
Si Si2 0.029740 0.207729 0.680718
Si Si3 0.518332 0.608342 0.632335
Si Si4 0.949722 0.611114 0.193693
Si Si5 0.203348 0.108917 0.746648
Si Si6 0.644049 0.185620 0.147816
O O1 0.170608 0.821398 0.431952
O O2 0.479960 0.873600 0.250072
O O3 0.303038 0.000000 0.287857
O O4 0.500000 0.857296 0.000000
O O5 0.981428 0.318535 0.764982
O O6 0.155474 0.173614 0.673686
O O7 0.831264 0.159617 0.887875
O O8 0.500000 0.614620 0.500000
O O9 0.454012 0.500000 0.736560
O O10 0.734807 0.611419 0.432095
O O11 0.418833 0.700969 0.791701
O O12 0.016617 0.500000 0.133573
O O13 0.000000 0.645408 0.000000
O O14 0.316210 0.158582 0.746214
O O15 0.272035 0.000000 0.650546
O O16 0.000000 0.097135 0.000000
#
# Coordination Sequence:
#
# PCOD9145977 Si02
#       6
#     4   4   4   4   4   4
#     4  11  26  45  63  86 116 157 216 271 308 353
#     4  11  21  38  61  88 124 161 198 248 306 372
#     4  10  19  32  54  90 131 164 197 237 288 363
#     4  10  19  33  56  89 129 166 195 233 291 362
#     4   9  18  32  53  85 119 152 191 236 297 370
#     4  11  22  37  63  90 122 163 199 245 313 369
#
# _framework density 22.416426000000001
#
# number of rings (size 3 to 8) (size 9 to 14) (size 15 to 20)
#    0.000    1.667    1.667    4.500    0.000    4.667 
#    0.000    3.333    0.000    2.500    0.000    2.333 
#    0.000    0.000    0.000    0.000    0.000    0.000 
#
# Total GULP energy -133903.684702 kJ/mol
# GULP energy per Si atom -5579.320196 kJ/mol
# Density = 2.236541 g / cm^3
# Si number density = 22.416426 Si / 1000 Ang^3
#
#
#
# Elastic Constant Matrix: (Units=GPa)
#
#
# Indices 1 2 3 4 5 6 
#
# 1 30.0714 -10.1711 14.2227 0.0000 -15.7416 0.0000
# 2 -10.1711 108.2918 41.2356 0.0000 4.6892 0.0000
# 3 14.2227 41.2356 169.0757 0.0000 -24.4113 0.0000
# 4 0.0000 0.0000 0.0000 46.8009 0.0000 -0.6524
# 5 -15.7416 4.6892 -24.4113 0.0000 25.4935 0.0000
# 6 0.0000 0.0000 0.0000 -0.6524 0.0000 13.7673
#
#
#
# Elastic Compliance Matrix: (Units=1/GPa)
#
#
# Indices 1 2 3 4 5 6 
#
# 1 0.050458 0.003799 -0.000898 0.000000 0.029598 0.000000
# 2 0.003799 0.011030 -0.003439 0.000000 -0.002976 0.000000
# 3 -0.000898 -0.003439 0.007938 0.000000 0.007679 0.000000
# 4 0.000000 0.000000 0.000000 0.021381 0.000000 0.001013
# 5 0.029598 -0.002976 0.007679 0.000000 0.065402 0.000000
# 6 0.000000 0.000000 0.000000 0.001013 0.000000 0.072684
#
#
# Mechanical properties :
#
#
# Convention : Reuss Voigt Hill
#
# Bulk Modulus (GPa) = 14.63072 44.22370 29.42721
# Shear Modulus (GPa) = 19.78238 34.68911 27.23574
#
# Velocity S-wave (km/s) = 2.97390 3.93808 3.48945
# Velocity P-wave (km/s) = 4.28172 6.35996 5.42135
#
# Compressibility (1/GPa) = 0.06834934
#
# Stress axis : x y z
#
# Youngs Moduli (GPa) = 19.81862 90.66479 125.98421
#
# Poissons Ratio (x) = -0.34447 0.11311
# Poissons Ratio (y) = -0.07530 0.43330
# Poissons Ratio (z) = 0.01779 0.31182
#
# Static dielectric constant tensor:
#      x y z
#    x 1.926650 0.000000 -0.021770 
#    y 0.000000 1.918050 0.000000 
#    z -0.021770 0.000000 2.095700 
# 
# From -- ./inp_files/51501.got.cif
#   From: 2010.05.17/outbox.cif.g08.bks.cpg/sg10_26_cif.got.tgz:51501.got - 2010.06.03 11:33:40.
