data_PCOD9145250
_publ_section_title
;
Structure prediction by ZEFSAII (Michael W. Deem and Ramdas Pophale) SiO2 
 PCOD9145250
Probable space group: P 2/M
;
_chemical_formula_sum "Si O2"
_cell_formula_units_Z 32
_cell_length_a 14.754240
_cell_length_b 7.421089
_cell_length_c 25.269599
_cell_angle_alpha 90.000000
_cell_angle_beta 150.739866
_cell_angle_gamma 90.000000
_cell_volume 1352.359980
_symmetry_space_group_name_H-M "P 2/M"
_symmetry_group_IT_number 10
_symmetry_cell_setting 'monoclinic'
loop_
_space_group_symop_operation_xyz
x,y,z
-x,y,-z
-x,-y,-z
x,-y,z
loop_
_atom_site_type_symbol
_atom_site_label
_atom_site_fract_x
_atom_site_fract_y
_atom_site_fract_z
Si Si1 0.730478 0.204421 0.479754
Si Si2 0.398399 0.708261 0.999436
Si Si3 0.000815 0.793095 0.175456
Si Si4 0.056607 0.282995 0.087456
Si Si5 0.447346 0.718452 0.252128
Si Si6 0.499103 0.708040 0.834989
Si Si7 0.926105 0.219489 0.404454
Si Si8 0.420408 0.781945 0.401342
O O1 0.629279 0.202947 0.371179
O O2 0.576786 0.287938 0.440137
O O3 0.930617 0.282603 0.568066
O O4 0.760779 0.000000 0.514222
O O5 0.461098 0.500000 0.033799
O O6 0.175060 0.711518 0.884146
O O7 0.500000 0.787807 0.000000
O O8 0.455477 0.790657 0.085142
O O9 0.962283 0.783724 0.092651
O O10 0.208169 0.714708 0.288416
O O11 0.008381 0.000000 0.196243
O O12 0.038219 0.500000 0.078470
O O13 0.273444 0.233442 0.199961
O O14 0.000000 0.222530 0.000000
O O15 0.462685 0.500000 0.258975
O O16 0.416139 0.782213 0.176337
O O17 0.564291 0.500000 0.870158
O O18 0.279704 0.714898 0.712351
O O19 0.000000 0.276305 0.500000
O O20 0.924620 0.000000 0.403252
O O21 0.500000 0.748216 0.500000
O O22 0.409524 0.000000 0.387697
#
# Coordination Sequence:
#
# PCOD9145250 Si02
#       8
#     4   4   4   4   4   4   4   4
#     4  10  19  34  54  76 109 149 187 228 279 340
#     4  10  23  44  65  83 113 158 199 239 292 349
#     4  11  22  37  62  92 117 148 193 245 294 343
#     4  10  20  35  56  82 117 158 195 234 287 352
#     4  10  19  31  52  80 110 145 185 232 284 335
#     4  10  21  37  58  84 113 151 197 240 287 343
#     4  10  20  33  53  82 115 153 190 231 289 344
#     4   9  19  36  57  82 114 152 190 230 284 345
#
# _framework density 23.662337000000001
#
# number of rings (size 3 to 8) (size 9 to 14) (size 15 to 20)
#    0.000    2.000    2.500    1.125    0.000    4.750 
#    0.000    2.500    0.000    3.375    0.000    0.000 
#    0.000    0.000    0.000    0.000    0.000    0.000 
#
# Total GULP energy -178731.462893 kJ/mol
# GULP energy per Si atom -5585.358215 kJ/mol
# Density = 2.360848 g / cm^3
# Si number density = 23.662337 Si / 1000 Ang^3
#
#
#
# Elastic Constant Matrix: (Units=GPa)
#
#
# Indices 1 2 3 4 5 6 
#
# 1 186.9968 -1.1110 47.3166 0.0000 14.0633 0.0000
# 2 -1.1110 77.1198 -8.9197 0.0000 -3.6638 0.0000
# 3 47.3166 -8.9197 75.2845 0.0000 8.7154 0.0000
# 4 0.0000 0.0000 0.0000 13.2357 0.0000 4.0298
# 5 14.0633 -3.6638 8.7154 0.0000 38.3874 0.0000
# 6 0.0000 0.0000 0.0000 4.0298 0.0000 12.1759
#
#
#
# Elastic Compliance Matrix: (Units=1/GPa)
#
#
# Indices 1 2 3 4 5 6 
#
# 1 0.006454 -0.000434 -0.003933 0.000000 -0.001513 0.000000
# 2 -0.000434 0.013208 0.001718 0.000000 0.001029 0.000000
# 3 -0.003933 0.001718 0.016198 0.000000 -0.002073 0.000000
# 4 0.000000 0.000000 0.000000 0.084019 0.000000 -0.027807
# 5 -0.001513 0.001029 -0.002073 0.000000 0.027173 0.000000
# 6 0.000000 0.000000 0.000000 -0.027807 0.000000 0.091332
#
#
# Mechanical properties :
#
#
# Convention : Reuss Voigt Hill
#
# Bulk Modulus (GPa) = 32.71780 45.99700 39.35740
# Shear Modulus (GPa) = 19.69516 32.90083 26.29800
#
# Velocity S-wave (km/s) = 2.88816 3.73289 3.33736
# Velocity P-wave (km/s) = 4.99790 6.16931 5.61424
#
# Compressibility (1/GPa) = 0.03056440
#
# Stress axis : x y z
#
# Youngs Moduli (GPa) = 154.94337 75.71034 61.73545
#
# Poissons Ratio (x) = 0.03284 0.24278
# Poissons Ratio (y) = 0.06721 -0.10608
# Poissons Ratio (z) = 0.60933 -0.13010
#
# Static dielectric constant tensor:
#      x y z
#    x 1.908150 0.000000 0.004190 
#    y 0.000000 1.885510 0.000000 
#    z 0.004190 0.000000 1.891560 
# 
# From -- ./inp_files/89612.got.cif
#   From: 2010.05.17/outbox.cif.g08.bks.cpg/sg10_45_cif.got.tgz:89612.got - 2010.06.03 11:33:40.
