data_PCOD9145524
_publ_section_title
;
Structure prediction by ZEFSAII (Michael W. Deem and Ramdas Pophale) SiO2 
 PCOD9145524
Probable space group: P 2/M
;
_chemical_formula_sum "Si O2"
_cell_formula_units_Z 28
_cell_length_a 18.160907
_cell_length_b 9.533622
_cell_length_c 23.198174
_cell_angle_alpha 90.000000
_cell_angle_beta 23.669392
_cell_angle_gamma 90.000000
_cell_volume 1612.463862
_symmetry_space_group_name_H-M "P 2/M"
_symmetry_group_IT_number 10
_symmetry_cell_setting 'monoclinic'
loop_
_space_group_symop_operation_xyz
x,y,z
-x,y,-z
-x,-y,-z
x,-y,z
loop_
_atom_site_type_symbol
_atom_site_label
_atom_site_fract_x
_atom_site_fract_y
_atom_site_fract_z
Si Si1 0.886928 0.833529 0.252706
Si Si2 0.882116 0.840938 0.699089
Si Si3 0.853488 0.654714 0.552336
Si Si4 0.856650 0.668472 0.154620
Si Si5 0.583395 0.335168 0.843466
Si Si6 0.552342 0.340999 0.530577
Si Si7 0.224243 0.157925 0.094415
O O1 0.898172 0.754767 0.183116
O O2 0.722231 0.765385 0.408640
O O3 0.076593 0.815071 0.150890
O O4 0.853608 0.000000 0.268655
O O5 0.715840 0.749092 0.792020
O O6 0.873547 0.841512 0.773651
O O7 0.071278 0.772675 0.542932
O O8 0.863182 0.000000 0.691107
O O9 0.853593 0.500000 0.525123
O O10 0.666097 0.681067 0.719889
O O11 0.000000 0.650338 0.500000
O O12 0.869289 0.500000 0.156659
O O13 0.638160 0.695884 0.300185
O O14 0.000000 0.700588 0.000000
O O15 0.587580 0.500000 0.854903
O O16 0.383891 0.270294 0.985135
O O17 0.500000 0.344937 0.500000
O O18 0.607009 0.500000 0.507891
O O19 0.302014 0.000000 0.030510
#
# Coordination Sequence:
#
# PCOD9145524 Si02
#       7
#     4   4   4   4   4   4   4
#     4  10  20  34  51  73 103 135 167 204 246 293
#     4  10  19  32  51  72  96 131 172 209 251 303
#     4   8  16  31  48  69  95 118 152 205 253 294
#     4   9  18  34  56  80 105 131 162 202 244 291
#     4  10  20  33  51  74  98 128 169 215 258 298
#     4   8  15  30  52  75  98 127 161 193 233 289
#     4  10  22  36  48  69 102 135 167 207 252 298
#
# _framework density 17.364729000000001
#
# number of rings (size 3 to 8) (size 9 to 14) (size 15 to 20)
#    0.000    2.714    0.000    3.429    0.000   10.000 
#    0.000    1.429    0.000    6.857    0.000    0.000 
#    0.000    0.000    0.000    0.000    0.000    0.000 
#
# Total GULP energy -155933.762222 kJ/mol
# GULP energy per Si atom -5569.062937 kJ/mol
# Density = 1.732521 g / cm^3
# Si number density = 17.364729 Si / 1000 Ang^3
#
#
#
# Elastic Constant Matrix: (Units=GPa)
#
#
# Indices 1 2 3 4 5 6 
#
# 1 44.6558 42.3758 22.6250 0.0000 4.1221 0.0000
# 2 42.3758 71.2256 4.5009 0.0000 24.8506 0.0000
# 3 22.6250 4.5009 29.0591 0.0000 43.3109 0.0000
# 4 0.0000 0.0000 0.0000 46.9629 0.0000 -22.7505
# 5 4.1221 24.8506 43.3109 0.0000 4.8266 0.0000
# 6 0.0000 0.0000 0.0000 -22.7505 0.0000 27.4665
#
#
#
# Elastic Compliance Matrix: (Units=1/GPa)
#
#
# Indices 1 2 3 4 5 6 
#
# 1 0.033370 -0.013113 0.006635 0.000000 -0.020521 0.000000
# 2 -0.013113 0.018304 -0.010598 0.000000 0.012059 0.000000
# 3 0.006635 -0.010598 0.003394 0.000000 0.018447 0.000000
# 4 0.000000 0.000000 0.000000 0.035564 0.000000 0.029457
# 5 -0.020521 0.012059 0.018447 0.000000 -0.002911 0.000000
# 6 0.000000 0.000000 0.000000 0.029457 0.000000 0.060807
#
#
# Mechanical properties :
#
#
# Convention : Reuss Voigt Hill
#
# Bulk Modulus (GPa) = 47.81340 31.54932 39.68136
# Shear Modulus (GPa) = 26.36408 20.88045 23.62227
#
# Velocity S-wave (km/s) = 3.90071 3.47142 3.69231
# Velocity P-wave (km/s) = 6.91967 5.85455 6.40927
#
# Compressibility (1/GPa) = 0.02091464
#
# Stress axis : x y z
#
# Youngs Moduli (GPa) = 29.96723 54.63298 294.66827
#
# Poissons Ratio (x) = 0.71640 -1.95504
# Poissons Ratio (y) = 0.39296 3.12292
# Poissons Ratio (z) = -0.19882 0.57900
#
# Static dielectric constant tensor:
#      x y z
#    x 1.567830 0.000000 0.012230 
#    y 0.000000 1.605610 0.000000 
#    z 0.012230 0.000000 1.626450 
# 
# From -- ./inp_files/93516.got.cif
#   From: 2010.05.17/outbox.cif.g08.bks.cpg/sg10_47_cif.got.tgz:93516.got - 2010.06.03 11:33:40.
