data_PCOD9145988
_publ_section_title
;
Structure prediction by ZEFSAII (Michael W. Deem and Ramdas Pophale) SiO2 
 PCOD9145988
Probable space group: P 2/M
;
_chemical_formula_sum "Si O2"
_cell_formula_units_Z 32
_cell_length_a 13.401084
_cell_length_b 8.740910
_cell_length_c 26.572973
_cell_angle_alpha 90.000000
_cell_angle_beta 35.071459
_cell_angle_gamma 90.000000
_cell_volume 1788.547820
_symmetry_space_group_name_H-M "P 2/M"
_symmetry_group_IT_number 10
_symmetry_cell_setting 'monoclinic'
loop_
_space_group_symop_operation_xyz
x,y,z
-x,y,-z
-x,-y,-z
x,-y,z
loop_
_atom_site_type_symbol
_atom_site_label
_atom_site_fract_x
_atom_site_fract_y
_atom_site_fract_z
Si Si1 0.282971 0.325762 0.955464
Si Si2 0.225886 0.813961 0.597709
Si Si3 0.403776 0.682601 0.730953
Si Si4 0.579700 0.324193 0.916292
Si Si5 0.561807 0.815261 0.394479
Si Si6 0.838798 0.816913 0.731518
Si Si7 0.421705 0.314925 0.241798
Si Si8 0.055618 0.819560 0.920398
O O1 0.223925 0.500000 0.969041
O O2 0.420300 0.331294 0.943489
O O3 0.400107 0.267738 0.860498
O O4 0.120211 0.222358 0.036267
O O5 0.380157 0.770024 0.495924
O O6 0.286925 0.766495 0.628623
O O7 0.036834 0.762584 0.657468
O O8 0.222530 0.000000 0.599801
O O9 0.408761 0.500000 0.725758
O O10 0.423921 0.751307 0.667314
O O11 0.550573 0.729728 0.711549
O O12 0.219544 0.733428 0.830189
O O13 0.637535 0.500000 0.902402
O O14 0.730075 0.234670 0.825414
O O15 0.500000 0.257019 0.000000
O O16 0.566103 0.000000 0.390207
O O17 0.738392 0.750739 0.724102
O O18 0.837328 0.000000 0.728283
O O19 0.413851 0.500000 0.241417
O O20 0.090801 0.000000 0.905660
O O21 0.000000 0.772670 0.000000
#
# Coordination Sequence:
#
# PCOD9145988 Si02
#       8
#     4   4   4   4   4   4   4   4
#     4   9  17  32  51  69  95 138 179 212 257 306
#     4   8  17  36  60  83 108 139 173 216 274 325
#     4  11  22  36  54  78 110 142 179 222 268 319
#     4   9  19  35  51  71 104 143 177 210 258 314
#     4   9  18  37  61  81 107 141 175 216 268 323
#     4  10  19  32  55  82 104 133 179 224 263 312
#     4   9  19  35  52  72 104 144 176 209 262 318
#     4  11  22  33  49  75 104 136 177 218 258 309
#
# _framework density 17.89161
#
# number of rings (size 3 to 8) (size 9 to 14) (size 15 to 20)
#    0.000    2.500    1.250    2.625    0.000    4.750 
#    0.000    6.875    0.000    3.750    0.000    0.000 
#    0.000    0.000    0.000    0.000    0.000    0.000 
#
# Total GULP energy -178319.125405 kJ/mol
# GULP energy per Si atom -5572.472669 kJ/mol
# Density = 1.785089 g / cm^3
# Si number density = 17.891610 Si / 1000 Ang^3
#
#
#
# Elastic Constant Matrix: (Units=GPa)
#
#
# Indices 1 2 3 4 5 6 
#
# 1 132.3598 30.8628 88.9661 0.0000 2.2721 0.0000
# 2 30.8628 26.4111 25.6864 0.0000 2.0455 0.0000
# 3 88.9661 25.6864 93.2238 0.0000 3.8222 0.0000
# 4 0.0000 0.0000 0.0000 -23.7970 0.0000 13.1180
# 5 2.2721 2.0455 3.8222 0.0000 36.7095 0.0000
# 6 0.0000 0.0000 0.0000 13.1180 0.0000 22.0659
#
#
#
# Elastic Compliance Matrix: (Units=1/GPa)
#
#
# Indices 1 2 3 4 5 6 
#
# 1 0.022079 -0.007304 -0.019100 0.000000 0.001029 0.000000
# 2 -0.007304 0.054212 -0.007895 0.000000 -0.001747 0.000000
# 3 -0.019100 -0.007895 0.031197 0.000000 -0.001626 0.000000
# 4 0.000000 0.000000 0.000000 -0.031650 0.000000 0.018816
# 5 0.001029 -0.001747 -0.001626 0.000000 0.027444 0.000000
# 6 0.000000 0.000000 0.000000 0.018816 0.000000 0.034133
#
#
# Mechanical properties :
#
#
# Convention : Reuss Voigt Hill
#
# Bulk Modulus (GPa) = 25.71441 60.33616 43.02529
# Shear Modulus (GPa) = 22.83356 14.09431 18.46394
#
# Velocity S-wave (km/s) = 3.57629 2.80975 3.21594
# Velocity P-wave (km/s) = 5.60863 6.65753 6.15546
#
# Compressibility (1/GPa) = 0.03888869
#
# Stress axis : x y z
#
# Youngs Moduli (GPa) = 45.29225 18.44616 32.05456
#
# Poissons Ratio (x) = 0.13473 0.61225
# Poissons Ratio (y) = 0.33081 0.25308
# Poissons Ratio (z) = 0.86509 0.14564
#
# Static dielectric constant tensor:
#      x y z
#    x 1.656420 0.000000 0.003270 
#    y 0.000000 1.615930 0.000000 
#    z 0.003270 0.000000 1.593390 
# 
# From -- ./inp_files/93122.got.cif
#   From: 2010.05.17/outbox.cif.g08.bks.cpg/sg10_47_cif.got.tgz:93122.got - 2010.06.03 11:33:40.
