data_PCOD9145263
_publ_section_title
;
Structure prediction by ZEFSAII (Michael W. Deem and Ramdas Pophale) SiO2 
 PCOD9145263
Probable space group: P 2/M
;
_chemical_formula_sum "Si O2"
_cell_formula_units_Z 24
_cell_length_a 24.247844
_cell_length_b 7.951083
_cell_length_c 9.373283
_cell_angle_alpha 90.000000
_cell_angle_beta 139.908088
_cell_angle_gamma 90.000000
_cell_volume 1163.824683
_symmetry_space_group_name_H-M "P 2/M"
_symmetry_group_IT_number 10
_symmetry_cell_setting 'monoclinic'
loop_
_space_group_symop_operation_xyz
x,y,z
-x,y,-z
-x,-y,-z
x,-y,z
loop_
_atom_site_type_symbol
_atom_site_label
_atom_site_fract_x
_atom_site_fract_y
_atom_site_fract_z
Si Si1 0.096166 0.000000 0.627950
Si Si2 0.415323 0.704823 0.249309
Si Si3 0.579654 0.702874 0.067269
Si Si4 0.235744 0.799439 0.566503
Si Si5 0.222696 0.696988 0.869240
Si Si6 0.083469 0.680623 0.063264
Si Si7 0.990067 0.000000 0.154497
O O1 0.151684 0.833857 0.772391
O O2 0.000000 0.000000 0.500000
O O3 0.075518 0.000000 0.415738
O O4 0.500000 0.762336 0.500000
O O5 0.416762 0.500000 0.252360
O O6 0.422860 0.763401 0.100869
O O7 0.319046 0.746793 0.111457
O O8 0.575485 0.500000 0.055175
O O9 0.671325 0.752409 0.310065
O O10 0.500000 0.766116 0.000000
O O11 0.227465 0.713858 0.705587
O O12 0.161857 0.731687 0.318218
O O13 0.232601 0.000000 0.572608
O O14 0.205916 0.500000 0.870875
O O15 0.902046 0.500000 0.976691
O O16 0.000000 0.666685 0.000000
O O17 0.062020 0.832051 0.915834
O O18 0.000000 0.000000 0.000000
#
# Coordination Sequence:
#
# PCOD9145263 Si02
#       7
#     2   4   4   4   4   4   2
#     4  12  26  42  61  87 123 155 196 252 303 349
#     4   8  15  31  58  85 110 148 194 238 283 339
#     4   9  18  32  51  80 117 153 189 233 288 345
#     4  11  19  32  57  85 118 153 195 243 291 349
#     4  10  20  37  61  86 115 157 204 241 289 355
#     4  10  19  31  52  82 111 142 188 239 286 334
#     4  10  20  36  58  81 109 149 188 234 289 337
#
# _framework density 20.621662000000001
#
# number of rings (size 3 to 8) (size 9 to 14) (size 15 to 20)
#    0.000    2.167    1.667    4.500    0.000    2.667 
#    0.000    2.083    0.000    2.000    0.000    0.000 
#    0.000    0.000    0.000    0.000    0.000    0.000 
#
# Total GULP energy -133866.563998 kJ/mol
# GULP energy per Si atom -5577.773500 kJ/mol
# Density = 2.057473 g / cm^3
# Si number density = 20.621662 Si / 1000 Ang^3
#
#
#
# Elastic Constant Matrix: (Units=GPa)
#
#
# Indices 1 2 3 4 5 6 
#
# 1 69.9460 17.9350 41.9510 0.0000 35.5566 0.0000
# 2 17.9350 121.8542 41.6674 0.0000 12.1893 0.0000
# 3 41.9510 41.6674 180.9542 0.0000 34.4103 0.0000
# 4 0.0000 0.0000 0.0000 30.4653 0.0000 10.0100
# 5 35.5566 12.1893 34.4103 0.0000 35.4228 0.0000
# 6 0.0000 0.0000 0.0000 10.0100 0.0000 9.5952
#
#
#
# Elastic Compliance Matrix: (Units=1/GPa)
#
#
# Indices 1 2 3 4 5 6 
#
# 1 0.029652 -0.001116 -0.001264 0.000000 -0.028152 0.000000
# 2 -0.001116 0.009000 -0.001764 0.000000 -0.000264 0.000000
# 3 -0.001264 -0.001764 0.007198 0.000000 -0.005117 0.000000
# 4 0.000000 0.000000 0.000000 0.049943 0.000000 -0.052102
# 5 -0.028152 -0.000264 -0.005117 0.000000 0.061551 0.000000
# 6 0.000000 0.000000 0.000000 -0.052102 0.000000 0.158573
#
#
# Mechanical properties :
#
#
# Convention : Reuss Voigt Hill
#
# Bulk Modulus (GPa) = 26.62147 63.98459 45.30303
# Shear Modulus (GPa) = 14.84888 33.17673 24.01281
#
# Velocity S-wave (km/s) = 2.68631 4.01537 3.41610
# Velocity P-wave (km/s) = 4.74965 7.25209 6.12993
#
# Compressibility (1/GPa) = 0.03756367
#
# Stress axis : x y z
#
# Youngs Moduli (GPa) = 33.72464 111.10862 138.91908
#
# Poissons Ratio (x) = 0.12400 0.17558
# Poissons Ratio (y) = 0.03764 0.24499
# Poissons Ratio (z) = 0.04262 0.19595
#
# Static dielectric constant tensor:
#      x y z
#    x 2.384970 0.000000 -0.270080 
#    y 0.000000 1.795470 0.000000 
#    z -0.270080 0.000000 1.863010 
# 
# From -- ./inp_files/57334.got.cif
#   From: 2010.05.17/outbox.cif.g08.bks.cpg/sg10_29_cif.got.tgz:57334.got - 2010.06.03 11:33:40.
