data_PCOD9145299
_publ_section_title
;
Structure prediction by ZEFSAII (Michael W. Deem and Ramdas Pophale) SiO2 
 PCOD9145299
Probable space group: P 2/M
;
_chemical_formula_sum "Si O2"
_cell_formula_units_Z 32
_cell_length_a 24.272778
_cell_length_b 9.284676
_cell_length_c 15.287329
_cell_angle_alpha 90.000000
_cell_angle_beta 150.788762
_cell_angle_gamma 90.000000
_cell_volume 1681.377139
_symmetry_space_group_name_H-M "P 2/M"
_symmetry_group_IT_number 10
_symmetry_cell_setting 'monoclinic'
loop_
_space_group_symop_operation_xyz
x,y,z
-x,y,-z
-x,-y,-z
x,-y,z
loop_
_atom_site_type_symbol
_atom_site_label
_atom_site_fract_x
_atom_site_fract_y
_atom_site_fract_z
Si Si1 0.408511 0.832553 0.940291
Si Si2 0.814095 0.827988 0.891538
Si Si3 0.072553 0.175785 0.256645
Si Si4 0.289391 0.827186 0.440547
Si Si5 0.528475 0.672885 0.798978
Si Si6 0.133586 0.659531 0.693647
Si Si7 0.729594 0.327620 0.948160
Si Si8 0.838778 0.163024 0.440131
O O1 0.410678 0.739562 0.031243
O O2 0.433387 0.000000 0.998526
O O3 0.500000 0.775215 0.000000
O O4 0.294050 0.836736 0.725489
O O5 0.742769 0.802218 0.705212
O O6 0.760605 0.751357 0.901642
O O7 0.816143 0.000000 0.910342
O O8 0.944866 0.783001 0.055225
O O9 0.178677 0.218396 0.343419
O O10 0.095233 0.228354 0.387068
O O11 0.075792 0.000000 0.261135
O O12 0.404848 0.744516 0.622200
O O13 0.304996 0.000000 0.475504
O O14 0.520037 0.500000 0.793974
O O15 0.608865 0.706106 0.826487
O O16 0.184730 0.500000 0.751774
O O17 0.159819 0.761792 0.650453
O O18 0.000000 0.646713 0.500000
O O19 0.177569 0.710365 0.848508
O O20 0.734363 0.500000 0.940713
O O21 0.879712 0.000000 0.485982
#
# Coordination Sequence:
#
# PCOD9145299 Si02
#       8
#     4   4   4   4   4   4   4   4
#     4  10  20  35  56  83 115 151 187 229 284 338
#     4  10  21  37  62  90 112 146 195 244 294 349
#     4   9  18  36  60  88 120 148 183 235 297 356
#     4  10  21  39  62  86 115 150 191 244 299 349
#     4  11  23  39  58  82 116 158 200 239 284 342
#     4  10  20  35  54  76 108 150 189 225 273 333
#     4  10  22  39  56  79 117 158 192 237 294 342
#     4  10  19  31  53  83 111 143 180 221 273 331
#
# _framework density 19.032018000000001
#
# number of rings (size 3 to 8) (size 9 to 14) (size 15 to 20)
#    0.000    2.000    1.250    2.250    0.000    6.500 
#    0.000    5.000    0.000    1.500    0.000    0.000 
#    0.000    0.000    0.000    0.000    0.000    0.000 
#
# Total GULP energy -178392.711231 kJ/mol
# GULP energy per Si atom -5574.772226 kJ/mol
# Density = 1.898870 g / cm^3
# Si number density = 19.032018 Si / 1000 Ang^3
#
#
#
# Elastic Constant Matrix: (Units=GPa)
#
#
# Indices 1 2 3 4 5 6 
#
# 1 61.1836 20.6794 7.5379 0.0000 3.4675 0.0000
# 2 20.6794 30.1828 19.5591 0.0000 -3.2904 0.0000
# 3 7.5379 19.5591 83.5729 0.0000 4.7006 0.0000
# 4 0.0000 0.0000 0.0000 20.7836 0.0000 -4.9331
# 5 3.4675 -3.2904 4.7006 0.0000 29.6119 0.0000
# 6 0.0000 0.0000 0.0000 -4.9331 0.0000 51.1180
#
#
#
# Elastic Compliance Matrix: (Units=1/GPa)
#
#
# Indices 1 2 3 4 5 6 
#
# 1 0.022149 -0.017197 0.002301 0.000000 -0.004870 0.000000
# 2 -0.017197 0.053435 -0.011505 0.000000 0.009778 0.000000
# 3 0.002301 -0.011505 0.014669 0.000000 -0.003876 0.000000
# 4 0.000000 0.000000 0.000000 0.049243 0.000000 0.004752
# 5 -0.004870 0.009778 -0.003876 0.000000 0.036042 0.000000
# 6 0.000000 0.000000 0.000000 0.004752 0.000000 0.020021
#
#
# Mechanical properties :
#
#
# Convention : Reuss Voigt Hill
#
# Bulk Modulus (GPa) = 26.70147 30.05467 28.37807
# Shear Modulus (GPa) = 19.16850 28.78023 23.97436
#
# Velocity S-wave (km/s) = 3.17704 3.89292 3.55306
# Velocity P-wave (km/s) = 5.24579 6.00270 5.63696
#
# Compressibility (1/GPa) = 0.03745112
#
# Stress axis : x y z
#
# Youngs Moduli (GPa) = 45.14825 18.71429 68.17290
#
# Poissons Ratio (x) = 0.32183 -0.15686
# Poissons Ratio (y) = 0.77643 0.78430
# Poissons Ratio (z) = -0.10388 0.21530
#
# Static dielectric constant tensor:
#      x y z
#    x 1.854070 0.000000 0.152010 
#    y 0.000000 1.680300 0.000000 
#    z 0.152010 0.000000 1.762980 
# 
# From -- ./inp_files/71677.got.cif
#   From: 2010.05.17/outbox.cif.g08.bks.cpg/sg10_36_cif.got.tgz:71677.got - 2010.06.03 11:33:40.
