data_PCOD9145396
_publ_section_title
;
Structure prediction by ZEFSAII (Michael W. Deem and Ramdas Pophale) SiO2 
 PCOD9145396
Probable space group: P 2/M
;
_chemical_formula_sum "Si O2"
_cell_formula_units_Z 28
_cell_length_a 21.148910
_cell_length_b 9.088150
_cell_length_c 17.243814
_cell_angle_alpha 90.000000
_cell_angle_beta 34.876249
_cell_angle_gamma 90.000000
_cell_volume 1895.157877
_symmetry_space_group_name_H-M "P 2/M"
_symmetry_group_IT_number 10
_symmetry_cell_setting 'monoclinic'
loop_
_space_group_symop_operation_xyz
x,y,z
-x,y,-z
-x,-y,-z
x,-y,z
loop_
_atom_site_type_symbol
_atom_site_label
_atom_site_fract_x
_atom_site_fract_y
_atom_site_fract_z
Si Si1 0.737244 0.676160 0.413178
Si Si2 0.992244 0.324419 0.417618
Si Si3 0.887369 0.172887 0.832187
Si Si4 0.871219 0.823450 0.139455
Si Si5 0.505149 0.676819 0.404194
Si Si6 0.270508 0.822997 0.871438
Si Si7 0.865476 0.171965 0.417538
O O1 0.746625 0.500000 0.405849
O O2 0.814337 0.740799 0.267830
O O3 0.610817 0.714896 0.519464
O O4 0.778550 0.745283 0.451933
O O5 0.984285 0.500000 0.418230
O O6 0.096524 0.264589 0.262764
O O7 0.000000 0.285643 0.500000
O O8 0.889850 0.247155 0.476055
O O9 0.011009 0.183007 0.745241
O O10 0.870655 0.000000 0.831183
O O11 0.795492 0.223307 0.984919
O O12 0.803976 0.787666 0.128821
O O13 0.863882 0.000000 0.159769
O O14 0.000000 0.785925 0.000000
O O15 0.500000 0.721504 0.500000
O O16 0.517788 0.500000 0.389493
O O17 0.610526 0.750619 0.258615
O O18 0.281022 0.000000 0.863617
O O19 0.839586 0.000000 0.451481
#
# Coordination Sequence:
#
# PCOD9145396 Si02
#       7
#     4   4   4   4   4   4   4
#     4  11  21  33  48  67  93 126 168 210 247 288
#     4   9  17  30  50  78 107 131 156 186 229 291
#     4   8  17  31  48  72 101 128 158 195 238 285
#     4  10  20  32  47  66  93 126 161 201 249 291
#     4  10  21  36  48  63  91 128 170 214 252 286
#     4  10  19  32  49  69  92 125 169 209 241 284
#     4   9  18  32  50  71 101 129 157 194 239 289
#
# _framework density 14.774495
#
# number of rings (size 3 to 8) (size 9 to 14) (size 15 to 20)
#    0.857    1.571    1.429    1.714    0.000    5.714 
#    0.000    0.000    0.000    0.000    0.000    1.000 
#    0.000    8.000    0.000    0.000    0.000    0.000 
#
# Total GULP energy -155890.008776 kJ/mol
# GULP energy per Si atom -5567.500313 kJ/mol
# Density = 1.474087 g / cm^3
# Si number density = 14.774495 Si / 1000 Ang^3
#
#
#
# Elastic Constant Matrix: (Units=GPa)
#
#
# Indices 1 2 3 4 5 6 
#
# 1 127.6404 59.0868 75.6868 0.0000 5.8092 0.0000
# 2 59.0868 48.6643 42.3830 0.0000 1.3903 0.0000
# 3 75.6868 42.3830 76.3060 0.0000 -3.0710 0.0000
# 4 0.0000 0.0000 0.0000 8.9661 0.0000 18.7915
# 5 5.8092 1.3903 -3.0710 0.0000 24.2347 0.0000
# 6 0.0000 0.0000 0.0000 18.7915 0.0000 1.8421
#
#
#
# Elastic Compliance Matrix: (Units=1/GPa)
#
#
# Indices 1 2 3 4 5 6 
#
# 1 0.025590 -0.016467 -0.016530 0.000000 -0.007284 0.000000
# 2 -0.016467 0.051040 -0.012036 0.000000 -0.000506 0.000000
# 3 -0.016530 -0.012036 0.036560 0.000000 0.009286 0.000000
# 4 0.000000 0.000000 0.000000 -0.005473 0.000000 0.055827
# 5 -0.007284 -0.000506 0.009286 0.000000 0.044215 0.000000
# 6 0.000000 0.000000 0.000000 0.055827 0.000000 -0.026637
#
#
# Mechanical properties :
#
#
# Convention : Reuss Voigt Hill
#
# Bulk Modulus (GPa) = 43.24471 67.43597 55.34034
# Shear Modulus (GPa) = 22.41453 12.03883 17.22668
#
# Velocity S-wave (km/s) = 3.89923 2.85763 3.41834
# Velocity P-wave (km/s) = 7.04311 7.52534 7.28821
#
# Compressibility (1/GPa) = 0.02312422
#
# Stress axis : x y z
#
# Youngs Moduli (GPa) = 39.07718 19.59247 27.35251
#
# Poissons Ratio (x) = 0.32263 0.45212
# Poissons Ratio (y) = 0.64348 0.32923
# Poissons Ratio (z) = 0.64593 0.23582
#
# Static dielectric constant tensor:
#      x y z
#    x 1.480140 0.000000 -0.000150 
#    y 0.000000 1.491520 0.000000 
#    z -0.000150 0.000000 1.471350 
# 
# From -- ./inp_files/68618.got.cif
#   From: 2010.05.17/outbox.cif.g08.bks.cpg/sg10_35_cif.got.tgz:68618.got - 2010.06.03 11:33:40.
