data_PCOD9145574
_publ_section_title
;
Structure prediction by ZEFSAII (Michael W. Deem and Ramdas Pophale) SiO2 
 PCOD9145574
Probable space group: P 2/M
;
_chemical_formula_sum "Si O2"
_cell_formula_units_Z 32
_cell_length_a 14.774143
_cell_length_b 7.561226
_cell_length_c 21.990866
_cell_angle_alpha 90.000000
_cell_angle_beta 138.093442
_cell_angle_gamma 90.000000
_cell_volume 1640.815805
_symmetry_space_group_name_H-M "P 2/M"
_symmetry_group_IT_number 10
_symmetry_cell_setting 'monoclinic'
loop_
_space_group_symop_operation_xyz
x,y,z
-x,y,-z
-x,-y,-z
x,-y,z
loop_
_atom_site_type_symbol
_atom_site_label
_atom_site_fract_x
_atom_site_fract_y
_atom_site_fract_z
Si Si1 0.066229 0.707315 0.594548
Si Si2 0.064653 0.707547 0.215992
Si Si3 0.652287 0.213899 0.696211
Si Si4 0.347917 0.786421 0.163246
Si Si5 0.064652 0.292454 0.348661
Si Si6 0.652288 0.213899 0.456077
Si Si7 0.066230 0.707315 0.971681
Si Si8 0.347917 0.213579 0.684671
O O1 0.027782 0.500000 0.576068
O O2 0.226842 0.722007 0.666168
O O3 0.000000 0.785560 0.500000
O O4 0.010076 0.784661 0.629364
O O5 0.028823 0.500000 0.200636
O O6 0.224934 0.721132 0.283082
O O7 0.033489 0.784899 0.266744
O O8 0.989925 0.784661 0.119288
O O9 0.676091 0.268895 0.778477
O O10 0.500000 0.270068 0.602692
O O11 0.654223 0.000000 0.695966
O O12 0.500000 0.729573 0.222346
O O13 0.345842 0.000000 0.161777
O O14 0.226842 0.722007 0.060673
O O15 0.028822 0.500000 0.328186
O O16 0.224934 0.278869 0.441852
O O17 0.676091 0.268895 0.397614
O O18 0.654223 0.000000 0.458256
O O19 0.027783 0.500000 0.951715
O O20 0.000000 0.785560 0.000000
O O21 0.345842 0.000000 0.684064
#
# Coordination Sequence:
#
# PCOD9145574 Si02
#       8
#     4   4   4   4   4   4   4   4
#     4  10  19  32  51  75  98 125 165 206 241 283
#     4  10  21  35  49  69 100 133 163 200 245 289
#     4   9  18  32  49  71 100 132 165 199 236 284
#     4   9  18  32  51  76 102 127 159 201 247 290
#     4  10  21  35  49  69 100 133 163 200 245 289
#     4   9  18  32  49  71 100 132 165 199 236 284
#     4  10  19  32  51  75  98 125 165 206 241 283
#     4   9  18  32  51  76 102 127 159 201 247 290
#
# _framework density 19.502495
#
# number of rings (size 3 to 8) (size 9 to 14) (size 15 to 20)
#    0.000    2.500    2.500    1.500    0.000    3.500 
#    0.000    5.000    0.000    0.750    0.000    5.250 
#    0.000    0.000    0.000    0.000    0.000    0.000 
#
# Total GULP energy -178539.671581 kJ/mol
# GULP energy per Si atom -5579.364737 kJ/mol
# Density = 1.945811 g / cm^3
# Si number density = 19.502495 Si / 1000 Ang^3
#
#
#
# Elastic Constant Matrix: (Units=GPa)
#
#
# Indices 1 2 3 4 5 6 
#
# 1 122.0204 1.4557 85.0590 0.0000 -18.2257 0.0000
# 2 1.4557 45.0524 0.0187 0.0000 -10.1449 0.0000
# 3 85.0590 0.0187 117.0480 0.0000 -16.8761 0.0000
# 4 0.0000 0.0000 0.0000 14.9071 0.0000 9.4972
# 5 -18.2257 -10.1449 -16.8761 0.0000 26.7172 0.0000
# 6 0.0000 0.0000 0.0000 9.4972 0.0000 13.5619
#
#
#
# Elastic Compliance Matrix: (Units=1/GPa)
#
#
# Indices 1 2 3 4 5 6 
#
# 1 0.017031 0.000437 -0.011747 0.000000 0.004364 0.000000
# 2 0.000437 0.024511 0.001170 0.000000 0.010344 0.000000
# 3 -0.011747 0.001170 0.017591 0.000000 0.003542 0.000000
# 4 0.000000 0.000000 0.000000 0.121118 0.000000 -0.084817
# 5 0.004364 0.010344 0.003542 0.000000 0.046571 0.000000
# 6 0.000000 0.000000 0.000000 -0.084817 0.000000 0.133132
#
#
# Mechanical properties :
#
#
# Convention : Reuss Voigt Hill
#
# Bulk Modulus (GPa) = 25.73856 50.79864 38.26860
# Shear Modulus (GPa) = 12.71665 24.20975 18.46320
#
# Velocity S-wave (km/s) = 2.55630 3.52713 3.08020
# Velocity P-wave (km/s) = 4.68392 6.53386 5.68465
#
# Compressibility (1/GPa) = 0.03885222
#
# Stress axis : x y z
#
# Youngs Moduli (GPa) = 58.71730 40.79783 56.84827
#
# Poissons Ratio (x) = -0.01784 0.66781
# Poissons Ratio (y) = -0.02567 -0.06650
# Poissons Ratio (z) = 0.68976 -0.04773
#
# Static dielectric constant tensor:
#      x y z
#    x 1.692550 0.000000 -0.016050 
#    y 0.000000 1.730220 0.000000 
#    z -0.016050 0.000000 1.690270 
# 
# From -- ./inp_files/69965.got.cif
#   From: 2010.05.17/outbox.cif.g08.bks.cpg/sg10_35_cif.got.tgz:69965.got - 2010.06.03 11:33:40.
