data_PCOD9145911
_publ_section_title
;
Structure prediction by ZEFSAII (Michael W. Deem and Ramdas Pophale) SiO2 
 PCOD9145911
Probable space group: P 2/M
;
_chemical_formula_sum "Si O2"
_cell_formula_units_Z 32
_cell_length_a 21.163698
_cell_length_b 7.641886
_cell_length_c 26.387856
_cell_angle_alpha 90.000000
_cell_angle_beta 157.929962
_cell_angle_gamma 90.000000
_cell_volume 1603.552918
_symmetry_space_group_name_H-M "P 2/M"
_symmetry_group_IT_number 10
_symmetry_cell_setting 'monoclinic'
loop_
_space_group_symop_operation_xyz
x,y,z
-x,y,-z
-x,-y,-z
x,-y,z
loop_
_atom_site_type_symbol
_atom_site_label
_atom_site_fract_x
_atom_site_fract_y
_atom_site_fract_z
Si Si1 0.066685 0.701788 0.706435
Si Si2 0.634638 0.204274 0.139916
Si Si3 0.632296 0.287800 0.784586
Si Si4 0.168739 0.295668 0.160216
Si Si5 0.462265 0.212271 0.822402
Si Si6 0.955096 0.714972 0.091213
Si Si7 0.854338 0.292508 0.123818
Si Si8 0.698608 0.205711 0.401472
O O1 0.121050 0.500000 0.748574
O O2 0.183376 0.784555 0.750125
O O3 0.100699 0.780552 0.787481
O O4 0.871487 0.711243 0.548109
O O5 0.618100 0.275486 0.184411
O O6 0.589313 0.000000 0.111623
O O7 0.500000 0.281467 0.000000
O O8 0.634542 0.500000 0.785050
O O9 0.687431 0.222841 0.769722
O O10 0.452981 0.229980 0.671630
O O11 0.779678 0.234316 0.933449
O O12 0.209998 0.500000 0.199400
O O13 0.107501 0.223009 0.168555
O O14 0.000000 0.291407 0.000000
O O15 0.367518 0.275634 0.701731
O O16 0.457889 0.000000 0.816975
O O17 0.656681 0.266903 0.967085
O O18 0.957839 0.500000 0.092699
O O19 0.951115 0.775677 0.146151
O O20 0.890057 0.500000 0.152267
O O21 0.732841 0.000000 0.421383
#
# Coordination Sequence:
#
# PCOD9145911 Si02
#       8
#     4   4   4   4   4   4   4   4
#     4  11  24  38  54  79 108 137 174 216 259 309
#     4  10  20  37  60  80 103 136 170 209 260 313
#     4   9  15  27  50  76 104 136 170 211 258 306
#     4   7  11  20  40  73 105 132 164 204 254 306
#     4  10  21  36  56  80 103 134 175 213 253 310
#     4   8  13  24  46  77 107 132 164 210 261 305
#     4  10  19  32  54  81 106 134 170 216 261 304
#     4  11  23  37  53  75 107 143 177 213 256 308
#
# _framework density 19.955684999999999
#
# number of rings (size 3 to 8) (size 9 to 14) (size 15 to 20)
#    0.000    2.500    2.500    2.250    0.000    2.250 
#    0.000    2.500    0.000    4.875    0.000    5.250 
#    0.000    0.000    0.000    0.000    0.000    0.000 
#
# Total GULP energy -178438.747869 kJ/mol
# GULP energy per Si atom -5576.210871 kJ/mol
# Density = 1.991027 g / cm^3
# Si number density = 19.955685 Si / 1000 Ang^3
#
#
#
# Elastic Constant Matrix: (Units=GPa)
#
#
# Indices 1 2 3 4 5 6 
#
# 1 188.1180 -4.7519 45.8572 0.0000 10.1714 0.0000
# 2 -4.7519 35.8423 -11.8816 0.0000 -3.5704 0.0000
# 3 45.8572 -11.8816 70.2137 0.0000 0.7051 0.0000
# 4 0.0000 0.0000 0.0000 20.4893 0.0000 6.6059
# 5 10.1714 -3.5704 0.7051 0.0000 23.8226 0.0000
# 6 0.0000 0.0000 0.0000 6.6059 0.0000 18.7172
#
#
#
# Elastic Compliance Matrix: (Units=1/GPa)
#
#
# Indices 1 2 3 4 5 6 
#
# 1 0.006509 -0.000862 -0.004369 0.000000 -0.002779 0.000000
# 2 -0.000862 0.030116 0.005612 0.000000 0.004716 0.000000
# 3 -0.004369 0.005612 0.018024 0.000000 0.002173 0.000000
# 4 0.000000 0.000000 0.000000 0.055072 0.000000 -0.019437
# 5 -0.002779 0.004716 0.002173 0.000000 0.043806 0.000000
# 6 0.000000 0.000000 0.000000 -0.019437 0.000000 0.060287
#
#
# Mechanical properties :
#
#
# Convention : Reuss Voigt Hill
#
# Bulk Modulus (GPa) = 18.04736 39.18014 28.61375
# Shear Modulus (GPa) = 21.59611 30.26919 25.93265
#
# Velocity S-wave (km/s) = 3.29325 3.89886 3.60879
# Velocity P-wave (km/s) = 4.85016 6.32016 5.63331
#
# Compressibility (1/GPa) = 0.05540978
#
# Stress axis : x y z
#
# Youngs Moduli (GPa) = 153.62372 33.20513 55.48235
#
# Poissons Ratio (x) = 0.02863 0.24242
# Poissons Ratio (y) = 0.13247 -0.31137
# Poissons Ratio (z) = 0.67124 -0.18635
#
# Static dielectric constant tensor:
#      x y z
#    x 1.758340 0.000000 -0.011750 
#    y 0.000000 1.691880 0.000000 
#    z -0.011750 0.000000 1.649070 
# 
# From -- ./inp_files/93767.got.cif
#   From: 2010.05.17/outbox.cif.g08.bks.cpg/sg10_47_cif.got.tgz:93767.got - 2010.06.03 11:33:40.
