data_PCOD9145893
_publ_section_title
;
Structure prediction by ZEFSAII (Michael W. Deem and Ramdas Pophale) SiO2 
 PCOD9145893
Probable space group: P 2/M
;
_chemical_formula_sum "Si O2"
_cell_formula_units_Z 32
_cell_length_a 9.492925
_cell_length_b 13.474057
_cell_length_c 21.063900
_cell_angle_alpha 90.000000
_cell_angle_beta 36.280606
_cell_angle_gamma 90.000000
_cell_volume 1594.293943
_symmetry_space_group_name_H-M "P 2/M"
_symmetry_group_IT_number 10
_symmetry_cell_setting 'monoclinic'
loop_
_space_group_symop_operation_xyz
x,y,z
-x,y,-z
-x,-y,-z
x,-y,z
loop_
_atom_site_type_symbol
_atom_site_label
_atom_site_fract_x
_atom_site_fract_y
_atom_site_fract_z
Si Si1 0.109476 0.697917 0.395177
Si Si2 0.217231 0.816203 0.882564
Si Si3 0.647897 0.108448 0.381476
Si Si4 0.781625 0.700533 0.391419
Si Si5 0.508926 0.674707 0.843710
Si Si6 0.389444 0.111933 0.346506
Si Si7 0.970946 0.612845 0.923791
Si Si8 0.153122 0.610256 0.176381
O O1 0.324987 0.644898 0.277059
O O2 0.221140 0.802840 0.378859
O O3 0.000000 0.652105 0.500000
O O4 0.908799 0.709461 0.413605
O O5 0.415204 0.783703 0.861344
O O6 0.354449 0.878753 0.781054
O O7 0.126408 0.709641 0.886513
O O8 0.000000 0.861813 0.000000
O O9 0.500000 0.100892 0.500000
O O10 0.817496 0.200476 0.335117
O O11 0.459730 0.130333 0.394040
O O12 0.756502 0.000000 0.328761
O O13 0.500000 0.684837 0.500000
O O14 0.908824 0.616008 0.304518
O O15 0.667839 0.676631 0.848625
O O16 0.269586 0.614399 0.946560
O O17 0.295454 0.000000 0.373285
O O18 0.072716 0.500000 0.889911
O O19 0.892888 0.631624 0.879789
O O20 0.256783 0.500000 0.142957
#
# Coordination Sequence:
#
# PCOD9145893 Si02
#       8
#     4   4   4   4   4   4   4   4
#     4  10  20  34  52  74 101 137 178 214 254 307
#     4   9  19  34  52  77 107 136 170 209 254 308
#     4   9  17  30  49  73  98 125 160 203 251 298
#     4  10  20  34  53  73 101 138 170 213 262 304
#     4   9  19  33  50  73 103 134 167 211 259 301
#     4  10  20  34  53  77 106 138 171 211 256 305
#     4  10  19  32  54  80 104 133 171 217 262 304
#     4  10  20  33  52  77 102 133 173 213 256 307
#
# _framework density 20.071580000000001
#
# number of rings (size 3 to 8) (size 9 to 14) (size 15 to 20)
#    0.000    2.375    0.000    3.000    0.000    6.000 
#    0.000    0.000    0.000    9.375    0.000    0.000 
#    0.000   24.000    0.000    0.000    0.000    0.000 
#
# Total GULP energy -178157.373681 kJ/mol
# GULP energy per Si atom -5567.417928 kJ/mol
# Density = 2.002590 g / cm^3
# Si number density = 20.071580 Si / 1000 Ang^3
#
#
#
# Elastic Constant Matrix: (Units=GPa)
#
#
# Indices 1 2 3 4 5 6 
#
# 1 123.7653 30.4857 34.5598 0.0000 20.8833 0.0000
# 2 30.4857 50.6153 6.4307 0.0000 6.8944 0.0000
# 3 34.5598 6.4307 92.9000 0.0000 10.2425 0.0000
# 4 0.0000 0.0000 0.0000 24.3289 0.0000 11.6347
# 5 20.8833 6.8944 10.2425 0.0000 34.0185 0.0000
# 6 0.0000 0.0000 0.0000 11.6347 0.0000 29.9267
#
#
#
# Elastic Compliance Matrix: (Units=1/GPa)
#
#
# Indices 1 2 3 4 5 6 
#
# 1 0.011184 -0.005679 -0.003245 0.000000 -0.004738 0.000000
# 2 -0.005679 0.023289 0.000658 0.000000 -0.001432 0.000000
# 3 -0.003245 0.000658 0.012123 0.000000 -0.001791 0.000000
# 4 0.000000 0.000000 0.000000 0.050491 0.000000 -0.019629
# 5 -0.004738 -0.001432 -0.001791 0.000000 0.033134 0.000000
# 6 0.000000 0.000000 0.000000 -0.019629 0.000000 0.041046
#
#
# Mechanical properties :
#
#
# Convention : Reuss Voigt Hill
#
# Bulk Modulus (GPa) = 33.26104 45.58144 39.42124
# Shear Modulus (GPa) = 25.27555 30.70846 27.99201
#
# Velocity S-wave (km/s) = 3.55247 3.91570 3.73850
# Velocity P-wave (km/s) = 5.78221 6.57285 6.19016
#
# Compressibility (1/GPa) = 0.03006521
#
# Stress axis : x y z
#
# Youngs Moduli (GPa) = 89.41231 42.93961 82.48480
#
# Poissons Ratio (x) = 0.24384 0.26768
# Poissons Ratio (y) = 0.50774 -0.05430
# Poissons Ratio (z) = 0.29016 -0.02827
#
# Static dielectric constant tensor:
#      x y z
#    x 1.738150 0.000000 -0.006010 
#    y 0.000000 1.797070 0.000000 
#    z -0.006010 0.000000 1.769640 
# 
# From -- ./inp_files/82822.got.cif
#   From: 2010.05.17/outbox.cif.g08.bks.cpg/sg10_42_cif.got.tgz:82822.got - 2010.06.03 11:33:40.
