data_PCOD9145307
_publ_section_title
;
Structure prediction by ZEFSAII (Michael W. Deem and Ramdas Pophale) SiO2 
 PCOD9145307
Probable space group: P 2/M
;
_chemical_formula_sum "Si O2"
_cell_formula_units_Z 18
_cell_length_a 21.441636
_cell_length_b 7.803389
_cell_length_c 5.224958
_cell_angle_alpha 90.000000
_cell_angle_beta 83.020334
_cell_angle_gamma 90.000000
_cell_volume 867.747931
_symmetry_space_group_name_H-M "P 2/M"
_symmetry_group_IT_number 10
_symmetry_cell_setting 'monoclinic'
loop_
_space_group_symop_operation_xyz
x,y,z
-x,y,-z
-x,-y,-z
x,-y,z
loop_
_atom_site_type_symbol
_atom_site_label
_atom_site_fract_x
_atom_site_fract_y
_atom_site_fract_z
Si Si1 0.043154 0.500000 0.728199
Si Si2 0.787328 0.298709 0.803107
Si Si3 0.859431 0.808402 0.275132
Si Si4 0.355407 0.207937 0.011382
Si Si5 0.570624 0.209274 0.525233
O O1 0.087714 0.665997 0.710485
O O2 0.000000 0.500000 0.500000
O O3 0.000000 0.500000 0.000000
O O4 0.801871 0.500000 0.782411
O O5 0.808274 0.215757 0.525685
O O6 0.713931 0.273568 0.894894
O O7 0.826246 0.220632 0.019067
O O8 0.885380 0.000000 0.275247
O O9 0.402770 0.261686 0.213391
O O10 0.352647 0.000000 0.012784
O O11 0.382490 0.263074 0.724346
O O12 0.500000 0.266838 0.500000
O O13 0.569389 0.000000 0.525461
#
# Coordination Sequence:
#
# PCOD9145307 Si02
#       5
#     2   4   4   4   4
#     4  12  26  46  72 102 142 174 215 264 313 374
#     4  12  23  42  65  94 133 170 215 273 336 386
#     4  12  25  45  71 100 134 177 220 266 323 381
#     4  10  19  31  53  84 112 152 210 262 318 389
#     4   9  17  30  49  76 113 154 203 264 321 380
#
# _framework density 20.743352999999999
#
# number of rings (size 3 to 8) (size 9 to 14) (size 15 to 20)
#    0.000    1.111    2.222    5.333    0.000    5.333 
#    0.000    0.000    0.000    4.000    0.000    0.000 
#    0.000    0.000    0.000    0.000    0.000    0.000 
#
# Total GULP energy -100747.262315 kJ/mol
# GULP energy per Si atom -5597.070129 kJ/mol
# Density = 2.069614 g / cm^3
# Si number density = 20.743353 Si / 1000 Ang^3
#
#
#
# Elastic Constant Matrix: (Units=GPa)
#
#
# Indices 1 2 3 4 5 6 
#
# 1 55.3832 13.7805 -34.2432 0.0000 -1.5686 0.0000
# 2 13.7805 108.0106 -1.3779 0.0000 -0.4640 0.0000
# 3 -34.2432 -1.3779 53.7820 0.0000 0.0481 0.0000
# 4 0.0000 0.0000 0.0000 -0.3504 0.0000 -21.8019
# 5 -1.5686 -0.4640 0.0481 0.0000 40.2480 0.0000
# 6 0.0000 0.0000 0.0000 -21.8019 0.0000 16.1215
#
#
#
# Elastic Compliance Matrix: (Units=1/GPa)
#
#
# Indices 1 2 3 4 5 6 
#
# 1 0.031266 -0.003731 0.019810 0.000000 0.001152 0.000000
# 2 -0.003731 0.009707 -0.002127 0.000000 -0.000031 0.000000
# 3 0.019810 -0.002127 0.031152 0.000000 0.000710 0.000000
# 4 0.000000 0.000000 0.000000 -0.033519 0.000000 -0.045329
# 5 0.001152 -0.000031 0.000710 0.000000 0.024890 0.000000
# 6 0.000000 0.000000 0.000000 -0.045329 0.000000 0.000728
#
#
# Mechanical properties :
#
#
# Convention : Reuss Voigt Hill
#
# Bulk Modulus (GPa) = 9.99715 19.27718 14.63717
# Shear Modulus (GPa) = 71.77409 27.13824 49.45616
#
# Velocity S-wave (km/s) = 5.88864 3.62095 4.88812
# Velocity P-wave (km/s) = 7.14596 5.17639 6.23938
#
# Compressibility (1/GPa) = 0.10002847
#
# Stress axis : x y z
#
# Youngs Moduli (GPa) = 31.98395 103.01686 32.10092
#
# Poissons Ratio (x) = 0.38439 -0.63593
# Poissons Ratio (y) = 0.11934 0.06828
# Poissons Ratio (z) = -0.63361 0.21912
#
# Static dielectric constant tensor:
#      x y z
#    x 1.686290 0.000000 -0.004470 
#    y 0.000000 1.752710 0.000000 
#    z -0.004470 0.000000 1.707580 
# 
# From -- ./inp_files/10556.got.cif
#   From: 2010.05.17/outbox.cif.g08.bks.cpg/sg10_6_cif.got.tgz:10556.got - 2010.06.03 11:33:40.
