data_PCOD9145149
_publ_section_title
;
Structure prediction by ZEFSAII (Michael W. Deem and Ramdas Pophale) SiO2 
 PCOD9145149
Probable space group: P 2/M
;
_chemical_formula_sum "Si O2"
_cell_formula_units_Z 32
_cell_length_a 20.524246
_cell_length_b 7.350097
_cell_length_c 26.755094
_cell_angle_alpha 90.000000
_cell_angle_beta 20.857696
_cell_angle_gamma 90.000000
_cell_volume 1437.061921
_symmetry_space_group_name_H-M "P 2/M"
_symmetry_group_IT_number 10
_symmetry_cell_setting 'monoclinic'
loop_
_space_group_symop_operation_xyz
x,y,z
-x,y,-z
-x,-y,-z
x,-y,z
loop_
_atom_site_type_symbol
_atom_site_label
_atom_site_fract_x
_atom_site_fract_y
_atom_site_fract_z
Si Si1 0.924792 0.277961 0.148714
Si Si2 0.179518 0.777484 0.341460
Si Si3 0.286918 0.221385 0.154589
Si Si4 0.889587 0.779611 0.823159
Si Si5 0.596406 0.722249 0.315601
Si Si6 0.248987 0.709536 0.623870
Si Si7 0.657502 0.281110 0.161700
Si Si8 0.454215 0.786754 0.867297
O O1 0.931335 0.500000 0.145230
O O2 0.791897 0.227144 0.198668
O O3 0.833205 0.213233 0.266020
O O4 0.133101 0.216309 0.994267
O O5 0.194771 0.722380 0.272660
O O6 0.363560 0.714509 0.237456
O O7 0.000000 0.718271 0.500000
O O8 0.177745 0.000000 0.343181
O O9 0.177743 0.277737 0.183395
O O10 0.289879 0.000000 0.151888
O O11 0.500000 0.278642 0.000000
O O12 0.086941 0.714675 0.699468
O O13 0.897444 0.000000 0.818338
O O14 0.734438 0.715418 0.973693
O O15 0.589439 0.500000 0.320486
O O16 0.432733 0.787769 0.468363
O O17 0.578928 0.782068 0.270918
O O18 0.293137 0.500000 0.604360
O O19 0.662806 0.500000 0.159545
O O20 0.548144 0.231831 0.190396
O O21 0.452464 0.000000 0.881024
#
# Coordination Sequence:
#
# PCOD9145149 Si02
#       8
#     4   4   4   4   4   4   4   4
#     4   9  16  29  51  75  96 125 167 206 239 282
#     4   9  17  29  47  72  97 122 159 203 240 278
#     4   9  15  27  47  68  90 121 160 196 232 277
#     4  10  19  31  51  75  99 129 164 203 244 288
#     4   9  18  31  49  74 102 127 160 208 248 280
#     4  10  19  32  51  75 100 128 162 202 247 290
#     4  10  19  32  52  76  99 129 165 200 242 293
#     4  10  19  32  51  74 101 130 160 202 248 288
#
# _framework density 22.267657
#
# number of rings (size 3 to 8) (size 9 to 14) (size 15 to 20)
#    0.000    2.500    2.500    0.750    0.000    4.000 
#    0.000    1.875    0.000    6.000    0.000    0.000 
#    0.000    0.000    0.000    0.000    0.000    0.000 
#
# Total GULP energy -178813.439384 kJ/mol
# GULP energy per Si atom -5587.919981 kJ/mol
# Density = 2.221697 g / cm^3
# Si number density = 22.267657 Si / 1000 Ang^3
#
#
#
# Elastic Constant Matrix: (Units=GPa)
#
#
# Indices 1 2 3 4 5 6 
#
# 1 77.0571 -13.8207 -20.5513 0.0000 7.4693 0.0000
# 2 -13.8207 81.9044 -0.4531 0.0000 2.0934 0.0000
# 3 -20.5513 -0.4531 44.1704 0.0000 13.7355 0.0000
# 4 0.0000 0.0000 0.0000 -7.1903 0.0000 -3.4368
# 5 7.4693 2.0934 13.7355 0.0000 36.3509 0.0000
# 6 0.0000 0.0000 0.0000 -3.4368 0.0000 13.2838
#
#
#
# Elastic Compliance Matrix: (Units=1/GPa)
#
#
# Indices 1 2 3 4 5 6 
#
# 1 0.017020 0.003122 0.010305 0.000000 -0.007571 0.000000
# 2 0.003122 0.012806 0.002281 0.000000 -0.002241 0.000000
# 3 0.010305 0.002281 0.031906 0.000000 -0.014305 0.000000
# 4 0.000000 0.000000 0.000000 -0.123771 0.000000 -0.032022
# 5 -0.007571 -0.002241 -0.014305 0.000000 0.034599 0.000000
# 6 0.000000 0.000000 0.000000 -0.032022 0.000000 0.066995
#
#
# Mechanical properties :
#
#
# Convention : Reuss Voigt Hill
#
# Bulk Modulus (GPa) = 10.73552 14.83131 12.78342
# Shear Modulus (GPa) = 127.59190 24.35268 75.97229
#
# Velocity S-wave (km/s) = 7.57784 3.31060 5.84738
# Velocity P-wave (km/s) = 9.02199 4.61393 7.16536
#
# Compressibility (1/GPa) = 0.09314871
#
# Stress axis : x y z
#
# Youngs Moduli (GPa) = 58.75558 78.08757 31.34217
#
# Poissons Ratio (x) = -0.24382 -0.32298
# Poissons Ratio (y) = -0.18346 -0.07149
# Poissons Ratio (z) = -0.60548 -0.17812
#
# Static dielectric constant tensor:
#      x y z
#    x 1.773650 0.000000 0.017180 
#    y 0.000000 1.880830 0.000000 
#    z 0.017180 0.000000 1.777190 
# 
# From -- ./inp_files/82495.got.cif
#   From: 2010.05.17/outbox.cif.g08.bks.cpg/sg10_42_cif.got.tgz:82495.got - 2010.06.03 11:33:40.
