data_PCOD9145643
_publ_section_title
;
Structure prediction by ZEFSAII (Michael W. Deem and Ramdas Pophale) SiO2 
 PCOD9145643
Probable space group: P 2/M
;
_chemical_formula_sum "Si O2"
_cell_formula_units_Z 28
_cell_length_a 27.070049
_cell_length_b 8.812387
_cell_length_c 8.220811
_cell_angle_alpha 90.000000
_cell_angle_beta 45.306855
_cell_angle_gamma 90.000000
_cell_volume 1394.105938
_symmetry_space_group_name_H-M "P 2/M"
_symmetry_group_IT_number 10
_symmetry_cell_setting 'monoclinic'
loop_
_space_group_symop_operation_xyz
x,y,z
-x,y,-z
-x,-y,-z
x,-y,z
loop_
_atom_site_type_symbol
_atom_site_label
_atom_site_fract_x
_atom_site_fract_y
_atom_site_fract_z
Si Si1 0.196085 0.675990 0.893049
Si Si2 0.664494 0.818026 0.832480
Si Si3 0.184681 0.323144 0.532290
Si Si4 0.582172 0.319969 0.330497
Si Si5 0.345584 0.818444 0.521540
Si Si6 0.937650 0.830518 0.766856
Si Si7 0.045386 0.172418 0.737039
O O1 0.206506 0.500000 0.909436
O O2 0.175871 0.688768 0.748605
O O3 0.267367 0.766364 0.746559
O O4 0.130697 0.748497 0.136030
O O5 0.744086 0.764575 0.670504
O O6 0.642669 0.770769 0.696448
O O7 0.660599 0.000000 0.846883
O O8 0.620435 0.750412 0.083823
O O9 0.193212 0.500000 0.471773
O O10 0.117391 0.254310 0.602135
O O11 0.500000 0.295357 0.500000
O O12 0.596250 0.500000 0.300596
O O13 0.606904 0.251078 0.446201
O O14 0.351022 0.000000 0.513520
O O15 0.000000 0.852964 0.500000
O O16 0.985027 0.735952 0.781580
O O17 0.916580 0.000000 0.878105
O O18 0.060881 0.000000 0.637230
O O19 0.000000 0.147655 0.000000
#
# Coordination Sequence:
#
# PCOD9145643 Si02
#       7
#     4   4   4   4   4   4   4
#     4  10  20  35  56  81 113 152 194 244 302 365
#     4  10  22  41  66  95 127 166 214 260 306 368
#     4  10  20  34  56  84 115 153 198 251 308 365
#     4  11  25  44  67  97 133 168 202 249 310 373
#     4  10  22  41  67  95 125 165 209 255 306 365
#     4  10  21  35  50  72 105 145 190 242 300 361
#     4  10  19  32  52  75 103 145 194 243 295 352
#
# _framework density 20.084557
#
# number of rings (size 3 to 8) (size 9 to 14) (size 15 to 20)
#    0.000    1.857    1.429    2.143    0.000    6.857 
#    0.000    7.143    0.000    0.000    0.000    0.000 
#    0.000    0.000    0.000    0.000    0.000    0.000 
#
# Total GULP energy -155916.110124 kJ/mol
# GULP energy per Si atom -5568.432504 kJ/mol
# Density = 2.003884 g / cm^3
# Si number density = 20.084557 Si / 1000 Ang^3
#
#
#
# Elastic Constant Matrix: (Units=GPa)
#
#
# Indices 1 2 3 4 5 6 
#
# 1 120.3317 50.4366 39.8738 0.0000 -8.8518 0.0000
# 2 50.4366 83.0928 43.1795 0.0000 -6.9808 0.0000
# 3 39.8738 43.1795 96.9420 0.0000 -3.8200 0.0000
# 4 0.0000 0.0000 0.0000 33.5664 0.0000 -5.1411
# 5 -8.8518 -6.9808 -3.8200 0.0000 19.4362 0.0000
# 6 0.0000 0.0000 0.0000 -5.1411 0.0000 32.2690
#
#
#
# Elastic Compliance Matrix: (Units=1/GPa)
#
#
# Indices 1 2 3 4 5 6 
#
# 1 0.011615 -0.005710 -0.002123 0.000000 0.002822 0.000000
# 2 -0.005710 0.018829 -0.005920 0.000000 0.002999 0.000000
# 3 -0.002123 -0.005920 0.013811 0.000000 -0.000379 0.000000
# 4 0.000000 0.000000 0.000000 0.030537 0.000000 0.004865
# 5 0.002822 0.002999 -0.000379 0.000000 0.053738 0.000000
# 6 0.000000 0.000000 0.000000 0.004865 0.000000 0.031765
#
#
# Mechanical properties :
#
#
# Convention : Reuss Voigt Hill
#
# Bulk Modulus (GPa) = 59.70593 63.03847 61.37220
# Shear Modulus (GPa) = 25.85564 28.17943 27.01753
#
# Velocity S-wave (km/s) = 3.59184 3.74978 3.67166
# Velocity P-wave (km/s) = 6.85519 7.08537 6.97123
#
# Compressibility (1/GPa) = 0.01674875
#
# Stress axis : x y z
#
# Youngs Moduli (GPa) = 86.09864 53.11024 72.40844
#
# Poissons Ratio (x) = 0.30325 0.15371
# Poissons Ratio (y) = 0.49160 0.42866
# Poissons Ratio (z) = 0.18278 0.31441
#
# Static dielectric constant tensor:
#      x y z
#    x 1.546340 0.000000 -0.041020 
#    y 0.000000 1.698530 0.000000 
#    z -0.041020 0.000000 1.687000 
# 
# From -- ./inp_files/36889.got.cif
#   From: 2010.05.17/outbox.cif.g08.bks.cpg/sg10_19_cif.got.tgz:36889.got - 2010.06.03 11:33:40.
