data_PCOD9145252
_publ_section_title
;
Structure prediction by ZEFSAII (Michael W. Deem and Ramdas Pophale) SiO2 
 PCOD9145252
Probable space group: P 2/M
;
_chemical_formula_sum "Si O2"
_cell_formula_units_Z 32
_cell_length_a 24.680937
_cell_length_b 7.420030
_cell_length_c 15.094936
_cell_angle_alpha 90.000000
_cell_angle_beta 28.820989
_cell_angle_gamma 90.000000
_cell_volume 1332.640112
_symmetry_space_group_name_H-M "P 2/M"
_symmetry_group_IT_number 10
_symmetry_cell_setting 'monoclinic'
loop_
_space_group_symop_operation_xyz
x,y,z
-x,y,-z
-x,-y,-z
x,-y,z
loop_
_atom_site_type_symbol
_atom_site_label
_atom_site_fract_x
_atom_site_fract_y
_atom_site_fract_z
Si Si1 0.480781 0.782095 0.311244
Si Si2 0.803590 0.793656 0.481947
Si Si3 0.023693 0.212725 0.070481
Si Si4 0.124074 0.717855 0.429549
Si Si5 0.552224 0.220538 0.832325
Si Si6 0.864521 0.280776 0.783175
Si Si7 0.272252 0.204738 0.710486
Si Si8 0.331627 0.710610 0.812669
O O1 0.509801 0.725969 0.169630
O O2 0.356855 0.715573 0.517428
O O3 0.568288 0.727182 0.260920
O O4 0.477474 0.000000 0.317223
O O5 0.816381 0.792100 0.569629
O O6 0.681111 0.716762 0.638194
O O7 0.916934 0.711792 0.277327
O O8 0.799536 0.000000 0.454687
O O9 0.028489 0.000000 0.088327
O O10 0.149513 0.286998 0.904640
O O11 0.000000 0.228616 0.000000
O O12 0.129492 0.500000 0.425953
O O13 0.167341 0.775253 0.270931
O O14 0.992460 0.770424 0.619678
O O15 0.553006 0.000000 0.834291
O O16 0.500000 0.281534 0.000000
O O17 0.861667 0.500000 0.787374
O O18 0.778261 0.216523 0.979824
O O19 0.340851 0.200823 0.704005
O O20 0.248861 0.000000 0.713854
O O21 0.316613 0.500000 0.814943
#
# Coordination Sequence:
#
# PCOD9145252 Si02
#       8
#     4   4   4   4   4   4   4   4
#     4  10  21  37  56  76 103 143 184 218 259 320
#     4  10  19  31  52  81 105 128 169 217 260 306
#     4   9  17  31  54  81 108 138 173 218 266 310
#     4   9  17  33  54  72  99 138 173 208 255 312
#     4   9  19  35  54  77 107 140 173 214 267 320
#     4   8  17  33  51  72 100 138 177 207 250 316
#     4  10  20  35  55  80 109 141 179 218 262 319
#     4  11  22  35  54  79 108 141 179 223 269 311
#
# _framework density 24.012487
#
# number of rings (size 3 to 8) (size 9 to 14) (size 15 to 20)
#    0.000    2.500    0.000    3.000    1.750    5.000 
#    0.000    3.125    0.000    3.750    0.000    0.000 
#    0.000    0.000    0.000    0.000    0.000    0.000 
#
# Total GULP energy -178809.404567 kJ/mol
# GULP energy per Si atom -5587.793893 kJ/mol
# Density = 2.395783 g / cm^3
# Si number density = 24.012487 Si / 1000 Ang^3
#
#
#
# Elastic Constant Matrix: (Units=GPa)
#
#
# Indices 1 2 3 4 5 6 
#
# 1 111.4095 -4.6837 30.3310 0.0000 5.8341 0.0000
# 2 -4.6837 83.1887 4.5998 0.0000 0.9880 0.0000
# 3 30.3310 4.5998 69.2692 0.0000 20.4182 0.0000
# 4 0.0000 0.0000 0.0000 -3.4569 0.0000 -4.6459
# 5 5.8341 0.9880 20.4182 0.0000 34.5180 0.0000
# 6 0.0000 0.0000 0.0000 -4.6459 0.0000 14.7685
#
#
#
# Elastic Compliance Matrix: (Units=1/GPa)
#
#
# Indices 1 2 3 4 5 6 
#
# 1 0.010284 0.000836 -0.004892 0.000000 0.001132 0.000000
# 2 0.000836 0.012134 -0.001245 0.000000 0.000248 0.000000
# 3 -0.004892 -0.001245 0.019872 0.000000 -0.010892 0.000000
# 4 0.000000 0.000000 0.000000 -0.203318 0.000000 -0.063960
# 5 0.001132 0.000248 -0.010892 0.000000 0.035215 0.000000
# 6 0.000000 0.000000 0.000000 -0.063960 0.000000 0.047591
#
#
# Mechanical properties :
#
#
# Convention : Reuss Voigt Hill
#
# Bulk Modulus (GPa) = 31.55807 36.04017 33.79912
# Shear Modulus (GPa) = -87.62866 24.74060 -31.44403
#
# Velocity S-wave (km/s) = -6.04749 3.21335 -3.62261
# Velocity P-wave (km/s) = 5.96590 5.36740 1.84161
#
# Compressibility (1/GPa) = 0.03168762
#
# Stress axis : x y z
#
# Youngs Moduli (GPa) = 97.24207 82.41420 50.32261
#
# Poissons Ratio (x) = -0.06890 0.24618
# Poissons Ratio (y) = -0.08130 0.06264
# Poissons Ratio (z) = 0.47571 0.10259
#
# Static dielectric constant tensor:
#      x y z
#    x 1.878980 0.000000 -0.009340 
#    y 0.000000 1.928220 0.000000 
#    z -0.009340 0.000000 1.922050 
# 
# From -- ./inp_files/71538.got.cif
#   From: 2010.05.17/outbox.cif.g08.bks.cpg/sg10_36_cif.got.tgz:71538.got - 2010.06.03 11:33:40.
