data_PCOD9145540
_publ_section_title
;
Structure prediction by ZEFSAII (Michael W. Deem and Ramdas Pophale) SiO2 
 PCOD9145540
Probable space group: P 2/M
;
_chemical_formula_sum "Si O2"
_cell_formula_units_Z 24
_cell_length_a 17.200547
_cell_length_b 8.888620
_cell_length_c 14.202336
_cell_angle_alpha 90.000000
_cell_angle_beta 27.579080
_cell_angle_gamma 90.000000
_cell_volume 1005.290346
_symmetry_space_group_name_H-M "P 2/M"
_symmetry_group_IT_number 10
_symmetry_cell_setting 'monoclinic'
loop_
_space_group_symop_operation_xyz
x,y,z
-x,y,-z
-x,-y,-z
x,-y,z
loop_
_atom_site_type_symbol
_atom_site_label
_atom_site_fract_x
_atom_site_fract_y
_atom_site_fract_z
Si Si1 0.621677 0.674780 0.979470
Si Si2 0.844307 0.827538 0.591750
Si Si3 0.163388 0.823943 0.773996
Si Si4 0.316121 0.826658 0.807361
Si Si5 0.931682 0.327467 0.795823
Si Si6 0.603366 0.321743 0.617290
O O1 0.590652 0.500000 0.990875
O O2 0.467623 0.738039 0.206872
O O3 0.687962 0.760606 0.817189
O O4 0.778946 0.674998 0.883522
O O5 0.000000 0.826414 0.500000
O O6 0.909383 0.730231 0.434033
O O7 0.816591 0.000000 0.593787
O O8 0.297774 0.817159 0.715061
O O9 0.232847 0.745266 0.607173
O O10 0.132319 0.000000 0.786891
O O11 0.000000 0.757190 0.000000
O O12 0.455076 0.719477 0.702838
O O13 0.354729 0.000000 0.790925
O O14 0.139765 0.779227 0.045481
O O15 0.953307 0.500000 0.804000
O O16 0.618411 0.500000 0.609680
#
# Coordination Sequence:
#
# PCOD9145540 Si02
#       6
#     4   4   4   4   4   4
#     4   8  15  26  39  60  92 126 156 190 235 282
#     4   9  15  22  36  61  92 125 159 193 231 279
#     4  10  22  38  53  71  97 129 164 203 248 295
#     4  10  19  32  51  73  98 129 165 204 244 289
#     4   9  16  26  41  63  94 128 159 195 239 285
#     4  10  20  33  51  75 101 129 163 203 245 291
#
# _framework density 23.873698999999998
#
# number of rings (size 3 to 8) (size 9 to 14) (size 15 to 20)
#    0.000    2.667    0.000    3.500    0.000   10.333 
#    0.000    0.000    0.000    0.000    0.000    1.167 
#    0.000    9.333    0.000    0.000    0.000    0.000 
#
# Total GULP energy -134265.395759 kJ/mol
# GULP energy per Si atom -5594.391490 kJ/mol
# Density = 2.381936 g / cm^3
# Si number density = 23.873699 Si / 1000 Ang^3
#
#
#
# Elastic Constant Matrix: (Units=GPa)
#
#
# Indices 1 2 3 4 5 6 
#
# 1 78.4807 6.7812 26.8400 0.0000 15.2070 0.0000
# 2 6.7812 65.7696 43.3831 0.0000 27.5791 0.0000
# 3 26.8400 43.3831 212.9486 0.0000 25.1072 0.0000
# 4 0.0000 0.0000 0.0000 40.3519 0.0000 1.2198
# 5 15.2070 27.5791 25.1072 0.0000 43.9406 0.0000
# 6 0.0000 0.0000 0.0000 1.2198 0.0000 -5.6181
#
#
#
# Elastic Compliance Matrix: (Units=1/GPa)
#
#
# Indices 1 2 3 4 5 6 
#
# 1 0.014098 0.001671 -0.001521 0.000000 -0.005059 0.000000
# 2 0.001671 0.022611 -0.003298 0.000000 -0.012886 0.000000
# 3 -0.001521 -0.003298 0.005633 0.000000 -0.000622 0.000000
# 4 0.000000 0.000000 0.000000 0.024620 0.000000 0.005345
# 5 -0.005059 -0.012886 -0.000622 0.000000 0.032952 0.000000
# 6 0.000000 0.000000 0.000000 0.005345 0.000000 -0.176836
#
#
# Mechanical properties :
#
#
# Convention : Reuss Voigt Hill
#
# Bulk Modulus (GPa) = 27.74213 56.80083 42.27148
# Shear Modulus (GPa) = -85.30810 34.41451 -25.44680
#
# Velocity S-wave (km/s) = -5.98420 3.80086 -3.26834
# Velocity P-wave (km/s) = 6.00849 6.56551 1.87136
#
# Compressibility (1/GPa) = 0.03604626
#
# Stress axis : x y z
#
# Youngs Moduli (GPa) = 70.93221 44.22647 177.52903
#
# Poissons Ratio (x) = -0.07390 0.27000
# Poissons Ratio (y) = -0.11852 0.58545
# Poissons Ratio (z) = 0.10788 0.14585
#
# Static dielectric constant tensor:
#      x y z
#    x 1.985620 0.000000 -0.078860 
#    y 0.000000 1.799510 0.000000 
#    z -0.078860 0.000000 1.944790 
# 
# From -- ./inp_files/33772.got.cif
#   From: 2010.05.17/outbox.cif.g08.bks.cpg/sg10_17_cif.got.tgz:33772.got - 2010.06.03 11:33:40.
