data_PCOD9145385
_publ_section_title
;
Structure prediction by ZEFSAII (Michael W. Deem and Ramdas Pophale) SiO2 
 PCOD9145385
Probable space group: P 2/M
;
_chemical_formula_sum "Si O2"
_cell_formula_units_Z 32
_cell_length_a 12.791915
_cell_length_b 14.523512
_cell_length_c 12.419698
_cell_angle_alpha 90.000000
_cell_angle_beta 71.630287
_cell_angle_gamma 90.000000
_cell_volume 2189.797808
_symmetry_space_group_name_H-M "P 2/M"
_symmetry_group_IT_number 10
_symmetry_cell_setting 'monoclinic'
loop_
_space_group_symop_operation_xyz
x,y,z
-x,y,-z
-x,-y,-z
x,-y,z
loop_
_atom_site_type_symbol
_atom_site_label
_atom_site_fract_x
_atom_site_fract_y
_atom_site_fract_z
Si Si1 0.611805 0.888243 0.024572
Si Si2 0.231733 0.110711 0.211290
Si Si3 0.007804 0.110432 0.626284
Si Si4 0.442174 0.397587 0.349814
Si Si5 0.369203 0.202353 0.354653
Si Si6 0.675657 0.602371 0.377074
Si Si7 0.769524 0.793690 0.380885
Si Si8 0.400343 0.110552 0.721750
O O1 0.615362 0.861281 0.148029
O O2 0.609033 0.000000 0.025200
O O3 0.500000 0.857791 0.000000
O O4 0.716912 0.859610 0.919421
O O5 0.312901 0.146827 0.277255
O O6 0.107327 0.137689 0.280545
O O7 0.234285 0.000000 0.213726
O O8 0.109330 0.165813 0.643271
O O9 0.000000 0.126930 0.500000
O O10 0.024577 0.000000 0.634729
O O11 0.425004 0.500000 0.308551
O O12 0.394134 0.307098 0.310105
O O13 0.382500 0.397611 0.486246
O O14 0.572303 0.384532 0.330096
O O15 0.289970 0.201041 0.483528
O O16 0.484436 0.156002 0.350586
O O17 0.722471 0.500000 0.344949
O O18 0.758645 0.687400 0.347475
O O19 0.697578 0.853003 0.320798
O O20 0.407923 0.000000 0.713199
#
# Coordination Sequence:
#
# PCOD9145385 Si02
#       8
#     4   4   4   4   4   4   4   4
#     4   9  17  31  47  63  89 123 158 192 223 265
#     4  10  19  32  49  66  88 127 169 188 210 270
#     4  10  20  33  46  63  93 133 162 181 217 276
#     4   8  14  25  40  63  94 122 147 176 227 289
#     4  11  18  27  46  71  96 121 148 189 235 279
#     4   8  14  26  43  62  90 123 150 180 224 282
#     4  11  20  30  45  69  99 121 152 192 235 273
#     4  11  21  29  42  70  99 120 147 193 241 269
#
# _framework density 14.613222
#
# number of rings (size 3 to 8) (size 9 to 14) (size 15 to 20)
#    0.000    2.250    3.750    1.875    0.000    2.000 
#    0.000    0.625    0.000    4.125    0.000    2.625 
#    0.000    1.000    0.000    0.000    0.000    0.000 
#
# Total GULP energy -178230.072106 kJ/mol
# GULP energy per Si atom -5569.689753 kJ/mol
# Density = 1.457996 g / cm^3
# Si number density = 14.613222 Si / 1000 Ang^3
#
#
#
# Elastic Constant Matrix: (Units=GPa)
#
#
# Indices 1 2 3 4 5 6 
#
# 1 84.0049 27.4704 4.2138 0.0000 -12.9677 0.0000
# 2 27.4704 50.8445 -1.4815 0.0000 -8.5100 0.0000
# 3 4.2138 -1.4815 24.8825 0.0000 -12.1245 0.0000
# 4 0.0000 0.0000 0.0000 3.2046 0.0000 -2.4643
# 5 -12.9677 -8.5100 -12.1245 0.0000 18.7679 0.0000
# 6 0.0000 0.0000 0.0000 -2.4643 0.0000 19.8762
#
#
#
# Elastic Compliance Matrix: (Units=1/GPa)
#
#
# Indices 1 2 3 4 5 6 
#
# 1 0.015369 -0.006926 0.000918 0.000000 0.008072 0.000000
# 2 -0.006926 0.025782 0.008862 0.000000 0.012630 0.000000
# 3 0.000918 0.008862 0.062504 0.000000 0.045032 0.000000
# 4 0.000000 0.000000 0.000000 0.344936 0.000000 0.042766
# 5 0.008072 0.012630 0.045032 0.000000 0.093679 0.000000
# 6 0.000000 0.000000 0.000000 0.042766 0.000000 0.055614
#
#
# Mechanical properties :
#
#
# Convention : Reuss Voigt Hill
#
# Bulk Modulus (GPa) = 9.14379 24.45969 16.80174
# Shear Modulus (GPa) = 7.95383 17.00502 12.47942
#
# Velocity S-wave (km/s) = 2.33553 3.41497 2.92547
# Velocity P-wave (km/s) = 3.68018 5.68540 4.78892
#
# Compressibility (1/GPa) = 0.10936385
#
# Stress axis : x y z
#
# Youngs Moduli (GPa) = 65.06665 38.78697 15.99905
#
# Poissons Ratio (x) = 0.26863 -0.01469
# Poissons Ratio (y) = 0.45063 -0.14179
# Poissons Ratio (z) = -0.05975 -0.34374
#
# Static dielectric constant tensor:
#      x y z
#    x 1.463100 0.000000 -0.007130 
#    y 0.000000 1.500910 0.000000 
#    z -0.007130 0.000000 1.488550 
# 
# From -- ./inp_files/47376.got.cif
#   From: 2010.05.17/outbox.cif.g08.bks.cpg/sg10_24_cif.got.tgz:47376.got - 2010.06.03 11:33:40.
