data_PCOD9145980
_publ_section_title
;
Structure prediction by ZEFSAII (Michael W. Deem and Ramdas Pophale) SiO2 
 PCOD9145980
Probable space group: P 2/M
;
_chemical_formula_sum "Si O2"
_cell_formula_units_Z 24
_cell_length_a 5.348822
_cell_length_b 27.432668
_cell_length_c 9.294393
_cell_angle_alpha 90.000000
_cell_angle_beta 45.200364
_cell_angle_gamma 90.000000
_cell_volume 967.710964
_symmetry_space_group_name_H-M "P 2/M"
_symmetry_group_IT_number 10
_symmetry_cell_setting 'monoclinic'
loop_
_space_group_symop_operation_xyz
x,y,z
-x,y,-z
-x,-y,-z
x,-y,z
loop_
_atom_site_type_symbol
_atom_site_label
_atom_site_fract_x
_atom_site_fract_y
_atom_site_fract_z
Si Si1 0.998306 0.404476 0.777191
Si Si2 0.679815 0.842399 0.732089
Si Si3 0.519496 0.443791 0.761771
Si Si4 0.157969 0.799818 0.745002
Si Si5 0.083131 0.299625 0.637567
Si Si6 0.583951 0.946945 0.136382
O O1 0.899407 0.436714 0.679639
O O2 0.385114 0.410230 0.687228
O O3 0.917571 0.349207 0.765313
O O4 0.743015 0.425834 0.004072
O O5 0.349392 0.808670 0.819959
O O6 0.583390 0.897863 0.734271
O O7 0.000000 0.826364 0.500000
O O8 0.863458 0.838500 0.813884
O O9 0.454537 0.500000 0.753465
O O10 0.500000 0.804871 0.500000
O O11 0.989014 0.747928 0.770125
O O12 0.500000 0.304317 0.500000
O O13 0.000000 0.294279 0.500000
O O14 0.458831 0.000000 0.242979
O O15 0.500000 0.946371 0.000000
O O16 0.000000 0.944524 0.000000
#
# Coordination Sequence:
#
# PCOD9145980 Si02
#       6
#     4   4   4   4   4   4
#     4  10  19  32  55  78 102 132 176 222 259 315
#     4  10  19  34  59  83 107 140 197 242 270 319
#     4  10  19  35  59  77  97 138 183 224 266 317
#     4   9  18  33  54  80 103 141 182 225 269 320
#     4  11  21  35  55  80 110 144 178 212 269 341
#     4  10  21  37  57  80 116 157 187 223 291 358
#
# _framework density 24.800795000000001
#
# number of rings (size 3 to 8) (size 9 to 14) (size 15 to 20)
#    0.000    2.000    0.000    7.000    0.000    0.333 
#    0.000    0.000   22.000   23.000    0.000    0.000 
#    0.000    0.000    0.000    0.000    0.000    0.000 
#
# Total GULP energy -134073.590091 kJ/mol
# GULP energy per Si atom -5586.399587 kJ/mol
# Density = 2.474435 g / cm^3
# Si number density = 24.800795 Si / 1000 Ang^3
#
#
#
# Elastic Constant Matrix: (Units=GPa)
#
#
# Indices 1 2 3 4 5 6 
#
# 1 226.0724 46.7380 27.0744 0.0000 13.3981 0.0000
# 2 46.7380 179.4099 -5.4776 0.0000 -1.6017 0.0000
# 3 27.0744 -5.4776 39.2843 0.0000 4.3339 0.0000
# 4 0.0000 0.0000 0.0000 29.1165 0.0000 -4.7654
# 5 13.3981 -1.6017 4.3339 0.0000 45.7630 0.0000
# 6 0.0000 0.0000 0.0000 -4.7654 0.0000 44.0378
#
#
#
# Elastic Compliance Matrix: (Units=1/GPa)
#
#
# Indices 1 2 3 4 5 6 
#
# 1 0.005246 -0.001490 -0.003687 0.000000 -0.001239 0.000000
# 2 -0.001490 0.006022 0.001814 0.000000 0.000475 0.000000
# 3 -0.003687 0.001814 0.028420 0.000000 -0.001549 0.000000
# 4 0.000000 0.000000 0.000000 0.034964 0.000000 0.003784
# 5 -0.001239 0.000475 -0.001549 0.000000 0.022378 0.000000
# 6 0.000000 0.000000 0.000000 0.003784 0.000000 0.023117
#
#
# Mechanical properties :
#
#
# Convention : Reuss Voigt Hill
#
# Bulk Modulus (GPa) = 30.33747 64.60402 47.47074
# Shear Modulus (GPa) = 36.26846 48.87892 42.57369
#
# Velocity S-wave (km/s) = 3.82827 4.44425 4.14771
# Velocity P-wave (km/s) = 5.63914 7.24161 6.49002
#
# Compressibility (1/GPa) = 0.03296254
#
# Stress axis : x y z
#
# Youngs Moduli (GPa) = 190.60487 166.06538 35.18616
#
# Poissons Ratio (x) = 0.24750 0.12973
# Poissons Ratio (y) = 0.28407 -0.06384
# Poissons Ratio (z) = 0.70275 -0.30130
#
# Static dielectric constant tensor:
#      x y z
#    x 1.987550 0.000000 0.055390 
#    y 0.000000 1.945200 0.000000 
#    z 0.055390 0.000000 1.848610 
# 
# From -- ./inp_files/40031.got.cif
#   From: 2010.05.17/outbox.cif.g08.bks.cpg/sg10_21_cif.got.tgz:40031.got - 2010.06.03 11:33:40.
