data_PCOD9145545
_publ_section_title
;
Structure prediction by ZEFSAII (Michael W. Deem and Ramdas Pophale) SiO2 
 PCOD9145545
Probable space group: P 2/M
;
_chemical_formula_sum "Si O2"
_cell_formula_units_Z 28
_cell_length_a 8.146511
_cell_length_b 20.122730
_cell_length_c 15.605906
_cell_angle_alpha 90.000000
_cell_angle_beta 38.461958
_cell_angle_gamma 90.000000
_cell_volume 1591.235082
_symmetry_space_group_name_H-M "P 2/M"
_symmetry_group_IT_number 10
_symmetry_cell_setting 'monoclinic'
loop_
_space_group_symop_operation_xyz
x,y,z
-x,y,-z
-x,-y,-z
x,-y,z
loop_
_atom_site_type_symbol
_atom_site_label
_atom_site_fract_x
_atom_site_fract_y
_atom_site_fract_z
Si Si1 0.752256 0.923139 0.831829
Si Si2 0.683999 0.574743 0.341864
Si Si3 0.565899 0.839893 0.167829
Si Si4 0.454767 0.697166 0.159430
Si Si5 0.930614 0.160107 0.167829
Si Si6 0.290410 0.574742 0.341864
Si Si7 0.933057 0.697166 0.840571
O O1 0.654959 0.885174 0.786495
O O2 0.985555 0.885173 0.786495
O O3 0.814864 0.000000 0.790091
O O4 0.500000 0.921544 0.000000
O O5 0.500000 0.583895 0.500000
O O6 0.799672 0.500000 0.299936
O O7 0.498955 0.577604 0.334030
O O8 0.896259 0.632654 0.248687
O O9 0.473373 0.763401 0.208745
O O10 0.683787 0.861776 0.210809
O O11 0.814150 0.840397 0.000000
O O12 0.357677 0.632655 0.248689
O O13 0.256165 0.712191 0.162557
O O14 0.740593 0.684961 0.000001
O O15 0.900391 0.236600 0.208745
O O16 0.300524 0.500000 0.299933
O O17 0.000000 0.583894 0.500000
#
# Coordination Sequence:
#
# PCOD9145545 Si02
#       7
#     4   4   4   4   4   4   4
#     4   9  16  26  40  62  95 131 165 201 247 304
#     4  10  21  36  52  71  98 132 168 211 262 308
#     4   9  16  27  43  64  93 129 166 205 251 297
#     4  10  19  32  51  73  99 133 171 212 257 304
#     4   9  16  27  43  64  93 129 166 205 251 297
#     4  10  21  36  52  71  98 132 168 211 262 308
#     4  10  19  32  51  73  99 133 171 212 257 304
#
# _framework density 17.596395000000001
#
# number of rings (size 3 to 8) (size 9 to 14) (size 15 to 20)
#    0.000    2.429    1.429    1.714    0.000    4.571 
#    0.000    5.714    0.000    0.000    0.000    0.000 
#    0.000    1.143    0.571    0.000    0.000    0.000 
#
# Total GULP energy -156126.269315 kJ/mol
# GULP energy per Si atom -5575.938190 kJ/mol
# Density = 1.755634 g / cm^3
# Si number density = 17.596395 Si / 1000 Ang^3
#
#
#
# Elastic Constant Matrix: (Units=GPa)
#
#
# Indices 1 2 3 4 5 6 
#
# 1 112.9225 65.2563 15.9973 0.0000 6.3620 0.0000
# 2 65.2563 134.3601 33.3569 0.0000 3.1779 0.0000
# 3 15.9973 33.3569 17.1992 0.0000 3.1747 0.0000
# 4 0.0000 0.0000 0.0000 -8.9013 0.0000 3.1599
# 5 6.3620 3.1779 3.1747 0.0000 16.8511 0.0000
# 6 0.0000 0.0000 0.0000 3.1599 0.0000 22.8127
#
#
#
# Elastic Compliance Matrix: (Units=1/GPa)
#
#
# Indices 1 2 3 4 5 6 
#
# 1 0.012539 -0.006323 0.001299 0.000000 -0.003786 0.000000
# 2 -0.006323 0.017656 -0.029203 0.000000 0.004559 0.000000
# 3 0.001299 -0.029203 0.116703 0.000000 -0.016970 0.000000
# 4 0.000000 0.000000 0.000000 -0.107078 0.000000 0.014832
# 5 -0.003786 0.004559 -0.016970 0.000000 0.063110 0.000000
# 6 0.000000 0.000000 0.000000 0.014832 0.000000 0.041781
#
#
# Mechanical properties :
#
#
# Convention : Reuss Voigt Hill
#
# Bulk Modulus (GPa) = 12.74783 54.85588 33.80185
# Shear Modulus (GPa) = 20.89318 16.14394 18.51856
#
# Velocity S-wave (km/s) = 3.44954 3.03224 3.24760
# Velocity P-wave (km/s) = 4.80896 6.59557 5.77181
#
# Compressibility (1/GPa) = 0.07844470
#
# Stress axis : x y z
#
# Youngs Moduli (GPa) = 79.75259 56.63873 8.56873
#
# Poissons Ratio (x) = 0.35812 -0.01113
# Poissons Ratio (y) = 0.50426 0.25023
# Poissons Ratio (z) = -0.10360 1.65401
#
# Static dielectric constant tensor:
#      x y z
#    x 1.624920 0.000000 0.006510 
#    y 0.000000 1.589640 0.000000 
#    z 0.006510 0.000000 1.559570 
# 
# From -- ./inp_files/30492.got.cif
#   From: 2010.05.17/outbox.cif.g08.bks.cpg/sg10_16_cif.got.tgz:30492.got - 2010.06.03 11:33:40.
