data_PCOD9145376
_publ_section_title
;
Structure prediction by ZEFSAII (Michael W. Deem and Ramdas Pophale) SiO2 
 PCOD9145376
Probable space group: P 2/M
;
_chemical_formula_sum "Si O2"
_cell_formula_units_Z 24
_cell_length_a 12.065884
_cell_length_b 24.342559
_cell_length_c 14.336615
_cell_angle_alpha 90.000000
_cell_angle_beta 159.858429
_cell_angle_gamma 90.000000
_cell_volume 1449.975592
_symmetry_space_group_name_H-M "P 2/M"
_symmetry_group_IT_number 10
_symmetry_cell_setting 'monoclinic'
loop_
_space_group_symop_operation_xyz
x,y,z
-x,y,-z
-x,-y,-z
x,-y,z
loop_
_atom_site_type_symbol
_atom_site_label
_atom_site_fract_x
_atom_site_fract_y
_atom_site_fract_z
Si Si1 0.109538 0.500000 0.192797
Si Si2 0.219164 0.659447 0.464757
Si Si3 0.065612 0.622001 0.940737
Si Si4 0.885461 0.882047 0.302637
Si Si5 0.883521 0.439692 0.302054
Si Si6 0.112347 0.760404 0.696200
Si Si7 0.112218 0.000000 0.696227
O O1 0.500000 0.500000 0.500000
O O2 0.969921 0.557884 0.118639
O O3 0.000000 0.500000 0.000000
O O4 0.174897 0.654418 0.318026
O O5 0.010883 0.609706 0.341900
O O6 0.067462 0.714980 0.384988
O O7 0.578258 0.647353 0.785017
O O8 0.000000 0.623843 0.000000
O O9 0.972659 0.821861 0.333865
O O10 0.992931 0.940898 0.345183
O O11 0.000000 0.882106 0.500000
O O12 0.500000 0.882756 0.000000
O O13 0.998935 0.500000 0.360137
O O14 0.000000 0.432784 0.500000
O O15 0.500000 0.439534 0.000000
O O16 0.000000 0.755933 0.500000
O O17 0.500000 0.753336 0.000000
O O18 0.000000 0.000000 0.500000
O O19 0.500000 0.000000 0.000000
#
# Coordination Sequence:
#
# PCOD9145376 Si02
#       7
#     2   4   4   4   4   4   2
#     4  10  20  38  56  70  88 108 136 186 240 290
#     4  12  22  34  55  71  92 125 154 185 236 283
#     4  11  24  38  54  73  93 113 147 195 243 290
#     4   8  14  23  38  59  88 123 157 192 219 254
#     4  10  21  35  49  68  94 118 148 184 216 261
#     4  10  19  32  48  70  98 128 164 194 221 267
#     4   8  12  20  34  56  84 120 159 186 221 256
#
# _framework density 16.552002999999999
#
# number of rings (size 3 to 8) (size 9 to 14) (size 15 to 20)
#    0.000    2.000    0.000    5.500    2.333    0.000 
#    0.000    0.000    0.000    0.000    0.000    0.000 
#    0.000    0.000    0.000    4.500    0.000    1.667 
#
# Total GULP energy -133686.023066 kJ/mol
# GULP energy per Si atom -5570.250961 kJ/mol
# Density = 1.651433 g / cm^3
# Si number density = 16.552003 Si / 1000 Ang^3
#
#
#
# Elastic Constant Matrix: (Units=GPa)
#
#
# Indices 1 2 3 4 5 6 
#
# 1 37.7077 40.3612 11.9458 0.0000 -11.4385 0.0000
# 2 40.3612 168.4840 20.9288 0.0000 7.8392 0.0000
# 3 11.9458 20.9288 113.2926 0.0000 -21.1331 0.0000
# 4 0.0000 0.0000 0.0000 19.7434 0.0000 -2.2151
# 5 -11.4385 7.8392 -21.1331 0.0000 26.7924 0.0000
# 6 0.0000 0.0000 0.0000 -2.2151 0.0000 4.6671
#
#
#
# Elastic Compliance Matrix: (Units=1/GPa)
#
#
# Indices 1 2 3 4 5 6 
#
# 1 0.047310 -0.012795 0.002159 0.000000 0.025645 0.000000
# 2 -0.012795 0.009766 -0.002353 0.000000 -0.010176 0.000000
# 3 0.002159 -0.002353 0.010944 0.000000 0.010243 0.000000
# 4 0.000000 0.000000 0.000000 0.053499 0.000000 0.025391
# 5 0.025645 -0.010176 0.010243 0.000000 0.059329 0.000000
# 6 0.000000 0.000000 0.000000 0.025391 0.000000 0.226316
#
#
# Mechanical properties :
#
#
# Convention : Reuss Voigt Hill
#
# Bulk Modulus (GPa) = 23.78546 51.77288 37.77917
# Shear Modulus (GPa) = 11.18173 26.65714 18.91943
#
# Velocity S-wave (km/s) = 2.60196 4.01747 3.38454
# Velocity P-wave (km/s) = 4.84027 7.27096 6.17637
#
# Compressibility (1/GPa) = 0.04204249
#
# Stress axis : x y z
#
# Youngs Moduli (GPa) = 21.13700 102.39461 91.37039
#
# Poissons Ratio (x) = 1.31012 -0.19725
# Poissons Ratio (y) = 0.27044 0.21502
# Poissons Ratio (z) = -0.04563 0.24096
#
# Static dielectric constant tensor:
#      x y z
#    x 1.554760 0.000000 -0.009640 
#    y 0.000000 1.627160 0.000000 
#    z -0.009640 0.000000 1.570030 
# 
# From -- ./inp_files/10137.got.cif
#   From: 2010.05.17/outbox.cif.g08.bks.cpg/sg10_6_cif.got.tgz:10137.got - 2010.06.03 11:33:40.
