data_PCOD9145486
_publ_section_title
;
Structure prediction by ZEFSAII (Michael W. Deem and Ramdas Pophale) SiO2 
 PCOD9145486
Probable space group: P 2/M
;
_chemical_formula_sum "Si O2"
_cell_formula_units_Z 28
_cell_length_a 13.899410
_cell_length_b 8.225037
_cell_length_c 13.391118
_cell_angle_alpha 90.000000
_cell_angle_beta 60.688803
_cell_angle_gamma 90.000000
_cell_volume 1334.917445
_symmetry_space_group_name_H-M "P 2/M"
_symmetry_group_IT_number 10
_symmetry_cell_setting 'monoclinic'
loop_
_space_group_symop_operation_xyz
x,y,z
-x,y,-z
-x,-y,-z
x,-y,z
loop_
_atom_site_type_symbol
_atom_site_label
_atom_site_fract_x
_atom_site_fract_y
_atom_site_fract_z
Si Si1 0.232333 0.689467 0.750407
Si Si2 0.973344 0.304058 0.258258
Si Si3 0.177141 0.806254 0.256715
Si Si4 0.831163 0.307379 0.524063
Si Si5 0.638977 0.186557 0.502739
Si Si6 0.553547 0.305271 0.269134
Si Si7 0.569057 0.196467 0.868202
O O1 0.214917 0.500000 0.782713
O O2 0.111461 0.757818 0.784099
O O3 0.303170 0.705208 0.611554
O O4 0.319888 0.756382 0.786013
O O5 0.976012 0.500000 0.250930
O O6 0.914080 0.259902 0.393399
O O7 0.097346 0.241952 0.206247
O O8 0.132250 0.730801 0.382901
O O9 0.303909 0.749512 0.185068
O O10 0.175966 0.000000 0.266540
O O11 0.810431 0.500000 0.526068
O O12 0.719024 0.210818 0.557649
O O13 0.519283 0.235193 0.602876
O O14 0.641380 0.000000 0.468806
O O15 0.554381 0.500000 0.278763
O O16 0.492719 0.259506 0.198447
O O17 0.569755 0.000000 0.862499
O O18 0.500000 0.246603 0.000000
#
# Coordination Sequence:
#
# PCOD9145486 Si02
#       7
#     4   4   4   4   4   4   4
#     4   9  20  36  52  76 111 149 184 219 263 317
#     4   9  19  34  51  74 109 149 181 212 261 322
#     4  11  21  33  53  79 106 138 179 227 274 324
#     4  10  19  32  50  74 108 149 184 219 265 319
#     4  11  20  30  48  78 113 148 184 221 264 320
#     4  11  21  35  57  80 106 141 183 228 272 324
#     4  10  23  42  60  80 108 140 177 229 289 333
#
# _framework density 20.975079000000001
#
# number of rings (size 3 to 8) (size 9 to 14) (size 15 to 20)
#    0.000    1.857    1.429    4.286    0.000    8.286 
#    0.000    0.000    0.000    0.857    0.000    6.000 
#    0.000    0.000    0.000    0.000    0.000    0.000 
#
# Total GULP energy -156263.445102 kJ/mol
# GULP energy per Si atom -5580.837325 kJ/mol
# Density = 2.092734 g / cm^3
# Si number density = 20.975079 Si / 1000 Ang^3
#
#
#
# Elastic Constant Matrix: (Units=GPa)
#
#
# Indices 1 2 3 4 5 6 
#
# 1 200.5485 13.4191 22.8901 0.0000 -11.1521 0.0000
# 2 13.4191 22.5122 3.0795 0.0000 -5.0115 0.0000
# 3 22.8901 3.0795 29.6236 0.0000 -0.9061 0.0000
# 4 0.0000 0.0000 0.0000 8.7199 0.0000 -9.4629
# 5 -11.1521 -5.0115 -0.9061 0.0000 12.0255 0.0000
# 6 0.0000 0.0000 0.0000 -9.4629 0.0000 7.1469
#
#
#
# Elastic Compliance Matrix: (Units=1/GPa)
#
#
# Indices 1 2 3 4 5 6 
#
# 1 0.005831 -0.001952 -0.004172 0.000000 0.004280 0.000000
# 2 -0.001952 0.050216 -0.003134 0.000000 0.018880 0.000000
# 3 -0.004172 -0.003134 0.037234 0.000000 -0.002369 0.000000
# 4 0.000000 0.000000 0.000000 -0.262493 0.000000 -0.347557
# 5 0.004280 0.018880 -0.002369 0.000000 0.094815 0.000000
# 6 0.000000 0.000000 0.000000 -0.347557 0.000000 -0.320267
#
#
# Mechanical properties :
#
#
# Convention : Reuss Voigt Hill
#
# Bulk Modulus (GPa) = 13.37539 36.82909 25.10224
# Shear Modulus (GPa) = -14.23586 19.79815 2.78114
#
# Velocity S-wave (km/s) = -2.60802 3.07561 1.15274
# Velocity P-wave (km/s) = 1.63658 5.49628 3.71017
#
# Compressibility (1/GPa) = 0.07476416
#
# Stress axis : x y z
#
# Youngs Moduli (GPa) = 171.49384 19.91406 26.85736
#
# Poissons Ratio (x) = 0.03888 0.11204
# Poissons Ratio (y) = 0.33483 0.08417
# Poissons Ratio (z) = 0.71544 0.06241
#
# Static dielectric constant tensor:
#      x y z
#    x 1.874700 0.000000 -0.002450 
#    y 0.000000 1.728430 0.000000 
#    z -0.002450 0.000000 1.712510 
# 
# From -- ./inp_files/65922.got.cif
#   From: 2010.05.17/outbox.cif.g08.bks.cpg/sg10_33_cif.got.tgz:65922.got - 2010.06.03 11:33:40.
