data_PCOD9145176
_publ_section_title
;
Structure prediction by ZEFSAII (Michael W. Deem and Ramdas Pophale) SiO2 
 PCOD9145176
Probable space group: P 2/M
;
_chemical_formula_sum "Si O2"
_cell_formula_units_Z 30
_cell_length_a 32.039708
_cell_length_b 8.077940
_cell_length_c 5.270795
_cell_angle_alpha 90.000000
_cell_angle_beta 85.695768
_cell_angle_gamma 90.000000
_cell_volume 1360.312472
_symmetry_space_group_name_H-M "P 2/M"
_symmetry_group_IT_number 10
_symmetry_cell_setting 'monoclinic'
loop_
_space_group_symop_operation_xyz
x,y,z
-x,y,-z
-x,-y,-z
x,-y,z
loop_
_atom_site_type_symbol
_atom_site_label
_atom_site_fract_x
_atom_site_fract_y
_atom_site_fract_z
Si Si1 0.666792 0.801199 0.624141
Si Si2 0.237695 0.300690 0.345615
Si Si3 0.952347 0.202536 0.474347
Si Si4 0.616471 0.799208 0.138344
Si Si5 0.191046 0.300181 0.866834
Si Si6 0.095788 0.199890 0.004063
Si Si7 0.528793 0.000000 0.740932
Si Si8 0.450237 0.678246 0.478941
O O1 0.714254 0.743721 0.631351
O O2 0.646729 0.756760 0.363282
O O3 0.666554 0.000000 0.638431
O O4 0.638985 0.740726 0.873469
O O5 0.234700 0.500000 0.343097
O O6 0.209294 0.238745 0.591512
O O7 0.219689 0.239130 0.086364
O O8 0.933394 0.256791 0.215040
O O9 0.000000 0.255336 0.500000
O O10 0.952556 0.000000 0.472660
O O11 0.922834 0.257067 0.719271
O O12 0.572945 0.719060 0.247876
O O13 0.610980 0.000000 0.135350
O O14 0.193328 0.500000 0.861722
O O15 0.143242 0.252545 0.935720
O O16 0.094622 0.000000 0.006606
O O17 0.500000 0.000000 0.500000
O O18 0.556173 0.835306 0.700813
O O19 0.500000 0.000000 0.000000
O O20 0.500000 0.668897 0.500000
O O21 0.436334 0.500000 0.387596
#
# Coordination Sequence:
#
# PCOD9145176 Si02
#       8
#     4   4   4   4   4   4   2   4
#     4  10  22  38  60  86 115 148 187 233 283 340
#     4  10  21  37  56  78 106 142 182 220 273 336
#     4   9  17  30  49  74 105 138 175 222 273 322
#     4  10  21  39  59  85 118 153 188 231 288 342
#     4  10  21  36  54  77 108 144 177 222 279 332
#     4  10  19  31  51  78 102 133 179 224 267 321
#     4  10  22  40  62  86 120 158 192 244 298 340
#     4  10  22  41  65  94 124 161 207 249 296 355
#
# _framework density 22.053754999999999
#
# number of rings (size 3 to 8) (size 9 to 14) (size 15 to 20)
#    0.000    2.133    0.667    2.000    0.000    6.133 
#    0.000    2.667    0.000    2.400    0.000    0.000 
#    0.000    0.000    0.000    0.000    0.000    0.000 
#
# Total GULP energy -167775.263000 kJ/mol
# GULP energy per Si atom -5592.508767 kJ/mol
# Density = 2.200356 g / cm^3
# Si number density = 22.053755 Si / 1000 Ang^3
#
#
#
# Elastic Constant Matrix: (Units=GPa)
#
#
# Indices 1 2 3 4 5 6 
#
# 1 62.5844 -7.0815 -23.5116 0.0000 -2.1843 0.0000
# 2 -7.0815 56.9522 18.9910 0.0000 -1.3125 0.0000
# 3 -23.5116 18.9910 76.3456 0.0000 -1.7171 0.0000
# 4 0.0000 0.0000 0.0000 18.8101 0.0000 -34.8184
# 5 -2.1843 -1.3125 -1.7171 0.0000 43.4483 0.0000
# 6 0.0000 0.0000 0.0000 -34.8184 0.0000 72.7110
#
#
#
# Elastic Compliance Matrix: (Units=1/GPa)
#
#
# Indices 1 2 3 4 5 6 
#
# 1 0.018135 0.000448 0.005499 0.000000 0.001143 0.000000
# 2 0.000448 0.019164 -0.004620 0.000000 0.000419 0.000000
# 3 0.005499 -0.004620 0.015958 0.000000 0.000768 0.000000
# 4 0.000000 0.000000 0.000000 0.467943 0.000000 0.224079
# 5 0.001143 0.000419 0.000768 0.000000 0.023116 0.000000
# 6 0.000000 0.000000 0.000000 0.224079 0.000000 0.121056
#
#
# Mechanical properties :
#
#
# Convention : Reuss Voigt Hill
#
# Bulk Modulus (GPa) = 17.88547 19.18644 18.53595
# Shear Modulus (GPa) = 7.33830 40.82616 24.08223
#
# Velocity S-wave (km/s) = 1.82611 4.30724 3.30810
# Velocity P-wave (km/s) = 3.54595 5.78404 4.79734
#
# Compressibility (1/GPa) = 0.05591131
#
# Stress axis : x y z
#
# Youngs Moduli (GPa) = 55.14233 52.18003 62.66305
#
# Poissons Ratio (x) = -0.02335 -0.34460
# Poissons Ratio (y) = -0.02468 0.28950
# Poissons Ratio (z) = -0.30324 0.24107
#
# Static dielectric constant tensor:
#      x y z
#    x 1.835570 0.000000 0.077430 
#    y 0.000000 1.837180 0.000000 
#    z 0.077430 0.000000 1.842300 
# 
# From -- ./inp_files/13619.got.cif
#   From: 2010.05.17/outbox.cif.g08.bks.cpg/sg10_7_cif.got.tgz:13619.got - 2010.06.03 11:33:40.
