data_PCOD9145989
_publ_section_title
;
Structure prediction by ZEFSAII (Michael W. Deem and Ramdas Pophale) SiO2 
 PCOD9145989
Probable space group: P 2/M
;
_chemical_formula_sum "Si O2"
_cell_formula_units_Z 28
_cell_length_a 13.662923
_cell_length_b 9.927435
_cell_length_c 16.541172
_cell_angle_alpha 90.000000
_cell_angle_beta 136.758271
_cell_angle_gamma 90.000000
_cell_volume 1537.046015
_symmetry_space_group_name_H-M "P 2/M"
_symmetry_group_IT_number 10
_symmetry_cell_setting 'monoclinic'
loop_
_space_group_symop_operation_xyz
x,y,z
-x,y,-z
-x,-y,-z
x,-y,z
loop_
_atom_site_type_symbol
_atom_site_label
_atom_site_fract_x
_atom_site_fract_y
_atom_site_fract_z
Si Si1 0.397975 0.651675 0.829982
Si Si2 0.941338 0.845394 0.552060
Si Si3 0.264625 0.651539 0.996518
Si Si4 0.683092 0.656772 0.405937
Si Si5 0.427190 0.663490 0.372070
Si Si6 0.159770 0.659875 0.113913
Si Si7 0.783550 0.845557 0.168801
O O1 0.359272 0.500000 0.835119
O O2 0.568244 0.657887 0.924733
O O3 0.341317 0.668726 0.704788
O O4 0.332193 0.762805 0.848630
O O5 0.814729 0.751540 0.506007
O O6 0.000000 0.798630 0.500000
O O7 0.072713 0.844348 0.692306
O O8 0.891230 0.000000 0.511252
O O9 0.212235 0.500000 0.945831
O O10 0.242029 0.670854 0.078089
O O11 0.191861 0.765212 0.899120
O O12 0.714189 0.500000 0.442720
O O13 0.540596 0.693370 0.369271
O O14 0.500000 0.709630 0.500000
O O15 0.416501 0.500000 0.370584
O O16 0.269112 0.712285 0.248963
O O17 0.140407 0.500000 0.119950
O O18 0.000000 0.715208 0.000000
O O19 0.739495 0.000000 0.128839
#
# Coordination Sequence:
#
# PCOD9145989 Si02
#       7
#     4   4   4   4   4   4   4
#     4  10  19  33  53  77 108 143 177 217 265 314
#     4  10  21  37  52  71 105 145 179 218 271 319
#     4  10  20  35  54  78 111 144 178 220 269 319
#     4  10  19  32  55  82 106 138 179 219 262 316
#     4   9  17  31  52  81 114 141 174 225 276 322
#     4   9  17  31  53  80 111 147 180 217 273 333
#     4  11  23  36  52  77 108 142 184 226 265 317
#
# _framework density 18.216761999999999
#
# number of rings (size 3 to 8) (size 9 to 14) (size 15 to 20)
#    0.000    2.143    2.857    0.857    0.000    4.857 
#    0.000    2.857    0.000    0.857    0.000    0.000 
#    0.000    0.000    0.000    0.000    0.000    0.000 
#
# Total GULP energy -156096.001519 kJ/mol
# GULP energy per Si atom -5574.857197 kJ/mol
# Density = 1.817530 g / cm^3
# Si number density = 18.216762 Si / 1000 Ang^3
#
#
#
# Elastic Constant Matrix: (Units=GPa)
#
#
# Indices 1 2 3 4 5 6 
#
# 1 44.9451 23.3360 35.2528 0.0000 9.1073 0.0000
# 2 23.3360 61.3834 32.9815 0.0000 1.5268 0.0000
# 3 35.2528 32.9815 100.3846 0.0000 6.5657 0.0000
# 4 0.0000 0.0000 0.0000 16.1430 0.0000 -11.2584
# 5 9.1073 1.5268 6.5657 0.0000 24.8037 0.0000
# 6 0.0000 0.0000 0.0000 -11.2584 0.0000 -12.6168
#
#
#
# Elastic Compliance Matrix: (Units=1/GPa)
#
#
# Indices 1 2 3 4 5 6 
#
# 1 0.035906 -0.008477 -0.009155 0.000000 -0.010239 0.000000
# 2 -0.008477 0.021791 -0.004374 0.000000 0.002929 0.000000
# 3 -0.009155 -0.004374 0.014630 0.000000 -0.000242 0.000000
# 4 0.000000 0.000000 0.000000 0.038184 0.000000 -0.034073
# 5 -0.010239 0.002929 -0.000242 0.000000 0.043960 0.000000
# 6 0.000000 0.000000 0.000000 -0.034073 0.000000 -0.048855
#
#
# Mechanical properties :
#
#
# Convention : Reuss Voigt Hill
#
# Bulk Modulus (GPa) = 35.31666 43.31707 39.31686
# Shear Modulus (GPa) = 31.43394 13.34216 22.38805
#
# Velocity S-wave (km/s) = 4.15848 2.70925 3.50949
# Velocity P-wave (km/s) = 6.51815 5.79802 6.16860
#
# Compressibility (1/GPa) = 0.02831525
#
# Stress axis : x y z
#
# Youngs Moduli (GPa) = 27.85075 45.89037 68.35485
#
# Poissons Ratio (x) = 0.38900 0.62576
# Poissons Ratio (y) = 0.23608 0.29900
# Poissons Ratio (z) = 0.25496 0.20073
#
# Static dielectric constant tensor:
#      x y z
#    x 1.617500 0.000000 -0.004570 
#    y 0.000000 1.611220 0.000000 
#    z -0.004570 0.000000 1.663910 
# 
# From -- ./inp_files/68686.got.cif
#   From: 2010.05.17/outbox.cif.g08.bks.cpg/sg10_35_cif.got.tgz:68686.got - 2010.06.03 11:33:40.
