data_PCOD9145087
_publ_section_title
;
Structure prediction by ZEFSAII (Michael W. Deem and Ramdas Pophale) SiO2 
 PCOD9145087
Probable space group: P 2/M
;
_chemical_formula_sum "Si O2"
_cell_formula_units_Z 24
_cell_length_a 23.601050
_cell_length_b 9.787509
_cell_length_c 7.967064
_cell_angle_alpha 90.000000
_cell_angle_beta 37.572171
_cell_angle_gamma 90.000000
_cell_volume 1122.175880
_symmetry_space_group_name_H-M "P 2/M"
_symmetry_group_IT_number 10
_symmetry_cell_setting 'monoclinic'
loop_
_space_group_symop_operation_xyz
x,y,z
-x,y,-z
-x,-y,-z
x,-y,z
loop_
_atom_site_type_symbol
_atom_site_label
_atom_site_fract_x
_atom_site_fract_y
_atom_site_fract_z
Si Si1 0.946953 0.851225 0.451230
Si Si2 0.148835 0.846910 0.861922
Si Si3 0.736910 0.662974 0.190566
Si Si4 0.603834 0.333998 0.197083
Si Si5 0.599978 0.335632 0.826908
Si Si6 0.893113 0.652485 0.320722
O O1 0.000000 0.831949 0.500000
O O2 0.893481 0.723602 0.500997
O O3 0.898794 0.000000 0.564982
O O4 0.037530 0.862734 0.119329
O O5 0.179717 0.764135 0.955293
O O6 0.164871 0.748874 0.666394
O O7 0.188749 0.000000 0.762365
O O8 0.761340 0.500000 0.127923
O O9 0.680663 0.702672 0.155777
O O10 0.669881 0.685732 0.509185
O O11 0.500000 0.292138 0.500000
O O12 0.603484 0.500000 0.198786
O O13 0.621756 0.286179 0.964380
O O14 0.592338 0.500000 0.861052
O O15 0.500000 0.283051 0.000000
O O16 0.854075 0.500000 0.416794
O O17 0.000000 0.640152 0.000000
#
# Coordination Sequence:
#
# PCOD9145087 Si02
#       6
#     4   4   4   4   4   4
#     4   9  18  34  55  76 100 135 175 209 249 309
#     4  10  20  35  53  72 101 138 170 205 257 315
#     4  10  19  31  50  75 106 135 167 218 264 304
#     4   9  15  26  47  75 102 131 168 212 261 308
#     4   9  15  26  47  75 102 130 169 213 259 310
#     4   9  17  31  53  77  99 125 163 209 252 298
#
# _framework density 21.387022999999999
#
# number of rings (size 3 to 8) (size 9 to 14) (size 15 to 20)
#    0.000    2.667    1.667    1.000    0.000    3.000 
#    3.000    0.000    0.000    1.000    0.000    0.000 
#    0.000    0.000    0.000    0.000    0.000    0.000 
#
# Total GULP energy -133744.219290 kJ/mol
# GULP energy per Si atom -5572.675804 kJ/mol
# Density = 2.133834 g / cm^3
# Si number density = 21.387023 Si / 1000 Ang^3
#
#
#
# Elastic Constant Matrix: (Units=GPa)
#
#
# Indices 1 2 3 4 5 6 
#
# 1 108.6762 62.1456 11.8736 0.0000 29.3833 0.0000
# 2 62.1456 115.6340 11.8425 0.0000 11.1572 0.0000
# 3 11.8736 11.8425 43.9224 0.0000 4.4057 0.0000
# 4 0.0000 0.0000 0.0000 5.9191 0.0000 2.1704
# 5 29.3833 11.1572 4.4057 0.0000 37.2853 0.0000
# 6 0.0000 0.0000 0.0000 2.1704 0.0000 7.7970
#
#
#
# Elastic Compliance Matrix: (Units=1/GPa)
#
#
# Indices 1 2 3 4 5 6 
#
# 1 0.016695 -0.007806 -0.001339 0.000000 -0.010662 0.000000
# 2 -0.007806 0.012762 -0.001583 0.000000 0.002520 0.000000
# 3 -0.001339 -0.001583 0.023684 0.000000 -0.001270 0.000000
# 4 0.000000 0.000000 0.000000 0.188148 0.000000 -0.052374
# 5 -0.010662 0.002520 -0.001270 0.000000 0.034619 0.000000
# 6 0.000000 0.000000 0.000000 -0.052374 0.000000 0.142833
#
#
# Mechanical properties :
#
#
# Convention : Reuss Voigt Hill
#
# Bulk Modulus (GPa) = 31.56232 48.88400 40.22316
# Shear Modulus (GPa) = 11.09239 22.35834 16.72536
#
# Velocity S-wave (km/s) = 2.27986 3.23680 2.79952
# Velocity P-wave (km/s) = 4.66048 6.07253 5.41275
#
# Compressibility (1/GPa) = 0.03168335
#
# Stress axis : x y z
#
# Youngs Moduli (GPa) = 59.89868 78.35486 42.22323
#
# Poissons Ratio (x) = 0.61168 0.05653
# Poissons Ratio (y) = 0.46760 0.06686
# Poissons Ratio (z) = 0.08019 0.12407
#
# Static dielectric constant tensor:
#      x y z
#    x 1.784790 0.000000 0.003070 
#    y 0.000000 1.773600 0.000000 
#    z 0.003070 0.000000 1.910260 
# 
# From -- ./inp_files/33767.got.cif
#   From: 2010.05.17/outbox.cif.g08.bks.cpg/sg10_17_cif.got.tgz:33767.got - 2010.06.03 11:33:40.
