data_PCOD9145894
_publ_section_title
;
Structure prediction by ZEFSAII (Michael W. Deem and Ramdas Pophale) SiO2 
 PCOD9145894
Probable space group: P 2/M
;
_chemical_formula_sum "Si O2"
_cell_formula_units_Z 28
_cell_length_a 6.529899
_cell_length_b 16.612180
_cell_length_c 16.323376
_cell_angle_alpha 90.000000
_cell_angle_beta 62.786682
_cell_angle_gamma 90.000000
_cell_volume 1574.694467
_symmetry_space_group_name_H-M "P 2/M"
_symmetry_group_IT_number 10
_symmetry_cell_setting 'monoclinic'
loop_
_space_group_symop_operation_xyz
x,y,z
-x,y,-z
-x,-y,-z
x,-y,z
loop_
_atom_site_type_symbol
_atom_site_label
_atom_site_fract_x
_atom_site_fract_y
_atom_site_fract_z
Si Si1 0.706137 0.500000 0.040529
Si Si2 0.723980 0.258565 0.408690
Si Si3 0.750355 0.906324 0.088776
Si Si4 0.868022 0.793378 0.204645
Si Si5 0.475585 0.407710 0.378392
Si Si6 0.000000 0.319807 0.500000
Si Si7 0.402855 0.351955 0.822364
Si Si8 0.398740 0.772033 0.100142
O O1 0.652354 0.418772 0.100287
O O2 0.500000 0.500000 0.000000
O O3 0.000000 0.500000 0.000000
O O4 0.500000 0.227466 0.500000
O O5 0.785633 0.213843 0.313385
O O6 0.651110 0.348613 0.392907
O O7 0.933608 0.266286 0.433530
O O8 0.763710 0.870004 0.177552
O O9 0.565027 0.848357 0.080993
O O10 0.690167 0.000000 0.096815
O O11 0.000000 0.896170 0.000000
O O12 0.794972 0.711085 0.170107
O O13 0.139240 0.799655 0.144467
O O14 0.503473 0.500000 0.396781
O O15 0.221823 0.374214 0.442562
O O16 0.517388 0.396086 0.274230
O O17 0.585457 0.290910 0.828478
O O18 0.500000 0.730864 0.000000
#
# Coordination Sequence:
#
# PCOD9145894 Si02
#       8
#     2   4   4   4   4   2   4   4
#     4  12  28  44  60  83 115 167 219 270 310 360
#     4   9  20  36  56  79 109 145 192 245 292 356
#     4  10  21  37  58  90 124 151 185 229 290 365
#     4  10  21  38  60  85 115 157 194 242 297 363
#     4  10  19  35  50  77 108 144 189 244 308 357
#     4  10  19  32  54  80 105 140 186 248 305 364
#     4  10  23  38  55  78 115 154 209 251 300 352
#     4  11  21  34  57  84 114 155 192 239 293 354
#
# _framework density 17.781227999999999
#
# number of rings (size 3 to 8) (size 9 to 14) (size 15 to 20)
#    0.000    1.857    2.143    1.500    4.000    5.143 
#    0.000    0.000    0.000    0.429    0.000    1.500 
#    0.000    0.000    0.000    0.000    0.000    0.000 
#
# Total GULP energy -155883.008616 kJ/mol
# GULP energy per Si atom -5567.250308 kJ/mol
# Density = 1.774076 g / cm^3
# Si number density = 17.781228 Si / 1000 Ang^3
#
#
#
# Elastic Constant Matrix: (Units=GPa)
#
#
# Indices 1 2 3 4 5 6 
#
# 1 58.4167 1.1374 19.5620 0.0000 15.7656 0.0000
# 2 1.1374 61.3040 17.3906 0.0000 7.6640 0.0000
# 3 19.5620 17.3906 94.1371 0.0000 20.2839 0.0000
# 4 0.0000 0.0000 0.0000 -10.9405 0.0000 -15.2272
# 5 15.7656 7.6640 20.2839 0.0000 27.1437 0.0000
# 6 0.0000 0.0000 0.0000 -15.2272 0.0000 -1.4987
#
#
#
# Elastic Compliance Matrix: (Units=1/GPa)
#
#
# Indices 1 2 3 4 5 6 
#
# 1 0.020770 0.001614 -0.002285 0.000000 -0.010812 0.000000
# 2 0.001614 0.017542 -0.002750 0.000000 -0.003836 0.000000
# 3 -0.002285 -0.002750 0.013293 0.000000 -0.007830 0.000000
# 4 0.000000 0.000000 0.000000 0.006955 0.000000 -0.070669
# 5 -0.010812 -0.003836 -0.007830 0.000000 0.050055 0.000000
# 6 0.000000 0.000000 0.000000 -0.070669 0.000000 0.050775
#
#
# Mechanical properties :
#
#
# Convention : Reuss Voigt Hill
#
# Bulk Modulus (GPa) = 22.33890 32.22643 27.28266
# Shear Modulus (GPa) = 27.60131 14.65876 21.13003
#
# Velocity S-wave (km/s) = 3.94416 2.87434 3.45096
# Velocity P-wave (km/s) = 5.77342 5.40176 5.59068
#
# Compressibility (1/GPa) = 0.04476497
#
# Stress axis : x y z
#
# Youngs Moduli (GPa) = 48.14630 57.00695 75.22956
#
# Poissons Ratio (x) = -0.09203 0.17187
# Poissons Ratio (y) = -0.07773 0.20685
# Poissons Ratio (z) = 0.10999 0.15674
#
# Static dielectric constant tensor:
#      x y z
#    x 1.680920 0.000000 0.017000 
#    y 0.000000 1.568090 0.000000 
#    z 0.017000 0.000000 1.643240 
# 
# From -- ./inp_files/59319.got.cif
#   From: 2010.05.17/outbox.cif.g08.bks.cpg/sg10_30_cif.got.tgz:59319.got - 2010.06.03 11:33:40.
