data_PCOD9145522
_publ_section_title
;
Structure prediction by ZEFSAII (Michael W. Deem and Ramdas Pophale) SiO2 
 PCOD9145522
Probable space group: P 2/M
;
_chemical_formula_sum "Si O2"
_cell_formula_units_Z 32
_cell_length_a 27.820738
_cell_length_b 7.385800
_cell_length_c 17.988926
_cell_angle_alpha 90.000000
_cell_angle_beta 22.876574
_cell_angle_gamma 90.000000
_cell_volume 1436.940513
_symmetry_space_group_name_H-M "P 2/M"
_symmetry_group_IT_number 10
_symmetry_cell_setting 'monoclinic'
loop_
_space_group_symop_operation_xyz
x,y,z
-x,y,-z
-x,-y,-z
x,-y,z
loop_
_atom_site_type_symbol
_atom_site_label
_atom_site_fract_x
_atom_site_fract_y
_atom_site_fract_z
Si Si1 0.222863 0.778475 0.851441
Si Si2 0.723923 0.218205 0.058414
Si Si3 0.702265 0.778361 0.505739
Si Si4 0.107228 0.288478 0.567392
Si Si5 0.032011 0.796160 0.838849
Si Si6 0.960942 0.712618 0.635014
Si Si7 0.555883 0.220632 0.567846
Si Si8 0.622287 0.781731 0.784033
O O1 0.223416 0.720035 0.936579
O O2 0.351003 0.726482 0.630480
O O3 0.216197 0.000000 0.860680
O O4 0.104670 0.714173 0.972246
O O5 0.584163 0.281893 0.244669
O O6 0.720817 0.000000 0.065741
O O7 0.817400 0.270301 0.859964
O O8 0.845733 0.716018 0.296974
O O9 0.618524 0.723113 0.555986
O O10 0.643883 0.721495 0.667956
O O11 0.707559 0.000000 0.498542
O O12 0.076070 0.500000 0.621562
O O13 0.071791 0.196331 0.695276
O O14 0.253778 0.270801 0.349079
O O15 0.035069 0.211615 0.599888
O O16 0.982345 0.000000 0.111447
O O17 0.993589 0.500000 0.586817
O O18 0.000000 0.789341 0.500000
O O19 0.552937 0.000000 0.572371
O O20 0.616551 0.000000 0.789837
O O21 0.500000 0.716410 0.000000
#
# Coordination Sequence:
#
# PCOD9145522 Si02
#       8
#     4   4   4   4   4   4   4   4
#     4   9  16  27  47  74 102 133 167 206 253 300
#     4  10  19  32  52  76 102 131 168 211 252 296
#     4   8  15  27  43  68 101 132 163 200 246 293
#     4  10  19  32  51  72  95 126 163 204 248 295
#     4   9  16  29  50  72  97 128 164 206 246 290
#     4  10  22  38  53  72 100 133 167 206 256 304
#     4   9  17  28  45  74 108 135 164 206 254 302
#     4   9  18  32  51  73  99 131 165 205 250 295
#
# _framework density 22.269538000000001
#
# number of rings (size 3 to 8) (size 9 to 14) (size 15 to 20)
#    0.000    2.750    1.250    1.500    0.000    4.000 
#    0.000    3.750    0.000    5.250    0.000    3.500 
#    0.000    0.000    0.000    0.000    0.000    0.000 
#
# Total GULP energy -178687.832981 kJ/mol
# GULP energy per Si atom -5583.994781 kJ/mol
# Density = 2.221885 g / cm^3
# Si number density = 22.269538 Si / 1000 Ang^3
#
#
#
# Elastic Constant Matrix: (Units=GPa)
#
#
# Indices 1 2 3 4 5 6 
#
# 1 99.1068 4.5103 53.8296 0.0000 0.4074 0.0000
# 2 4.5103 80.7514 -10.6292 0.0000 0.7324 0.0000
# 3 53.8296 -10.6292 149.6422 0.0000 -0.8360 0.0000
# 4 0.0000 0.0000 0.0000 17.2840 0.0000 -0.8673
# 5 0.4074 0.7324 -0.8360 0.0000 30.3974 0.0000
# 6 0.0000 0.0000 0.0000 -0.8673 0.0000 -9.5288
#
#
#
# Elastic Compliance Matrix: (Units=1/GPa)
#
#
# Indices 1 2 3 4 5 6 
#
# 1 0.012680 -0.001319 -0.004657 0.000000 -0.000266 0.000000
# 2 -0.001319 0.012640 0.001371 0.000000 -0.000249 0.000000
# 3 -0.004657 0.001371 0.008457 0.000000 0.000262 0.000000
# 4 0.000000 0.000000 0.000000 0.057594 0.000000 -0.005242
# 5 -0.000266 -0.000249 0.000262 0.000000 0.032914 0.000000
# 6 0.000000 0.000000 0.000000 -0.005242 0.000000 -0.104468
#
#
# Mechanical properties :
#
#
# Convention : Reuss Voigt Hill
#
# Bulk Modulus (GPa) = 40.70346 47.21352 43.95849
# Shear Modulus (GPa) = 134.35259 26.41650 80.38455
#
# Velocity S-wave (km/s) = 7.77568 3.44789 6.01453
# Velocity P-wave (km/s) = 9.94647 6.09077 8.24711
#
# Compressibility (1/GPa) = 0.02456794
#
# Stress axis : x y z
#
# Youngs Moduli (GPa) = 78.86149 79.11358 118.25196
#
# Poissons Ratio (x) = 0.10433 0.55065
# Poissons Ratio (y) = 0.10400 -0.16210
# Poissons Ratio (z) = 0.36723 -0.10845
#
# Static dielectric constant tensor:
#      x y z
#    x 1.797140 0.000000 -0.010560 
#    y 0.000000 1.850500 0.000000 
#    z -0.010560 0.000000 1.803940 
# 
# From -- ./inp_files/87187.got.cif
#   From: 2010.05.17/outbox.cif.g08.bks.cpg/sg10_44_cif.got.tgz:87187.got - 2010.06.03 11:33:40.
