data_PCOD9145183
_publ_section_title
;
Structure prediction by ZEFSAII (Michael W. Deem and Ramdas Pophale) SiO2 
 PCOD9145183
Probable space group: P 2/M
;
_chemical_formula_sum "Si O2"
_cell_formula_units_Z 24
_cell_length_a 9.207680
_cell_length_b 15.092736
_cell_length_c 9.595998
_cell_angle_alpha 90.000000
_cell_angle_beta 46.635787
_cell_angle_gamma 90.000000
_cell_volume 969.493617
_symmetry_space_group_name_H-M "P 2/M"
_symmetry_group_IT_number 10
_symmetry_cell_setting 'monoclinic'
loop_
_space_group_symop_operation_xyz
x,y,z
-x,y,-z
-x,-y,-z
x,-y,z
loop_
_atom_site_type_symbol
_atom_site_label
_atom_site_fract_x
_atom_site_fract_y
_atom_site_fract_z
Si Si1 0.949998 0.402049 0.187723
Si Si2 0.192992 0.000000 0.276425
Si Si3 0.633880 0.184314 0.202913
Si Si4 0.207646 0.401509 0.277507
Si Si5 0.203647 0.000000 0.947904
Si Si6 0.786924 0.235200 0.393490
Si Si7 0.771617 0.203033 0.797154
O O1 0.867305 0.500000 0.228874
O O2 0.146220 0.404283 0.154708
O O3 0.799723 0.340579 0.370031
O O4 0.000000 0.370682 0.000000
O O5 0.284194 0.896741 0.225220
O O6 0.000000 0.000000 0.500000
O O7 0.140036 0.000000 0.149508
O O8 0.658326 0.080944 0.176507
O O9 0.780828 0.207211 0.235188
O O10 0.415713 0.208115 0.400554
O O11 0.688986 0.214022 0.010073
O O12 0.305495 0.500000 0.243239
O O13 0.280684 0.298281 0.242998
O O14 0.000000 0.404182 0.500000
O O15 0.000000 0.000000 0.000000
O O16 0.986599 0.202877 0.340062
#
# Coordination Sequence:
#
# PCOD9145183 Si02
#       7
#     4   2   4   4   2   4   4
#     4   9  17  31  52  77 107 142 178 222 275 325
#     4  10  20  33  55  81 104 139 177 212 267 325
#     4  10  20  32  50  78 107 135 175 219 263 318
#     4   9  17  30  52  78 101 135 179 217 261 317
#     4  10  20  36  57  79 107 142 179 225 272 321
#     4  10  19  31  51  78 106 138 175 218 265 317
#     4  10  19  34  53  73 106 140 174 218 267 317
#
# _framework density 24.755191
#
# number of rings (size 3 to 8) (size 9 to 14) (size 15 to 20)
#    0.000    2.333    0.000    5.000    0.000    2.000 
#    0.000    2.500    0.000   20.000    0.000   10.500 
#    0.000    0.000    0.000    0.000    0.000    0.000 
#
# Total GULP energy -133818.249696 kJ/mol
# GULP energy per Si atom -5575.760404 kJ/mol
# Density = 2.469885 g / cm^3
# Si number density = 24.755191 Si / 1000 Ang^3
#
#
#
# Elastic Constant Matrix: (Units=GPa)
#
#
# Indices 1 2 3 4 5 6 
#
# 1 79.6124 43.7038 25.5951 0.0000 3.2224 0.0000
# 2 43.7038 230.9658 66.8259 0.0000 8.8096 0.0000
# 3 25.5951 66.8259 112.1660 0.0000 -0.4881 0.0000
# 4 0.0000 0.0000 0.0000 37.8801 0.0000 4.9738
# 5 3.2224 8.8096 -0.4881 0.0000 37.4211 0.0000
# 6 0.0000 0.0000 0.0000 4.9738 0.0000 14.6281
#
#
#
# Elastic Compliance Matrix: (Units=1/GPa)
#
#
# Indices 1 2 3 4 5 6 
#
# 1 0.014403 -0.002107 -0.002034 0.000000 -0.000771 0.000000
# 2 -0.002107 0.005601 -0.002861 0.000000 -0.001174 0.000000
# 3 -0.002034 -0.002861 0.011089 0.000000 0.000993 0.000000
# 4 0.000000 0.000000 0.000000 0.027633 0.000000 -0.009396
# 5 -0.000771 -0.001174 0.000993 0.000000 0.027079 0.000000
# 6 0.000000 0.000000 0.000000 -0.009396 0.000000 0.071556
#
#
# Mechanical properties :
#
#
# Convention : Reuss Voigt Hill
#
# Bulk Modulus (GPa) = 58.52551 77.22152 67.87352
# Shear Modulus (GPa) = 28.23870 37.09381 32.66625
#
# Velocity S-wave (km/s) = 3.38112 3.87515 3.63653
# Velocity P-wave (km/s) = 6.23984 7.16130 6.71639
#
# Compressibility (1/GPa) = 0.01708657
#
# Stress axis : x y z
#
# Youngs Moduli (GPa) = 69.43022 178.53848 90.18304
#
# Poissons Ratio (x) = 0.37624 0.18347
# Poissons Ratio (y) = 0.14631 0.25803
# Poissons Ratio (z) = 0.14125 0.51084
#
# Static dielectric constant tensor:
#      x y z
#    x 2.023000 0.000000 0.064730 
#    y 0.000000 1.630820 0.000000 
#    z 0.064730 0.000000 1.930360 
# 
# From -- ./inp_files/51561.got.cif
#   From: 2010.05.17/outbox.cif.g08.bks.cpg/sg10_26_cif.got.tgz:51561.got - 2010.06.03 11:33:40.
