data_PCOD9145933
_publ_section_title
;
Structure prediction by ZEFSAII (Michael W. Deem and Ramdas Pophale) SiO2 
 PCOD9145933
Probable space group: P 2/M
;
_chemical_formula_sum "Si O2"
_cell_formula_units_Z 28
_cell_length_a 9.190227
_cell_length_b 9.081404
_cell_length_c 29.382671
_cell_angle_alpha 90.000000
_cell_angle_beta 140.959868
_cell_angle_gamma 90.000000
_cell_volume 1544.605910
_symmetry_space_group_name_H-M "P 2/M"
_symmetry_group_IT_number 10
_symmetry_cell_setting 'monoclinic'
loop_
_space_group_symop_operation_xyz
x,y,z
-x,y,-z
-x,-y,-z
x,-y,z
loop_
_atom_site_type_symbol
_atom_site_label
_atom_site_fract_x
_atom_site_fract_y
_atom_site_fract_z
Si Si1 0.271876 0.175023 0.349186
Si Si2 0.086835 0.175907 0.203905
Si Si3 0.544755 0.823489 0.784396
Si Si4 0.591206 0.324029 0.072495
Si Si5 0.948402 0.322787 0.346303
Si Si6 0.269291 0.823344 0.069579
Si Si7 0.660741 0.669050 0.493589
O O1 0.206447 0.207417 0.281346
O O2 0.525398 0.232269 0.424753
O O3 0.089396 0.254610 0.338164
O O4 0.257408 0.000000 0.352970
O O5 0.259216 0.213705 0.204753
O O6 0.846205 0.259606 0.141295
O O7 0.042453 0.000000 0.191170
O O8 0.308304 0.739525 0.716745
O O9 0.635120 0.789128 0.856962
O O10 0.504113 0.000000 0.772180
O O11 0.595358 0.500000 0.077748
O O12 0.421622 0.256105 0.068801
O O13 0.500000 0.285549 0.000000
O O14 0.952844 0.500000 0.343939
O O15 0.091174 0.282787 0.426844
O O16 0.286579 0.000000 0.067291
O O17 0.000000 0.782883 0.000000
O O18 0.500000 0.669851 0.500000
O O19 0.672940 0.500000 0.480554
#
# Coordination Sequence:
#
# PCOD9145933 Si02
#       7
#     4   4   4   4   4   4   4
#     4  10  19  32  54  82 107 136 178 224 269 317
#     4  10  22  39  57  79 109 144 181 221 266 318
#     4  10  21  37  56  79 107 140 181 225 266 313
#     4  11  24  39  57  84 114 143 177 218 265 316
#     4  10  20  34  53  78 108 142 179 220 269 323
#     4  10  21  38  61  85 108 141 182 220 264 317
#     4   8  16  31  50  74 105 140 178 219 265 319
#
# _framework density 18.127603000000001
#
# number of rings (size 3 to 8) (size 9 to 14) (size 15 to 20)
#    0.000    2.143    0.000    3.857    0.000   11.429 
#    0.000    0.714    0.000    4.286    0.000    0.000 
#    0.000    0.000    0.000    0.000    0.000    0.000 
#
# Total GULP energy -156344.528810 kJ/mol
# GULP energy per Si atom -5583.733172 kJ/mol
# Density = 1.808634 g / cm^3
# Si number density = 18.127603 Si / 1000 Ang^3
#
#
#
# Elastic Constant Matrix: (Units=GPa)
#
#
# Indices 1 2 3 4 5 6 
#
# 1 137.4806 64.4269 102.7527 0.0000 1.1776 0.0000
# 2 64.4269 55.7552 84.7629 0.0000 -1.2598 0.0000
# 3 102.7527 84.7629 194.7690 0.0000 10.8686 0.0000
# 4 0.0000 0.0000 0.0000 32.2180 0.0000 -1.7420
# 5 1.1776 -1.2598 10.8686 0.0000 27.9301 0.0000
# 6 0.0000 0.0000 0.0000 -1.7420 0.0000 -1.4199
#
#
#
# Elastic Compliance Matrix: (Units=1/GPa)
#
#
# Indices 1 2 3 4 5 6 
#
# 1 0.015982 -0.017036 -0.000958 0.000000 -0.001069 0.000000
# 2 -0.017036 0.075127 -0.024468 0.000000 0.013628 0.000000
# 3 -0.000958 -0.024468 0.016710 0.000000 -0.007566 0.000000
# 4 0.000000 0.000000 0.000000 0.029108 0.000000 -0.035711
# 5 -0.001069 0.013628 -0.007566 0.000000 0.039408 0.000000
# 6 0.000000 0.000000 0.000000 -0.035711 0.000000 -0.660450
#
#
# Mechanical properties :
#
#
# Convention : Reuss Voigt Hill
#
# Bulk Modulus (GPa) = 43.67615 99.09886 71.38751
# Shear Modulus (GPa) = -12.76944 20.81647 4.02351
#
# Velocity S-wave (km/s) = -2.65697 3.39238 1.49143
# Velocity P-wave (km/s) = 3.83841 8.37439 6.51397
#
# Compressibility (1/GPa) = 0.02289579
#
# Stress axis : x y z
#
# Youngs Moduli (GPa) = 62.56902 13.31083 59.84294
#
# Poissons Ratio (x) = 0.22676 0.05734
# Poissons Ratio (y) = 1.06590 1.46424
# Poissons Ratio (z) = 0.05995 0.32569
#
# Static dielectric constant tensor:
#      x y z
#    x 1.591340 0.000000 -0.000720 
#    y 0.000000 1.605400 0.000000 
#    z -0.000720 0.000000 1.620160 
# 
# From -- ./inp_files/36989.got.cif
#   From: 2010.05.17/outbox.cif.g08.bks.cpg/sg10_19_cif.got.tgz:36989.got - 2010.06.03 11:33:40.
