data_PCOD9145808
_publ_section_title
;
Structure prediction by ZEFSAII (Michael W. Deem and Ramdas Pophale) SiO2 
 PCOD9145808
Probable space group: P 2/M
;
_chemical_formula_sum "Si O2"
_cell_formula_units_Z 28
_cell_length_a 20.491798
_cell_length_b 9.024687
_cell_length_c 15.427774
_cell_angle_alpha 90.000000
_cell_angle_beta 146.744033
_cell_angle_gamma 90.000000
_cell_volume 1564.578449
_symmetry_space_group_name_H-M "P 2/M"
_symmetry_group_IT_number 10
_symmetry_cell_setting 'monoclinic'
loop_
_space_group_symop_operation_xyz
x,y,z
-x,y,-z
-x,-y,-z
x,-y,z
loop_
_atom_site_type_symbol
_atom_site_label
_atom_site_fract_x
_atom_site_fract_y
_atom_site_fract_z
Si Si1 0.130204 0.329240 0.163397
Si Si2 0.974116 0.170739 0.615265
Si Si3 0.396141 0.679784 0.453607
Si Si4 0.439758 0.324868 0.024127
Si Si5 0.805479 0.171592 0.260838
Si Si6 0.826588 0.332836 0.583505
Si Si7 0.586332 0.824314 0.338232
O O1 0.124200 0.500000 0.124323
O O2 0.260445 0.270893 0.277376
O O3 0.142634 0.330890 0.281026
O O4 0.000000 0.259892 0.000000
O O5 0.880022 0.187465 0.432196
O O6 0.936882 0.280330 0.649279
O O7 0.102137 0.195706 0.714717
O O8 0.968339 0.000000 0.638764
O O9 0.500000 0.715579 0.500000
O O10 0.391604 0.500000 0.457563
O O11 0.424740 0.749156 0.579277
O O12 0.458116 0.500000 0.056134
O O13 0.494562 0.239673 0.166676
O O14 0.500000 0.279869 0.000000
O O15 0.302293 0.283194 0.863330
O O16 0.763866 0.000000 0.210621
O O17 0.789774 0.500000 0.519294
O O18 0.716681 0.222546 0.448218
O O19 0.576280 0.000000 0.334806
#
# Coordination Sequence:
#
# PCOD9145808 Si02
#       7
#     4   4   4   4   4   4   4
#     4   8  15  30  51  75 104 135 172 215 262 320
#     4   9  18  34  54  75 104 141 178 214 262 321
#     4   9  18  35  58  82 109 144 182 228 281 329
#     4  11  23  37  54  79 109 140 180 232 279 320
#     4   9  19  35  53  74 104 143 180 214 259 323
#     4  10  19  32  53  79 105 134 177 223 267 316
#     4  11  22  36  56  79 108 145 184 223 270 333
#
# _framework density 17.896194000000001
#
# number of rings (size 3 to 8) (size 9 to 14) (size 15 to 20)
#    0.000    2.429    0.000    4.714    0.000    4.857 
#    2.571    1.429    0.000   10.714    0.000    0.000 
#    0.000    0.000    0.000    0.000    0.000    0.000 
#
# Total GULP energy -156086.128398 kJ/mol
# GULP energy per Si atom -5574.504586 kJ/mol
# Density = 1.785546 g / cm^3
# Si number density = 17.896194 Si / 1000 Ang^3
#
#
#
# Elastic Constant Matrix: (Units=GPa)
#
#
# Indices 1 2 3 4 5 6 
#
# 1 93.4871 36.5902 27.5846 0.0000 11.6154 0.0000
# 2 36.5902 49.0052 25.7976 0.0000 2.8919 0.0000
# 3 27.5846 25.7976 72.2046 0.0000 18.7874 0.0000
# 4 0.0000 0.0000 0.0000 18.2714 0.0000 2.1711
# 5 11.6154 2.8919 18.7874 0.0000 15.4453 0.0000
# 6 0.0000 0.0000 0.0000 2.1711 0.0000 28.5301
#
#
#
# Elastic Compliance Matrix: (Units=1/GPa)
#
#
# Indices 1 2 3 4 5 6 
#
# 1 0.016620 -0.012264 0.001005 0.000000 -0.011425 0.000000
# 2 -0.012264 0.035088 -0.012497 0.000000 0.017854 0.000000
# 3 0.001005 -0.012497 0.025630 0.000000 -0.029592 0.000000
# 4 0.000000 0.000000 0.000000 0.055230 0.000000 -0.004203
# 5 -0.011425 0.017854 -0.029592 0.000000 0.105989 0.000000
# 6 0.000000 0.000000 0.000000 -0.004203 0.000000 0.035370
#
#
# Mechanical properties :
#
#
# Convention : Reuss Voigt Hill
#
# Bulk Modulus (GPa) = 33.52690 43.84908 38.68799
# Shear Modulus (GPa) = 15.08838 20.76434 17.92636
#
# Velocity S-wave (km/s) = 2.90678 3.40996 3.16838
# Velocity P-wave (km/s) = 5.48093 6.32921 5.92028
#
# Compressibility (1/GPa) = 0.02982680
#
# Stress axis : x y z
#
# Youngs Moduli (GPa) = 60.16947 28.49957 39.01661
#
# Poissons Ratio (x) = 0.34953 -0.03923
# Poissons Ratio (y) = 0.73794 0.48758
# Poissons Ratio (z) = -0.06049 0.35615
#
# Static dielectric constant tensor:
#      x y z
#    x 1.611940 0.000000 0.025300 
#    y 0.000000 1.606530 0.000000 
#    z 0.025300 0.000000 1.622590 
# 
# From -- ./inp_files/70287.got.cif
#   From: 2010.05.17/outbox.cif.g08.bks.cpg/sg10_36_cif.got.tgz:70287.got - 2010.06.03 11:33:40.
