data_PCOD9145047
_publ_section_title
;
Structure prediction by ZEFSAII (Michael W. Deem and Ramdas Pophale) SiO2 
 PCOD9145047
Probable space group: P 2/M
;
_chemical_formula_sum "Si O2"
_cell_formula_units_Z 32
_cell_length_a 30.687054
_cell_length_b 7.525085
_cell_length_c 21.185966
_cell_angle_alpha 90.000000
_cell_angle_beta 160.782166
_cell_angle_gamma 90.000000
_cell_volume 1610.358969
_symmetry_space_group_name_H-M "P 2/M"
_symmetry_group_IT_number 10
_symmetry_cell_setting 'monoclinic'
loop_
_space_group_symop_operation_xyz
x,y,z
-x,y,-z
-x,-y,-z
x,-y,z
loop_
_atom_site_type_symbol
_atom_site_label
_atom_site_fract_x
_atom_site_fract_y
_atom_site_fract_z
Si Si1 0.140095 0.282406 0.518577
Si Si2 0.572992 0.282106 0.286446
Si Si3 0.567502 0.289694 0.779477
Si Si4 0.849400 0.286382 0.613009
Si Si5 0.583318 0.716731 0.052423
Si Si6 0.587485 0.214394 0.559799
Si Si7 0.854446 0.209299 0.983934
Si Si8 0.150831 0.705892 0.876970
O O1 0.137269 0.500000 0.514682
O O2 0.164073 0.227890 0.478529
O O3 0.264734 0.227049 0.730743
O O4 0.993750 0.218248 0.337368
O O5 0.574554 0.500000 0.289382
O O6 0.506664 0.218930 0.260326
O O7 0.724361 0.223880 0.482226
O O8 0.487115 0.227459 0.108199
O O9 0.584637 0.500000 0.813555
O O10 0.478403 0.271212 0.595345
O O11 0.714219 0.214668 0.966094
O O12 0.844453 0.500000 0.605041
O O13 0.996496 0.236849 0.836012
O O14 0.581985 0.500000 0.050694
O O15 0.500000 0.772288 0.000000
O O16 0.500000 0.273632 0.500000
O O17 0.585216 0.000000 0.556079
O O18 0.737775 0.273685 0.778732
O O19 0.841600 0.290559 0.036299
O O20 0.834175 0.000000 0.965767
O O21 0.146827 0.500000 0.851925
#
# Coordination Sequence:
#
# PCOD9145047 Si02
#       8
#     4   4   4   4   4   4   4   4
#     4   8  13  22  40  67  94 123 159 196 232 274
#     4   9  17  29  45  70 103 134 162 195 236 286
#     4  10  20  32  48  72 102 131 160 196 241 290
#     4   9  16  29  48  70  99 128 157 195 240 284
#     4   9  13  21  41  69  97 128 165 198 232 276
#     4  10  20  35  52  71  94 122 162 205 241 285
#     4  10  19  31  50  73  94 117 156 205 245 283
#     4   9  17  29  45  69 100 128 156 194 241 286
#
# _framework density 19.871345000000002
#
# number of rings (size 3 to 8) (size 9 to 14) (size 15 to 20)
#    0.000    2.750    2.500    1.125    0.000    1.250 
#    0.000    1.875    0.000    7.500    0.000   10.500 
#    0.000    5.000    0.000    0.000    0.000    0.000 
#
# Total GULP energy -178473.983102 kJ/mol
# GULP energy per Si atom -5577.311972 kJ/mol
# Density = 1.982612 g / cm^3
# Si number density = 19.871345 Si / 1000 Ang^3
#
#
#
# Elastic Constant Matrix: (Units=GPa)
#
#
# Indices 1 2 3 4 5 6 
#
# 1 135.0680 1.2771 93.2881 0.0000 18.6461 0.0000
# 2 1.2771 49.4697 1.0215 0.0000 4.2268 0.0000
# 3 93.2881 1.0215 188.8872 0.0000 31.6753 0.0000
# 4 0.0000 0.0000 0.0000 43.1630 0.0000 -30.0752
# 5 18.6461 4.2268 31.6753 0.0000 28.7048 0.0000
# 6 0.0000 0.0000 0.0000 -30.0752 0.0000 16.3190
#
#
#
# Elastic Compliance Matrix: (Units=1/GPa)
#
#
# Indices 1 2 3 4 5 6 
#
# 1 0.011286 -0.000058 -0.005332 0.000000 -0.001438 0.000000
# 2 -0.000058 0.020508 0.000513 0.000000 -0.003548 0.000000
# 3 -0.005332 0.000513 0.009027 0.000000 -0.006573 0.000000
# 4 0.000000 0.000000 0.000000 -0.081536 0.000000 -0.150268
# 5 -0.001438 -0.003548 -0.006573 0.000000 0.043547 0.000000
# 6 0.000000 0.000000 0.000000 -0.150268 0.000000 -0.215660
#
#
# Mechanical properties :
#
#
# Convention : Reuss Voigt Hill
#
# Bulk Modulus (GPa) = 32.18975 62.73314 47.46144
# Shear Modulus (GPa) = -25.94479 36.15991 5.10756
#
# Velocity S-wave (km/s) = -3.61728 4.27042 1.60496
# Velocity P-wave (km/s) = 1.10093 7.48021 5.23171
#
# Compressibility (1/GPa) = 0.03106579
#
# Stress axis : x y z
#
# Youngs Moduli (GPa) = 88.60802 48.76035 110.77646
#
# Poissons Ratio (x) = 0.00285 0.59069
# Poissons Ratio (y) = 0.00517 -0.05682
# Poissons Ratio (z) = 0.47248 -0.02501
#
# Static dielectric constant tensor:
#      x y z
#    x 1.659330 0.000000 0.032710 
#    y 0.000000 1.753560 0.000000 
#    z 0.032710 0.000000 1.719750 
# 
# From -- ./inp_files/87217.got.cif
#   From: 2010.05.17/outbox.cif.g08.bks.cpg/sg10_44_cif.got.tgz:87217.got - 2010.06.03 11:33:40.
