data_PCOD9145915
_publ_section_title
;
Structure prediction by ZEFSAII (Michael W. Deem and Ramdas Pophale) SiO2 
 PCOD9145915
Probable space group: P 2/M
;
_chemical_formula_sum "Si O2"
_cell_formula_units_Z 32
_cell_length_a 11.912025
_cell_length_b 7.514310
_cell_length_c 29.817960
_cell_angle_alpha 90.000000
_cell_angle_beta 148.777659
_cell_angle_gamma 90.000000
_cell_volume 1383.517094
_symmetry_space_group_name_H-M "P 2/M"
_symmetry_group_IT_number 10
_symmetry_cell_setting 'monoclinic'
loop_
_space_group_symop_operation_xyz
x,y,z
-x,y,-z
-x,-y,-z
x,-y,z
loop_
_atom_site_type_symbol
_atom_site_label
_atom_site_fract_x
_atom_site_fract_y
_atom_site_fract_z
Si Si1 0.147998 0.209889 0.192073
Si Si2 0.274153 0.716218 0.398780
Si Si3 0.054500 0.718155 0.468689
Si Si4 0.461046 0.292025 0.373098
Si Si5 0.457740 0.714159 0.870802
Si Si6 0.057331 0.714013 0.969727
Si Si7 0.722851 0.788948 0.097015
Si Si8 0.146592 0.717484 0.689857
O O1 0.360699 0.278860 0.289556
O O2 0.111177 0.243168 0.127088
O O3 0.937204 0.284752 0.146572
O O4 0.153766 0.000000 0.200939
O O5 0.500000 0.763297 0.500000
O O6 0.258066 0.500000 0.394358
O O7 0.298466 0.778654 0.355690
O O8 0.064160 0.777100 0.353908
O O9 0.055410 0.500000 0.469149
O O10 0.297415 0.780753 0.540446
O O11 0.000000 0.776196 0.500000
O O12 0.889207 0.774162 0.373438
O O13 0.483728 0.500000 0.391453
O O14 0.466609 0.500000 0.872996
O O15 0.299934 0.762228 0.857746
O O16 0.356873 0.775073 0.789289
O O17 0.702392 0.780019 0.961743
O O18 0.066871 0.500000 0.975262
O O19 0.000000 0.778405 0.000000
O O20 0.723993 0.000000 0.088527
O O21 0.500000 0.714646 0.000000
O O22 0.149201 0.500000 0.690604
#
# Coordination Sequence:
#
# PCOD9145915 Si02
#       8
#     4   4   4   4   4   4   4   4
#     4  11  23  38  57  80 109 146 184 225 274 330
#     4   9  14  24  45  73 104 133 165 209 258 309
#     4   9  17  29  48  76 108 141 174 213 265 320
#     4  10  19  32  54  81 107 139 178 222 269 318
#     4  10  20  33  55  84 110 139 175 223 274 323
#     4  10  22  39  57  80 111 143 179 227 276 319
#     4  10  20  36  56  78 108 144 179 221 273 330
#     4   9  16  27  44  72 105 132 166 210 257 310
#
# _framework density 23.129456999999999
#
# number of rings (size 3 to 8) (size 9 to 14) (size 15 to 20)
#    0.000    2.250    2.500    1.125    0.000    3.500 
#    0.000    3.750    0.000    1.500    0.000    0.000 
#    0.000    0.000    0.000    0.000    0.000    0.000 
#
# Total GULP energy -178779.535622 kJ/mol
# GULP energy per Si atom -5586.860488 kJ/mol
# Density = 2.307681 g / cm^3
# Si number density = 23.129457 Si / 1000 Ang^3
#
#
#
# Elastic Constant Matrix: (Units=GPa)
#
#
# Indices 1 2 3 4 5 6 
#
# 1 71.2568 -8.8565 -2.5705 0.0000 -35.0956 0.0000
# 2 -8.8565 56.7579 -13.9932 0.0000 8.3941 0.0000
# 3 -2.5705 -13.9932 80.1532 0.0000 -37.4611 0.0000
# 4 0.0000 0.0000 0.0000 5.7580 0.0000 -15.5006
# 5 -35.0956 8.3941 -37.4611 0.0000 35.6505 0.0000
# 6 0.0000 0.0000 0.0000 -15.5006 0.0000 15.3463
#
#
#
# Elastic Compliance Matrix: (Units=1/GPa)
#
#
# Indices 1 2 3 4 5 6 
#
# 1 -0.494329 -0.051108 -0.484560 0.000000 -0.983773 0.000000
# 2 -0.051108 0.013192 -0.047755 0.000000 -0.103598 0.000000
# 3 -0.484560 -0.047755 -0.450171 0.000000 -0.938810 0.000000
# 4 0.000000 0.000000 0.000000 -0.101026 0.000000 -0.102042
# 5 -0.983773 -0.103598 -0.938810 0.000000 -1.902510 0.000000
# 6 0.000000 0.000000 0.000000 -0.102042 0.000000 -0.037906
#
#
# Mechanical properties :
#
#
# Convention : Reuss Voigt Hill
#
# Bulk Modulus (GPa) = -0.47661 17.48083 8.50211
# Shear Modulus (GPa) = -1.99578 26.92350 12.46386
#
# Velocity S-wave (km/s) = -0.92992 3.41550 2.32388
# Velocity P-wave (km/s) = 1.16598 4.80920 3.29916
#
# Compressibility (1/GPa) = -2.09815401
#
# Stress axis : x y z
#
# Youngs Moduli (GPa) = -2.02294 75.80547 -2.22138
#
# Poissons Ratio (x) = 3.87424 -1.07639
# Poissons Ratio (y) = -0.10339 -0.10608
# Poissons Ratio (z) = -0.98024 3.62006
#
# Static dielectric constant tensor:
#      x y z
#    x 1.865140 0.000000 -0.003990 
#    y 0.000000 1.879190 0.000000 
#    z -0.003990 0.000000 1.863520 
# 
# From -- ./inp_files/95014.got.cif
#   From: 2010.05.17/outbox.cif.g08.bks.cpg/sg10_48_cif.got.tgz:95014.got - 2010.06.03 11:33:40.
