data_PCOD9145334
_publ_section_title
;
Structure prediction by ZEFSAII (Michael W. Deem and Ramdas Pophale) SiO2 
 PCOD9145334
Probable space group: P 2/M
;
_chemical_formula_sum "Si O2"
_cell_formula_units_Z 26
_cell_length_a 10.555014
_cell_length_b 12.143637
_cell_length_c 11.366231
_cell_angle_alpha 90.000000
_cell_angle_beta 68.687923
_cell_angle_gamma 90.000000
_cell_volume 1357.251634
_symmetry_space_group_name_H-M "P 2/M"
_symmetry_group_IT_number 10
_symmetry_cell_setting 'monoclinic'
loop_
_space_group_symop_operation_xyz
x,y,z
-x,y,-z
-x,-y,-z
x,-y,z
loop_
_atom_site_type_symbol
_atom_site_label
_atom_site_fract_x
_atom_site_fract_y
_atom_site_fract_z
Si Si1 0.631832 0.500000 0.799904
Si Si2 0.595624 0.299903 0.648200
Si Si3 0.774613 0.869719 0.701588
Si Si4 0.716025 0.289763 0.177718
Si Si5 0.793012 0.370213 0.385769
Si Si6 0.693917 0.500000 0.039003
Si Si7 0.000000 0.276659 0.500000
Si Si8 0.351002 0.130751 0.006485
O O1 0.658444 0.391417 0.715197
O O2 0.470144 0.500000 0.883962
O O3 0.712600 0.500000 0.893629
O O4 0.646066 0.181085 0.674870
O O5 0.435182 0.308309 0.718124
O O6 0.658725 0.329962 0.501559
O O7 0.747274 0.850746 0.849093
O O8 0.899969 0.801969 0.607750
O O9 0.787556 0.000000 0.678244
O O10 0.809001 0.298229 0.261810
O O11 0.749696 0.392050 0.082231
O O12 0.702002 0.187424 0.094141
O O13 0.780947 0.500000 0.361071
O O14 0.913461 0.348166 0.437396
O O15 0.365445 0.000000 0.982885
O O16 0.500000 0.174134 0.000000
#
# Coordination Sequence:
#
# PCOD9145334 Si02
#       8
#     2   4   4   4   4   2   2   4
#     4   9  16  27  45  77 116 149 190 216 275 365
#     4  10  19  31  55  87 120 157 186 237 299 363
#     4  10  20  38  63  89 117 155 202 247 290 346
#     4  11  20  33  54  89 128 150 190 240 305 362
#     4  11  22  39  58  83 115 162 207 253 300 351
#     4   9  18  25  45  77 118 157 176 229 289 348
#     4  10  24  42  64  82 108 163 217 256 290 344
#     4  10  20  36  61  90 125 161 191 234 297 365
#
# _framework density 19.156359999999999
#
# number of rings (size 3 to 8) (size 9 to 14) (size 15 to 20)
#    0.000    1.846    3.077    1.846    2.154    0.615 
#    0.000    4.615    0.000    7.385    0.000    0.000 
#    0.000    0.000    0.000    0.000    0.000    0.000 
#
# Total GULP energy -145073.595516 kJ/mol
# GULP energy per Si atom -5579.753674 kJ/mol
# Density = 1.911276 g / cm^3
# Si number density = 19.156360 Si / 1000 Ang^3
#
#
#
# Elastic Constant Matrix: (Units=GPa)
#
#
# Indices 1 2 3 4 5 6 
#
# 1 45.9136 10.1758 23.1977 0.0000 19.4972 0.0000
# 2 10.1758 67.1869 39.8067 0.0000 13.1749 0.0000
# 3 23.1977 39.8067 108.1001 0.0000 33.3737 0.0000
# 4 0.0000 0.0000 0.0000 21.3899 0.0000 0.6614
# 5 19.4972 13.1749 33.3737 0.0000 29.2110 0.0000
# 6 0.0000 0.0000 0.0000 0.6614 0.0000 8.1890
#
#
#
# Elastic Compliance Matrix: (Units=1/GPa)
#
#
# Indices 1 2 3 4 5 6 
#
# 1 0.030426 -0.000612 -0.000184 0.000000 -0.019821 0.000000
# 2 -0.000612 0.019065 -0.006737 0.000000 -0.000494 0.000000
# 3 -0.000184 -0.006737 0.016677 0.000000 -0.015893 0.000000
# 4 0.000000 0.000000 0.000000 0.046868 0.000000 -0.003785
# 5 -0.019821 -0.000494 -0.015893 0.000000 0.065844 0.000000
# 6 0.000000 0.000000 0.000000 -0.003785 0.000000 0.122421
#
#
# Mechanical properties :
#
#
# Convention : Reuss Voigt Hill
#
# Bulk Modulus (GPa) = 19.56875 40.84014 30.20445
# Shear Modulus (GPa) = 14.99697 21.62601 18.31149
#
# Velocity S-wave (km/s) = 2.80102 3.36359 3.09511
# Velocity P-wave (km/s) = 4.54955 6.03743 5.34551
#
# Compressibility (1/GPa) = 0.05110188
#
# Stress axis : x y z
#
# Youngs Moduli (GPa) = 32.86659 52.45316 59.96116
#
# Poissons Ratio (x) = 0.03210 0.01106
# Poissons Ratio (y) = 0.02012 0.40394
# Poissons Ratio (z) = 0.00606 0.35336
#
# Static dielectric constant tensor:
#      x y z
#    x 1.689110 0.000000 -0.004170 
#    y 0.000000 1.646190 0.000000 
#    z -0.004170 0.000000 1.680000 
# 
# From -- ./inp_files/45986.got.cif
#   From: 2010.05.17/outbox.cif.g08.bks.cpg/sg10_23_cif.got.tgz:45986.got - 2010.06.03 11:33:40.
