data_PCOD9145585
_publ_section_title
;
Structure prediction by ZEFSAII (Michael W. Deem and Ramdas Pophale) SiO2 
 PCOD9145585
Probable space group: P 2/M
;
_chemical_formula_sum "Si O2"
_cell_formula_units_Z 32
_cell_length_a 6.911634
_cell_length_b 13.432454
_cell_length_c 21.084954
_cell_angle_alpha 90.000000
_cell_angle_beta 130.965246
_cell_angle_gamma 90.000000
_cell_volume 1478.146474
_symmetry_space_group_name_H-M "P 2/M"
_symmetry_group_IT_number 10
_symmetry_cell_setting 'monoclinic'
loop_
_space_group_symop_operation_xyz
x,y,z
-x,y,-z
-x,-y,-z
x,-y,z
loop_
_atom_site_type_symbol
_atom_site_label
_atom_site_fract_x
_atom_site_fract_y
_atom_site_fract_z
Si Si1 0.687623 0.378407 0.093811
Si Si2 0.637536 0.185969 0.681469
Si Si3 0.198136 0.383781 0.223093
Si Si4 0.195681 0.325934 0.097840
Si Si5 0.305759 0.616219 0.776907
Si Si6 0.088335 0.814031 0.681471
Si Si7 0.645181 0.110994 0.822592
Si Si8 0.267179 0.884509 0.499999
O O1 0.670839 0.500000 0.085420
O O2 0.903716 0.369430 0.201857
O O3 0.979817 0.354639 0.116219
O O4 0.500000 0.332897 0.000000
O O5 0.650484 0.300531 0.704975
O O6 0.692346 0.126249 0.757783
O O7 0.381512 0.161507 0.588346
O O8 0.868422 0.162902 0.684213
O O9 0.238209 0.500000 0.245634
O O10 0.392530 0.376526 0.196264
O O11 0.485061 0.354638 0.116219
O O12 0.229128 0.205640 0.114564
O O13 0.000000 0.355727 0.000000
O O14 0.255667 0.500000 0.754366
O O15 0.169409 0.699469 0.704975
O O16 0.338780 0.873751 0.757785
O O17 0.971875 0.838495 0.588349
O O18 0.718648 0.000000 0.859324
O O19 0.500000 0.876735 0.500000
O O20 0.216195 0.000000 0.499999
#
# Coordination Sequence:
#
# PCOD9145585 Si02
#       8
#     4   4   4   4   4   4   4   4
#     4   9  16  26  44  69  95 130 172 209 249 298
#     4  10  20  36  56  81 113 144 179 226 274 328
#     4  10  19  32  51  76 108 143 177 217 266 321
#     4  10  21  35  53  79 108 141 184 230 273 322
#     4  10  19  32  51  76 108 143 177 217 266 321
#     4  10  20  36  56  81 113 144 179 226 274 328
#     4  10  22  37  57  83 106 141 186 225 282 335
#     4   9  18  33  56  82 106 138 183 231 278 322
#
# _framework density 21.648734999999999
#
# number of rings (size 3 to 8) (size 9 to 14) (size 15 to 20)
#    0.000    2.250    1.250    1.875    0.000    4.250 
#    0.000    1.875    0.000    2.250    0.000    8.750 
#    0.000    0.000    0.000    0.000    0.000    0.000 
#
# Total GULP energy -178193.079319 kJ/mol
# GULP energy per Si atom -5568.533729 kJ/mol
# Density = 2.159946 g / cm^3
# Si number density = 21.648735 Si / 1000 Ang^3
#
#
#
# Elastic Constant Matrix: (Units=GPa)
#
#
# Indices 1 2 3 4 5 6 
#
# 1 190.8713 22.7300 38.7246 0.0000 -4.5845 0.0000
# 2 22.7300 151.0356 56.5820 0.0000 1.8989 0.0000
# 3 38.7246 56.5820 114.5383 0.0000 0.3078 0.0000
# 4 0.0000 0.0000 0.0000 19.5313 0.0000 0.0874
# 5 -4.5845 1.8989 0.3078 0.0000 35.4447 0.0000
# 6 0.0000 0.0000 0.0000 0.0874 0.0000 17.9730
#
#
#
# Elastic Compliance Matrix: (Units=1/GPa)
#
#
# Indices 1 2 3 4 5 6 
#
# 1 0.005648 -0.000176 -0.001825 0.000000 0.000756 0.000000
# 2 -0.000176 0.008136 -0.003958 0.000000 -0.000424 0.000000
# 3 -0.001825 -0.003958 0.011303 0.000000 -0.000122 0.000000
# 4 0.000000 0.000000 0.000000 0.051201 0.000000 -0.000249
# 5 0.000756 -0.000424 -0.000122 0.000000 0.028335 0.000000
# 6 0.000000 0.000000 0.000000 -0.000249 0.000000 0.055640
#
#
# Mechanical properties :
#
#
# Convention : Reuss Voigt Hill
#
# Bulk Modulus (GPa) = 75.93441 76.94649 76.44045
# Shear Modulus (GPa) = 28.31713 37.15036 32.73374
#
# Velocity S-wave (km/s) = 3.62059 4.14702 3.89271
# Velocity P-wave (km/s) = 7.25466 7.65184 7.45590
#
# Compressibility (1/GPa) = 0.01316926
#
# Stress axis : x y z
#
# Youngs Moduli (GPa) = 177.03926 122.91509 88.46851
#
# Poissons Ratio (x) = 0.02163 0.16144
# Poissons Ratio (y) = 0.03115 0.35020
# Poissons Ratio (z) = 0.32307 0.48655
#
# Static dielectric constant tensor:
#      x y z
#    x 2.286430 0.000000 -0.031780 
#    y 0.000000 1.686310 0.000000 
#    z -0.031780 0.000000 1.719570 
# 
# From -- ./inp_files/82837.got.cif
#   From: 2010.05.17/outbox.cif.g08.bks.cpg/sg10_42_cif.got.tgz:82837.got - 2010.06.03 11:33:40.
