data_PCOD9145958
_publ_section_title
;
Structure prediction by ZEFSAII (Michael W. Deem and Ramdas Pophale) SiO2 
 PCOD9145958
Probable space group: P 2/M
;
_chemical_formula_sum "Si O2"
_cell_formula_units_Z 30
_cell_length_a 9.864097
_cell_length_b 13.572463
_cell_length_c 12.104311
_cell_angle_alpha 90.000000
_cell_angle_beta 84.798919
_cell_angle_gamma 90.000000
_cell_volume 1613.854053
_symmetry_space_group_name_H-M "P 2/M"
_symmetry_group_IT_number 10
_symmetry_cell_setting 'monoclinic'
loop_
_space_group_symop_operation_xyz
x,y,z
-x,y,-z
-x,-y,-z
x,-y,z
loop_
_atom_site_type_symbol
_atom_site_label
_atom_site_fract_x
_atom_site_fract_y
_atom_site_fract_z
Si Si1 0.834324 0.611907 0.877289
Si Si2 0.336907 0.610055 0.529601
Si Si3 0.390592 0.610682 0.924556
Si Si4 0.610319 0.750980 0.281346
Si Si5 0.942164 0.883368 0.627922
Si Si6 0.708659 0.724204 0.681631
Si Si7 0.000000 0.759705 0.000000
Si Si8 0.843099 0.116124 0.187639
O O1 0.876405 0.500000 0.844123
O O2 0.743993 0.662703 0.789123
O O3 0.949383 0.687976 0.905722
O O4 0.745385 0.604387 0.994973
O O5 0.500000 0.603368 0.500000
O O6 0.289824 0.500000 0.565288
O O7 0.321335 0.696254 0.619807
O O8 0.274505 0.647628 0.420264
O O9 0.438728 0.500000 0.892249
O O10 0.375188 0.673505 0.818328
O O11 0.500000 0.655922 0.000000
O O12 0.447865 0.762109 0.310072
O O13 0.696729 0.845280 0.239767
O O14 0.813331 0.813745 0.660072
O O15 0.000000 0.863213 0.500000
O O16 0.051647 0.865785 0.718170
O O17 0.907245 0.000000 0.633728
O O18 0.109175 0.828095 0.927849
O O19 0.841293 0.000000 0.166728
#
# Coordination Sequence:
#
# PCOD9145958 Si02
#       8
#     4   4   4   4   4   4   2   4
#     4  11  22  36  59  89 121 158 198 242 291 354
#     4   9  19  34  55  87 123 159 192 229 290 362
#     4  10  19  32  54  83 116 155 196 232 282 349
#     4  11  21  36  60  89 122 156 197 247 299 345
#     4  10  22  42  65  84 110 155 205 248 299 359
#     4  11  21  37  63  90 122 154 196 250 299 347
#     4  12  22  42  62  82 120 162 202 244 294 366
#     4  11  24  41  62  86 116 158 203 251 304 356
#
# _framework density 18.589041000000002
#
# number of rings (size 3 to 8) (size 9 to 14) (size 15 to 20)
#    0.000    1.467    4.000    2.000    0.000    1.600 
#    0.000    0.000    0.000    7.600    0.000    0.000 
#    0.000    0.000    0.000    0.000    0.000    0.000 
#
# Total GULP energy -167300.529992 kJ/mol
# GULP energy per Si atom -5576.684333 kJ/mol
# Density = 1.854673 g / cm^3
# Si number density = 18.589041 Si / 1000 Ang^3
#
#
#
# Elastic Constant Matrix: (Units=GPa)
#
#
# Indices 1 2 3 4 5 6 
#
# 1 62.9635 53.8546 19.2757 0.0000 0.8944 0.0000
# 2 53.8546 96.0993 23.3702 0.0000 -9.1811 0.0000
# 3 19.2757 23.3702 68.8051 0.0000 2.0194 0.0000
# 4 0.0000 0.0000 0.0000 24.6978 0.0000 -10.2234
# 5 0.8944 -9.1811 2.0194 0.0000 26.5365 0.0000
# 6 0.0000 0.0000 0.0000 -10.2234 0.0000 32.4773
#
#
#
# Elastic Compliance Matrix: (Units=1/GPa)
#
#
# Indices 1 2 3 4 5 6 
#
# 1 0.032329 -0.018150 -0.002682 0.000000 -0.007165 0.000000
# 2 -0.018150 0.022026 -0.002644 0.000000 0.008433 0.000000
# 3 -0.002682 -0.002644 0.016244 0.000000 -0.002061 0.000000
# 4 0.000000 0.000000 0.000000 0.046556 0.000000 0.014655
# 5 -0.007165 0.008433 -0.002061 0.000000 0.041000 0.000000
# 6 0.000000 0.000000 0.000000 0.014655 0.000000 0.035404
#
#
# Mechanical properties :
#
#
# Convention : Reuss Voigt Hill
#
# Bulk Modulus (GPa) = 42.28867 46.76321 44.52594
# Shear Modulus (GPa) = 20.12945 25.50016 22.81480
#
# Velocity S-wave (km/s) = 3.29426 3.70778 3.50712
# Velocity P-wave (km/s) = 6.10477 6.59857 6.35647
#
# Compressibility (1/GPa) = 0.02364700
#
# Stress axis : x y z
#
# Youngs Moduli (GPa) = 30.93191 45.40118 61.56213
#
# Poissons Ratio (x) = 0.82402 0.16511
# Poissons Ratio (y) = 0.56141 0.16278
# Poissons Ratio (z) = 0.08296 0.12005
#
# Static dielectric constant tensor:
#      x y z
#    x 1.671360 0.000000 0.013310 
#    y 0.000000 1.638120 0.000000 
#    z 0.013310 0.000000 1.669400 
# 
# From -- ./inp_files/42720.got.cif
#   From: 2010.05.17/outbox.cif.g08.bks.cpg/sg10_22_cif.got.tgz:42720.got - 2010.06.03 11:33:40.
