data_PCOD9145603
_publ_section_title
;
Structure prediction by ZEFSAII (Michael W. Deem and Ramdas Pophale) SiO2 
 PCOD9145603
Probable space group: P 2/M
;
_chemical_formula_sum "Si O2"
_cell_formula_units_Z 32
_cell_length_a 8.125060
_cell_length_b 14.163045
_cell_length_c 12.582601
_cell_angle_alpha 90.000000
_cell_angle_beta 90.168412
_cell_angle_gamma 90.000000
_cell_volume 1447.943984
_symmetry_space_group_name_H-M "P 2/M"
_symmetry_group_IT_number 10
_symmetry_cell_setting 'monoclinic'
loop_
_space_group_symop_operation_xyz
x,y,z
-x,y,-z
-x,-y,-z
x,-y,z
loop_
_atom_site_type_symbol
_atom_site_label
_atom_site_fract_x
_atom_site_fract_y
_atom_site_fract_z
Si Si1 0.433256 0.104087 0.181952
Si Si2 0.304173 0.605364 0.831953
Si Si3 0.267810 0.392257 0.438249
Si Si4 0.828813 0.307941 0.979457
Si Si5 0.527476 0.255374 0.333671
Si Si6 0.241971 0.105935 0.958201
Si Si7 0.051133 0.665386 0.244280
Si Si8 0.129625 0.764860 0.584596
O O1 0.415247 0.179421 0.273949
O O2 0.320473 0.109939 0.076764
O O3 0.412447 0.000000 0.226911
O O4 0.615319 0.112114 0.129769
O O5 0.366912 0.500000 0.818393
O O6 0.397274 0.678313 0.757649
O O7 0.112442 0.611624 0.795583
O O8 0.309474 0.638701 0.954658
O O9 0.309164 0.500000 0.465045
O O10 0.418664 0.324924 0.404661
O O11 0.174718 0.338479 0.533915
O O12 0.151400 0.389721 0.334254
O O13 0.846773 0.206987 0.041127
O O14 0.828300 0.306861 0.852572
O O15 0.000000 0.360976 0.000000
O O16 0.683850 0.202589 0.389476
O O17 0.167061 0.000000 0.945714
O O18 0.972177 0.754280 0.306961
O O19 0.000000 0.808727 0.500000
#
# Coordination Sequence:
#
# PCOD9145603 Si02
#       8
#     4   4   4   4   4   4   4   4
#     4   9  18  33  57  82 106 142 178 213 264 328
#     4  10  20  33  49  74 111 153 185 210 256 325
#     4  11  22  35  54  82 108 137 185 238 276 309
#     4  10  19  32  51  77 111 147 184 219 255 317
#     4  11  20  35  58  82 109 138 176 228 277 320
#     4   9  17  32  53  80 113 143 176 217 263 313
#     4   9  20  35  53  72 106 151 185 218 266 319
#     4   9  21  38  55  76 103 141 182 226 275 319
#
# _framework density 22.100304000000001
#
# number of rings (size 3 to 8) (size 9 to 14) (size 15 to 20)
#    0.000    2.250    1.250    2.625    0.000    8.250 
#    0.000    0.000    0.000    4.125    0.000    1.750 
#    0.000    0.000    0.000    0.000    0.000    0.000 
#
# Total GULP energy -178277.715257 kJ/mol
# GULP energy per Si atom -5571.178602 kJ/mol
# Density = 2.205000 g / cm^3
# Si number density = 22.100304 Si / 1000 Ang^3
#
#
#
# Elastic Constant Matrix: (Units=GPa)
#
#
# Indices 1 2 3 4 5 6 
#
# 1 59.2809 -7.4531 8.1038 0.0000 2.6850 0.0000
# 2 -7.4531 63.8082 10.1017 0.0000 -1.0583 0.0000
# 3 8.1038 10.1017 94.8911 0.0000 -5.9583 0.0000
# 4 0.0000 0.0000 0.0000 11.3941 0.0000 5.9500
# 5 2.6850 -1.0583 -5.9583 0.0000 23.7522 0.0000
# 6 0.0000 0.0000 0.0000 5.9500 0.0000 33.7629
#
#
#
# Elastic Compliance Matrix: (Units=1/GPa)
#
#
# Indices 1 2 3 4 5 6 
#
# 1 0.017524 0.002307 -0.001890 0.000000 -0.002352 0.000000
# 2 0.002307 0.016246 -0.001928 0.000000 -0.000021 0.000000
# 3 -0.001890 -0.001928 0.011088 0.000000 0.002909 0.000000
# 4 0.000000 0.000000 0.000000 0.096660 0.000000 -0.017034
# 5 -0.002352 -0.000021 0.002909 0.000000 0.043096 0.000000
# 6 0.000000 0.000000 0.000000 -0.017034 0.000000 0.032620
#
#
# Mechanical properties :
#
#
# Convention : Reuss Voigt Hill
#
# Bulk Modulus (GPa) = 23.90258 26.60945 25.25602
# Shear Modulus (GPa) = 21.34920 27.59701 24.47311
#
# Velocity S-wave (km/s) = 3.11145 3.53755 3.33132
# Velocity P-wave (km/s) = 4.87310 5.36210 5.12344
#
# Compressibility (1/GPa) = 0.04183649
#
# Stress axis : x y z
#
# Youngs Moduli (GPa) = 57.06535 61.55245 90.19012
#
# Poissons Ratio (x) = -0.14200 0.17045
# Poissons Ratio (y) = -0.13165 0.17387
# Poissons Ratio (z) = 0.10784 0.11866
#
# Static dielectric constant tensor:
#      x y z
#    x 1.879120 0.000000 0.046590 
#    y 0.000000 1.821600 0.000000 
#    z 0.046590 0.000000 1.869390 
# 
# From -- ./inp_files/42988.got.cif
#   From: 2010.05.17/outbox.cif.g08.bks.cpg/sg10_22_cif.got.tgz:42988.got - 2010.06.03 11:33:40.
