data_PCOD9145573
_publ_section_title
;
Structure prediction by ZEFSAII (Michael W. Deem and Ramdas Pophale) SiO2 
 PCOD9145573
Probable space group: P 2/M
;
_chemical_formula_sum "Si O2"
_cell_formula_units_Z 28
_cell_length_a 13.938404
_cell_length_b 9.908829
_cell_length_c 18.940845
_cell_angle_alpha 90.000000
_cell_angle_beta 146.214818
_cell_angle_gamma 90.000000
_cell_volume 1454.696999
_symmetry_space_group_name_H-M "P 2/M"
_symmetry_group_IT_number 10
_symmetry_cell_setting 'monoclinic'
loop_
_space_group_symop_operation_xyz
x,y,z
-x,y,-z
-x,-y,-z
x,-y,z
loop_
_atom_site_type_symbol
_atom_site_label
_atom_site_fract_x
_atom_site_fract_y
_atom_site_fract_z
Si Si1 0.631320 0.656380 0.226417
Si Si2 0.138578 0.344247 0.022154
Si Si3 0.017796 0.158022 0.820041
Si Si4 0.755603 0.841291 0.542856
Si Si5 0.611076 0.849660 0.997028
Si Si6 0.513754 0.342553 0.310167
Si Si7 0.065332 0.150359 0.620726
O O1 0.629877 0.500000 0.205817
O O2 0.460648 0.732841 0.096325
O O3 0.631138 0.666016 0.311178
O O4 0.789691 0.735707 0.288665
O O5 0.160708 0.500000 0.010585
O O6 0.068584 0.249361 0.917258
O O7 0.322364 0.301638 0.167792
O O8 0.000000 0.343816 0.000000
O O9 0.847792 0.198074 0.672653
O O10 0.000598 0.000000 0.829524
O O11 0.184096 0.165443 0.869487
O O12 0.597466 0.750446 0.420851
O O13 0.905739 0.828690 0.575368
O O14 0.709415 0.000000 0.517937
O O15 0.583931 0.000000 0.949075
O O16 0.500000 0.842976 0.000000
O O17 0.507127 0.500000 0.327462
O O18 0.000000 0.149185 0.500000
O O19 0.138830 0.000000 0.680751
#
# Coordination Sequence:
#
# PCOD9145573 Si02
#       7
#     4   4   4   4   4   4   4
#     4  11  21  32  50  78 113 148 192 244 288 332
#     4  10  22  43  68  89 113 149 193 242 298 361
#     4  10  21  37  59  88 120 151 192 246 294 343
#     4  10  21  37  57  84 118 158 197 235 286 344
#     4  10  20  35  55  78 112 156 198 236 280 339
#     4  10  21  37  57  84 114 145 188 239 288 345
#     4  10  19  32  51  75 110 158 206 238 271 334
#
# _framework density 19.247993999999998
#
# number of rings (size 3 to 8) (size 9 to 14) (size 15 to 20)
#    0.000    1.857    2.857    1.286    0.000    5.429 
#    0.000    2.143    0.000    4.286    0.000    0.000 
#    0.000    0.000    0.000    0.000    0.000    0.000 
#
# Total GULP energy -156284.799085 kJ/mol
# GULP energy per Si atom -5581.599967 kJ/mol
# Density = 1.920418 g / cm^3
# Si number density = 19.247994 Si / 1000 Ang^3
#
#
#
# Elastic Constant Matrix: (Units=GPa)
#
#
# Indices 1 2 3 4 5 6 
#
# 1 38.8632 24.0507 28.2782 0.0000 -3.5335 0.0000
# 2 24.0507 115.0057 93.9708 0.0000 -13.4459 0.0000
# 3 28.2782 93.9708 148.3358 0.0000 -23.5869 0.0000
# 4 0.0000 0.0000 0.0000 27.9403 0.0000 2.1695
# 5 -3.5335 -13.4459 -23.5869 0.0000 19.7749 0.0000
# 6 0.0000 0.0000 0.0000 2.1695 0.0000 16.1277
#
#
#
# Elastic Compliance Matrix: (Units=1/GPa)
#
#
# Indices 1 2 3 4 5 6 
#
# 1 0.030531 -0.003336 -0.003949 0.000000 -0.001523 0.000000
# 2 -0.003336 0.018436 -0.011285 0.000000 -0.001521 0.000000
# 3 -0.003949 -0.011285 0.016427 0.000000 0.011214 0.000000
# 4 0.000000 0.000000 0.000000 0.036168 0.000000 -0.004865
# 5 -0.001523 -0.001521 0.011214 0.000000 0.062639 0.000000
# 6 0.000000 0.000000 0.000000 -0.004865 0.000000 0.062659
#
#
# Mechanical properties :
#
#
# Convention : Reuss Voigt Hill
#
# Bulk Modulus (GPa) = 35.39465 66.08936 50.74201
# Shear Modulus (GPa) = 18.28697 23.16225 20.72461
#
# Velocity S-wave (km/s) = 3.08567 3.47271 3.28489
# Velocity P-wave (km/s) = 5.57887 7.10562 6.38802
#
# Compressibility (1/GPa) = 0.02825286
#
# Stress axis : x y z
#
# Youngs Moduli (GPa) = 32.75380 54.24127 60.87665
#
# Poissons Ratio (x) = 0.18095 0.24041
# Poissons Ratio (y) = 0.10927 0.68701
# Poissons Ratio (z) = 0.12935 0.61212
#
# Static dielectric constant tensor:
#      x y z
#    x 1.673020 0.000000 0.000550 
#    y 0.000000 1.658930 0.000000 
#    z 0.000550 0.000000 1.688090 
# 
# From -- ./inp_files/84995.got.cif
#   From: 2010.05.17/outbox.cif.g08.bks.cpg/sg10_43_cif.got.tgz:84995.got - 2010.06.03 11:33:40.
