data_PCOD9145743
_publ_section_title
;
Structure prediction by ZEFSAII (Michael W. Deem and Ramdas Pophale) SiO2 
 PCOD9145743
Probable space group: P 2/M
;
_chemical_formula_sum "Si O2"
_cell_formula_units_Z 28
_cell_length_a 10.365032
_cell_length_b 8.930786
_cell_length_c 26.973183
_cell_angle_alpha 90.000000
_cell_angle_beta 140.647314
_cell_angle_gamma 90.000000
_cell_volume 1583.233351
_symmetry_space_group_name_H-M "P 2/M"
_symmetry_group_IT_number 10
_symmetry_cell_setting 'monoclinic'
loop_
_space_group_symop_operation_xyz
x,y,z
-x,y,-z
-x,-y,-z
x,-y,z
loop_
_atom_site_type_symbol
_atom_site_label
_atom_site_fract_x
_atom_site_fract_y
_atom_site_fract_z
Si Si1 0.880160 0.322500 0.821121
Si Si2 0.815981 0.823605 0.907456
Si Si3 0.815671 0.320432 0.334622
Si Si4 0.634113 0.178063 0.185843
Si Si5 0.828438 0.328245 0.492377
Si Si6 0.525844 0.822163 0.332518
Si Si7 0.701465 0.819676 0.090905
O O1 0.872041 0.500000 0.813162
O O2 0.840062 0.275167 0.865970
O O3 0.698360 0.246674 0.736101
O O4 0.098436 0.259063 0.870297
O O5 0.601372 0.794751 0.870145
O O6 0.820382 0.000000 0.894199
O O7 0.000000 0.798079 0.000000
O O8 0.795862 0.500000 0.333486
O O9 0.768454 0.266642 0.265458
O O10 0.652862 0.244591 0.323523
O O11 0.041860 0.280033 0.421266
O O12 0.672542 0.217137 0.140218
O O13 0.670774 0.000000 0.202722
O O14 0.758409 0.500000 0.477430
O O15 0.648541 0.227034 0.418067
O O16 0.000000 0.328728 0.500000
O O17 0.518532 0.000000 0.325676
O O18 0.725181 0.000000 0.093496
O O19 0.500000 0.778340 0.000000
#
# Coordination Sequence:
#
# PCOD9145743 Si02
#       7
#     4   4   4   4   4   4   4
#     4  12  24  37  56  83 115 150 187 233 284 335
#     4  10  20  36  58  83 110 143 183 231 284 336
#     4  10  19  32  52  80 116 151 181 224 282 338
#     4  10  20  34  57  84 110 145 189 234 278 335
#     4   8  16  30  48  75 112 149 181 219 276 338
#     4  11  20  32  53  81 112 147 189 233 277 327
#     4  10  22  42  63  82 108 149 194 235 283 339
#
# _framework density 17.685327999999998
#
# number of rings (size 3 to 8) (size 9 to 14) (size 15 to 20)
#    0.000    1.857    1.429    4.714    0.000    6.571 
#    0.000    1.429    0.000    0.857    0.000    6.000 
#    0.000    0.000    0.000    0.000    0.000    0.000 
#
# Total GULP energy -156340.819233 kJ/mol
# GULP energy per Si atom -5583.600687 kJ/mol
# Density = 1.764508 g / cm^3
# Si number density = 17.685328 Si / 1000 Ang^3
#
#
#
# Elastic Constant Matrix: (Units=GPa)
#
#
# Indices 1 2 3 4 5 6 
#
# 1 47.7570 34.9520 19.9257 0.0000 7.9678 0.0000
# 2 34.9520 79.0168 60.1582 0.0000 7.1457 0.0000
# 3 19.9257 60.1582 123.9877 0.0000 3.6874 0.0000
# 4 0.0000 0.0000 0.0000 36.4147 0.0000 -6.0064
# 5 7.9678 7.1457 3.6874 0.0000 24.2922 0.0000
# 6 0.0000 0.0000 0.0000 -6.0064 0.0000 9.3620
#
#
#
# Elastic Compliance Matrix: (Units=1/GPa)
#
#
# Indices 1 2 3 4 5 6 
#
# 1 0.032461 -0.015783 0.002632 0.000000 -0.006404 0.000000
# 2 -0.015783 0.028232 -0.011119 0.000000 -0.001440 0.000000
# 3 0.002632 -0.011119 0.013024 0.000000 0.000431 0.000000
# 4 0.000000 0.000000 0.000000 0.030711 0.000000 0.019703
# 5 -0.006404 -0.001440 0.000431 0.000000 0.043624 0.000000
# 6 0.000000 0.000000 0.000000 0.019703 0.000000 0.119456
#
#
# Mechanical properties :
#
#
# Convention : Reuss Voigt Hill
#
# Bulk Modulus (GPa) = 39.71874 53.42591 46.57232
# Shear Modulus (GPa) = 15.41105 23.06216 19.23661
#
# Velocity S-wave (km/s) = 2.95516 3.61505 3.30163
# Velocity P-wave (km/s) = 5.84391 6.90648 6.39730
#
# Compressibility (1/GPa) = 0.02517703
#
# Stress axis : x y z
#
# Youngs Moduli (GPa) = 30.80625 35.42029 76.77876
#
# Poissons Ratio (x) = 0.55904 -0.20205
# Poissons Ratio (y) = 0.48622 0.85370
# Poissons Ratio (z) = -0.08107 0.39384
#
# Static dielectric constant tensor:
#      x y z
#    x 1.575750 0.000000 -0.012580 
#    y 0.000000 1.592700 0.000000 
#    z -0.012580 0.000000 1.618890 
# 
# From -- ./inp_files/91936.got.cif
#   From: 2010.05.17/outbox.cif.g08.bks.cpg/sg10_46_cif.got.tgz:91936.got - 2010.06.03 11:33:40.
