data_PCOD9145931
_publ_section_title
;
Structure prediction by ZEFSAII (Michael W. Deem and Ramdas Pophale) SiO2 
 PCOD9145931
Probable space group: P 2/M
;
_chemical_formula_sum "Si O2"
_cell_formula_units_Z 28
_cell_length_a 11.748649
_cell_length_b 14.333032
_cell_length_c 9.074103
_cell_angle_alpha 90.000000
_cell_angle_beta 116.549681
_cell_angle_gamma 90.000000
_cell_volume 1366.887998
_symmetry_space_group_name_H-M "P 2/M"
_symmetry_group_IT_number 10
_symmetry_cell_setting 'monoclinic'
loop_
_space_group_symop_operation_xyz
x,y,z
-x,y,-z
-x,-y,-z
x,-y,z
loop_
_atom_site_type_symbol
_atom_site_label
_atom_site_fract_x
_atom_site_fract_y
_atom_site_fract_z
Si Si1 0.786875 0.238699 0.901704
Si Si2 0.901933 0.887862 0.220925
Si Si3 0.699156 0.105211 0.360778
Si Si4 0.564967 0.897294 0.697831
Si Si5 0.324623 0.609037 0.537370
Si Si6 0.860527 0.759438 0.624565
Si Si7 0.605406 0.390508 0.771973
O O1 0.665961 0.181333 0.775298
O O2 0.869216 0.260245 0.803927
O O3 0.715265 0.331687 0.918547
O O4 0.857664 0.167661 0.050417
O O5 0.785570 0.881581 0.268128
O O6 0.018831 0.823835 0.345493
O O7 0.931895 0.000000 0.220239
O O8 0.549433 0.115017 0.252192
O O9 0.744690 0.173254 0.513914
O O10 0.720755 0.000000 0.426382
O O11 0.500000 0.895456 0.500000
O O12 0.622807 0.000000 0.752519
O O13 0.307964 0.500000 0.561120
O O14 0.193235 0.665847 0.484457
O O15 0.357426 0.616681 0.381012
O O16 0.456376 0.640876 0.694129
O O17 0.608997 0.500000 0.812824
#
# Coordination Sequence:
#
# PCOD9145931 Si02
#       7
#     4   4   4   4   4   4   4
#     4  11  21  33  55  83 112 140 180 229 279 324
#     4  11  25  39  50  73 113 157 191 221 265 322
#     4  10  21  37  56  77 104 143 187 228 273 328
#     4  10  19  32  54  82 106 130 173 233 281 319
#     4   8  15  29  53  85 111 133 174 232 282 321
#     4  11  20  34  57  79 105 146 192 225 261 317
#     4   8  15  29  52  82 113 138 170 226 286 333
#
# _framework density 20.484487999999999
#
# number of rings (size 3 to 8) (size 9 to 14) (size 15 to 20)
#    0.000    2.143    1.429    3.429    2.000    4.000 
#    0.000    2.857    0.000    6.000    0.000    3.000 
#    0.000    0.000    0.000    0.000    0.000    0.000 
#
# Total GULP energy -155896.743099 kJ/mol
# GULP energy per Si atom -5567.740825 kJ/mol
# Density = 2.043786 g / cm^3
# Si number density = 20.484488 Si / 1000 Ang^3
#
#
#
# Elastic Constant Matrix: (Units=GPa)
#
#
# Indices 1 2 3 4 5 6 
#
# 1 63.7040 34.0241 2.5759 0.0000 4.6395 0.0000
# 2 34.0241 94.5341 18.9891 0.0000 11.1276 0.0000
# 3 2.5759 18.9891 28.3551 0.0000 1.3499 0.0000
# 4 0.0000 0.0000 0.0000 5.6930 0.0000 19.0572
# 5 4.6395 11.1276 1.3499 0.0000 10.1958 0.0000
# 6 0.0000 0.0000 0.0000 19.0572 0.0000 29.6197
#
#
#
# Elastic Compliance Matrix: (Units=1/GPa)
#
#
# Indices 1 2 3 4 5 6 
#
# 1 0.019727 -0.007654 0.003384 0.000000 -0.001071 0.000000
# 2 -0.007654 0.016955 -0.010007 0.000000 -0.013697 0.000000
# 3 0.003384 -0.010007 0.041476 0.000000 0.003891 0.000000
# 4 0.000000 0.000000 0.000000 -0.152245 0.000000 0.097954
# 5 -0.001071 -0.013697 0.003891 0.000000 0.113001 0.000000
# 6 0.000000 0.000000 0.000000 0.097954 0.000000 -0.029262
#
#
# Mechanical properties :
#
#
# Convention : Reuss Voigt Hill
#
# Bulk Modulus (GPa) = 20.15926 33.08571 26.62248
# Shear Modulus (GPa) = 91.34157 17.83530 54.58843
#
# Velocity S-wave (km/s) = 6.68486 2.95392 5.16784
# Velocity P-wave (km/s) = 8.33341 5.27455 6.97376
#
# Compressibility (1/GPa) = 0.04960500
#
# Stress axis : x y z
#
# Youngs Moduli (GPa) = 50.69317 58.97858 24.11020
#
# Poissons Ratio (x) = 0.45140 -0.08160
# Poissons Ratio (y) = 0.38798 0.24128
# Poissons Ratio (z) = -0.17157 0.59022
#
# Static dielectric constant tensor:
#      x y z
#    x 1.811290 0.000000 0.006850 
#    y 0.000000 1.782710 0.000000 
#    z 0.006850 0.000000 1.767600 
# 
# From -- ./inp_files/25417.got.cif
#   From: 2010.05.17/outbox.cif.g08.bks.cpg/sg10_13_cif.got.tgz:25417.got - 2010.06.03 11:33:40.
