data_PCOD9145594
_publ_section_title
;
Structure prediction by ZEFSAII (Michael W. Deem and Ramdas Pophale) SiO2 
 PCOD9145594
Probable space group: P 2/M
;
_chemical_formula_sum "Si O2"
_cell_formula_units_Z 30
_cell_length_a 16.205193
_cell_length_b 7.261862
_cell_length_c 9.657325
_cell_angle_alpha 90.000000
_cell_angle_beta 93.480725
_cell_angle_gamma 90.000000
_cell_volume 1134.376326
_symmetry_space_group_name_H-M "P 2/M"
_symmetry_group_IT_number 10
_symmetry_cell_setting 'monoclinic'
loop_
_space_group_symop_operation_xyz
x,y,z
-x,y,-z
-x,-y,-z
x,-y,z
loop_
_atom_site_type_symbol
_atom_site_label
_atom_site_fract_x
_atom_site_fract_y
_atom_site_fract_z
Si Si1 0.437593 0.777966 0.803227
Si Si2 0.112420 0.724292 0.491740
Si Si3 0.590301 0.287762 0.497379
Si Si4 0.382001 0.219229 0.093324
Si Si5 0.737403 0.717612 0.691380
Si Si6 0.169629 0.000000 0.743357
Si Si7 0.959078 0.721494 0.786665
Si Si8 0.133288 0.278967 0.952804
O O1 0.390322 0.716262 0.662474
O O2 0.534582 0.718912 0.815813
O O3 0.436644 0.000000 0.802007
O O4 0.396026 0.712838 0.939965
O O5 0.110588 0.500000 0.518736
O O6 0.181601 0.775489 0.380931
O O7 0.037387 0.771224 0.375878
O O8 0.141329 0.838702 0.626769
O O9 0.500000 0.201667 0.500000
O O10 0.583293 0.500000 0.540664
O O11 0.661014 0.202248 0.595999
O O12 0.295261 0.261788 0.156049
O O13 0.388227 0.000000 0.090122
O O14 0.741581 0.500000 0.672169
O O15 0.193274 0.159966 0.864307
O O16 0.953086 0.500000 0.786183
O O17 0.045350 0.770447 0.867617
O O18 0.887317 0.776974 0.889611
O O19 0.145269 0.500000 0.949123
#
# Coordination Sequence:
#
# PCOD9145594 Si02
#       8
#     4   4   4   4   4   2   4   4
#     4   9  18  32  49  80 104 131 163 223 286 333
#     4  10  23  41  57  81 119 160 201 238 283 353
#     4  10  19  32  51  77 103 132 174 223 274 328
#     4   9  18  32  53  74 105 129 171 224 279 331
#     4  10  21  37  55  74 102 143 185 224 273 334
#     4  12  24  36  60  91 123 162 191 237 299 336
#     4   8  17  38  64  88 120 158 195 241 288 334
#     4   9  19  37  63  94 121 150 195 245 289 336
#
# _framework density 26.446252000000001
#
# number of rings (size 3 to 8) (size 9 to 14) (size 15 to 20)
#    0.000    2.533    1.333    2.000    0.933    4.533 
#    0.000    4.667    2.933    4.800    0.000    0.000 
#    0.000    0.000    0.000    0.000    0.000    0.000 
#
# Total GULP energy -167053.749312 kJ/mol
# GULP energy per Si atom -5568.458310 kJ/mol
# Density = 2.638606 g / cm^3
# Si number density = 26.446252 Si / 1000 Ang^3
#
#
#
# Elastic Constant Matrix: (Units=GPa)
#
#
# Indices 1 2 3 4 5 6 
#
# 1 4.6390 -9.8837 -9.6836 0.0000 -4.0263 0.0000
# 2 -9.8837 148.0382 22.9681 0.0000 3.1431 0.0000
# 3 -9.6836 22.9681 179.8324 0.0000 -10.0919 0.0000
# 4 0.0000 0.0000 0.0000 73.4778 0.0000 -0.3562
# 5 -4.0263 3.1431 -10.0919 0.0000 17.6719 0.0000
# 6 0.0000 0.0000 0.0000 -0.3562 0.0000 4.8385
#
#
#
# Elastic Compliance Matrix: (Units=1/GPa)
#
#
# Indices 1 2 3 4 5 6 
#
# 1 0.398434 0.020655 0.024490 0.000000 0.101090 0.000000
# 2 0.020655 0.008017 0.000281 0.000000 0.003441 0.000000
# 3 0.024490 0.000281 0.007391 0.000000 0.009750 0.000000
# 4 0.000000 0.000000 0.000000 0.013614 0.000000 0.001002
# 5 0.101090 0.003441 0.009750 0.000000 0.084575 0.000000
# 6 0.000000 0.000000 0.000000 0.001002 0.000000 0.206750
#
#
# Mechanical properties :
#
#
# Convention : Reuss Voigt Hill
#
# Bulk Modulus (GPa) = 1.98140 37.70124 19.84132
# Shear Modulus (GPa) = 6.28015 41.13822 23.70918
#
# Velocity S-wave (km/s) = 1.54267 3.94831 2.99742
# Velocity P-wave (km/s) = 1.98090 5.92219 4.41567
#
# Compressibility (1/GPa) = 0.50469445
#
# Stress axis : x y z
#
# Youngs Moduli (GPa) = 2.50983 124.72973 135.30528
#
# Poissons Ratio (x) = -2.57632 -3.31360
# Poissons Ratio (y) = -0.05184 -0.03807
# Poissons Ratio (z) = -0.06147 -0.03509
#
# Static dielectric constant tensor:
#      x y z
#    x 2.299580 0.000000 0.008260 
#    y 0.000000 2.112830 0.000000 
#    z 0.008260 0.000000 2.116590 
# 
# From -- ./inp_files/33921.got.cif
#   From: 2010.05.17/outbox.cif.g08.bks.cpg/sg10_17_cif.got.tgz:33921.got - 2010.06.03 11:33:40.
