data_PCOD9145329
_publ_section_title
;
Structure prediction by ZEFSAII (Michael W. Deem and Ramdas Pophale) SiO2 
 PCOD9145329
Probable space group: P 2/M
;
_chemical_formula_sum "Si O2"
_cell_formula_units_Z 28
_cell_length_a 15.135003
_cell_length_b 7.355502
_cell_length_c 11.569446
_cell_angle_alpha 90.000000
_cell_angle_beta 111.765459
_cell_angle_gamma 90.000000
_cell_volume 1196.154556
_symmetry_space_group_name_H-M "P 2/M"
_symmetry_group_IT_number 10
_symmetry_cell_setting 'monoclinic'
loop_
_space_group_symop_operation_xyz
x,y,z
-x,y,-z
-x,-y,-z
x,-y,z
loop_
_atom_site_type_symbol
_atom_site_label
_atom_site_fract_x
_atom_site_fract_y
_atom_site_fract_z
Si Si1 0.909359 0.278784 0.882147
Si Si2 0.246036 0.278200 0.570544
Si Si3 0.253525 0.720392 0.035611
Si Si4 0.444875 0.285705 0.587502
Si Si5 0.839402 0.279100 0.246346
Si Si6 0.525905 0.794070 0.883879
Si Si7 0.948182 0.278933 0.638831
O O1 0.909484 0.500000 0.887448
O O2 0.807796 0.221627 0.883477
O O3 0.927349 0.229182 0.760185
O O4 0.000000 0.217769 0.000000
O O5 0.247480 0.500000 0.565115
O O6 0.337978 0.211077 0.548363
O O7 0.242535 0.227868 0.703515
O O8 0.144100 0.217598 0.474453
O O9 0.259897 0.500000 0.039507
O O10 0.360046 0.788103 0.073210
O O11 0.189656 0.776369 0.895278
O O12 0.500000 0.213075 0.500000
O O13 0.435512 0.500000 0.560573
O O14 0.488983 0.273671 0.739457
O O15 0.843581 0.500000 0.247065
O O16 0.944598 0.217982 0.335087
O O17 0.490008 0.000000 0.871726
O O18 0.500000 0.713009 0.000000
O O19 0.949955 0.500000 0.628169
#
# Coordination Sequence:
#
# PCOD9145329 Si02
#       7
#     4   4   4   4   4   4   4
#     4   9  15  25  42  72 109 141 174 217 270 332
#     4   9  17  27  43  69 106 142 173 215 269 328
#     4  10  19  31  55  83 109 142 182 230 284 336
#     4  10  22  39  60  88 118 148 188 240 296 349
#     4   9  15  25  42  72 108 141 173 211 265 328
#     4  11  25  43  61  82 111 152 201 249 297 347
#     4   9  15  23  39  67 106 143 171 204 259 330
#
# _framework density 23.408346999999999
#
# number of rings (size 3 to 8) (size 9 to 14) (size 15 to 20)
#    0.000    2.429    1.429    1.714    2.000    4.286 
#    0.000    0.000    0.000    0.429    0.000    1.000 
#    0.000    4.571    0.000    0.000    0.000    0.000 
#
# Total GULP energy -156233.826547 kJ/mol
# GULP energy per Si atom -5579.779520 kJ/mol
# Density = 2.335507 g / cm^3
# Si number density = 23.408347 Si / 1000 Ang^3
#
#
#
# Elastic Constant Matrix: (Units=GPa)
#
#
# Indices 1 2 3 4 5 6 
#
# 1 199.3031 -1.0592 68.9587 0.0000 -24.2484 0.0000
# 2 -1.0592 82.3839 -4.0656 0.0000 -5.0710 0.0000
# 3 68.9587 -4.0656 94.3274 0.0000 -17.0161 0.0000
# 4 0.0000 0.0000 0.0000 41.2880 0.0000 63.2777
# 5 -24.2484 -5.0710 -17.0161 0.0000 44.3025 0.0000
# 6 0.0000 0.0000 0.0000 63.2777 0.0000 78.4255
#
#
#
# Elastic Compliance Matrix: (Units=1/GPa)
#
#
# Indices 1 2 3 4 5 6 
#
# 1 0.006872 -0.000021 -0.004671 0.000000 0.001965 0.000000
# 2 -0.000021 0.012286 0.000856 0.000000 0.001724 0.000000
# 3 -0.004671 0.000856 0.014622 0.000000 0.003158 0.000000
# 4 0.000000 0.000000 0.000000 -0.102379 0.000000 0.082605
# 5 0.001965 0.001724 0.003158 0.000000 0.025058 0.000000
# 6 0.000000 0.000000 0.000000 0.082605 0.000000 -0.053899
#
#
# Mechanical properties :
#
#
# Convention : Reuss Voigt Hill
#
# Bulk Modulus (GPa) = 38.30008 55.96470 47.13239
# Shear Modulus (GPa) = -61.67959 53.61524 -4.03218
#
# Velocity S-wave (km/s) = -5.13874 4.79104 -1.31388
# Velocity P-wave (km/s) = 4.33723 7.38683 4.22811
#
# Compressibility (1/GPa) = 0.02610961
#
# Stress axis : x y z
#
# Youngs Moduli (GPa) = 145.50776 81.39116 68.38826
#
# Poissons Ratio (x) = 0.00172 0.31941
# Poissons Ratio (y) = 0.00308 -0.05854
# Poissons Ratio (z) = 0.67961 -0.06967
#
# Static dielectric constant tensor:
#      x y z
#    x 1.839880 0.000000 -0.016760 
#    y 0.000000 1.917640 0.000000 
#    z -0.016760 0.000000 1.875370 
# 
# From -- ./inp_files/49312.got.cif
#   From: 2010.05.17/outbox.cif.g08.bks.cpg/sg10_25_cif.got.tgz:49312.got - 2010.06.03 11:33:40.
