data_PCOD9145502
_publ_section_title
;
Structure prediction by ZEFSAII (Michael W. Deem and Ramdas Pophale) SiO2 
 PCOD9145502
Probable space group: P 2/M
;
_chemical_formula_sum "Si O2"
_cell_formula_units_Z 32
_cell_length_a 20.025896
_cell_length_b 7.388515
_cell_length_c 10.788311
_cell_angle_alpha 90.000000
_cell_angle_beta 81.843651
_cell_angle_gamma 90.000000
_cell_volume 1580.109353
_symmetry_space_group_name_H-M "P 2/M"
_symmetry_group_IT_number 10
_symmetry_cell_setting 'monoclinic'
loop_
_space_group_symop_operation_xyz
x,y,z
-x,y,-z
-x,-y,-z
x,-y,z
loop_
_atom_site_type_symbol
_atom_site_label
_atom_site_fract_x
_atom_site_fract_y
_atom_site_fract_z
Si Si1 0.332090 0.281919 0.775146
Si Si2 0.825350 0.279245 0.907683
Si Si3 0.178310 0.279230 0.808254
Si Si4 0.472415 0.788753 0.634054
Si Si5 0.671587 0.717971 0.942252
Si Si6 0.466243 0.788881 0.132005
Si Si7 0.920360 0.279494 0.384406
Si Si8 0.923809 0.279487 0.663068
O O1 0.332085 0.500000 0.775286
O O2 0.255923 0.224118 0.764633
O O3 0.392036 0.221814 0.670965
O O4 0.346690 0.222189 0.912862
O O5 0.826467 0.500000 0.907612
O O6 0.748392 0.224167 0.898145
O O7 0.876885 0.218264 0.788317
O O8 0.840423 0.224018 0.045950
O O9 0.177287 0.500000 0.808555
O O10 0.128637 0.218265 0.712562
O O11 0.500000 0.708190 0.500000
O O12 0.505625 0.708111 0.748949
O O13 0.492178 0.000000 0.627497
O O14 0.671637 0.500000 0.942336
O O15 0.613920 0.777868 0.863916
O O16 0.485930 0.000000 0.128138
O O17 0.500000 0.707525 0.000000
O O18 0.919121 0.500000 0.383896
O O19 0.901741 0.224130 0.529911
O O20 0.998064 0.225823 0.341633
O O21 0.922640 0.500000 0.664387
#
# Coordination Sequence:
#
# PCOD9145502 Si02
#       8
#     4   4   4   4   4   4   4   4
#     4   9  17  30  47  66  91 119 146 181 222 264
#     4   8  14  24  36  53  80 110 139 172 211 252
#     4   8  14  24  37  54  78 109 141 172 209 252
#     4  10  21  36  50  65  89 117 144 182 228 264
#     4   9  17  29  46  68  92 117 145 182 225 262
#     4  10  19  32  51  70  85 111 151 185 215 262
#     4   8  13  21  33  50  75 109 144 173 206 248
#     4   8  13  21  33  50  76 109 141 174 209 247
#
# _framework density 20.251761999999999
#
# number of rings (size 3 to 8) (size 9 to 14) (size 15 to 20)
#    0.000    3.250    1.250    2.250    0.000    1.500 
#    2.250    2.500    0.000    0.000    0.000    0.000 
#    0.000    1.000    0.000    8.250    0.000   10.000 
#
# Total GULP energy -178459.005161 kJ/mol
# GULP energy per Si atom -5576.843911 kJ/mol
# Density = 2.020567 g / cm^3
# Si number density = 20.251762 Si / 1000 Ang^3
#
#
#
# Elastic Constant Matrix: (Units=GPa)
#
#
# Indices 1 2 3 4 5 6 
#
# 1 130.5541 -5.6560 124.0386 0.0000 4.2170 0.0000
# 2 -5.6560 67.4953 8.4935 0.0000 2.6304 0.0000
# 3 124.0386 8.4935 199.3066 0.0000 -6.4423 0.0000
# 4 0.0000 0.0000 0.0000 -15.2660 0.0000 2.1005
# 5 4.2170 2.6304 -6.4423 0.0000 35.5231 0.0000
# 6 0.0000 0.0000 0.0000 2.1005 0.0000 24.5191
#
#
#
# Elastic Compliance Matrix: (Units=1/GPa)
#
#
# Indices 1 2 3 4 5 6 
#
# 1 0.020233 0.003514 -0.012903 0.000000 -0.005002 0.000000
# 2 0.003514 0.015559 -0.002918 0.000000 -0.002098 0.000000
# 3 -0.012903 -0.002918 0.013307 0.000000 0.004161 0.000000
# 4 0.000000 0.000000 0.000000 -0.064742 0.000000 0.005546
# 5 -0.005002 -0.002098 0.004161 0.000000 0.029655 0.000000
# 6 0.000000 0.000000 0.000000 0.005546 0.000000 0.040309
#
#
# Mechanical properties :
#
#
# Convention : Reuss Voigt Hill
#
# Bulk Modulus (GPa) = 40.84210 72.34538 56.59374
# Shear Modulus (GPa) = 57.40726 26.98723 42.19725
#
# Velocity S-wave (km/s) = 5.32995 3.65442 4.56964
# Velocity P-wave (km/s) = 7.62160 7.32168 7.47314
#
# Compressibility (1/GPa) = 0.02448454
#
# Stress axis : x y z
#
# Youngs Moduli (GPa) = 49.42427 64.27028 75.14996
#
# Poissons Ratio (x) = -0.22586 0.96969
# Poissons Ratio (y) = -0.17369 0.21928
# Poissons Ratio (z) = 0.63774 0.18754
#
# Static dielectric constant tensor:
#      x y z
#    x 1.691030 0.000000 0.002320 
#    y 0.000000 1.759480 0.000000 
#    z 0.002320 0.000000 1.719050 
# 
# From -- ./inp_files/32193.got.cif
#   From: 2010.05.17/outbox.cif.g08.bks.cpg/sg10_17_cif.got.tgz:32193.got - 2010.06.03 11:33:40.
