data_PCOD9145519
_publ_section_title
;
Structure prediction by ZEFSAII (Michael W. Deem and Ramdas Pophale) SiO2 
 PCOD9145519
Probable space group: P 2/M
;
_chemical_formula_sum "Si O2"
_cell_formula_units_Z 32
_cell_length_a 10.491882
_cell_length_b 7.451005
_cell_length_c 24.149498
_cell_angle_alpha 90.000000
_cell_angle_beta 122.572975
_cell_angle_gamma 90.000000
_cell_volume 1590.935843
_symmetry_space_group_name_H-M "P 2/M"
_symmetry_group_IT_number 10
_symmetry_cell_setting 'monoclinic'
loop_
_space_group_symop_operation_xyz
x,y,z
-x,y,-z
-x,-y,-z
x,-y,z
loop_
_atom_site_type_symbol
_atom_site_label
_atom_site_fract_x
_atom_site_fract_y
_atom_site_fract_z
Si Si1 0.331575 0.289374 0.461519
Si Si2 0.049697 0.718657 0.924351
Si Si3 0.874939 0.719759 0.181439
Si Si4 0.761342 0.719283 0.925122
Si Si5 0.575194 0.707129 0.171599
Si Si6 0.175127 0.782445 0.541233
Si Si7 0.259724 0.791468 0.679653
Si Si8 0.951809 0.717542 0.670830
O O1 0.500000 0.211366 0.500000
O O2 0.346058 0.500000 0.450924
O O3 0.259568 0.273793 0.505497
O O4 0.207347 0.215242 0.389671
O O5 0.049490 0.500000 0.923388
O O6 0.088997 0.779413 0.871977
O O7 0.885586 0.775325 0.908736
O O8 0.171979 0.771459 0.999451
O O9 0.872085 0.500000 0.180861
O O10 0.712880 0.783232 0.167199
O O11 0.999842 0.772816 0.256213
O O12 0.760501 0.500000 0.923340
O O13 0.591757 0.784614 0.874788
O O14 0.562806 0.500000 0.151306
O O15 0.632627 0.709892 0.248408
O O16 0.256117 0.718895 0.616492
O O17 0.000000 0.722997 0.500000
O O18 0.173374 0.000000 0.542326
O O19 0.088541 0.775071 0.662643
O O20 0.300397 0.000000 0.686750
O O21 0.951218 0.500000 0.669310
#
# Coordination Sequence:
#
# PCOD9145519 Si02
#       8
#     4   4   4   4   4   4   4   4
#     4  10  21  35  50  74 105 131 159 199 247 296
#     4   8  13  23  39  62  92 124 152 185 226 273
#     4   8  14  24  40  61  87 119 152 184 225 270
#     4   8  14  24  39  63  95 122 150 186 229 275
#     4   9  17  29  44  68  96 120 149 191 237 281
#     4  10  20  35  54  74  94 125 170 208 239 286
#     4  10  19  32  51  72  94 122 161 202 239 282
#     4   9  17  31  49  69  97 127 157 194 238 287
#
# _framework density 20.113947
#
# number of rings (size 3 to 8) (size 9 to 14) (size 15 to 20)
#    0.000    3.000    1.250    1.875    0.000    2.000 
#    2.250    2.500    0.000    0.000    0.000    8.750 
#    0.000    0.000    0.000    0.000    0.000    0.000 
#
# Total GULP energy -178469.306319 kJ/mol
# GULP energy per Si atom -5577.165822 kJ/mol
# Density = 2.006817 g / cm^3
# Si number density = 20.113947 Si / 1000 Ang^3
#
#
#
# Elastic Constant Matrix: (Units=GPa)
#
#
# Indices 1 2 3 4 5 6 
#
# 1 133.7379 -1.5555 120.5052 0.0000 19.3418 0.0000
# 2 -1.5555 58.2086 -1.5225 0.0000 2.4743 0.0000
# 3 120.5052 -1.5225 173.9382 0.0000 13.2277 0.0000
# 4 0.0000 0.0000 0.0000 -10.2702 0.0000 -6.9984
# 5 19.3418 2.4743 13.2277 0.0000 32.6014 0.0000
# 6 0.0000 0.0000 0.0000 -6.9984 0.0000 1.2738
#
#
#
# Elastic Compliance Matrix: (Units=1/GPa)
#
#
# Indices 1 2 3 4 5 6 
#
# 1 0.021303 0.000490 -0.014229 0.000000 -0.006902 0.000000
# 2 0.000490 0.017258 -0.000069 0.000000 -0.001573 0.000000
# 3 -0.014229 -0.000069 0.015441 0.000000 0.002182 0.000000
# 4 0.000000 0.000000 0.000000 -0.020526 0.000000 -0.112768
# 5 -0.006902 -0.001573 0.002182 0.000000 0.034002 0.000000
# 6 0.000000 0.000000 0.000000 -0.112768 0.000000 0.165489
#
#
# Mechanical properties :
#
#
# Convention : Reuss Voigt Hill
#
# Bulk Modulus (GPa) = 37.90019 66.74882 52.32450
# Shear Modulus (GPa) = 18.56125 21.28483 19.92304
#
# Velocity S-wave (km/s) = 3.04107 3.25655 3.15065
# Velocity P-wave (km/s) = 5.58699 6.88459 6.26945
#
# Compressibility (1/GPa) = 0.02638509
#
# Stress axis : x y z
#
# Youngs Moduli (GPa) = 46.94215 57.94498 64.76325
#
# Poissons Ratio (x) = -0.02842 0.92155
# Poissons Ratio (y) = -0.02302 0.00448
# Poissons Ratio (z) = 0.66796 0.00401
#
# Static dielectric constant tensor:
#      x y z
#    x 1.679130 0.000000 0.013210 
#    y 0.000000 1.755900 0.000000 
#    z 0.013210 0.000000 1.704090 
# 
# From -- ./inp_files/86117.got.cif
#   From: 2010.05.17/outbox.cif.g08.bks.cpg/sg10_44_cif.got.tgz:86117.got - 2010.06.03 11:33:40.
