data_PCOD9145340
_publ_section_title
;
Structure prediction by ZEFSAII (Michael W. Deem and Ramdas Pophale) SiO2 
 PCOD9145340
Probable space group: P 2/M
;
_chemical_formula_sum "Si O2"
_cell_formula_units_Z 30
_cell_length_a 6.365494
_cell_length_b 17.651985
_cell_length_c 17.612075
_cell_angle_alpha 90.000000
_cell_angle_beta 126.826027
_cell_angle_gamma 90.000000
_cell_volume 1584.073678
_symmetry_space_group_name_H-M "P 2/M"
_symmetry_group_IT_number 10
_symmetry_cell_setting 'monoclinic'
loop_
_space_group_symop_operation_xyz
x,y,z
-x,y,-z
-x,-y,-z
x,-y,z
loop_
_atom_site_type_symbol
_atom_site_label
_atom_site_fract_x
_atom_site_fract_y
_atom_site_fract_z
Si Si1 0.655981 0.412165 0.739479
Si Si2 0.524492 0.705865 0.596209
Si Si3 0.412915 0.709362 0.792334
Si Si4 0.814762 0.084175 0.576968
Si Si5 0.000000 0.789774 0.500000
Si Si6 0.763321 0.363367 0.088137
Si Si7 0.023868 0.822202 0.259165
Si Si8 0.983272 0.784040 0.913503
O O1 0.588680 0.500000 0.725762
O O2 0.630575 0.373674 0.651255
O O3 0.453881 0.359902 0.743023
O O4 0.953524 0.402817 0.837743
O O5 0.500000 0.706370 0.500000
O O6 0.729312 0.767162 0.672567
O O7 0.245948 0.735081 0.566783
O O8 0.324901 0.668540 0.850200
O O9 0.693163 0.749632 0.849291
O O10 0.207828 0.778472 0.746616
O O11 0.500000 0.088006 0.500000
O O12 0.903885 0.100881 0.682338
O O13 0.929069 0.152429 0.552046
O O14 0.899706 0.000000 0.571659
O O15 0.825426 0.289567 0.049294
O O16 0.500000 0.403978 0.000000
O O17 0.972576 0.826516 0.157395
O O18 0.000000 0.822805 0.000000
#
# Coordination Sequence:
#
# PCOD9145340 Si02
#       8
#     4   4   4   4   2   4   4   4
#     4  11  25  40  54  82 117 155 202 248 301 357
#     4  12  23  38  62  87 113 157 203 246 292 351
#     4  10  19  35  60  78 111 151 194 243 295 345
#     4  11  23  38  59  93 129 155 185 232 289 352
#     4  12  21  38  65  88 120 154 202 242 287 352
#     4  10  19  34  60  84 113 148 191 254 309 354
#     4  11  20  38  60  86 120 155 194 241 296 344
#     4  10  19  31  58  91 114 146 203 251 284 345
#
# _framework density 18.938514000000001
#
# number of rings (size 3 to 8) (size 9 to 14) (size 15 to 20)
#    0.000    1.200    8.000    1.000    0.000    1.067 
#    0.000    1.000    0.000    0.400    0.000    0.933 
#    0.000    0.000    0.000    0.000    0.000    0.000 
#
# Total GULP energy -167073.155517 kJ/mol
# GULP energy per Si atom -5569.105184 kJ/mol
# Density = 1.889541 g / cm^3
# Si number density = 18.938514 Si / 1000 Ang^3
#
#
#
# Elastic Constant Matrix: (Units=GPa)
#
#
# Indices 1 2 3 4 5 6 
#
# 1 86.7229 20.3335 29.3130 0.0000 7.6193 0.0000
# 2 20.3335 75.8459 42.3892 0.0000 4.1279 0.0000
# 3 29.3130 42.3892 96.3758 0.0000 -11.6596 0.0000
# 4 0.0000 0.0000 0.0000 10.3198 0.0000 -9.6153
# 5 7.6193 4.1279 -11.6596 0.0000 34.1836 0.0000
# 6 0.0000 0.0000 0.0000 -9.6153 0.0000 17.2159
#
#
#
# Elastic Compliance Matrix: (Units=1/GPa)
#
#
# Indices 1 2 3 4 5 6 
#
# 1 0.013575 -0.001066 -0.004183 0.000000 -0.004324 0.000000
# 2 -0.001066 0.018403 -0.008355 0.000000 -0.004834 0.000000
# 3 -0.004183 -0.008355 0.016227 0.000000 0.007476 0.000000
# 4 0.000000 0.000000 0.000000 0.202038 0.000000 0.112841
# 5 -0.004324 -0.004834 0.007476 0.000000 0.033351 0.000000
# 6 0.000000 0.000000 0.000000 0.112841 0.000000 0.121109
#
#
# Mechanical properties :
#
#
# Convention : Reuss Voigt Hill
#
# Bulk Modulus (GPa) = 47.62503 49.22400 48.42452
# Shear Modulus (GPa) = 11.39184 23.47112 17.43148
#
# Velocity S-wave (km/s) = 2.45524 3.52423 3.03714
# Velocity P-wave (km/s) = 5.76536 6.52750 6.15823
#
# Compressibility (1/GPa) = 0.02099736
#
# Stress axis : x y z
#
# Youngs Moduli (GPa) = 73.66653 54.33910 61.62384
#
# Poissons Ratio (x) = 0.05793 0.25777
# Poissons Ratio (y) = 0.07854 0.51486
# Poissons Ratio (z) = 0.30814 0.45399
#
# Static dielectric constant tensor:
#      x y z
#    x 1.698820 0.000000 -0.017650 
#    y 0.000000 1.624670 0.000000 
#    z -0.017650 0.000000 1.745390 
# 
# From -- ./inp_files/73712.got.cif
#   From: 2010.05.17/outbox.cif.g08.bks.cpg/sg10_37_cif.got.tgz:73712.got - 2010.06.03 11:33:40.
