data_PCOD9145773
_publ_section_title
;
Structure prediction by ZEFSAII (Michael W. Deem and Ramdas Pophale) SiO2 
 PCOD9145773
Probable space group: P 2/M
;
_chemical_formula_sum "Si O2"
_cell_formula_units_Z 28
_cell_length_a 18.400189
_cell_length_b 9.935919
_cell_length_c 15.947421
_cell_angle_alpha 90.000000
_cell_angle_beta 144.655299
_cell_angle_gamma 90.000000
_cell_volume 1686.629848
_symmetry_space_group_name_H-M "P 2/M"
_symmetry_group_IT_number 10
_symmetry_cell_setting 'monoclinic'
loop_
_space_group_symop_operation_xyz
x,y,z
-x,y,-z
-x,-y,-z
x,-y,z
loop_
_atom_site_type_symbol
_atom_site_label
_atom_site_fract_x
_atom_site_fract_y
_atom_site_fract_z
Si Si1 0.883242 0.845602 0.453483
Si Si2 0.052982 0.152288 0.184513
Si Si3 0.565902 0.338863 0.650719
Si Si4 0.580993 0.656072 0.317244
Si Si5 0.205032 0.152019 0.161893
Si Si6 0.880585 0.345140 0.606755
Si Si7 0.409181 0.840265 0.836282
O O1 0.907072 0.737381 0.547726
O O2 0.740575 0.820931 0.285209
O O3 0.000000 0.837450 0.500000
O O4 0.881014 0.000000 0.484088
O O5 0.159412 0.174516 0.214244
O O6 0.059709 0.264633 0.260712
O O7 0.069397 0.000000 0.233818
O O8 0.920574 0.156559 0.011961
O O9 0.500000 0.303293 0.500000
O O10 0.582652 0.500000 0.666374
O O11 0.488533 0.304211 0.662082
O O12 0.696356 0.260992 0.774245
O O13 0.547375 0.500000 0.265752
O O14 0.729798 0.658638 0.475312
O O15 0.559496 0.752302 0.216878
O O16 0.256861 0.000000 0.204840
O O17 0.920576 0.500000 0.640005
O O18 0.426337 0.000000 0.835157
O O19 0.500000 0.805754 0.000000
#
# Coordination Sequence:
#
# PCOD9145773 Si02
#       7
#     4   4   4   4   4   4   4
#     4   9  18  34  54  75 102 134 167 208 262 311
#     4   9  18  34  52  71  99 133 168 208 256 301
#     4  10  20  34  51  73 105 139 170 208 254 302
#     4   9  19  34  51  74 104 136 170 206 250 305
#     4   9  19  34  51  72  99 132 171 213 251 295
#     4  10  19  32  53  77 100 130 170 208 247 299
#     4   9  18  34  55  77 100 131 174 217 256 306
#
# _framework density 16.601154000000001
#
# number of rings (size 3 to 8) (size 9 to 14) (size 15 to 20)
#    0.000    2.714    0.000    2.143    0.000    4.286 
#    2.571    1.429    0.000    0.000    0.000    0.000 
#    0.000    0.000    0.000    0.000    0.000    0.000 
#
# Total GULP energy -155983.437973 kJ/mol
# GULP energy per Si atom -5570.837070 kJ/mol
# Density = 1.656337 g / cm^3
# Si number density = 16.601154 Si / 1000 Ang^3
#
#
#
# Elastic Constant Matrix: (Units=GPa)
#
#
# Indices 1 2 3 4 5 6 
#
# 1 103.8722 61.0214 43.5046 0.0000 -1.1959 0.0000
# 2 61.0214 87.8478 48.4341 0.0000 -13.0068 0.0000
# 3 43.5046 48.4341 63.5805 0.0000 -18.6302 0.0000
# 4 0.0000 0.0000 0.0000 20.2015 0.0000 6.1531
# 5 -1.1959 -13.0068 -18.6302 0.0000 18.0223 0.0000
# 6 0.0000 0.0000 0.0000 6.1531 0.0000 22.3777
#
#
#
# Elastic Compliance Matrix: (Units=1/GPa)
#
#
# Indices 1 2 3 4 5 6 
#
# 1 0.020257 -0.010675 -0.010892 0.000000 -0.017619 0.000000
# 2 -0.010675 0.025295 -0.009788 0.000000 0.007429 0.000000
# 3 -0.010892 -0.009788 0.040676 0.000000 0.034262 0.000000
# 4 0.000000 0.000000 0.000000 0.054026 0.000000 -0.014855
# 5 -0.017619 0.007429 0.034262 0.000000 0.095097 0.000000
# 6 0.000000 0.000000 0.000000 -0.014855 0.000000 0.048772
#
#
# Mechanical properties :
#
#
# Convention : Reuss Voigt Hill
#
# Bulk Modulus (GPa) = 42.51857 62.35788 52.43822
# Shear Modulus (GPa) = 14.09752 18.94299 16.52025
#
# Velocity S-wave (km/s) = 2.91725 3.38163 3.15799
# Velocity P-wave (km/s) = 6.08396 7.27263 6.70469
#
# Compressibility (1/GPa) = 0.02351914
#
# Stress axis : x y z
#
# Youngs Moduli (GPa) = 49.36499 39.53380 24.58429
#
# Poissons Ratio (x) = 0.42202 0.26777
# Poissons Ratio (y) = 0.52696 0.24063
# Poissons Ratio (z) = 0.53768 0.38696
#
# Static dielectric constant tensor:
#      x y z
#    x 1.551270 0.000000 0.002300 
#    y 0.000000 1.556680 0.000000 
#    z 0.002300 0.000000 1.548090 
# 
# From -- ./inp_files/63205.got.cif
#   From: 2010.05.17/outbox.cif.g08.bks.cpg/sg10_32_cif.got.tgz:63205.got - 2010.06.03 11:33:40.
