data_PCOD9145720
_publ_section_title
;
Structure prediction by ZEFSAII (Michael W. Deem and Ramdas Pophale) SiO2 
 PCOD9145720
Probable space group: P 2/M
;
_chemical_formula_sum "Si O2"
_cell_formula_units_Z 28
_cell_length_a 14.566439
_cell_length_b 7.792742
_cell_length_c 15.632218
_cell_angle_alpha 90.000000
_cell_angle_beta 40.636020
_cell_angle_gamma 90.000000
_cell_volume 1155.614486
_symmetry_space_group_name_H-M "P 2/M"
_symmetry_group_IT_number 10
_symmetry_cell_setting 'monoclinic'
loop_
_space_group_symop_operation_xyz
x,y,z
-x,y,-z
-x,-y,-z
x,-y,z
loop_
_atom_site_type_symbol
_atom_site_label
_atom_site_fract_x
_atom_site_fract_y
_atom_site_fract_z
Si Si1 0.830119 0.803622 0.172236
Si Si2 0.360271 0.292214 0.152045
Si Si3 0.520385 0.295639 0.757690
Si Si4 0.503184 0.807742 0.587329
Si Si5 0.962130 0.794407 0.622180
Si Si6 0.065966 0.803793 0.722536
Si Si7 0.802941 0.298591 0.003998
O O1 0.662644 0.815428 0.279109
O O2 0.867191 0.720053 0.054595
O O3 0.858156 0.724875 0.246791
O O4 0.883203 0.000000 0.138699
O O5 0.360685 0.500000 0.147859
O O6 0.385436 0.230952 0.231698
O O7 0.202531 0.237899 0.240020
O O8 0.500000 0.236880 0.000000
O O9 0.513059 0.500000 0.770156
O O10 0.570681 0.257815 0.626324
O O11 0.358309 0.235861 0.884990
O O12 0.500000 0.709438 0.500000
O O13 0.560449 0.000000 0.532825
O O14 0.058235 0.725900 0.632963
O O15 0.000000 0.728535 0.500000
O O16 0.982795 0.000000 0.606477
O O17 0.116478 0.000000 0.679280
O O18 0.904427 0.800958 0.869159
O O19 0.804502 0.500000 0.980502
#
# Coordination Sequence:
#
# PCOD9145720 Si02
#       7
#     4   4   4   4   4   4   4
#     4   9  18  32  49  72 104 138 170 208 260 322
#     4  10  21  39  62  86 113 148 191 237 286 340
#     4   9  19  34  52  76 106 139 173 217 274 325
#     4   9  18  32  51  75 101 133 174 215 257 313
#     4  10  23  41  59  83 115 150 191 239 287 335
#     4  10  20  34  52  73 103 143 178 213 266 327
#     4  10  19  32  52  79 108 135 170 218 267 319
#
# _framework density 24.229534000000001
#
# number of rings (size 3 to 8) (size 9 to 14) (size 15 to 20)
#    0.000    2.429    0.000    1.714    0.000    7.143 
#    0.000    2.857    0.000    0.000    0.000    0.000 
#    0.000    0.000    0.000    0.000    0.000    0.000 
#
# Total GULP energy -156129.142691 kJ/mol
# GULP energy per Si atom -5576.040810 kJ/mol
# Density = 2.417439 g / cm^3
# Si number density = 24.229534 Si / 1000 Ang^3
#
#
#
# Elastic Constant Matrix: (Units=GPa)
#
#
# Indices 1 2 3 4 5 6 
#
# 1 156.1109 2.6778 37.8003 0.0000 34.5614 0.0000
# 2 2.6778 34.0335 3.1509 0.0000 4.6122 0.0000
# 3 37.8003 3.1509 80.3581 0.0000 26.9267 0.0000
# 4 0.0000 0.0000 0.0000 19.3969 0.0000 -4.3027
# 5 34.5614 4.6122 26.9267 0.0000 46.9053 0.0000
# 6 0.0000 0.0000 0.0000 -4.3027 0.0000 15.4734
#
#
#
# Elastic Compliance Matrix: (Units=1/GPa)
#
#
# Indices 1 2 3 4 5 6 
#
# 1 0.007958 0.000204 -0.002204 0.000000 -0.004619 0.000000
# 2 0.000204 0.029788 -0.000287 0.000000 -0.002914 0.000000
# 3 -0.002204 -0.000287 0.016020 0.000000 -0.007545 0.000000
# 4 0.000000 0.000000 0.000000 0.054944 0.000000 0.015278
# 5 -0.004619 -0.002914 -0.007545 0.000000 0.029341 0.000000
# 6 0.000000 0.000000 0.000000 0.015278 0.000000 0.068876
#
#
# Mechanical properties :
#
#
# Convention : Reuss Voigt Hill
#
# Bulk Modulus (GPa) = 20.32841 39.75117 30.03979
# Shear Modulus (GPa) = 21.93952 31.48002 26.70977
#
# Velocity S-wave (km/s) = 3.01240 3.60841 3.32379
# Velocity P-wave (km/s) = 4.52852 5.81399 5.21105
#
# Compressibility (1/GPa) = 0.04919224
#
# Stress axis : x y z
#
# Youngs Moduli (GPa) = 125.65288 33.57018 62.42067
#
# Poissons Ratio (x) = -0.00684 0.13757
# Poissons Ratio (y) = -0.02561 0.01794
# Poissons Ratio (z) = 0.27693 0.00965
#
# Static dielectric constant tensor:
#      x y z
#    x 1.983860 0.000000 0.032030 
#    y 0.000000 1.887940 0.000000 
#    z 0.032030 0.000000 2.012090 
# 
# From -- ./inp_files/66415.got.cif
#   From: 2010.05.17/outbox.cif.g08.bks.cpg/sg10_34_cif.got.tgz:66415.got - 2010.06.03 11:33:40.
