data_PCOD9145567
_publ_section_title
;
Structure prediction by ZEFSAII (Michael W. Deem and Ramdas Pophale) SiO2 
 PCOD9145567
Probable space group: P 2/M
;
_chemical_formula_sum "Si O2"
_cell_formula_units_Z 32
_cell_length_a 11.434619
_cell_length_b 7.624432
_cell_length_c 22.853161
_cell_angle_alpha 90.000000
_cell_angle_beta 47.536405
_cell_angle_gamma 90.000000
_cell_volume 1469.802743
_symmetry_space_group_name_H-M "P 2/M"
_symmetry_group_IT_number 10
_symmetry_cell_setting 'monoclinic'
loop_
_space_group_symop_operation_xyz
x,y,z
-x,y,-z
-x,-y,-z
x,-y,z
loop_
_atom_site_type_symbol
_atom_site_label
_atom_site_fract_x
_atom_site_fract_y
_atom_site_fract_z
Si Si1 0.372840 0.285512 0.993358
Si Si2 0.174152 0.799960 0.451727
Si Si3 0.911655 0.712083 0.833703
Si Si4 0.260402 0.714125 0.680280
Si Si5 0.173484 0.297001 0.582147
Si Si6 0.530603 0.702273 0.166053
Si Si7 0.488279 0.294132 0.702036
Si Si8 0.178126 0.202583 0.265016
O O1 0.383146 0.500000 0.988305
O O2 0.410767 0.220165 0.915296
O O3 0.500000 0.230083 0.000000
O O4 0.198059 0.236812 0.075049
O O5 0.208379 0.794307 0.509353
O O6 0.323274 0.718659 0.368880
O O7 0.000000 0.719176 0.500000
O O8 0.165153 0.000000 0.434056
O O9 0.905879 0.500000 0.831411
O O10 0.833862 0.784783 0.800991
O O11 0.095635 0.762254 0.768096
O O12 0.264287 0.500000 0.674737
O O13 0.250878 0.774210 0.615995
O O14 0.402833 0.776901 0.672902
O O15 0.220348 0.500000 0.559343
O O16 0.984012 0.285106 0.656477
O O17 0.585087 0.500000 0.148135
O O18 0.569112 0.782319 0.216501
O O19 0.339797 0.705845 0.228039
O O20 0.447836 0.500000 0.717404
O O21 0.183072 0.000000 0.281540
#
# Coordination Sequence:
#
# PCOD9145567 Si02
#       8
#     4   4   4   4   4   4   4   4
#     4   9  15  26  49  79 108 136 177 225 266 312
#     4  11  24  40  57  81 113 139 168 215 270 316
#     4   9  16  31  53  74 104 143 178 216 267 318
#     4   8  17  34  55  79 105 138 180 224 261 302
#     4  10  20  36  59  81 105 140 179 215 261 314
#     4  10  19  32  51  75 104 143 183 218 265 322
#     4  10  21  37  56  77 105 141 183 220 258 317
#     4  11  20  30  48  77 111 139 172 220 269 316
#
# _framework density 21.771630999999999
#
# number of rings (size 3 to 8) (size 9 to 14) (size 15 to 20)
#    0.000    2.250    1.250    3.375    0.000    4.000 
#    0.000    7.500    0.000    3.750    0.000    0.000 
#    0.000    6.000    0.000    0.000    0.000    0.000 
#
# Total GULP energy -178618.177887 kJ/mol
# GULP energy per Si atom -5581.818059 kJ/mol
# Density = 2.172208 g / cm^3
# Si number density = 21.771631 Si / 1000 Ang^3
#
#
#
# Elastic Constant Matrix: (Units=GPa)
#
#
# Indices 1 2 3 4 5 6 
#
# 1 78.5580 3.4276 55.2428 0.0000 11.6053 0.0000
# 2 3.4276 47.7971 -3.1148 0.0000 3.0736 0.0000
# 3 55.2428 -3.1148 133.7358 0.0000 36.9892 0.0000
# 4 0.0000 0.0000 0.0000 -155.2556 0.0000 23.9915
# 5 11.6053 3.0736 36.9892 0.0000 23.8184 0.0000
# 6 0.0000 0.0000 0.0000 23.9915 0.0000 23.4984
#
#
#
# Elastic Compliance Matrix: (Units=1/GPa)
#
#
# Indices 1 2 3 4 5 6 
#
# 1 0.018509 -0.002296 -0.009267 0.000000 0.005669 0.000000
# 2 -0.002296 0.021751 0.003369 0.000000 -0.006920 0.000000
# 3 -0.009267 0.003369 0.017977 0.000000 -0.023837 0.000000
# 4 0.000000 0.000000 0.000000 -0.005563 0.000000 0.005680
# 5 0.005669 -0.006920 -0.023837 0.000000 0.077132 0.000000
# 6 0.000000 0.000000 0.000000 0.005680 0.000000 0.036757
#
#
# Mechanical properties :
#
#
# Convention : Reuss Voigt Hill
#
# Bulk Modulus (GPa) = 23.89572 41.24467 32.57020
# Shear Modulus (GPa) = 25.39364 -7.95207 8.72079
#
# Velocity S-wave (km/s) = 3.41891 -1.91322 2.00356
# Velocity P-wave (km/s) = 5.15604 3.75563 4.51052
#
# Compressibility (1/GPa) = 0.04184850
#
# Stress axis : x y z
#
# Youngs Moduli (GPa) = 54.02852 45.97507 55.62760
#
# Poissons Ratio (x) = 0.10555 0.51550
# Poissons Ratio (y) = 0.12404 -0.18740
# Poissons Ratio (z) = 0.50068 -0.15488
#
# Static dielectric constant tensor:
#      x y z
#    x 1.802580 0.000000 0.024860 
#    y 0.000000 1.794050 0.000000 
#    z 0.024860 0.000000 1.796550 
# 
# From -- ./inp_files/83571.got.cif
#   From: 2010.05.17/outbox.cif.g08.bks.cpg/sg10_42_cif.got.tgz:83571.got - 2010.06.03 11:33:40.
