data_PCOD9145348
_publ_section_title
;
Structure prediction by ZEFSAII (Michael W. Deem and Ramdas Pophale) SiO2 
 PCOD9145348
Probable space group: P 2/M
;
_chemical_formula_sum "Si O2"
_cell_formula_units_Z 30
_cell_length_a 12.189477
_cell_length_b 17.383029
_cell_length_c 8.298106
_cell_angle_alpha 90.000000
_cell_angle_beta 108.602103
_cell_angle_gamma 90.000000
_cell_volume 1666.427291
_symmetry_space_group_name_H-M "P 2/M"
_symmetry_group_IT_number 10
_symmetry_cell_setting 'monoclinic'
loop_
_space_group_symop_operation_xyz
x,y,z
-x,y,-z
-x,-y,-z
x,-y,z
loop_
_atom_site_type_symbol
_atom_site_label
_atom_site_fract_x
_atom_site_fract_y
_atom_site_fract_z
Si Si1 0.860158 0.327903 0.949867
Si Si2 0.333729 0.909434 0.311051
Si Si3 0.200772 0.089476 0.746266
Si Si4 0.000000 0.805368 0.500000
Si Si5 0.887655 0.661836 0.608615
Si Si6 0.864117 0.848291 0.955642
Si Si7 0.862532 0.589476 0.271571
Si Si8 0.564133 0.909394 0.282278
O O1 0.820615 0.341367 0.746447
O O2 0.838845 0.239820 0.987646
O O3 0.818333 0.380338 0.077682
O O4 0.000000 0.336176 0.000000
O O5 0.211917 0.868555 0.234578
O O6 0.433666 0.878300 0.236753
O O7 0.383099 0.903104 0.513519
O O8 0.318786 0.000000 0.273802
O O9 0.331189 0.119835 0.777393
O O10 0.102586 0.141594 0.616544
O O11 0.194099 0.000000 0.688308
O O12 0.177098 0.095551 0.923706
O O13 0.054827 0.746164 0.394044
O O14 0.824987 0.637630 0.412926
O O15 0.998397 0.604750 0.671798
O O16 0.000000 0.857170 0.000000
O O17 0.838674 0.500000 0.282176
O O18 0.550320 0.000000 0.236350
#
# Coordination Sequence:
#
# PCOD9145348 Si02
#       8
#     4   4   4   2   4   4   4   4
#     4   9  18  30  42  64  95 130 161 189 243 300
#     4   9  18  35  53  67  92 124 167 216 255 300
#     4  11  22  32  47  70  93 126 174 217 257 301
#     4  10  19  32  45  64  98 136 164 206 251 300
#     4   9  17  29  44  61  90 131 166 193 242 295
#     4  11  22  34  46  70 100 133 165 201 259 304
#     4   9  16  27  44  66  91 122 164 203 228 278
#     4   8  18  35  52  69  86 121 168 214 263 300
#
# _framework density 18.002583999999999
#
# number of rings (size 3 to 8) (size 9 to 14) (size 15 to 20)
#    0.000    2.667    0.000    5.400    3.733    4.533 
#    0.000    2.000    0.000    0.000    0.000    0.000 
#    0.000    0.000    0.000   28.800    0.533   16.400 
#
# Total GULP energy -167059.847730 kJ/mol
# GULP energy per Si atom -5568.661591 kJ/mol
# Density = 1.796161 g / cm^3
# Si number density = 18.002584 Si / 1000 Ang^3
#
#
#
# Elastic Constant Matrix: (Units=GPa)
#
#
# Indices 1 2 3 4 5 6 
#
# 1 53.2713 21.2564 19.5666 0.0000 -4.2703 0.0000
# 2 21.2564 64.3157 23.5679 0.0000 -3.8938 0.0000
# 3 19.5666 23.5679 78.7007 0.0000 -15.7087 0.0000
# 4 0.0000 0.0000 0.0000 14.1386 0.0000 -7.4297
# 5 -4.2703 -3.8938 -15.7087 0.0000 24.6922 0.0000
# 6 0.0000 0.0000 0.0000 -7.4297 0.0000 0.4530
#
#
#
# Elastic Compliance Matrix: (Units=1/GPa)
#
#
# Indices 1 2 3 4 5 6 
#
# 1 0.022599 -0.006086 -0.003674 0.000000 0.000611 0.000000
# 2 -0.006086 0.019113 -0.004375 0.000000 -0.000821 0.000000
# 3 -0.003674 -0.004375 0.016798 0.000000 0.009362 0.000000
# 4 0.000000 0.000000 0.000000 -0.009284 0.000000 -0.152262
# 5 0.000611 -0.000821 0.009362 0.000000 0.046431 0.000000
# 6 0.000000 0.000000 0.000000 -0.152262 0.000000 -0.289751
#
#
# Mechanical properties :
#
#
# Convention : Reuss Voigt Hill
#
# Bulk Modulus (GPa) = 33.06712 36.11885 34.59298
# Shear Modulus (GPa) = -32.10347 16.64989 -7.72679
#
# Velocity S-wave (km/s) = -4.22746 3.04445 -2.07397
# Velocity P-wave (km/s) = 2.32824 5.69780 3.67725
#
# Compressibility (1/GPa) = 0.03024152
#
# Stress axis : x y z
#
# Youngs Moduli (GPa) = 44.25061 52.32082 59.52935
#
# Poissons Ratio (x) = 0.31840 0.21872
# Poissons Ratio (y) = 0.26929 0.26042
# Poissons Ratio (z) = 0.16258 0.22888
#
# Static dielectric constant tensor:
#      x y z
#    x 1.612880 0.000000 0.009190 
#    y 0.000000 1.601310 0.000000 
#    z 0.009190 0.000000 1.661580 
# 
# From -- ./inp_files/25719.got.cif
#   From: 2010.05.17/outbox.cif.g08.bks.cpg/sg10_13_cif.got.tgz:25719.got - 2010.06.03 11:33:40.
