data_PCOD9145756
_publ_section_title
;
Structure prediction by ZEFSAII (Michael W. Deem and Ramdas Pophale) SiO2 
 PCOD9145756
Probable space group: P 2/M
;
_chemical_formula_sum "Si O2"
_cell_formula_units_Z 32
_cell_length_a 8.913757
_cell_length_b 19.253855
_cell_length_c 20.944776
_cell_angle_alpha 90.000000
_cell_angle_beta 29.404307
_cell_angle_gamma 90.000000
_cell_volume 1764.852821
_symmetry_space_group_name_H-M "P 2/M"
_symmetry_group_IT_number 10
_symmetry_cell_setting 'monoclinic'
loop_
_space_group_symop_operation_xyz
x,y,z
-x,y,-z
-x,-y,-z
x,-y,z
loop_
_atom_site_type_symbol
_atom_site_label
_atom_site_fract_x
_atom_site_fract_y
_atom_site_fract_z
Si Si1 0.670125 0.744034 0.308285
Si Si2 0.252141 0.703471 0.255829
Si Si3 0.176169 0.579047 0.090047
Si Si4 0.130693 0.919216 0.635406
Si Si5 0.244373 0.382367 0.639592
Si Si6 0.264452 0.806843 0.141464
Si Si7 0.799057 0.323210 0.132062
Si Si8 0.087267 0.175569 0.540341
O O1 0.584134 0.678018 0.383454
O O2 0.670954 0.727788 0.233493
O O3 0.444231 0.805119 0.409803
O O4 0.015363 0.759980 0.198179
O O5 0.393183 0.755439 0.149070
O O6 0.493370 0.656972 0.205750
O O7 0.007590 0.654684 0.311572
O O8 0.083292 0.758525 0.364734
O O9 0.233136 0.500000 0.046811
O O10 0.940549 0.578045 0.236895
O O11 0.009616 0.622893 0.095128
O O12 0.500000 0.606193 0.000000
O O13 0.500000 0.909236 0.500000
O O14 0.030413 0.892453 0.602889
O O15 0.932043 0.869452 0.755078
O O16 0.069923 0.000000 0.669570
O O17 0.500000 0.416757 0.500000
O O18 0.500000 0.829753 0.000000
O O19 0.000000 0.292698 0.000000
O O20 0.000000 0.167502 0.500000
#
# Coordination Sequence:
#
# PCOD9145756 Si02
#       8
#     4   4   4   4   4   4   4   4
#     4  10  19  32  52  84 113 143 176 222 286 344
#     4  10  20  31  54  87 113 140 179 225 292 342
#     4  10  23  42  59  77 109 155 196 222 264 332
#     4  10  21  36  56  79 107 150 204 238 265 325
#     4  10  19  33  59  83 112 142 181 233 277 330
#     4  10  20  34  55  80 115 149 184 231 285 332
#     4  11  21  34  55  83 113 140 181 232 278 329
#     4  11  19  33  55  81 113 147 177 223 288 341
#
# _framework density 18.131822
#
# number of rings (size 3 to 8) (size 9 to 14) (size 15 to 20)
#    0.000    1.750    3.750    1.500    0.000    4.500 
#    0.000    0.625    0.000    0.750    0.000    0.875 
#    0.000    0.000    0.000    0.000    0.000    0.500 
#
# Total GULP energy -178137.534496 kJ/mol
# GULP energy per Si atom -5566.797953 kJ/mol
# Density = 1.809055 g / cm^3
# Si number density = 18.131822 Si / 1000 Ang^3
#
#
#
# Elastic Constant Matrix: (Units=GPa)
#
#
# Indices 1 2 3 4 5 6 
#
# 1 111.1553 30.4556 36.6375 0.0000 6.2706 0.0000
# 2 30.4556 60.6547 18.2227 0.0000 -0.2146 0.0000
# 3 36.6375 18.2227 96.2751 0.0000 12.6309 0.0000
# 4 0.0000 0.0000 0.0000 10.2119 0.0000 -8.1699
# 5 6.2706 -0.2146 12.6309 0.0000 29.7711 0.0000
# 6 0.0000 0.0000 0.0000 -8.1699 0.0000 10.1208
#
#
#
# Elastic Compliance Matrix: (Units=1/GPa)
#
#
# Indices 1 2 3 4 5 6 
#
# 1 0.011453 -0.004756 -0.003322 0.000000 -0.001037 0.000000
# 2 -0.004756 0.019530 -0.002157 0.000000 0.002058 0.000000
# 3 -0.003322 -0.002157 0.012675 0.000000 -0.004693 0.000000
# 4 0.000000 0.000000 0.000000 0.276483 0.000000 0.223189
# 5 -0.001037 0.002058 -0.004693 0.000000 0.035814 0.000000
# 6 0.000000 0.000000 0.000000 0.223189 0.000000 0.278974
#
#
# Mechanical properties :
#
#
# Convention : Reuss Voigt Hill
#
# Bulk Modulus (GPa) = 43.12517 48.74630 45.93573
# Shear Modulus (GPa) = 7.54000 22.20538 14.87269
#
# Velocity S-wave (km/s) = 2.04144 3.50332 2.86711
# Velocity P-wave (km/s) = 5.42148 6.58081 6.02908
#
# Compressibility (1/GPa) = 0.02318832
#
# Stress axis : x y z
#
# Youngs Moduli (GPa) = 87.31228 51.20275 78.89490
#
# Poissons Ratio (x) = 0.24354 0.26210
# Poissons Ratio (y) = 0.41529 0.17014
# Poissons Ratio (z) = 0.29006 0.11042
#
# Static dielectric constant tensor:
#      x y z
#    x 1.643540 0.000000 -0.005780 
#    y 0.000000 1.601320 0.000000 
#    z -0.005780 0.000000 1.656500 
# 
# From -- ./inp_files/83058.got.cif
#   From: 2010.05.17/outbox.cif.g08.bks.cpg/sg10_42_cif.got.tgz:83058.got - 2010.06.03 11:33:40.
