data_PCOD9145447
_publ_section_title
;
Structure prediction by ZEFSAII (Michael W. Deem and Ramdas Pophale) SiO2 
 PCOD9145447
Probable space group: P 2/M
;
_chemical_formula_sum "Si O2"
_cell_formula_units_Z 28
_cell_length_a 9.782016
_cell_length_b 9.468696
_cell_length_c 32.334936
_cell_angle_alpha 90.000000
_cell_angle_beta 34.588858
_cell_angle_gamma 90.000000
_cell_volume 1700.187991
_symmetry_space_group_name_H-M "P 2/M"
_symmetry_group_IT_number 10
_symmetry_cell_setting 'monoclinic'
loop_
_space_group_symop_operation_xyz
x,y,z
-x,y,-z
-x,-y,-z
x,-y,z
loop_
_atom_site_type_symbol
_atom_site_label
_atom_site_fract_x
_atom_site_fract_y
_atom_site_fract_z
Si Si1 0.100396 0.332760 0.105217
Si Si2 0.730970 0.169071 0.082132
Si Si3 0.290656 0.659949 0.422548
Si Si4 0.800912 0.168639 0.634298
Si Si5 0.533820 0.332633 0.058544
Si Si6 0.646032 0.832001 0.197980
Si Si7 0.693685 0.669769 0.487922
O O1 0.053455 0.500000 0.114207
O O2 0.285773 0.308866 0.096240
O O3 0.856239 0.247878 0.169728
O O4 0.250102 0.291456 0.026675
O O5 0.553374 0.244998 0.095014
O O6 0.676341 0.210860 0.142661
O O7 0.710386 0.000000 0.084202
O O8 0.000000 0.207965 0.000000
O O9 0.370983 0.500000 0.392055
O O10 0.319676 0.767249 0.377425
O O11 0.389303 0.698491 0.443705
O O12 0.000000 0.654597 0.500000
O O13 0.614200 0.196121 0.717859
O O14 0.055701 0.245691 0.579009
O O15 0.836126 0.000000 0.620976
O O16 0.557578 0.500000 0.060235
O O17 0.687291 0.000000 0.190112
O O18 0.500000 0.703025 0.500000
O O19 0.739463 0.500000 0.474834
#
# Coordination Sequence:
#
# PCOD9145447 Si02
#       7
#     4   4   4   4   4   4   4
#     4   9  18  32  50  71  95 124 159 204 255 303
#     4  10  19  32  50  71  96 132 173 211 251 301
#     4   8  15  30  52  75  99 128 162 199 236 284
#     4  10  20  33  50  74 105 136 166 206 248 294
#     4   9  18  32  49  72  97 119 157 212 259 298
#     4  10  21  35  49  71 102 133 170 210 251 298
#     4   9  18  34  56  80 104 131 165 203 241 290
#
# _framework density 16.468767
#
# number of rings (size 3 to 8) (size 9 to 14) (size 15 to 20)
#    0.000    2.714    1.429    2.143    0.000    5.429 
#    0.000    2.857    0.000    6.857    0.000    0.000 
#    0.000    0.000    0.000    0.000    0.000    0.000 
#
# Total GULP energy -155950.842951 kJ/mol
# GULP energy per Si atom -5569.672963 kJ/mol
# Density = 1.643128 g / cm^3
# Si number density = 16.468767 Si / 1000 Ang^3
#
#
#
# Elastic Constant Matrix: (Units=GPa)
#
#
# Indices 1 2 3 4 5 6 
#
# 1 103.8805 43.7427 46.8363 0.0000 9.9968 0.0000
# 2 43.7427 37.3170 46.3006 0.0000 1.3683 0.0000
# 3 46.8363 46.3006 83.1022 0.0000 6.6610 0.0000
# 4 0.0000 0.0000 0.0000 20.0281 0.0000 2.8596
# 5 9.9968 1.3683 6.6610 0.0000 20.0921 0.0000
# 6 0.0000 0.0000 0.0000 2.8596 0.0000 28.1957
#
#
#
# Elastic Compliance Matrix: (Units=1/GPa)
#
#
# Indices 1 2 3 4 5 6 
#
# 1 0.022034 -0.036062 0.008584 0.000000 -0.011353 0.000000
# 2 -0.036062 0.147990 -0.064472 0.000000 0.029238 0.000000
# 3 0.008584 -0.064472 0.044283 0.000000 -0.014561 0.000000
# 4 0.000000 0.000000 0.000000 0.050663 0.000000 -0.005138
# 5 -0.011353 0.029238 -0.014561 0.000000 0.058256 0.000000
# 6 0.000000 0.000000 0.000000 -0.005138 0.000000 0.035988
#
#
# Mechanical properties :
#
#
# Convention : Reuss Voigt Hill
#
# Bulk Modulus (GPa) = 32.88746 55.33987 44.11367
# Shear Modulus (GPa) = 9.03750 19.49120 14.26435
#
# Velocity S-wave (km/s) = 2.34512 3.44397 2.94623
# Velocity P-wave (km/s) = 5.22931 7.03495 6.19823
#
# Compressibility (1/GPa) = 0.03040672
#
# Stress axis : x y z
#
# Youngs Moduli (GPa) = 45.38402 6.75722 22.58178
#
# Poissons Ratio (x) = 0.24368 -0.19383
# Poissons Ratio (y) = 1.63664 1.45589
# Poissons Ratio (z) = -0.38956 0.43565
#
# Static dielectric constant tensor:
#      x y z
#    x 1.562490 0.000000 0.019820 
#    y 0.000000 1.549450 0.000000 
#    z 0.019820 0.000000 1.552610 
# 
# From -- ./inp_files/79210.got.cif
#   From: 2010.05.17/outbox.cif.g08.bks.cpg/sg10_40_cif.got.tgz:79210.got - 2010.06.03 11:33:40.
