data_PCOD9145062
_publ_section_title
;
Structure prediction by ZEFSAII (Michael W. Deem and Ramdas Pophale) SiO2 
 PCOD9145062
Probable space group: P 2/M
;
_chemical_formula_sum "Si O2"
_cell_formula_units_Z 24
_cell_length_a 20.695027
_cell_length_b 7.526383
_cell_length_c 9.872184
_cell_angle_alpha 90.000000
_cell_angle_beta 129.516836
_cell_angle_gamma 90.000000
_cell_volume 1186.223108
_symmetry_space_group_name_H-M "P 2/M"
_symmetry_group_IT_number 10
_symmetry_cell_setting 'monoclinic'
loop_
_space_group_symop_operation_xyz
x,y,z
-x,y,-z
-x,-y,-z
x,-y,z
loop_
_atom_site_type_symbol
_atom_site_label
_atom_site_fract_x
_atom_site_fract_y
_atom_site_fract_z
Si Si1 0.528532 0.282297 0.387519
Si Si2 0.766156 0.283850 0.370202
Si Si3 0.908480 0.208038 0.350409
Si Si4 0.768648 0.790617 0.965846
Si Si5 0.280571 0.285872 0.396691
Si Si6 0.626965 0.296583 0.979762
O O1 0.500000 0.228304 0.500000
O O2 0.526713 0.500000 0.383158
O O3 0.623029 0.225171 0.485146
O O4 0.460809 0.218686 0.186848
O O5 0.765683 0.500000 0.364425
O O6 0.848781 0.224118 0.401409
O O7 0.759786 0.225747 0.516525
O O8 0.684898 0.220220 0.176172
O O9 0.851542 0.280518 0.151514
O O10 0.000000 0.286343 0.500000
O O11 0.921307 0.000000 0.335690
O O12 0.687638 0.704495 0.928837
O O13 0.761740 0.000000 0.987229
O O14 0.766400 0.766341 0.802904
O O15 0.282460 0.500000 0.402509
O O16 0.609616 0.500000 0.996819
#
# Coordination Sequence:
#
# PCOD9145062 Si02
#       6
#     4   4   4   4   4   4
#     4   9  15  25  46  71  95 131 173 202 230 274
#     4   9  19  32  50  76 102 128 159 200 248 288
#     4   9  19  37  58  75  93 122 160 200 242 296
#     4  10  19  31  50  74  96 124 163 200 243 291
#     4  10  19  32  48  71 104 135 163 198 240 284
#     4   9  16  30  49  69  96 131 169 204 238 277
#
# _framework density 20.232279999999999
#
# number of rings (size 3 to 8) (size 9 to 14) (size 15 to 20)
#    0.000    2.667    1.667    0.500    0.000    2.333 
#    0.000    5.833    0.000    5.000    0.000    5.833 
#    0.000    0.000    0.000    0.000    0.000    0.000 
#
# Total GULP energy -133893.420721 kJ/mol
# GULP energy per Si atom -5578.892530 kJ/mol
# Density = 2.018623 g / cm^3
# Si number density = 20.232280 Si / 1000 Ang^3
#
#
#
# Elastic Constant Matrix: (Units=GPa)
#
#
# Indices 1 2 3 4 5 6 
#
# 1 86.5162 -10.7821 88.8634 0.0000 8.6947 0.0000
# 2 -10.7821 52.4693 -5.0896 0.0000 6.3590 0.0000
# 3 88.8634 -5.0896 154.4608 0.0000 7.8403 0.0000
# 4 0.0000 0.0000 0.0000 6.8321 0.0000 -2.6274
# 5 8.6947 6.3590 7.8403 0.0000 40.4016 0.0000
# 6 0.0000 0.0000 0.0000 -2.6274 0.0000 6.4041
#
#
#
# Elastic Compliance Matrix: (Units=1/GPa)
#
#
# Indices 1 2 3 4 5 6 
#
# 1 0.029826 0.004978 -0.016795 0.000000 -0.003943 0.000000
# 2 0.004978 0.020359 -0.001996 0.000000 -0.003888 0.000000
# 3 -0.016795 -0.001996 0.016029 0.000000 0.000818 0.000000
# 4 0.000000 0.000000 0.000000 0.173789 0.000000 0.071300
# 5 -0.003943 -0.003888 0.000818 0.000000 0.026053 0.000000
# 6 0.000000 0.000000 0.000000 0.071300 0.000000 0.185402
#
#
# Mechanical properties :
#
#
# Convention : Reuss Voigt Hill
#
# Bulk Modulus (GPa) = 25.91429 48.82553 37.36991
# Shear Modulus (GPa) = 10.16370 25.42454 17.79412
#
# Velocity S-wave (km/s) = 2.24375 3.54875 2.96884
# Velocity P-wave (km/s) = 4.42140 6.40128 5.50114
#
# Compressibility (1/GPa) = 0.03858875
#
# Stress axis : x y z
#
# Youngs Moduli (GPa) = 33.52793 49.11754 62.38571
#
# Poissons Ratio (x) = -0.24449 1.04777
# Poissons Ratio (y) = -0.16689 0.12449
# Poissons Ratio (z) = 0.56310 0.09801
#
# Static dielectric constant tensor:
#      x y z
#    x 1.672400 0.000000 0.011330 
#    y 0.000000 1.797910 0.000000 
#    z 0.011330 0.000000 1.738800 
# 
# From -- ./inp_files/28008.got.cif
#   From: 2010.05.17/outbox.cif.g08.bks.cpg/sg10_15_cif.got.tgz:28008.got - 2010.06.03 11:33:40.
