data_PCOD9145750
_publ_section_title
;
Structure prediction by ZEFSAII (Michael W. Deem and Ramdas Pophale) SiO2 
 PCOD9145750
Probable space group: P 2/M
;
_chemical_formula_sum "Si O2"
_cell_formula_units_Z 28
_cell_length_a 17.184422
_cell_length_b 8.716752
_cell_length_c 20.128002
_cell_angle_alpha 90.000000
_cell_angle_beta 148.622636
_cell_angle_gamma 90.000000
_cell_volume 1569.837950
_symmetry_space_group_name_H-M "P 2/M"
_symmetry_group_IT_number 10
_symmetry_cell_setting 'monoclinic'
loop_
_space_group_symop_operation_xyz
x,y,z
-x,y,-z
-x,-y,-z
x,-y,z
loop_
_atom_site_type_symbol
_atom_site_label
_atom_site_fract_x
_atom_site_fract_y
_atom_site_fract_z
Si Si1 0.091169 0.684252 0.500002
Si Si2 0.154776 0.176502 0.154776
Si Si3 0.934155 0.184459 0.254721
Si Si4 0.985153 0.683511 0.150187
Si Si5 0.411298 0.186566 0.999998
Si Si6 0.684778 0.316488 0.849813
Si Si7 0.424716 0.815541 0.745282
O O1 0.093862 0.500000 0.500002
O O2 0.259282 0.747753 0.623692
O O3 0.000000 0.731481 0.500000
O O4 0.011904 0.747753 0.376312
O O5 0.271792 0.259759 0.192017
O O6 0.112242 0.259761 0.192017
O O7 0.196905 0.000000 0.196906
O O8 0.000000 0.177854 0.000000
O O9 0.001137 0.243041 0.234130
O O10 0.940904 0.000000 0.261969
O O11 0.760500 0.234333 0.127328
O O12 0.987324 0.500000 0.156195
O O13 0.824037 0.728937 1.000000
O O14 0.494151 0.234333 0.127324
O O15 0.412113 0.000000 0.999998
O O16 0.500000 0.240400 0.000000
O O17 0.674935 0.500000 0.843805
O O18 0.532878 0.243042 0.765870
O O19 0.416969 0.000000 0.738034
#
# Coordination Sequence:
#
# PCOD9145750 Si02
#       7
#     4   4   4   4   4   4   4
#     4  11  25  43  59  80 113 152 193 237 289 347
#     4   9  17  29  49  78 113 150 191 234 277 328
#     4  11  21  36  59  84 113 148 191 238 284 337
#     4  10  19  32  52  81 118 153 187 229 285 341
#     4   9  18  32  53  82 111 138 177 233 288 333
#     4  10  19  32  52  81 118 153 187 229 285 341
#     4  11  21  36  59  84 113 148 191 238 284 337
#
# _framework density 17.836238000000002
#
# number of rings (size 3 to 8) (size 9 to 14) (size 15 to 20)
#    0.000    1.857    1.429    3.429    0.000    5.143 
#    0.000    0.000    0.000    4.286    0.000    6.000 
#    0.000    0.000    0.000    0.000    0.000    0.000 
#
# Total GULP energy -156340.992151 kJ/mol
# GULP energy per Si atom -5583.606863 kJ/mol
# Density = 1.779564 g / cm^3
# Si number density = 17.836238 Si / 1000 Ang^3
#
#
#
# Elastic Constant Matrix: (Units=GPa)
#
#
# Indices 1 2 3 4 5 6 
#
# 1 198.0170 56.9853 84.0020 0.0000 0.6939 0.0000
# 2 56.9853 68.8105 41.6973 0.0000 0.1354 0.0000
# 3 84.0020 41.6973 121.9061 0.0000 -0.0208 0.0000
# 4 0.0000 0.0000 0.0000 21.4490 0.0000 0.0720
# 5 0.6939 0.1354 -0.0208 0.0000 17.4210 0.0000
# 6 0.0000 0.0000 0.0000 0.0720 0.0000 29.7139
#
#
#
# Elastic Compliance Matrix: (Units=1/GPa)
#
#
# Indices 1 2 3 4 5 6 
#
# 1 0.007970 -0.004127 -0.004080 0.000000 -0.000290 0.000000
# 2 -0.004127 0.020470 -0.004158 0.000000 0.000000 0.000000
# 3 -0.004080 -0.004158 0.012437 0.000000 0.000210 0.000000
# 4 0.000000 0.000000 0.000000 0.046623 0.000000 -0.000113
# 5 -0.000290 0.000000 0.000210 0.000000 0.057414 0.000000
# 6 0.000000 0.000000 0.000000 -0.000113 0.000000 0.033655
#
#
# Mechanical properties :
#
#
# Convention : Reuss Voigt Hill
#
# Bulk Modulus (GPa) = 61.93308 83.78920 72.86114
# Shear Modulus (GPa) = 23.96021 27.45337 25.70679
#
# Velocity S-wave (km/s) = 3.66914 3.92751 3.80052
# Velocity P-wave (km/s) = 7.26283 8.22472 7.75870
#
# Compressibility (1/GPa) = 0.01614646
#
# Stress axis : x y z
#
# Youngs Moduli (GPa) = 125.47705 48.85200 80.40749
#
# Poissons Ratio (x) = 0.20161 0.32806
# Poissons Ratio (y) = 0.51785 0.33432
# Poissons Ratio (z) = 0.51195 0.20312
#
# Static dielectric constant tensor:
#      x y z
#    x 1.602450 0.000000 0.000140 
#    y 0.000000 1.595190 0.000000 
#    z 0.000140 0.000000 1.585870 
# 
# From -- ./inp_files/85651.got.cif
#   From: 2010.05.17/outbox.cif.g08.bks.cpg/sg10_43_cif.got.tgz:85651.got - 2010.06.03 11:33:40.
