data_PCOD9145402
_publ_section_title
;
Structure prediction by ZEFSAII (Michael W. Deem and Ramdas Pophale) SiO2 
 PCOD9145402
Probable space group: P 2/M
;
_chemical_formula_sum "Si O2"
_cell_formula_units_Z 32
_cell_length_a 16.220725
_cell_length_b 7.565076
_cell_length_c 16.235972
_cell_angle_alpha 90.000000
_cell_angle_beta 130.210001
_cell_angle_gamma 90.000000
_cell_volume 1521.511271
_symmetry_space_group_name_H-M "P 2/M"
_symmetry_group_IT_number 10
_symmetry_cell_setting 'monoclinic'
loop_
_space_group_symop_operation_xyz
x,y,z
-x,y,-z
-x,-y,-z
x,-y,z
loop_
_atom_site_type_symbol
_atom_site_label
_atom_site_fract_x
_atom_site_fract_y
_atom_site_fract_z
Si Si1 0.607563 0.202590 0.515746
Si Si2 0.059970 0.714912 0.662761
Si Si3 0.362339 0.291512 0.136714
Si Si4 0.966438 0.299903 0.884009
Si Si5 0.598211 0.296730 0.324620
Si Si6 0.164644 0.716761 0.900551
Si Si7 0.839125 0.284269 0.448396
Si Si8 0.270804 0.199216 0.255870
O O1 0.500000 0.198933 0.500000
O O2 0.589868 0.295625 0.418155
O O3 0.689096 0.286264 0.633744
O O4 0.639828 0.000000 0.516255
O O5 0.057946 0.500000 0.664536
O O6 0.128569 0.773360 0.786067
O O7 0.118058 0.763258 0.614786
O O8 0.934119 0.772081 0.573254
O O9 0.373223 0.500000 0.127503
O O10 0.484789 0.217643 0.218727
O O11 0.308553 0.276733 0.193086
O O12 0.276986 0.221353 0.014132
O O13 0.943488 0.500000 0.838904
O O14 0.856444 0.195333 0.815722
O O15 0.066039 0.229287 0.896104
O O16 0.000000 0.312311 0.000000
O O17 0.601721 0.500000 0.297494
O O18 0.716793 0.219645 0.381961
O O19 0.168645 0.500000 0.904175
O O20 0.836347 0.500000 0.451617
O O21 0.316001 0.000000 0.284157
#
# Coordination Sequence:
#
# PCOD9145402 Si02
#       8
#     4   4   4   4   4   4   4   4
#     4  10  21  36  49  66  98 134 167 199 239 296
#     4   8  14  27  47  68  99 131 154 192 245 300
#     4  10  19  33  48  68 100 131 163 203 245 288
#     4  10  19  32  49  70  98 130 165 205 242 286
#     4  10  20  31  50  76  99 124 163 211 247 284
#     4   9  17  29  46  68  95 134 168 189 237 299
#     4   8  15  28  45  73 102 122 153 201 250 287
#     4  11  22  34  48  67  96 133 168 204 245 288
#
# _framework density 21.03172
#
# number of rings (size 3 to 8) (size 9 to 14) (size 15 to 20)
#    0.000    2.500    2.500    1.125    1.750    1.500 
#    0.000    0.625    0.000    3.750    0.000    3.500 
#    0.000    2.000    0.000    0.000    0.000    0.000 
#
# Total GULP energy -178327.190478 kJ/mol
# GULP energy per Si atom -5572.724702 kJ/mol
# Density = 2.098385 g / cm^3
# Si number density = 21.031720 Si / 1000 Ang^3
#
#
#
# Elastic Constant Matrix: (Units=GPa)
#
#
# Indices 1 2 3 4 5 6 
#
# 1 122.1484 2.8131 79.2448 0.0000 34.0549 0.0000
# 2 2.8131 47.4469 5.7936 0.0000 5.3667 0.0000
# 3 79.2448 5.7936 185.0667 0.0000 33.0489 0.0000
# 4 0.0000 0.0000 0.0000 18.2264 0.0000 -49.7998
# 5 34.0549 5.3667 33.0489 0.0000 36.6325 0.0000
# 6 0.0000 0.0000 0.0000 -49.7998 0.0000 138.1017
#
#
#
# Elastic Compliance Matrix: (Units=1/GPa)
#
#
# Indices 1 2 3 4 5 6 
#
# 1 0.013299 0.000705 -0.004161 0.000000 -0.008713 0.000000
# 2 0.000705 0.021471 -0.000352 0.000000 -0.003483 0.000000
# 3 -0.004161 -0.000352 0.007744 0.000000 -0.003067 0.000000
# 4 0.000000 0.000000 0.000000 3.723835 0.000000 1.342823
# 5 -0.008713 -0.003483 -0.003067 0.000000 0.038675 0.000000
# 6 0.000000 0.000000 0.000000 1.342823 0.000000 0.491466
#
#
# Mechanical properties :
#
#
# Convention : Reuss Voigt Hill
#
# Bulk Modulus (GPa) = 28.65434 58.92945 43.79189
# Shear Modulus (GPa) = 1.15855 56.37949 28.76902
#
# Velocity S-wave (km/s) = 0.74300 5.18315 3.70251
# Velocity P-wave (km/s) = 3.79341 7.99376 6.25661
#
# Compressibility (1/GPa) = 0.03489873
#
# Stress axis : x y z
#
# Youngs Moduli (GPa) = 75.19401 46.57359 129.13691
#
# Poissons Ratio (x) = -0.03284 0.53730
# Poissons Ratio (y) = -0.05302 0.04546
# Poissons Ratio (z) = 0.31286 0.01639
#
# Static dielectric constant tensor:
#      x y z
#    x 1.671090 0.000000 -0.043660 
#    y 0.000000 1.812350 0.000000 
#    z -0.043660 0.000000 1.656180 
# 
# From -- ./inp_files/66582.got.cif
#   From: 2010.05.17/outbox.cif.g08.bks.cpg/sg10_34_cif.got.tgz:66582.got - 2010.06.03 11:33:40.
