data_PCOD9145481
_publ_section_title
;
Structure prediction by ZEFSAII (Michael W. Deem and Ramdas Pophale) SiO2 
 PCOD9145481
Probable space group: P 2/M
;
_chemical_formula_sum "Si O2"
_cell_formula_units_Z 32
_cell_length_a 12.113807
_cell_length_b 7.267594
_cell_length_c 23.162870
_cell_angle_alpha 90.000000
_cell_angle_beta 36.521238
_cell_angle_gamma 90.000000
_cell_volume 1213.580932
_symmetry_space_group_name_H-M "P 2/M"
_symmetry_group_IT_number 10
_symmetry_cell_setting 'monoclinic'
loop_
_space_group_symop_operation_xyz
x,y,z
-x,y,-z
-x,-y,-z
x,-y,z
loop_
_atom_site_type_symbol
_atom_site_label
_atom_site_fract_x
_atom_site_fract_y
_atom_site_fract_z
Si Si1 0.551985 0.723631 0.913385
Si Si2 0.025756 0.786368 0.423965
Si Si3 0.052401 0.723048 0.852192
Si Si4 0.432175 0.279031 0.275775
Si Si5 0.260782 0.724068 0.937228
Si Si6 0.948733 0.276124 0.770667
Si Si7 0.252280 0.291820 0.560940
Si Si8 0.463574 0.275194 0.645646
O O1 0.549809 0.500000 0.913279
O O2 0.404538 0.777424 0.927519
O O3 0.763890 0.783069 0.815612
O O4 0.500000 0.779256 0.000000
O O5 0.246436 0.772422 0.320163
O O6 0.000000 0.710637 0.500000
O O7 0.898137 0.700112 0.428329
O O8 0.974777 0.000000 0.446238
O O9 0.063224 0.500000 0.852203
O O10 0.257744 0.784181 0.749018
O O11 0.936389 0.768331 0.843334
O O12 0.941213 0.785208 0.955644
O O13 0.439096 0.500000 0.272165
O O14 0.627717 0.216247 0.166407
O O15 0.417182 0.220773 0.348432
O O16 0.249599 0.500000 0.938673
O O17 0.954974 0.500000 0.765341
O O18 0.136496 0.207933 0.662006
O O19 0.297965 0.500000 0.559592
O O20 0.436334 0.211026 0.454523
O O21 0.461956 0.500000 0.643029
#
# Coordination Sequence:
#
# PCOD9145481 Si02
#       8
#     4   4   4   4   4   4   4   4
#     4   9  13  20  34  55  86 123 157 193 237 283
#     4  11  22  35  53  76  99 128 163 201 245 297
#     4   9  16  27  41  67 104 135 166 207 244 280
#     4  10  19  32  50  74 102 132 161 198 251 300
#     4   9  16  25  42  67  99 134 164 198 244 293
#     4   9  16  25  42  67  99 134 164 198 244 293
#     4  10  19  32  50  74 102 132 161 198 251 300
#     4   9  18  29  43  65  99 135 166 203 248 290
#
# _framework density 26.368244000000001
#
# number of rings (size 3 to 8) (size 9 to 14) (size 15 to 20)
#    0.000    2.500    2.500    1.125    0.000    3.500 
#    0.000    5.000    0.000    0.000    0.000    7.000 
#    0.000    0.000    0.000    0.000    0.000    0.000 
#
# Total GULP energy -178938.711758 kJ/mol
# GULP energy per Si atom -5591.834742 kJ/mol
# Density = 2.630823 g / cm^3
# Si number density = 26.368244 Si / 1000 Ang^3
#
#
#
# Elastic Constant Matrix: (Units=GPa)
#
#
# Indices 1 2 3 4 5 6 
#
# 1 44.1708 -6.2249 14.9329 0.0000 -4.3792 0.0000
# 2 -6.2249 120.9589 1.4718 0.0000 2.5840 0.0000
# 3 14.9329 1.4718 221.9064 0.0000 -2.6412 0.0000
# 4 0.0000 0.0000 0.0000 -3.7055 0.0000 156.3971
# 5 -4.3792 2.5840 -2.6412 0.0000 51.5357 0.0000
# 6 0.0000 0.0000 0.0000 156.3971 0.0000 -564.1387
#
#
#
# Elastic Compliance Matrix: (Units=1/GPa)
#
#
# Indices 1 2 3 4 5 6 
#
# 1 0.023522 0.001190 -0.001569 0.000000 0.001859 0.000000
# 2 0.001190 0.008337 -0.000139 0.000000 -0.000324 0.000000
# 3 -0.001569 -0.000139 0.004614 0.000000 0.000110 0.000000
# 4 0.000000 0.000000 0.000000 0.025219 0.000000 0.006991
# 5 0.001859 -0.000324 0.000110 0.000000 0.019584 0.000000
# 6 0.000000 0.000000 0.000000 0.006991 0.000000 0.000166
#
#
# Mechanical properties :
#
#
# Convention : Reuss Voigt Hill
#
# Bulk Modulus (GPa) = 28.21908 45.26620 36.74264
# Shear Modulus (GPa) = 53.02807 -78.13793 -12.55493
#
# Velocity S-wave (km/s) = 4.48935 -5.44956 -2.18443
# Velocity P-wave (km/s) = 6.13168 4.73209 2.75724
#
# Compressibility (1/GPa) = 0.03543702
#
# Stress axis : x y z
#
# Youngs Moduli (GPa) = 42.51402 119.94548 216.72235
#
# Poissons Ratio (x) = -0.14272 0.33996
# Poissons Ratio (y) = -0.05059 0.03017
# Poissons Ratio (z) = 0.06669 0.01670
#
# Static dielectric constant tensor:
#      x y z
#    x 2.030740 0.000000 -0.020250 
#    y 0.000000 2.035630 0.000000 
#    z -0.020250 0.000000 2.062700 
# 
# From -- ./inp_files/93128.got.cif
#   From: 2010.05.17/outbox.cif.g08.bks.cpg/sg10_47_cif.got.tgz:93128.got - 2010.06.03 11:33:40.
