data_PCOD9145272
_publ_section_title
;
Structure prediction by ZEFSAII (Michael W. Deem and Ramdas Pophale) SiO2 
 PCOD9145272
Probable space group: P 2/M
;
_chemical_formula_sum "Si O2"
_cell_formula_units_Z 32
_cell_length_a 16.531869
_cell_length_b 20.050132
_cell_length_c 15.110258
_cell_angle_alpha 90.000000
_cell_angle_beta 162.543799
_cell_angle_gamma 90.000000
_cell_volume 1502.444817
_symmetry_space_group_name_H-M "P 2/M"
_symmetry_group_IT_number 10
_symmetry_cell_setting 'monoclinic'
loop_
_space_group_symop_operation_xyz
x,y,z
-x,y,-z
-x,-y,-z
x,-y,z
loop_
_atom_site_type_symbol
_atom_site_label
_atom_site_fract_x
_atom_site_fract_y
_atom_site_fract_z
Si Si1 0.546984 0.099504 0.951581
Si Si2 0.344172 0.577122 0.244373
Si Si3 0.717231 0.786028 0.654595
Si Si4 0.830475 0.927395 0.730932
Si Si5 0.976141 0.887910 0.255746
Si Si6 0.181470 0.652603 0.342705
Si Si7 0.925878 0.264053 0.615841
Si Si8 0.367131 0.749582 0.948196
O O1 0.258728 0.102603 0.602481
O O2 0.672995 0.171652 0.109347
O O3 0.500000 0.068278 0.000000
O O4 0.752044 0.080013 0.086499
O O5 0.500000 0.580684 0.500000
O O6 0.284965 0.500000 0.162359
O O7 0.552006 0.608646 0.390578
O O8 0.067707 0.617557 0.965744
O O9 0.500000 0.766982 0.500000
O O10 0.654573 0.859633 0.551086
O O11 0.743369 0.726153 0.614001
O O12 0.000000 0.790893 0.000000
O O13 0.003305 0.917882 0.821345
O O14 0.692113 0.000000 0.581629
O O15 0.000000 0.928370 0.000000
O O16 0.949615 0.806548 0.219148
O O17 0.056977 0.670636 0.307322
O O18 0.608601 0.253313 0.270768
O O19 0.090534 0.276580 0.697961
O O20 0.500000 0.718866 0.000000
#
# Coordination Sequence:
#
# PCOD9145272 Si02
#       8
#     4   4   4   4   4   4   4   4
#     4   9  18  32  58  86 112 148 190 240 307 372
#     4  11  24  40  59  83 117 160 200 235 284 347
#     4  11  23  38  59  84 111 150 199 249 301 344
#     4  10  23  43  62  85 118 163 215 261 303 357
#     4  10  19  36  57  83 119 152 195 248 302 356
#     4  12  21  37  59  86 120 149 193 248 293 343
#     4  10  19  31  52  83 115 147 189 239 291 346
#     4   9  17  30  49  78 117 152 181 227 292 356
#
# _framework density 21.298618999999999
#
# number of rings (size 3 to 8) (size 9 to 14) (size 15 to 20)
#    0.000    1.750    1.250    4.125    0.000    6.250 
#    0.000    3.125    0.000    2.250    0.000    0.000 
#    0.000   35.000    0.000    0.000    0.000    0.000 
#
# Total GULP energy -178537.956877 kJ/mol
# GULP energy per Si atom -5579.311152 kJ/mol
# Density = 2.125014 g / cm^3
# Si number density = 21.298619 Si / 1000 Ang^3
#
#
#
# Elastic Constant Matrix: (Units=GPa)
#
#
# Indices 1 2 3 4 5 6 
#
# 1 137.9949 25.0342 25.0081 0.0000 15.5429 0.0000
# 2 25.0342 96.1039 15.6677 0.0000 0.1242 0.0000
# 3 25.0081 15.6677 88.5249 0.0000 22.2210 0.0000
# 4 0.0000 0.0000 0.0000 -775.8944 0.0000 -442.7631
# 5 15.5429 0.1242 22.2210 0.0000 28.7936 0.0000
# 6 0.0000 0.0000 0.0000 -442.7631 0.0000 -226.9340
#
#
#
# Elastic Compliance Matrix: (Units=1/GPa)
#
#
# Indices 1 2 3 4 5 6 
#
# 1 0.008200 -0.001957 -0.001068 0.000000 -0.003594 0.000000
# 2 -0.001957 0.011254 -0.002098 0.000000 0.002627 0.000000
# 3 -0.001068 -0.002098 0.014663 0.000000 -0.010730 0.000000
# 4 0.000000 0.000000 0.000000 0.011368 0.000000 -0.022180
# 5 -0.003594 0.002627 -0.010730 0.000000 0.044939 0.000000
# 6 0.000000 0.000000 0.000000 -0.022180 0.000000 0.038868
#
#
# Mechanical properties :
#
#
# Convention : Reuss Voigt Hill
#
# Bulk Modulus (GPa) = 41.89452 50.44931 46.17191
# Shear Modulus (GPa) = 33.89921 -177.67938 -71.89009
#
# Velocity S-wave (km/s) = 3.99383 -9.14353 -5.81607
# Velocity P-wave (km/s) = 6.40159 9.36664 4.83496
#
# Compressibility (1/GPa) = 0.02386947
#
# Stress axis : x y z
#
# Youngs Moduli (GPa) = 121.95049 88.85754 68.19984
#
# Poissons Ratio (x) = 0.17392 0.07284
# Poissons Ratio (y) = 0.23869 0.14311
# Poissons Ratio (z) = 0.13024 0.18646
#
# Static dielectric constant tensor:
#      x y z
#    x 1.892090 0.000000 -0.019910 
#    y 0.000000 1.802070 0.000000 
#    z -0.019910 0.000000 1.759680 
# 
# From -- ./inp_files/67970.got.cif
#   From: 2010.05.17/outbox.cif.g08.bks.cpg/sg10_34_cif.got.tgz:67970.got - 2010.06.03 11:33:40.
