data_PCOD9145456
_publ_section_title
;
Structure prediction by ZEFSAII (Michael W. Deem and Ramdas Pophale) SiO2 
 PCOD9145456
Probable space group: P 2/M
;
_chemical_formula_sum "Si O2"
_cell_formula_units_Z 32
_cell_length_a 12.677759
_cell_length_b 8.950926
_cell_length_c 24.340807
_cell_angle_alpha 90.000000
_cell_angle_beta 133.941864
_cell_angle_gamma 90.000000
_cell_volume 1988.861922
_symmetry_space_group_name_H-M "P 2/M"
_symmetry_group_IT_number 10
_symmetry_cell_setting 'monoclinic'
loop_
_space_group_symop_operation_xyz
x,y,z
-x,y,-z
-x,-y,-z
x,-y,z
loop_
_atom_site_type_symbol
_atom_site_label
_atom_site_fract_x
_atom_site_fract_y
_atom_site_fract_z
Si Si1 0.863678 0.328208 0.993651
Si Si2 0.539797 0.678093 0.409023
Si Si3 0.904744 0.320207 0.837123
Si Si4 0.950861 0.320713 0.420059
Si Si5 0.387107 0.322301 0.692471
Si Si6 0.674064 0.176837 0.838710
Si Si7 0.192061 0.822107 0.430243
Si Si8 0.222572 0.821822 0.313921
O O1 0.813238 0.500000 0.979725
O O2 0.940844 0.280295 0.078138
O O3 0.740325 0.228332 0.921069
O O4 0.000000 0.327427 0.000000
O O5 0.525121 0.500000 0.411048
O O6 0.589653 0.705509 0.364172
O O7 0.663471 0.742317 0.493790
O O8 0.385185 0.756877 0.363448
O O9 0.892834 0.500000 0.833171
O O10 0.775119 0.255005 0.828640
O O11 0.881195 0.255152 0.768419
O O12 0.969322 0.500000 0.420403
O O13 0.779398 0.284728 0.352294
O O14 0.000000 0.283932 0.500000
O O15 0.054484 0.237874 0.414759
O O16 0.408920 0.500000 0.708880
O O17 0.509870 0.232955 0.769705
O O18 0.685136 0.000000 0.836574
O O19 0.177541 0.791057 0.360283
O O20 0.207803 0.000000 0.443128
O O21 0.224463 0.000000 0.305954
#
# Coordination Sequence:
#
# PCOD9145456 Si02
#       8
#     4   4   4   4   4   4   4   4
#     4   8  16  30  47  68  99 135 169 205 247 298
#     4  11  21  35  55  75 100 137 177 212 252 302
#     4  10  19  32  50  72 100 137 174 208 249 300
#     4  10  20  38  58  75  96 128 175 220 257 301
#     4  10  20  34  53  75 102 134 171 216 258 298
#     4  11  20  29  47  75 106 136 168 206 252 308
#     4  11  24  38  52  74 105 136 170 215 262 305
#     4  11  23  36  50  74 107 139 171 211 256 304
#
# _framework density 16.089604000000001
#
# number of rings (size 3 to 8) (size 9 to 14) (size 15 to 20)
#    0.000    1.750    2.500    3.750    0.000    7.500 
#    0.000    0.000    0.000    0.000    0.000    0.875 
#    0.000    7.000    0.000    0.000    0.000    0.000 
#
# Total GULP energy -178644.688245 kJ/mol
# GULP energy per Si atom -5582.646508 kJ/mol
# Density = 1.605298 g / cm^3
# Si number density = 16.089604 Si / 1000 Ang^3
#
#
#
# Elastic Constant Matrix: (Units=GPa)
#
#
# Indices 1 2 3 4 5 6 
#
# 1 49.2012 34.4850 44.7487 0.0000 -12.7300 0.0000
# 2 34.4850 68.9891 73.0506 0.0000 -3.7931 0.0000
# 3 44.7487 73.0506 154.3370 0.0000 -2.8091 0.0000
# 4 0.0000 0.0000 0.0000 26.6728 0.0000 -3.2537
# 5 -12.7300 -3.7931 -2.8091 0.0000 14.7460 0.0000
# 6 0.0000 0.0000 0.0000 -3.2537 0.0000 20.9233
#
#
#
# Elastic Compliance Matrix: (Units=1/GPa)
#
#
# Indices 1 2 3 4 5 6 
#
# 1 0.043851 -0.014583 -0.005209 0.000000 0.033112 0.000000
# 2 -0.014583 0.034262 -0.012099 0.000000 -0.006081 0.000000
# 3 -0.005209 -0.012099 0.013625 0.000000 -0.005014 0.000000
# 4 0.000000 0.000000 0.000000 0.038216 0.000000 0.005943
# 5 0.033112 -0.006081 -0.005014 0.000000 0.093881 0.000000
# 6 0.000000 0.000000 0.000000 0.005943 0.000000 0.048718
#
#
# Mechanical properties :
#
#
# Convention : Reuss Voigt Hill
#
# Bulk Modulus (GPa) = 35.77168 64.12179 49.94673
# Shear Modulus (GPa) = 14.46536 20.48463 17.47500
#
# Velocity S-wave (km/s) = 3.00167 3.57201 3.29919
# Velocity P-wave (km/s) = 5.85614 7.54664 6.75449
#
# Compressibility (1/GPa) = 0.02795508
#
# Stress axis : x y z
#
# Youngs Moduli (GPa) = 22.80457 29.18718 73.39379
#
# Poissons Ratio (x) = 0.42564 0.38231
# Poissons Ratio (y) = 0.33256 0.88800
# Poissons Ratio (z) = 0.11879 0.35314
#
# Static dielectric constant tensor:
#      x y z
#    x 1.506930 0.000000 -0.005000 
#    y 0.000000 1.536780 0.000000 
#    z -0.005000 0.000000 1.553430 
# 
# From -- ./inp_files/83648.got.cif
#   From: 2010.05.17/outbox.cif.g08.bks.cpg/sg10_42_cif.got.tgz:83648.got - 2010.06.03 11:33:40.
