data_PCOD9145386
_publ_section_title
;
Structure prediction by ZEFSAII (Michael W. Deem and Ramdas Pophale) SiO2 
 PCOD9145386
Probable space group: P 2/M
;
_chemical_formula_sum "Si O2"
_cell_formula_units_Z 32
_cell_length_a 15.962302
_cell_length_b 8.824158
_cell_length_c 14.710940
_cell_angle_alpha 90.000000
_cell_angle_beta 88.546613
_cell_angle_gamma 90.000000
_cell_volume 2071.426290
_symmetry_space_group_name_H-M "P 2/M"
_symmetry_group_IT_number 10
_symmetry_cell_setting 'monoclinic'
loop_
_space_group_symop_operation_xyz
x,y,z
-x,y,-z
-x,-y,-z
x,-y,z
loop_
_atom_site_type_symbol
_atom_site_label
_atom_site_fract_x
_atom_site_fract_y
_atom_site_fract_z
Si Si1 0.402068 0.183815 0.903276
Si Si2 0.007327 0.674503 0.389758
Si Si3 0.401545 0.183176 0.107537
Si Si4 0.668699 0.815291 0.283012
Si Si5 0.817475 0.819110 0.601456
Si Si6 0.499432 0.817453 0.393077
Si Si7 0.340994 0.680291 0.292168
Si Si8 0.831737 0.182694 0.387811
O O1 0.499734 0.222862 0.884223
O O2 0.346968 0.236392 0.819902
O O3 0.399761 0.000000 0.903955
O O4 0.377475 0.231164 0.005725
O O5 0.014633 0.500000 0.361548
O O6 0.920937 0.747397 0.358270
O O7 0.000000 0.678886 0.500000
O O8 0.092009 0.764418 0.365576
O O9 0.350109 0.257802 0.189545
O O10 0.395418 0.000000 0.114190
O O11 0.587276 0.772595 0.344426
O O12 0.754610 0.765439 0.327566
O O13 0.670510 0.000000 0.282652
O O14 0.742029 0.742888 0.657335
O O15 0.813130 0.778710 0.494016
O O16 0.810843 0.000000 0.608453
O O17 0.500000 0.782386 0.500000
O O18 0.421631 0.741471 0.344922
O O19 0.490824 0.000000 0.383410
O O20 0.340710 0.500000 0.292527
O O21 0.838028 0.000000 0.383282
#
# Coordination Sequence:
#
# PCOD9145386 Si02
#       8
#     4   4   4   4   4   4   4   4
#     4   8  14  26  49  72  88 114 157 207 243 269
#     4   9  17  30  47  68  95 124 153 191 238 280
#     4   9  16  30  50  68  87 118 161 202 240 279
#     4   9  15  26  46  71  94 118 156 198 232 269
#     4  10  19  32  49  68  92 125 165 201 229 270
#     4  10  19  32  49  66  90 128 168 199 227 267
#     4  12  23  32  44  67  98 129 157 193 242 289
#     4   9  17  29  48  72  95 122 157 194 230 274
#
# _framework density 15.448293
#
# number of rings (size 3 to 8) (size 9 to 14) (size 15 to 20)
#    0.000    2.500    1.250    3.375    0.000    4.250 
#    0.000    1.875    0.000    0.000    0.000    0.875 
#    0.000    7.000    0.000    0.000    0.000    0.000 
#
# Total GULP energy -178394.641464 kJ/mol
# GULP energy per Si atom -5574.832546 kJ/mol
# Density = 1.541313 g / cm^3
# Si number density = 15.448293 Si / 1000 Ang^3
#
#
#
# Elastic Constant Matrix: (Units=GPa)
#
#
# Indices 1 2 3 4 5 6 
#
# 1 130.7043 35.0782 71.9384 0.0000 15.8918 0.0000
# 2 35.0782 33.5479 35.7733 0.0000 2.4614 0.0000
# 3 71.9384 35.7733 109.5552 0.0000 13.0738 0.0000
# 4 0.0000 0.0000 0.0000 7.4108 0.0000 -0.6703
# 5 15.8918 2.4614 13.0738 0.0000 9.6890 0.0000
# 6 0.0000 0.0000 0.0000 -0.6703 0.0000 6.9482
#
#
#
# Elastic Compliance Matrix: (Units=1/GPa)
#
#
# Indices 1 2 3 4 5 6 
#
# 1 0.014542 -0.008952 -0.004829 0.000000 -0.015063 0.000000
# 2 -0.008952 0.052098 -0.013477 0.000000 0.019632 0.000000
# 3 -0.004829 -0.013477 0.018291 0.000000 -0.013337 0.000000
# 4 0.000000 0.000000 0.000000 0.136127 0.000000 0.013132
# 5 -0.015063 0.019632 -0.013337 0.000000 0.140924 0.000000
# 6 0.000000 0.000000 0.000000 0.013132 0.000000 0.145189
#
#
# Mechanical properties :
#
#
# Convention : Reuss Voigt Hill
#
# Bulk Modulus (GPa) = 32.87570 62.15415 47.51492
# Shear Modulus (GPa) = 8.74395 13.54409 11.14402
#
# Velocity S-wave (km/s) = 2.38169 2.96419 2.68876
# Velocity P-wave (km/s) = 5.37499 7.21361 6.36108
#
# Compressibility (1/GPa) = 0.03041761
#
# Stress axis : x y z
#
# Youngs Moduli (GPa) = 68.76479 19.19447 54.67312
#
# Poissons Ratio (x) = 0.17182 0.26399
# Poissons Ratio (y) = 0.61556 0.73680
# Poissons Ratio (z) = 0.33203 0.25867
#
# Static dielectric constant tensor:
#      x y z
#    x 1.495580 0.000000 0.010090 
#    y 0.000000 1.512570 0.000000 
#    z 0.010090 0.000000 1.515740 
# 
# From -- ./inp_files/66112.got.cif
#   From: 2010.05.17/outbox.cif.g08.bks.cpg/sg10_34_cif.got.tgz:66112.got - 2010.06.03 11:33:40.
