data_PCOD9145212
_publ_section_title
;
Structure prediction by ZEFSAII (Michael W. Deem and Ramdas Pophale) SiO2 
 PCOD9145212
Probable space group: P 2/M
;
_chemical_formula_sum "Si O2"
_cell_formula_units_Z 32
_cell_length_a 8.915783
_cell_length_b 18.909993
_cell_length_c 11.782618
_cell_angle_alpha 90.000000
_cell_angle_beta 60.946638
_cell_angle_gamma 90.000000
_cell_volume 1736.550682
_symmetry_space_group_name_H-M "P 2/M"
_symmetry_group_IT_number 10
_symmetry_cell_setting 'monoclinic'
loop_
_space_group_symop_operation_xyz
x,y,z
-x,y,-z
-x,-y,-z
x,-y,z
loop_
_atom_site_type_symbol
_atom_site_label
_atom_site_fract_x
_atom_site_fract_y
_atom_site_fract_z
Si Si1 0.890987 0.081318 0.656072
Si Si2 0.894345 0.802599 0.311228
Si Si3 0.433121 0.182030 0.207131
Si Si4 0.369650 0.723068 0.444097
Si Si5 0.302076 0.575903 0.110609
Si Si6 0.793808 0.420227 0.587713
Si Si7 0.187717 0.168015 0.912360
Si Si8 0.210723 0.269378 0.112824
O O1 0.713944 0.124451 0.713228
O O2 0.000000 0.083128 0.500000
O O3 0.009058 0.124087 0.700396
O O4 0.861623 0.000000 0.698190
O O5 0.770260 0.778220 0.455941
O O6 0.808268 0.810026 0.220409
O O7 0.042262 0.743842 0.249669
O O8 0.444339 0.239253 0.304749
O O9 0.617959 0.142855 0.129102
O O10 0.360335 0.228616 0.127995
O O11 0.500000 0.714124 0.500000
O O12 0.290651 0.646992 0.442170
O O13 0.224803 0.500000 0.103669
O O14 0.268808 0.582137 0.258047
O O15 0.235140 0.648477 0.084879
O O16 0.500000 0.573960 0.000000
O O17 0.748888 0.500000 0.561931
O O18 0.000000 0.413789 0.500000
O O19 0.177455 0.232100 0.005466
O O20 0.000000 0.130126 0.000000
#
# Coordination Sequence:
#
# PCOD9145212 Si02
#       8
#     4   4   4   4   4   4   4   4
#     4  10  21  37  61  91 121 150 187 240 298 357
#     4  10  21  37  57  87 120 148 185 243 294 356
#     4  11  20  35  60  87 113 148 195 244 287 351
#     4  12  22  33  57  87 121 153 192 244 305 352
#     4  10  19  31  51  81 112 143 191 247 293 337
#     4  10  22  38  56  81 118 161 205 249 303 362
#     4  10  21  37  57  84 116 151 192 238 291 343
#     4  10  20  34  61  82 110 149 202 242 287 339
#
# _framework density 18.427334999999999
#
# number of rings (size 3 to 8) (size 9 to 14) (size 15 to 20)
#    0.000    1.625    3.750    1.875    1.750    0.250 
#    0.000    0.625    0.000   29.625    0.000    0.000 
#    0.000    0.000    0.000    0.000    0.000    0.000 
#
# Total GULP energy -178165.704688 kJ/mol
# GULP energy per Si atom -5567.678271 kJ/mol
# Density = 1.838539 g / cm^3
# Si number density = 18.427335 Si / 1000 Ang^3
#
#
#
# Elastic Constant Matrix: (Units=GPa)
#
#
# Indices 1 2 3 4 5 6 
#
# 1 100.1529 39.3795 23.1328 0.0000 -7.1263 0.0000
# 2 39.3795 114.4845 12.5335 0.0000 -5.9742 0.0000
# 3 23.1328 12.5335 60.8257 0.0000 -2.2778 0.0000
# 4 0.0000 0.0000 0.0000 11.7167 0.0000 -1.5349
# 5 -7.1263 -5.9742 -2.2778 0.0000 29.1531 0.0000
# 6 0.0000 0.0000 0.0000 -1.5349 0.0000 4.8981
#
#
#
# Elastic Compliance Matrix: (Units=1/GPa)
#
#
# Indices 1 2 3 4 5 6 
#
# 1 0.012511 -0.003773 -0.003907 0.000000 0.001980 0.000000
# 2 -0.003773 0.010158 -0.000617 0.000000 0.001111 0.000000
# 3 -0.003907 -0.000617 0.018066 0.000000 0.000330 0.000000
# 4 0.000000 0.000000 0.000000 0.089002 0.000000 0.027891
# 5 0.001980 0.001111 0.000330 0.000000 0.035039 0.000000
# 6 0.000000 0.000000 0.000000 0.027891 0.000000 0.212902
#
#
# Mechanical properties :
#
#
# Convention : Reuss Voigt Hill
#
# Bulk Modulus (GPa) = 41.41998 47.28384 44.35191
# Shear Modulus (GPa) = 12.42800 22.51473 17.47137
#
# Velocity S-wave (km/s) = 2.59980 3.49923 3.08250
# Velocity P-wave (km/s) = 5.61589 6.48394 6.06547
#
# Compressibility (1/GPa) = 0.02414294
#
# Stress axis : x y z
#
# Youngs Moduli (GPa) = 79.92776 98.44499 55.35371
#
# Poissons Ratio (x) = 0.37139 0.21625
# Poissons Ratio (y) = 0.30153 0.03414
# Poissons Ratio (z) = 0.31225 0.06072
#
# Static dielectric constant tensor:
#      x y z
#    x 1.660160 0.000000 -0.041500 
#    y 0.000000 1.617620 0.000000 
#    z -0.041500 0.000000 1.676510 
# 
# From -- ./inp_files/43519.got.cif
#   From: 2010.05.17/outbox.cif.g08.bks.cpg/sg10_22_cif.got.tgz:43519.got - 2010.06.03 11:33:40.
