data_PCOD9145661
_publ_section_title
;
Structure prediction by ZEFSAII (Michael W. Deem and Ramdas Pophale) SiO2 
 PCOD9145661
Probable space group: P 2/M
;
_chemical_formula_sum "Si O2"
_cell_formula_units_Z 28
_cell_length_a 10.237271
_cell_length_b 7.710270
_cell_length_c 29.422274
_cell_angle_alpha 90.000000
_cell_angle_beta 36.848478
_cell_angle_gamma 90.000000
_cell_volume 1392.722881
_symmetry_space_group_name_H-M "P 2/M"
_symmetry_group_IT_number 10
_symmetry_cell_setting 'monoclinic'
loop_
_space_group_symop_operation_xyz
x,y,z
-x,y,-z
-x,-y,-z
x,-y,z
loop_
_atom_site_type_symbol
_atom_site_label
_atom_site_fract_x
_atom_site_fract_y
_atom_site_fract_z
Si Si1 0.872460 0.207719 0.623792
Si Si2 0.503912 0.799270 0.794064
Si Si3 0.440180 0.291222 0.370567
Si Si4 0.271104 0.790396 0.044777
Si Si5 0.625673 0.295330 0.509580
Si Si6 0.800530 0.704688 0.200001
Si Si7 0.237539 0.212550 0.950631
O O1 0.701858 0.276278 0.709323
O O2 0.767003 0.248496 0.603856
O O3 0.113329 0.276802 0.565479
O O4 0.881196 0.000000 0.624386
O O5 0.295718 0.792592 0.818430
O O6 0.423468 0.724244 0.864168
O O7 0.560953 0.000000 0.786328
O O8 0.445767 0.500000 0.371811
O O9 0.433423 0.222317 0.423886
O O10 0.653235 0.232717 0.283094
O O11 0.056486 0.735157 0.131644
O O12 0.271044 0.000000 0.045037
O O13 0.500000 0.728659 0.000000
O O14 0.258521 0.731217 0.996348
O O15 0.500000 0.223847 0.500000
O O16 0.572062 0.500000 0.525851
O O17 0.760673 0.500000 0.206045
O O18 0.243693 0.000000 0.947764
O O19 0.000000 0.265945 0.000000
#
# Coordination Sequence:
#
# PCOD9145661 Si02
#       7
#     4   4   4   4   4   4   4
#     4  10  20  33  54  83 110 133 166 216 264 304
#     4   9  17  32  53  76 102 133 169 207 253 301
#     4   9  19  36  57  78 100 136 178 212 252 310
#     4  10  20  34  51  73 100 135 176 209 244 300
#     4  10  21  38  57  75 102 141 178 208 250 312
#     4  10  19  32  52  76 104 131 165 212 258 296
#     4   9  15  28  53  74  95 131 171 207 242 290
#
# _framework density 20.104502
#
# number of rings (size 3 to 8) (size 9 to 14) (size 15 to 20)
#    0.000    2.429    1.429    1.286    0.000    4.000 
#    2.571    1.429    0.000    0.000    0.000    0.000 
#    0.000    0.000    0.000    0.000    0.000    0.000 
#
# Total GULP energy -156176.222824 kJ/mol
# GULP energy per Si atom -5577.722244 kJ/mol
# Density = 2.005874 g / cm^3
# Si number density = 20.104502 Si / 1000 Ang^3
#
#
#
# Elastic Constant Matrix: (Units=GPa)
#
#
# Indices 1 2 3 4 5 6 
#
# 1 147.6672 -0.1962 80.7504 0.0000 1.7476 0.0000
# 2 -0.1962 35.3428 -4.2704 0.0000 7.6510 0.0000
# 3 80.7504 -4.2704 129.7519 0.0000 2.6711 0.0000
# 4 0.0000 0.0000 0.0000 15.8721 0.0000 -1.5125
# 5 1.7476 7.6510 2.6711 0.0000 26.1184 0.0000
# 6 0.0000 0.0000 0.0000 -1.5125 0.0000 -9.8464
#
#
#
# Elastic Compliance Matrix: (Units=1/GPa)
#
#
# Indices 1 2 3 4 5 6 
#
# 1 0.010285 -0.000761 -0.006430 0.000000 0.000192 0.000000
# 2 -0.000761 0.030447 0.001662 0.000000 -0.009038 0.000000
# 3 -0.006430 0.001662 0.011789 0.000000 -0.001262 0.000000
# 4 0.000000 0.000000 0.000000 0.062095 0.000000 -0.009538
# 5 0.000192 -0.009038 -0.001262 0.000000 0.041051 0.000000
# 6 0.000000 0.000000 0.000000 -0.009538 0.000000 -0.100094
#
#
# Mechanical properties :
#
#
# Convention : Reuss Voigt Hill
#
# Bulk Modulus (GPa) = 24.11779 51.70329 37.91054
# Shear Modulus (GPa) = 62.14898 22.19402 42.17150
#
# Velocity S-wave (km/s) = 5.56598 3.32615 4.58494
# Velocity P-wave (km/s) = 7.30267 6.36586 6.85030
#
# Compressibility (1/GPa) = 0.04146317
#
# Stress axis : x y z
#
# Youngs Moduli (GPa) = 97.23196 32.84348 84.82370
#
# Poissons Ratio (x) = 0.02501 0.54539
# Poissons Ratio (y) = 0.07404 -0.14098
# Poissons Ratio (z) = 0.62517 -0.05459
#
# Static dielectric constant tensor:
#      x y z
#    x 1.691000 0.000000 0.019000 
#    y 0.000000 1.749110 0.000000 
#    z 0.019000 0.000000 1.739130 
# 
# From -- ./inp_files/91937.got.cif
#   From: 2010.05.17/outbox.cif.g08.bks.cpg/sg10_46_cif.got.tgz:91937.got - 2010.06.03 11:33:40.
