data_PCOD9145444
_publ_section_title
;
Structure prediction by ZEFSAII (Michael W. Deem and Ramdas Pophale) SiO2 
 PCOD9145444
Probable space group: P 2/M
;
_chemical_formula_sum "Si O2"
_cell_formula_units_Z 32
_cell_length_a 26.773441
_cell_length_b 8.810038
_cell_length_c 13.765727
_cell_angle_alpha 90.000000
_cell_angle_beta 149.250111
_cell_angle_gamma 90.000000
_cell_volume 1660.158799
_symmetry_space_group_name_H-M "P 2/M"
_symmetry_group_IT_number 10
_symmetry_cell_setting 'monoclinic'
loop_
_space_group_symop_operation_xyz
x,y,z
-x,y,-z
-x,-y,-z
x,-y,z
loop_
_atom_site_type_symbol
_atom_site_label
_atom_site_fract_x
_atom_site_fract_y
_atom_site_fract_z
Si Si1 0.096927 0.676658 0.766312
Si Si2 0.589612 0.821789 0.436125
Si Si3 0.270047 0.826526 0.141807
Si Si4 0.057516 0.672152 0.993025
Si Si5 0.872089 0.182465 0.591639
Si Si6 0.113721 0.820275 0.596695
Si Si7 0.428343 0.671728 0.285964
Si Si8 0.763456 0.183079 0.604315
O O1 0.070526 0.500000 0.724441
O O2 0.142824 0.721914 0.738356
O O3 0.000752 0.780245 0.610729
O O4 0.176629 0.718684 0.979812
O O5 0.664675 0.811205 0.652782
O O6 0.494041 0.729827 0.306928
O O7 0.655223 0.767862 0.455350
O O8 0.564840 0.000000 0.383535
O O9 0.341917 0.782595 0.173464
O O10 0.236950 0.000000 0.078454
O O11 0.077539 0.500000 0.996216
O O12 0.979180 0.749452 0.791645
O O13 0.156483 0.759575 0.184284
O O14 0.000000 0.668599 0.000000
O O15 0.838100 0.220313 0.426060
O O16 0.800758 0.231323 0.560082
O O17 0.880931 0.000000 0.611404
O O18 0.125362 0.000000 0.635067
O O19 0.500000 0.669622 0.500000
O O20 0.392634 0.500000 0.211879
O O21 0.764120 0.000000 0.608738
#
# Coordination Sequence:
#
# PCOD9145444 Si02
#       8
#     4   4   4   4   4   4   4   4
#     4  11  22  35  50  71  95 121 156 201 246 286
#     4   9  18  30  47  70  98 129 159 191 228 274
#     4  10  19  32  50  71  96 127 161 193 230 281
#     4   9  17  27  39  59  88 120 155 193 230 269
#     4   9  18  31  48  65  88 123 160 196 234 275
#     4  10  20  35  52  69  92 124 161 201 242 282
#     4   9  17  30  47  69  97 126 156 192 234 278
#     4   9  17  30  45  66  93 124 161 194 226 274
#
# _framework density 19.275264
#
# number of rings (size 3 to 8) (size 9 to 14) (size 15 to 20)
#    0.000    2.500    0.000    3.375    1.750    5.000 
#    0.000    0.000    0.000    0.000    0.000    0.875 
#    0.000    7.000    0.000    0.000    0.000    0.000 
#
# Total GULP energy -178493.167635 kJ/mol
# GULP energy per Si atom -5577.911489 kJ/mol
# Density = 1.923139 g / cm^3
# Si number density = 19.275264 Si / 1000 Ang^3
#
#
#
# Elastic Constant Matrix: (Units=GPa)
#
#
# Indices 1 2 3 4 5 6 
#
# 1 95.2009 8.0453 -4.3295 0.0000 3.5634 0.0000
# 2 8.0453 30.1358 -4.0950 0.0000 -0.7973 0.0000
# 3 -4.3295 -4.0950 9.5933 0.0000 0.0813 0.0000
# 4 0.0000 0.0000 0.0000 13.0144 0.0000 -2.3932
# 5 3.5634 -0.7973 0.0813 0.0000 25.4369 0.0000
# 6 0.0000 0.0000 0.0000 -2.3932 0.0000 13.1615
#
#
#
# Elastic Compliance Matrix: (Units=1/GPa)
#
#
# Indices 1 2 3 4 5 6 
#
# 1 0.010949 -0.002434 0.003916 0.000000 -0.001623 0.000000
# 2 -0.002434 0.035796 0.014170 0.000000 0.001418 0.000000
# 3 0.003916 0.014170 0.112059 0.000000 -0.000463 0.000000
# 4 0.000000 0.000000 0.000000 0.079496 0.000000 0.014455
# 5 -0.001623 0.001418 -0.000463 0.000000 0.039586 0.000000
# 6 0.000000 0.000000 0.000000 0.014455 0.000000 0.078607
#
#
# Mechanical properties :
#
#
# Convention : Reuss Voigt Hill
#
# Bulk Modulus (GPa) = 5.26019 14.90796 10.08408
# Shear Modulus (GPa) = 12.86806 19.34316 16.10561
#
# Velocity S-wave (km/s) = 2.58659 3.17128 2.89374
# Velocity P-wave (km/s) = 3.41401 4.60004 4.05067
#
# Compressibility (1/GPa) = 0.19010721
#
# Stress axis : x y z
#
# Youngs Moduli (GPa) = 91.33589 27.93627 8.92385
#
# Poissons Ratio (x) = 0.06799 -0.03495
# Poissons Ratio (y) = 0.22229 -0.12645
# Poissons Ratio (z) = -0.35767 -0.39584
#
# Static dielectric constant tensor:
#      x y z
#    x 1.755220 0.000000 -0.006780 
#    y 0.000000 1.652370 0.000000 
#    z -0.006780 0.000000 1.652150 
# 
# From -- ./inp_files/72243.got.cif
#   From: 2010.05.17/outbox.cif.g08.bks.cpg/sg10_37_cif.got.tgz:72243.got - 2010.06.03 11:33:40.
