data_PCOD9145853
_publ_section_title
;
Structure prediction by ZEFSAII (Michael W. Deem and Ramdas Pophale) SiO2 
 PCOD9145853
Probable space group: P 2/M
;
_chemical_formula_sum "Si O2"
_cell_formula_units_Z 32
_cell_length_a 22.006954
_cell_length_b 8.582927
_cell_length_c 16.163579
_cell_angle_alpha 90.000000
_cell_angle_beta 32.414138
_cell_angle_gamma 90.000000
_cell_volume 1636.538135
_symmetry_space_group_name_H-M "P 2/M"
_symmetry_group_IT_number 10
_symmetry_cell_setting 'monoclinic'
loop_
_space_group_symop_operation_xyz
x,y,z
-x,y,-z
-x,-y,-z
x,-y,z
loop_
_atom_site_type_symbol
_atom_site_label
_atom_site_fract_x
_atom_site_fract_y
_atom_site_fract_z
Si Si1 0.585457 0.685513 0.108106
Si Si2 0.675630 0.821597 0.839039
Si Si3 0.889967 0.685652 0.375289
Si Si4 0.940956 0.820888 0.487835
Si Si5 0.903809 0.309438 0.175027
Si Si6 0.410712 0.689375 0.716294
Si Si7 0.664481 0.689873 0.374913
Si Si8 0.358050 0.813348 0.302029
O O1 0.573095 0.500000 0.124280
O O2 0.631900 0.737488 0.144229
O O3 0.462054 0.760206 0.237562
O O4 0.655520 0.731702 0.946609
O O5 0.807721 0.822040 0.662598
O O6 0.618084 0.762517 0.820567
O O7 0.637857 0.000000 0.896780
O O8 0.893640 0.500000 0.372585
O O9 0.954374 0.745858 0.382577
O O10 0.929859 0.740063 0.239049
O O11 0.759586 0.739644 0.534025
O O12 0.000000 0.746260 0.500000
O O13 0.980594 0.000000 0.435988
O O14 0.902641 0.500000 0.176000
O O15 0.778112 0.257843 0.290674
O O16 0.000000 0.259555 0.000000
O O17 0.409139 0.500000 0.715530
O O18 0.543087 0.735852 0.553248
O O19 0.342212 0.740087 0.713700
O O20 0.666342 0.500000 0.374507
O O21 0.345916 0.000000 0.314950
#
# Coordination Sequence:
#
# PCOD9145853 Si02
#       8
#     4   4   4   4   4   4   4   4
#     4  11  20  29  45  76 108 129 160 208 262 305
#     4   9  19  34  49  68  96 131 171 207 246 306
#     4  10  19  32  53  82 107 129 169 222 267 304
#     4   9  19  38  59  74  96 139 185 215 250 313
#     4   9  17  29  46  73 107 139 166 205 266 324
#     4   8  15  26  42  67  93 127 167 202 244 297
#     4   8  13  26  45  61  91 133 169 199 236 302
#     4  10  20  34  52  71  97 138 178 207 245 309
#
# _framework density 19.553470000000001
#
# number of rings (size 3 to 8) (size 9 to 14) (size 15 to 20)
#    0.000    2.750    0.000    3.750    0.000    6.250 
#    2.250    0.000    0.000    1.500    0.000   18.375 
#    0.000    0.000    0.000    0.000    0.000    0.000 
#
# Total GULP energy -178371.628877 kJ/mol
# GULP energy per Si atom -5574.113402 kJ/mol
# Density = 1.950897 g / cm^3
# Si number density = 19.553470 Si / 1000 Ang^3
#
#
#
# Elastic Constant Matrix: (Units=GPa)
#
#
# Indices 1 2 3 4 5 6 
#
# 1 128.6807 23.0707 44.7617 0.0000 41.0206 0.0000
# 2 23.0707 19.5387 12.8842 0.0000 13.3380 0.0000
# 3 44.7617 12.8842 65.1408 0.0000 37.5909 0.0000
# 4 0.0000 0.0000 0.0000 -162.9864 0.0000 -111.6267
# 5 41.0206 13.3380 37.5909 0.0000 39.1831 0.0000
# 6 0.0000 0.0000 0.0000 -111.6267 0.0000 -54.2418
#
#
#
# Elastic Compliance Matrix: (Units=1/GPa)
#
#
# Indices 1 2 3 4 5 6 
#
# 1 0.012623 -0.007651 -0.002325 0.000000 -0.008380 0.000000
# 2 -0.007651 0.071312 0.001207 0.000000 -0.017423 0.000000
# 3 -0.002325 0.001207 0.034820 0.000000 -0.031382 0.000000
# 4 0.000000 0.000000 0.000000 0.014985 0.000000 -0.030837
# 5 -0.008380 -0.017423 -0.031382 0.000000 0.070332 0.000000
# 6 0.000000 0.000000 0.000000 -0.030837 0.000000 0.045026
#
#
# Mechanical properties :
#
#
# Convention : Reuss Voigt Hill
#
# Bulk Modulus (GPa) = 9.87975 41.64373 25.76174
# Shear Modulus (GPa) = 16.64590 -26.76611 -5.06010
#
# Velocity S-wave (km/s) = 2.92087 -3.70383 -1.61042
# Velocity P-wave (km/s) = 4.05450 1.74711 3.12181
#
# Compressibility (1/GPa) = 0.10121711
#
# Stress axis : x y z
#
# Youngs Moduli (GPa) = 79.22059 14.02281 28.71947
#
# Poissons Ratio (x) = 0.10729 0.06676
# Poissons Ratio (y) = 0.60612 -0.03466
# Poissons Ratio (z) = 0.18415 -0.01692
#
# Static dielectric constant tensor:
#      x y z
#    x 1.724350 0.000000 0.024580 
#    y 0.000000 1.680210 0.000000 
#    z 0.024580 0.000000 1.689720 
# 
# From -- ./inp_files/69955.got.cif
#   From: 2010.05.17/outbox.cif.g08.bks.cpg/sg10_35_cif.got.tgz:69955.got - 2010.06.03 11:33:40.
