data_PCOD9145328
_publ_section_title
;
Structure prediction by ZEFSAII (Michael W. Deem and Ramdas Pophale) SiO2 
 PCOD9145328
Probable space group: P 2/M
;
_chemical_formula_sum "Si O2"
_cell_formula_units_Z 28
_cell_length_a 18.962762
_cell_length_b 13.924966
_cell_length_c 9.349890
_cell_angle_alpha 90.000000
_cell_angle_beta 27.974713
_cell_angle_gamma 90.000000
_cell_volume 1158.112783
_symmetry_space_group_name_H-M "P 2/M"
_symmetry_group_IT_number 10
_symmetry_cell_setting 'monoclinic'
loop_
_space_group_symop_operation_xyz
x,y,z
-x,y,-z
-x,-y,-z
x,-y,z
loop_
_atom_site_type_symbol
_atom_site_label
_atom_site_fract_x
_atom_site_fract_y
_atom_site_fract_z
Si Si1 0.816129 0.392721 0.975542
Si Si2 0.233622 0.394470 0.271558
Si Si3 0.747313 0.106180 0.326718
Si Si4 0.752641 0.242353 0.550099
Si Si5 0.586677 0.609566 0.640041
Si Si6 0.607821 0.116140 0.055113
Si Si7 0.148841 0.824424 0.146427
O O1 0.880873 0.500000 0.902323
O O2 0.810796 0.399105 0.813431
O O3 0.869358 0.282513 0.886538
O O4 0.665842 0.386752 0.342691
O O5 0.214272 0.500000 0.369757
O O6 0.159589 0.312257 0.499433
O O7 0.410543 0.371148 0.946684
O O8 0.823968 0.177587 0.300414
O O9 0.571611 0.133966 0.612574
O O10 0.745124 0.000000 0.392640
O O11 0.826848 0.108958 0.032770
O O12 0.657585 0.318097 0.625868
O O13 0.663015 0.167439 0.810931
O O14 0.605540 0.500000 0.656707
O O15 0.629827 0.000000 0.015227
O O16 0.707445 0.162161 0.004919
O O17 0.000000 0.848591 0.500000
#
# Coordination Sequence:
#
# PCOD9145328 Si02
#       7
#     4   4   4   4   4   4   4
#     4  10  21  38  61  87 121 167 215 257 306 370
#     4  10  19  31  54  92 131 165 205 257 315 373
#     4  11  24  42  66  96 128 165 211 263 318 374
#     4  12  21  34  61  95 134 169 202 254 317 382
#     4  10  19  31  54  92 131 165 205 257 315 373
#     4  11  24  42  66  96 128 165 211 263 318 374
#     4  12  26  45  69  93 122 165 215 264 317 374
#
# _framework density 24.177264999999998
#
# number of rings (size 3 to 8) (size 9 to 14) (size 15 to 20)
#    0.000    1.143    2.857    4.714    0.000    7.714 
#    0.000    0.714    0.000    1.714    0.000    4.000 
#    0.000    0.000    0.000    0.000    0.000    0.000 
#
# Total GULP energy -156427.479641 kJ/mol
# GULP energy per Si atom -5586.695701 kJ/mol
# Density = 2.412224 g / cm^3
# Si number density = 24.177265 Si / 1000 Ang^3
#
#
#
# Elastic Constant Matrix: (Units=GPa)
#
#
# Indices 1 2 3 4 5 6 
#
# 1 71.4085 62.2179 50.8614 0.0000 2.3913 0.0000
# 2 62.2179 141.3003 43.5455 0.0000 1.9052 0.0000
# 3 50.8614 43.5455 90.9329 0.0000 18.2373 0.0000
# 4 0.0000 0.0000 0.0000 7.3391 0.0000 38.3963
# 5 2.3913 1.9052 18.2373 0.0000 35.7455 0.0000
# 6 0.0000 0.0000 0.0000 38.3963 0.0000 5.5537
#
#
#
# Elastic Compliance Matrix: (Units=1/GPa)
#
#
# Indices 1 2 3 4 5 6 
#
# 1 0.033281 -0.010125 -0.014959 0.000000 0.005945 0.000000
# 2 -0.010125 0.011484 0.000168 0.000000 -0.000020 0.000000
# 3 -0.014959 0.000168 0.021260 0.000000 -0.009855 0.000000
# 4 0.000000 0.000000 0.000000 -0.003874 0.000000 0.026785
# 5 0.005945 -0.000020 -0.009855 0.000000 0.032607 0.000000
# 6 0.000000 0.000000 0.000000 0.026785 0.000000 -0.005120
#
#
# Mechanical properties :
#
#
# Convention : Reuss Voigt Hill
#
# Bulk Modulus (GPa) = 61.75322 68.54348 65.14835
# Shear Modulus (GPa) = 34.51424 19.52880 27.02152
#
# Velocity S-wave (km/s) = 3.78239 2.84515 3.34674
# Velocity P-wave (km/s) = 6.68376 6.26140 6.47602
#
# Compressibility (1/GPa) = 0.01619349
#
# Stress axis : x y z
#
# Youngs Moduli (GPa) = 30.04717 87.07920 47.03602
#
# Poissons Ratio (x) = 0.88164 0.70361
# Poissons Ratio (y) = 0.30421 -0.00789
# Poissons Ratio (z) = 0.44947 -0.01461
#
# Static dielectric constant tensor:
#      x y z
#    x 1.931440 0.000000 -0.039170 
#    y 0.000000 1.984840 0.000000 
#    z -0.039170 0.000000 1.916680 
# 
# From -- ./inp_files/35261.got.cif
#   From: 2010.05.17/outbox.cif.g08.bks.cpg/sg10_18_cif.got.tgz:35261.got - 2010.06.03 11:33:40.
