data_PCOD9145602
_publ_section_title
;
Structure prediction by ZEFSAII (Michael W. Deem and Ramdas Pophale) SiO2 
 PCOD9145602
Probable space group: P 2/M
;
_chemical_formula_sum "Si O2"
_cell_formula_units_Z 28
_cell_length_a 7.803448
_cell_length_b 33.484253
_cell_length_c 5.392126
_cell_angle_alpha 90.000000
_cell_angle_beta 67.883802
_cell_angle_gamma 90.000000
_cell_volume 1305.257376
_symmetry_space_group_name_H-M "P 2/M"
_symmetry_group_IT_number 10
_symmetry_cell_setting 'monoclinic'
loop_
_space_group_symop_operation_xyz
x,y,z
-x,y,-z
-x,-y,-z
x,-y,z
loop_
_atom_site_type_symbol
_atom_site_label
_atom_site_fract_x
_atom_site_fract_y
_atom_site_fract_z
Si Si1 0.277204 0.301946 0.649453
Si Si2 0.500000 0.597285 0.000000
Si Si3 0.874293 0.086158 0.818837
Si Si4 0.126320 0.000000 0.181243
Si Si5 0.798546 0.618143 0.497172
Si Si6 0.719075 0.740377 0.858992
Si Si7 0.780491 0.546360 0.179727
Si Si8 0.876719 0.172945 0.815961
O O1 0.500000 0.300537 0.500000
O O2 0.215976 0.348052 0.700596
O O3 0.211151 0.280338 0.431990
O O4 0.208371 0.279816 0.930587
O O5 0.628956 0.626148 0.770090
O O6 0.354534 0.568766 0.936785
O O7 0.000000 0.086127 0.500000
O O8 0.777164 0.129470 0.878289
O O9 0.772868 0.043107 0.873679
O O10 0.000000 0.086101 0.000000
O O11 0.000000 0.000000 0.500000
O O12 0.000000 0.000000 0.000000
O O13 0.760267 0.572925 0.434526
O O14 0.000000 0.620092 0.500000
O O15 0.757363 0.787411 0.852066
O O16 0.500000 0.734490 0.000000
O O17 0.732870 0.500000 0.231271
O O18 0.000000 0.549095 0.000000
O O19 0.000000 0.172190 0.500000
O O20 0.000000 0.176267 0.000000
#
# Coordination Sequence:
#
# PCOD9145602 Si02
#       8
#     4   2   4   2   4   4   4   4
#     4  10  23  41  66  88 120 160 199 251 306 359
#     4  12  25  46  74  98 136 176 210 264 328 367
#     4   8  14  23  38  62  94 133 172 227 281 340
#     4   8  12  20  34  56  89 128 173 216 280 340
#     4  12  27  45  70 100 132 169 215 264 319 388
#     4  10  22  39  60  84 115 154 195 240 295 361
#     4  11  25  46  72 103 136 174 220 264 316 383
#     4  10  19  32  51  77 110 142 187 238 293 347
#
# _framework density 21.451708
#
# number of rings (size 3 to 8) (size 9 to 14) (size 15 to 20)
#    0.000    1.857    1.429    2.357    5.000    3.714 
#    0.000    0.000    0.000    0.000    0.000    0.500 
#    0.000    0.000    0.000   38.429    0.000    1.429 
#
# Total GULP energy -156195.512814 kJ/mol
# GULP energy per Si atom -5578.411172 kJ/mol
# Density = 2.140288 g / cm^3
# Si number density = 21.451708 Si / 1000 Ang^3
#
#
#
# Elastic Constant Matrix: (Units=GPa)
#
#
# Indices 1 2 3 4 5 6 
#
# 1 82.7052 20.0380 30.7860 0.0000 5.2572 0.0000
# 2 20.0380 138.3239 25.3128 0.0000 8.9678 0.0000
# 3 30.7860 25.3128 109.4415 0.0000 27.7626 0.0000
# 4 0.0000 0.0000 0.0000 32.9214 0.0000 0.5053
# 5 5.2572 8.9678 27.7626 0.0000 17.5652 0.0000
# 6 0.0000 0.0000 0.0000 0.5053 0.0000 8.5805
#
#
#
# Elastic Compliance Matrix: (Units=1/GPa)
#
#
# Indices 1 2 3 4 5 6 
#
# 1 0.013882 -0.001425 -0.004517 0.000000 0.003712 0.000000
# 2 -0.001425 0.007730 -0.000825 0.000000 -0.002217 0.000000
# 3 -0.004517 -0.000825 0.016942 0.000000 -0.025004 0.000000
# 4 0.000000 0.000000 0.000000 0.030403 0.000000 -0.001790
# 5 0.003712 -0.002217 -0.025004 0.000000 0.096471 0.000000
# 6 0.000000 0.000000 0.000000 -0.001790 0.000000 0.116649
#
#
# Mechanical properties :
#
#
# Convention : Reuss Voigt Hill
#
# Bulk Modulus (GPa) = 39.96788 53.63824 46.80306
# Shear Modulus (GPa) = 16.45000 28.76900 22.60950
#
# Velocity S-wave (km/s) = 2.77219 3.66608 3.25002
# Velocity P-wave (km/s) = 5.37761 6.55581 5.99572
#
# Compressibility (1/GPa) = 0.02502009
#
# Stress axis : x y z
#
# Youngs Moduli (GPa) = 72.03641 129.35793 59.02610
#
# Poissons Ratio (x) = 0.18434 0.26663
# Poissons Ratio (y) = 0.10265 0.04869
# Poissons Ratio (z) = 0.32540 0.10670
#
# Static dielectric constant tensor:
#      x y z
#    x 1.669790 0.000000 0.079330 
#    y 0.000000 1.794980 0.000000 
#    z 0.079330 0.000000 1.806290 
# 
# From -- ./inp_files/5467.got.cif
#   From: 2010.05.17/outbox.cif.g08.bks.cpg/sg10_3_cif.got.tgz:5467.got - 2010.06.03 11:33:40.
