data_PCOD9145600
_publ_section_title
;
Structure prediction by ZEFSAII (Michael W. Deem and Ramdas Pophale) SiO2 
 PCOD9145600
Probable space group: P 2/M
;
_chemical_formula_sum "Si O2"
_cell_formula_units_Z 28
_cell_length_a 11.642444
_cell_length_b 7.642551
_cell_length_c 15.211542
_cell_angle_alpha 90.000000
_cell_angle_beta 113.049610
_cell_angle_gamma 90.000000
_cell_volume 1245.437724
_symmetry_space_group_name_H-M "P 2/M"
_symmetry_group_IT_number 10
_symmetry_cell_setting 'monoclinic'
loop_
_space_group_symop_operation_xyz
x,y,z
-x,y,-z
-x,-y,-z
x,-y,z
loop_
_atom_site_type_symbol
_atom_site_label
_atom_site_fract_x
_atom_site_fract_y
_atom_site_fract_z
Si Si1 0.557073 0.285367 0.375888
Si Si2 0.676806 0.704140 0.583116
Si Si3 0.061825 0.799830 0.264119
Si Si4 0.337811 0.301480 0.762366
Si Si5 0.641904 0.200705 0.038234
Si Si6 0.090950 0.202280 0.601929
Si Si7 0.906640 0.214335 0.052027
O O1 0.558339 0.500000 0.367809
O O2 0.431891 0.225153 0.387096
O O3 0.663823 0.229393 0.478760
O O4 0.564639 0.222386 0.277849
O O5 0.648135 0.500000 0.565660
O O6 0.807142 0.719788 0.670107
O O7 0.983754 0.798966 0.329716
O O8 0.979272 0.723987 0.161198
O O9 0.088504 0.000000 0.246557
O O10 0.369747 0.500000 0.796662
O O11 0.316004 0.203360 0.846770
O O12 0.216208 0.301308 0.663792
O O13 0.760618 0.273347 0.017809
O O14 0.625811 0.000000 0.003363
O O15 0.500000 0.277307 0.000000
O O16 0.000000 0.275199 0.500000
O O17 0.120973 0.000000 0.587532
O O18 0.899508 0.000000 0.050241
O O19 0.000000 0.262828 0.000000
#
# Coordination Sequence:
#
# PCOD9145600 Si02
#       7
#     4   4   4   4   4   4   4
#     4   8  17  33  51  74 106 146 181 217 264 321
#     4   9  17  33  54  73 103 145 185 216 259 323
#     4  10  19  32  51  77 108 135 170 221 275 324
#     4  11  21  34  55  81 111 143 182 227 276 331
#     4  10  21  39  61  82 106 143 191 236 285 346
#     4  10  20  34  53  79 113 148 179 219 273 327
#     4   9  18  35  57  78 105 140 178 227 285 336
#
# _framework density 22.482057999999999
#
# number of rings (size 3 to 8) (size 9 to 14) (size 15 to 20)
#    0.000    2.429    1.429    2.143    0.000    2.286 
#    0.000    5.000    0.000    1.714    0.000    0.000 
#    0.000    0.000    0.000    0.000    0.000    0.000 
#
# Total GULP energy -156011.784552 kJ/mol
# GULP energy per Si atom -5571.849448 kJ/mol
# Density = 2.243089 g / cm^3
# Si number density = 22.482058 Si / 1000 Ang^3
#
#
#
# Elastic Constant Matrix: (Units=GPa)
#
#
# Indices 1 2 3 4 5 6 
#
# 1 134.8825 7.8455 41.8557 0.0000 0.6977 0.0000
# 2 7.8455 42.0909 3.5771 0.0000 -1.6088 0.0000
# 3 41.8557 3.5771 68.4988 0.0000 -1.3138 0.0000
# 4 0.0000 0.0000 0.0000 16.4644 0.0000 7.3348
# 5 0.6977 -1.6088 -1.3138 0.0000 34.5951 0.0000
# 6 0.0000 0.0000 0.0000 7.3348 0.0000 -2.9757
#
#
#
# Elastic Compliance Matrix: (Units=1/GPa)
#
#
# Indices 1 2 3 4 5 6 
#
# 1 0.009220 -0.001262 -0.005577 0.000000 -0.000456 0.000000
# 2 -0.001262 0.024076 -0.000464 0.000000 0.001127 0.000000
# 3 -0.005577 -0.000464 0.018046 0.000000 0.000776 0.000000
# 4 0.000000 0.000000 0.000000 0.028949 0.000000 0.071355
# 5 -0.000456 0.001127 0.000776 0.000000 0.028997 0.000000
# 6 0.000000 0.000000 0.000000 0.071355 0.000000 -0.160169
#
#
# Mechanical properties :
#
#
# Convention : Reuss Voigt Hill
#
# Bulk Modulus (GPa) = 27.22196 39.11431 33.16814
# Shear Modulus (GPa) = -208.07008 22.42967 -92.82020
#
# Velocity S-wave (km/s) = -9.63070 3.16202 -6.43242
# Velocity P-wave (km/s) = 10.56089 5.54679 6.35474
#
# Compressibility (1/GPa) = 0.03673504
#
# Stress axis : x y z
#
# Youngs Moduli (GPa) = 108.45790 41.53524 55.41524
#
# Poissons Ratio (x) = 0.05242 0.30904
# Poissons Ratio (y) = 0.13688 0.02574
# Poissons Ratio (z) = 0.60484 0.01929
#
# Static dielectric constant tensor:
#      x y z
#    x 1.914150 0.000000 0.008540 
#    y 0.000000 1.878860 0.000000 
#    z 0.008540 0.000000 1.830400 
# 
# From -- ./inp_files/49604.got.cif
#   From: 2010.05.17/outbox.cif.g08.bks.cpg/sg10_25_cif.got.tgz:49604.got - 2010.06.03 11:33:40.
