data_PCOD9145325
_publ_section_title
;
Structure prediction by ZEFSAII (Michael W. Deem and Ramdas Pophale) SiO2 
 PCOD9145325
Probable space group: P 2/M
;
_chemical_formula_sum "Si O2"
_cell_formula_units_Z 32
_cell_length_a 11.806861
_cell_length_b 15.145510
_cell_length_c 17.829519
_cell_angle_alpha 90.000000
_cell_angle_beta 152.027058
_cell_angle_gamma 90.000000
_cell_volume 1495.482451
_symmetry_space_group_name_H-M "P 2/M"
_symmetry_group_IT_number 10
_symmetry_cell_setting 'monoclinic'
loop_
_space_group_symop_operation_xyz
x,y,z
-x,y,-z
-x,-y,-z
x,-y,z
loop_
_atom_site_type_symbol
_atom_site_label
_atom_site_fract_x
_atom_site_fract_y
_atom_site_fract_z
Si Si1 0.888129 0.094208 0.159954
Si Si2 0.501720 0.779700 0.884206
Si Si3 0.254348 0.365785 0.312068
Si Si4 0.970408 0.102213 0.375270
Si Si5 0.461935 0.402435 0.274128
Si Si6 0.436666 0.205406 0.679362
Si Si7 0.703710 0.403759 0.992350
Si Si8 0.687622 0.158876 0.672737
O O1 0.028593 0.099107 0.320423
O O2 0.070941 0.104203 0.198435
O O3 0.758887 0.000000 0.081425
O O4 0.697031 0.171020 0.047558
O O5 0.250393 0.829906 0.746304
O O6 0.571761 0.794764 0.837635
O O7 0.532623 0.676237 0.918013
O O8 0.500000 0.394009 0.500000
O O9 0.295471 0.394950 0.250224
O O10 0.251012 0.259777 0.313797
O O11 0.986171 0.394425 0.179765
O O12 0.199043 0.146085 0.548442
O O13 0.919789 0.000000 0.367723
O O14 0.583649 0.500000 0.347939
O O15 0.614540 0.310462 0.365673
O O16 0.316361 0.400474 0.110692
O O17 0.583774 0.166405 0.695381
O O18 0.616468 0.500000 0.965379
O O19 0.500000 0.126528 0.500000
#
# Coordination Sequence:
#
# PCOD9145325 Si02
#       8
#     4   4   4   4   4   4   4   4
#     4  11  23  40  64  88 115 157 199 242 302 368
#     4  11  23  40  60  90 122 153 203 257 292 345
#     4  10  19  31  54  86 119 157 197 243 290 342
#     4  11  24  43  66  87 114 159 206 248 300 364
#     4   9  19  34  54  84 121 159 197 235 290 361
#     4  10  22  38  63  91 121 156 196 249 308 348
#     4  10  20  36  57  82 118 162 200 239 294 354
#     4  10  19  37  60  87 123 156 189 239 302 364
#
# _framework density 21.397777999999999
#
# number of rings (size 3 to 8) (size 9 to 14) (size 15 to 20)
#    0.000    1.750    2.500    1.875    0.000    5.750 
#    0.000    1.250    0.000    4.500    0.000    0.000 
#    0.000    0.000    0.000    0.000    0.000    0.000 
#
# Total GULP energy -178431.666988 kJ/mol
# GULP energy per Si atom -5575.989593 kJ/mol
# Density = 2.134908 g / cm^3
# Si number density = 21.397778 Si / 1000 Ang^3
#
#
#
# Elastic Constant Matrix: (Units=GPa)
#
#
# Indices 1 2 3 4 5 6 
#
# 1 61.1488 26.1103 8.9002 0.0000 -1.4984 0.0000
# 2 26.1103 149.4430 43.7614 0.0000 14.1755 0.0000
# 3 8.9002 43.7614 58.0616 0.0000 1.7201 0.0000
# 4 0.0000 0.0000 0.0000 61.1305 0.0000 28.9389
# 5 -1.4984 14.1755 1.7201 0.0000 25.1628 0.0000
# 6 0.0000 0.0000 0.0000 28.9389 0.0000 43.2402
#
#
#
# Elastic Compliance Matrix: (Units=1/GPa)
#
#
# Indices 1 2 3 4 5 6 
#
# 1 0.017887 -0.003306 -0.000337 0.000000 0.002951 0.000000
# 2 -0.003306 0.009714 -0.006660 0.000000 -0.005214 0.000000
# 3 -0.000337 -0.006660 0.022229 0.000000 0.002212 0.000000
# 4 0.000000 0.000000 0.000000 0.023945 0.000000 -0.016025
# 5 0.002951 -0.005214 0.002212 0.000000 0.042703 0.000000
# 6 0.000000 0.000000 0.000000 -0.016025 0.000000 0.033852
#
#
# Mechanical properties :
#
#
# Convention : Reuss Voigt Hill
#
# Bulk Modulus (GPa) = 34.22048 47.35525 40.78786
# Shear Modulus (GPa) = 27.67357 38.56544 33.11950
#
# Velocity S-wave (km/s) = 3.60014 4.24997 3.93848
# Velocity P-wave (km/s) = 5.77136 6.80161 6.30756
#
# Compressibility (1/GPa) = 0.02922227
#
# Stress axis : x y z
#
# Youngs Moduli (GPa) = 55.90740 102.94328 44.98595
#
# Poissons Ratio (x) = 0.34036 0.01517
# Poissons Ratio (y) = 0.18484 0.29962
# Poissons Ratio (z) = 0.01886 0.68563
#
# Static dielectric constant tensor:
#      x y z
#    x 1.791120 0.000000 -0.007940 
#    y 0.000000 1.800940 0.000000 
#    z -0.007940 0.000000 1.749650 
# 
# From -- ./inp_files/77055.got.cif
#   From: 2010.05.17/outbox.cif.g08.bks.cpg/sg10_39_cif.got.tgz:77055.got - 2010.06.03 11:33:40.
