data_PCOD9145341
_publ_section_title
;
Structure prediction by ZEFSAII (Michael W. Deem and Ramdas Pophale) SiO2 
 PCOD9145341
Probable space group: P 2/M
;
_chemical_formula_sum "Si O2"
_cell_formula_units_Z 28
_cell_length_a 25.551353
_cell_length_b 19.697945
_cell_length_c 23.320064
_cell_angle_alpha 90.000000
_cell_angle_beta 169.080028
_cell_angle_gamma 90.000000
_cell_volume 2223.468689
_symmetry_space_group_name_H-M "P 2/M"
_symmetry_group_IT_number 10
_symmetry_cell_setting 'monoclinic'
loop_
_space_group_symop_operation_xyz
x,y,z
-x,y,-z
-x,-y,-z
x,-y,z
loop_
_atom_site_type_symbol
_atom_site_label
_atom_site_fract_x
_atom_site_fract_y
_atom_site_fract_z
Si Si1 0.500747 0.707534 0.570458
Si Si2 0.182650 0.500000 0.139759
Si Si3 0.811032 0.417229 0.349362
Si Si4 0.967662 0.582081 0.644855
Si Si5 0.059686 0.365086 0.174861
Si Si6 0.318499 0.146933 0.362275
Si Si7 0.317229 0.000000 0.361186
Si Si8 0.418936 0.417920 0.665894
O O1 0.500000 0.702198 0.500000
O O2 0.264901 0.660463 0.345165
O O3 0.419229 0.784270 0.500317
O O4 0.812062 0.687162 0.922101
O O5 0.500000 0.500000 0.500000
O O6 0.000000 0.500000 0.000000
O O7 0.100550 0.433210 0.016319
O O8 0.819601 0.500000 0.359968
O O9 0.000000 0.395058 0.500000
O O10 0.909025 0.393502 0.517328
O O11 0.500000 0.397552 0.000000
O O12 0.981116 0.500000 0.655773
O O13 0.726002 0.597727 0.429445
O O14 0.262514 0.603458 0.987359
O O15 0.251376 0.382482 0.435011
O O16 0.500000 0.143550 0.500000
O O17 0.358078 0.073392 0.434696
O O18 0.000000 0.155039 0.000000
O O19 0.500000 0.000000 0.500000
O O20 0.000000 0.000000 0.000000
O O21 0.406146 0.500000 0.643324
#
# Coordination Sequence:
#
# PCOD9145341 Si02
#       8
#     4   2   4   4   4   4   2   4
#     4  11  21  32  45  57  74  91 115 147 196 240
#     4  12  24  34  44  54  66  84 114 158 204 240
#     4   9  15  23  36  56  77  91 106 127 163 215
#     4   9  17  27  42  55  70  92 112 141 176 214
#     4  12  22  34  44  55  69  92 121 159 194 235
#     4   9  16  27  42  59  77  94 110 132 166 221
#     4   8  14  24  40  60  78  94 110 126 154 206
#     4  10  19  32  42  52  67  88 123 154 184 218
#
# _framework density 12.592936999999999
#
# number of rings (size 3 to 8) (size 9 to 14) (size 15 to 20)
#    0.000    2.000    0.714    6.000    0.000    3.429 
#    0.000    0.000    0.000    0.000    0.000    0.000 
#    0.000    0.000    0.000    0.000    0.000    0.000 
#
# Total GULP energy -156008.914066 kJ/mol
# GULP energy per Si atom -5571.746931 kJ/mol
# Density = 1.256428 g / cm^3
# Si number density = 12.592937 Si / 1000 Ang^3
#
#
#
# Elastic Constant Matrix: (Units=GPa)
#
#
# Indices 1 2 3 4 5 6 
#
# 1 32.0028 14.0803 11.5558 0.0000 2.4999 0.0000
# 2 14.0803 56.7519 14.3853 0.0000 -1.2474 0.0000
# 3 11.5558 14.3853 61.2699 0.0000 10.8582 0.0000
# 4 0.0000 0.0000 0.0000 13.4510 0.0000 4.5757
# 5 2.4999 -1.2474 10.8582 0.0000 26.4882 0.0000
# 6 0.0000 0.0000 0.0000 4.5757 0.0000 3.0272
#
#
#
# Elastic Compliance Matrix: (Units=1/GPa)
#
#
# Indices 1 2 3 4 5 6 
#
# 1 0.036580 -0.007926 -0.004702 0.000000 -0.001898 0.000000
# 2 -0.007926 0.020661 -0.003948 0.000000 0.003339 0.000000
# 3 -0.004702 -0.003948 0.019506 0.000000 -0.007738 0.000000
# 4 0.000000 0.000000 0.000000 0.153029 0.000000 -0.231308
# 5 -0.001898 0.003339 -0.007738 0.000000 0.041261 0.000000
# 6 0.000000 0.000000 0.000000 -0.231308 0.000000 0.679968
#
#
# Mechanical properties :
#
#
# Convention : Reuss Voigt Hill
#
# Bulk Modulus (GPa) = 22.93753 25.56308 24.25031
# Shear Modulus (GPa) = 5.00656 15.92682 10.46669
#
# Velocity S-wave (km/s) = 1.99608 3.56018 2.88610
# Velocity P-wave (km/s) = 4.85454 6.10274 5.51407
#
# Compressibility (1/GPa) = 0.04359667
#
# Stress axis : x y z
#
# Youngs Moduli (GPa) = 27.33705 48.40036 51.26533
#
# Poissons Ratio (x) = 0.38360 0.24105
# Poissons Ratio (y) = 0.21666 0.20239
# Poissons Ratio (z) = 0.12854 0.19108
#
# Static dielectric constant tensor:
#      x y z
#    x 1.403090 0.000000 0.014380 
#    y 0.000000 1.437700 0.000000 
#    z 0.014380 0.000000 1.411170 
# 
# From -- ./inp_files/13362.got.cif
#   From: 2010.05.17/outbox.cif.g08.bks.cpg/sg10_7_cif.got.tgz:13362.got - 2010.06.03 11:33:40.
