data_PCOD9145595
_publ_section_title
;
Structure prediction by ZEFSAII (Michael W. Deem and Ramdas Pophale) SiO2 
 PCOD9145595
Probable space group: P 2/M
;
_chemical_formula_sum "Si O2"
_cell_formula_units_Z 22
_cell_length_a 23.215182
_cell_length_b 8.040570
_cell_length_c 5.308804
_cell_angle_alpha 90.000000
_cell_angle_beta 83.649348
_cell_angle_gamma 90.000000
_cell_volume 984.877890
_symmetry_space_group_name_H-M "P 2/M"
_symmetry_group_IT_number 10
_symmetry_cell_setting 'monoclinic'
loop_
_space_group_symop_operation_xyz
x,y,z
-x,y,-z
-x,-y,-z
x,-y,z
loop_
_atom_site_type_symbol
_atom_site_label
_atom_site_fract_x
_atom_site_fract_y
_atom_site_fract_z
Si Si1 0.433517 0.703544 0.066742
Si Si2 0.068775 0.182574 0.509158
Si Si3 0.632523 0.700738 0.400988
Si Si4 0.829427 0.799415 0.884109
Si Si5 0.234771 0.799279 0.588142
Si Si6 0.960492 0.500000 0.262288
O O1 0.433437 0.500000 0.068210
O O2 0.405581 0.758649 0.343034
O O3 0.500000 0.755746 0.000000
O O4 0.394803 0.758810 0.849016
O O5 0.104596 0.228393 0.241700
O O6 0.075672 0.331759 0.699261
O O7 0.000000 0.167543 0.500000
O O8 0.089536 0.000000 0.587125
O O9 0.630153 0.500000 0.400261
O O10 0.698826 0.751521 0.403842
O O11 0.790856 0.739385 0.665772
O O12 0.824263 0.000000 0.899581
O O13 0.803411 0.736619 0.157661
O O14 0.231651 0.000000 0.583766
O O15 0.000000 0.500000 0.500000
O O16 0.000000 0.500000 0.000000
#
# Coordination Sequence:
#
# PCOD9145595 Si02
#       6
#     4   4   4   4   4   2
#     4   9  17  30  51  77 105 136 170 215 265 309
#     4   9  19  38  62  86 114 150 190 239 294 348
#     4  10  19  32  51  77 104 132 176 219 255 312
#     4   9  19  35  55  78 103 136 181 220 263 327
#     4  10  20  36  54  74 106 143 176 216 266 321
#     4  10  22  38  56  84 116 144 184 228 279 348
#
# _framework density 22.337796000000001
#
# number of rings (size 3 to 8) (size 9 to 14) (size 15 to 20)
#    0.000    2.545    0.000    1.636    0.000    5.455 
#    3.273    5.455    0.000    3.273    0.000    0.000 
#    0.000    0.000    0.000    0.000    0.000    0.000 
#
# Total GULP energy -122875.109709 kJ/mol
# GULP energy per Si atom -5585.232260 kJ/mol
# Density = 2.228695 g / cm^3
# Si number density = 22.337796 Si / 1000 Ang^3
#
#
#
# Elastic Constant Matrix: (Units=GPa)
#
#
# Indices 1 2 3 4 5 6 
#
# 1 95.0174 -7.6988 1.6678 0.0000 -5.5257 0.0000
# 2 -7.6988 63.8870 24.8700 0.0000 -6.6935 0.0000
# 3 1.6678 24.8700 112.0169 0.0000 -4.8060 0.0000
# 4 0.0000 0.0000 0.0000 1.7453 0.0000 -12.2354
# 5 -5.5257 -6.6935 -4.8060 0.0000 42.7697 0.0000
# 6 0.0000 0.0000 0.0000 -12.2354 0.0000 18.5494
#
#
#
# Elastic Compliance Matrix: (Units=1/GPa)
#
#
# Indices 1 2 3 4 5 6 
#
# 1 0.010758 0.001641 -0.000456 0.000000 0.001596 0.000000
# 2 0.001641 0.017605 -0.003824 0.000000 0.002538 0.000000
# 3 -0.000456 -0.003824 0.009802 0.000000 0.000444 0.000000
# 4 0.000000 0.000000 0.000000 -0.158095 0.000000 -0.104281
# 5 0.001596 0.002538 0.000444 0.000000 0.024034 0.000000
# 6 0.000000 0.000000 0.000000 -0.104281 0.000000 -0.014875
#
#
# Mechanical properties :
#
#
# Convention : Reuss Voigt Hill
#
# Bulk Modulus (GPa) = 30.40723 34.28880 32.34802
# Shear Modulus (GPa) = -52.89316 29.41838 -11.73739
#
# Velocity S-wave (km/s) = -4.87136 3.63296 -2.29476
# Velocity P-wave (km/s) = 4.24243 5.74293 2.73706
#
# Compressibility (1/GPa) = 0.03288691
#
# Stress axis : x y z
#
# Youngs Moduli (GPa) = 92.95277 56.80219 102.01883
#
# Poissons Ratio (x) = -0.09322 0.04653
# Poissons Ratio (y) = -0.15255 0.39014
# Poissons Ratio (z) = 0.04239 0.21722
#
# Static dielectric constant tensor:
#      x y z
#    x 1.873230 0.000000 0.051990 
#    y 0.000000 1.997930 0.000000 
#    z 0.051990 0.000000 1.825750 
# 
# From -- ./inp_files/11993.got.cif
#   From: 2010.05.17/outbox.cif.g08.bks.cpg/sg10_6_cif.got.tgz:11993.got - 2010.06.03 11:33:40.
