data_PCOD9145064
_publ_section_title
;
Structure prediction by ZEFSAII (Michael W. Deem and Ramdas Pophale) SiO2 
 PCOD9145064
Probable space group: P 2/M
;
_chemical_formula_sum "Si O2"
_cell_formula_units_Z 28
_cell_length_a 12.128559
_cell_length_b 11.887045
_cell_length_c 12.125208
_cell_angle_alpha 90.000000
_cell_angle_beta 81.633632
_cell_angle_gamma 90.000000
_cell_volume 1729.520605
_symmetry_space_group_name_H-M "P 2/M"
_symmetry_group_IT_number 10
_symmetry_cell_setting 'monoclinic'
loop_
_space_group_symop_operation_xyz
x,y,z
-x,y,-z
-x,-y,-z
x,-y,z
loop_
_atom_site_type_symbol
_atom_site_label
_atom_site_fract_x
_atom_site_fract_y
_atom_site_fract_z
Si Si1 0.830217 0.363625 0.330143
Si Si2 0.570136 0.244557 0.753881
Si Si3 0.746028 0.755435 0.930086
Si Si4 0.660782 0.634752 0.161030
Si Si5 0.918038 0.633256 0.756361
Si Si6 0.313598 0.000000 0.009511
Si Si7 0.509702 0.000000 0.813507
Si Si8 0.744012 0.366745 0.582033
O O1 0.833571 0.500000 0.333452
O O2 0.745673 0.331405 0.245906
O O3 0.786099 0.328309 0.456394
O O4 0.956346 0.328282 0.285642
O O5 0.651418 0.250695 0.848643
O O6 0.460462 0.316167 0.795137
O O7 0.640214 0.296531 0.643427
O O8 0.533602 0.114986 0.745630
O O9 0.856525 0.703453 0.860131
O O10 0.754259 0.885004 0.966650
O O11 0.704631 0.683824 0.039752
O O12 0.656243 0.500000 0.156498
O O13 0.918671 0.500000 0.785386
O O14 0.843870 0.644090 0.656360
O O15 0.403672 0.000000 0.096280
O O16 0.387627 0.000000 0.887454
O O17 0.714991 0.500000 0.581382
#
# Coordination Sequence:
#
# PCOD9145064 Si02
#       8
#     4   4   4   4   4   2   2   4
#     4   9  19  33  48  69  98 134 166 189 231 290
#     4  10  19  31  50  74  97 124 159 199 241 284
#     4  10  19  31  50  74  97 124 159 199 241 284
#     4  11  21  30  45  71 103 133 154 190 242 289
#     4   9  17  31  52  75  97 123 159 202 240 278
#     4   9  16  30  50  70  94 126 162 195 233 286
#     4   9  16  30  50  70  94 126 162 195 233 286
#     4   9  17  31  52  75  97 123 159 202 240 278
#
# _framework density 16.189457000000001
#
# number of rings (size 3 to 8) (size 9 to 14) (size 15 to 20)
#    0.000    2.429    1.429    1.714    0.000    5.143 
#    0.000    4.286    0.000    6.000    0.000    5.000 
#    0.000    0.000    0.000    0.000    0.000    0.000 
#
# Total GULP energy -156104.391826 kJ/mol
# GULP energy per Si atom -5575.156851 kJ/mol
# Density = 1.615261 g / cm^3
# Si number density = 16.189457 Si / 1000 Ang^3
#
#
#
# Elastic Constant Matrix: (Units=GPa)
#
#
# Indices 1 2 3 4 5 6 
#
# 1 71.9832 53.1222 89.0792 0.0000 -32.2204 0.0000
# 2 53.1222 100.5453 59.5825 0.0000 -20.5432 0.0000
# 3 89.0792 59.5825 95.3457 0.0000 -41.3782 0.0000
# 4 0.0000 0.0000 0.0000 5.1445 0.0000 3.1861
# 5 -32.2204 -20.5432 -41.3782 0.0000 23.7620 0.0000
# 6 0.0000 0.0000 0.0000 3.1861 0.0000 6.2274
#
#
#
# Elastic Compliance Matrix: (Units=1/GPa)
#
#
# Indices 1 2 3 4 5 6 
#
# 1 -0.051018 -0.007366 0.079753 0.000000 0.063331 0.000000
# 2 -0.007366 0.016046 -0.005975 0.000000 -0.006521 0.000000
# 3 0.079753 -0.005975 -0.063858 0.000000 -0.008224 0.000000
# 4 0.000000 0.000000 0.000000 0.284539 0.000000 -0.145576
# 5 0.063331 -0.006521 -0.008224 0.000000 0.108001 0.000000
# 6 0.000000 0.000000 0.000000 -0.145576 0.000000 0.235060
#
#
# Mechanical properties :
#
#
# Convention : Reuss Voigt Hill
#
# Bulk Modulus (GPa) = 29.41790 74.60466 52.01128
# Shear Modulus (GPa) = 12.27664 11.43280 11.85472
#
# Velocity S-wave (km/s) = 2.75673 2.66030 2.70895
# Velocity P-wave (km/s) = 5.32384 7.45779 6.47927
#
# Compressibility (1/GPa) = 0.03399291
#
# Stress axis : x y z
#
# Youngs Moduli (GPa) = -19.60076 62.32002 -15.65967
#
# Poissons Ratio (x) = 0.45907 1.24891
# Poissons Ratio (y) = -0.14439 -0.09357
# Poissons Ratio (z) = 1.56322 0.37236
#
# Static dielectric constant tensor:
#      x y z
#    x 1.527600 0.000000 0.003610 
#    y 0.000000 1.536720 0.000000 
#    z 0.003610 0.000000 1.526290 
# 
# From -- ./inp_files/46055.got.cif
#   From: 2010.05.17/outbox.cif.g08.bks.cpg/sg10_24_cif.got.tgz:46055.got - 2010.06.03 11:33:40.
