data_PCOD9145275
_publ_section_title
;
Structure prediction by ZEFSAII (Michael W. Deem and Ramdas Pophale) SiO2 
 PCOD9145275
Probable space group: P 2/M
;
_chemical_formula_sum "Si O2"
_cell_formula_units_Z 20
_cell_length_a 5.283444
_cell_length_b 10.177840
_cell_length_c 21.250010
_cell_angle_alpha 90.000000
_cell_angle_beta 59.947167
_cell_angle_gamma 90.000000
_cell_volume 989.079139
_symmetry_space_group_name_H-M "P 2/M"
_symmetry_group_IT_number 10
_symmetry_cell_setting 'monoclinic'
loop_
_space_group_symop_operation_xyz
x,y,z
-x,y,-z
-x,-y,-z
x,-y,z
loop_
_atom_site_type_symbol
_atom_site_label
_atom_site_fract_x
_atom_site_fract_y
_atom_site_fract_z
Si Si1 0.782158 0.640821 0.718353
Si Si2 0.877957 0.724354 0.207064
Si Si3 0.152938 0.344026 0.047268
Si Si4 0.653093 0.351675 0.548960
Si Si5 0.226734 0.147956 0.659157
O O1 0.870875 0.500000 0.679601
O O2 0.436552 0.656121 0.759654
O O3 0.897500 0.645433 0.776074
O O4 0.954121 0.764570 0.667747
O O5 0.819076 0.849023 0.259494
O O6 0.014475 0.737275 0.121710
O O7 0.101429 0.500000 0.066979
O O8 0.500000 0.323993 0.000000
O O9 0.000000 0.314242 0.000000
O O10 0.500000 0.343777 0.500000
O O11 0.595390 0.500000 0.580901
O O12 0.503250 0.238534 0.608572
O O13 0.000000 0.335416 0.500000
O O14 0.241565 0.000000 0.633660
#
# Coordination Sequence:
#
# PCOD9145275 Si02
#       5
#     4   4   4   4   4
#     4  10  20  35  60  87 115 153 201 251 300 349
#     4  10  22  36  59  88 122 154 201 250 304 358
#     4  10  19  31  52  84 120 151 190 248 310 360
#     4  10  23  42  64  93 124 158 199 246 302 359
#     4  10  25  42  63  91 124 163 206 247 298 359
#
# _framework density 20.220828999999998
#
# number of rings (size 3 to 8) (size 9 to 14) (size 15 to 20)
#    1.200    0.800    0.000    3.600    2.800    3.200 
#    0.000    0.000    0.000    1.200    0.000    0.000 
#    0.000    0.000    0.000    0.000    0.000    0.000 
#
# Total GULP energy -111491.887048 kJ/mol
# GULP energy per Si atom -5574.594352 kJ/mol
# Density = 2.017481 g / cm^3
# Si number density = 20.220829 Si / 1000 Ang^3
#
#
#
# Elastic Constant Matrix: (Units=GPa)
#
#
# Indices 1 2 3 4 5 6 
#
# 1 147.5862 16.0411 32.5834 0.0000 -0.0480 0.0000
# 2 16.0411 131.0963 47.9505 0.0000 -4.6434 0.0000
# 3 32.5834 47.9505 93.3614 0.0000 2.1659 0.0000
# 4 0.0000 0.0000 0.0000 15.9779 0.0000 10.8278
# 5 -0.0480 -4.6434 2.1659 0.0000 32.2282 0.0000
# 6 0.0000 0.0000 0.0000 10.8278 0.0000 -26.7120
#
#
#
# Elastic Compliance Matrix: (Units=1/GPa)
#
#
# Indices 1 2 3 4 5 6 
#
# 1 0.007343 0.000058 -0.002597 0.000000 0.000194 0.000000
# 2 0.000058 0.009485 -0.004931 0.000000 0.001698 0.000000
# 3 -0.002597 -0.004931 0.014189 0.000000 -0.001668 0.000000
# 4 0.000000 0.000000 0.000000 0.049099 0.000000 0.019902
# 5 0.000194 0.001698 -0.001668 0.000000 0.031386 0.000000
# 6 0.000000 0.000000 0.000000 0.019902 0.000000 -0.029369
#
#
# Mechanical properties :
#
#
# Convention : Reuss Voigt Hill
#
# Bulk Modulus (GPa) = 62.20268 62.79934 62.50101
# Shear Modulus (GPa) = 48.81345 22.66340 35.73842
#
# Velocity S-wave (km/s) = 4.91860 3.35146 4.20861
# Velocity P-wave (km/s) = 7.94262 6.78974 7.38870
#
# Compressibility (1/GPa) = 0.01607648
#
# Stress axis : x y z
#
# Youngs Moduli (GPa) = 136.18776 105.43420 70.47837
#
# Poissons Ratio (x) = -0.00615 0.18304
# Poissons Ratio (y) = -0.00794 0.34753
# Poissons Ratio (z) = 0.35370 0.51990
#
# Static dielectric constant tensor:
#      x y z
#    x 1.738250 0.000000 0.029790 
#    y 0.000000 1.732980 0.000000 
#    z 0.029790 0.000000 1.733820 
# 
# From -- ./inp_files/91544.got.cif
#   From: 2010.05.17/outbox.cif.g08.bks.cpg/sg10_46_cif.got.tgz:91544.got - 2010.06.03 11:33:40.
