data_PCOD9145863
_publ_section_title
;
Structure prediction by ZEFSAII (Michael W. Deem and Ramdas Pophale) SiO2 
 PCOD9145863
Probable space group: P 2/M
;
_chemical_formula_sum "Si O2"
_cell_formula_units_Z 30
_cell_length_a 29.379801
_cell_length_b 11.249326
_cell_length_c 24.493472
_cell_angle_alpha 90.000000
_cell_angle_beta 167.902024
_cell_angle_gamma 90.000000
_cell_volume 1696.617236
_symmetry_space_group_name_H-M "P 2/M"
_symmetry_group_IT_number 10
_symmetry_cell_setting 'monoclinic'
loop_
_space_group_symop_operation_xyz
x,y,z
-x,y,-z
-x,-y,-z
x,-y,z
loop_
_atom_site_type_symbol
_atom_site_label
_atom_site_fract_x
_atom_site_fract_y
_atom_site_fract_z
Si Si1 0.764998 0.633618 0.206672
Si Si2 0.288365 0.866584 0.025489
Si Si3 0.500000 0.693721 0.000000
Si Si4 0.790085 0.868797 0.407443
Si Si5 0.558035 0.212884 0.243072
Si Si6 0.354438 0.361747 0.180900
Si Si7 0.091482 0.639740 0.278274
Si Si8 0.151686 0.640990 0.225591
O O1 0.801608 0.500000 0.228608
O O2 0.613816 0.628573 0.083172
O O3 0.000000 0.683154 0.500000
O O4 0.635307 0.709616 0.010350
O O5 0.453582 0.862677 0.168797
O O6 0.333360 0.748570 0.114316
O O7 0.301459 0.000000 0.066861
O O8 0.043935 0.852775 0.716463
O O9 0.687143 0.773667 0.246544
O O10 0.667382 0.856560 0.321417
O O11 0.754463 0.000000 0.342729
O O12 0.743591 0.294324 0.488018
O O13 0.346193 0.500000 0.148812
O O14 0.592450 0.349092 0.486519
O O15 0.152989 0.350960 0.985875
O O16 0.150674 0.500000 0.347285
O O17 0.111627 0.687200 0.240023
O O18 0.100768 0.500000 0.169372
O O19 0.000000 0.691839 0.000000
#
# Coordination Sequence:
#
# PCOD9145863 Si02
#       8
#     4   4   2   4   4   4   4   4
#     4  10  21  35  51  75 107 142 183 229 282 334
#     4  11  22  36  55  83 113 145 186 232 282 334
#     4  10  20  36  54  72 100 140 182 226 284 340
#     4  10  21  36  53  76 104 137 183 234 281 333
#     4  11  20  34  55  77 106 144 187 230 278 333
#     4  10  20  35  56  84 113 146 184 225 276 331
#     4  10  19  32  53  83 114 143 183 227 275 328
#     4   9  18  33  55  84 118 149 180 223 274 329
#
# _framework density 17.682244000000001
#
# number of rings (size 3 to 8) (size 9 to 14) (size 15 to 20)
#    0.000    1.867    2.667    2.000    0.000    1.067 
#    0.000    3.333    0.000    6.800    0.000    0.933 
#    0.000    0.000    0.000    0.000    0.000    0.000 
#
# Total GULP energy -167182.757381 kJ/mol
# GULP energy per Si atom -5572.758579 kJ/mol
# Density = 1.764200 g / cm^3
# Si number density = 17.682244 Si / 1000 Ang^3
#
#
#
# Elastic Constant Matrix: (Units=GPa)
#
#
# Indices 1 2 3 4 5 6 
#
# 1 44.6138 16.0482 29.5733 0.0000 0.1305 0.0000
# 2 16.0482 78.0711 41.8025 0.0000 -8.4090 0.0000
# 3 29.5733 41.8025 93.5321 0.0000 -4.0346 0.0000
# 4 0.0000 0.0000 0.0000 2.3426 0.0000 11.2825
# 5 0.1305 -8.4090 -4.0346 0.0000 29.0355 0.0000
# 6 0.0000 0.0000 0.0000 11.2825 0.0000 -20.4157
#
#
#
# Elastic Compliance Matrix: (Units=1/GPa)
#
#
# Indices 1 2 3 4 5 6 
#
# 1 0.028553 -0.001555 -0.008408 0.000000 -0.001747 0.000000
# 2 -0.001555 0.017363 -0.007094 0.000000 0.004050 0.000000
# 3 -0.008408 -0.007094 0.016532 0.000000 0.000281 0.000000
# 4 0.000000 0.000000 0.000000 0.116580 0.000000 0.064427
# 5 -0.001747 0.004050 0.000281 0.000000 0.035660 0.000000
# 6 0.000000 0.000000 0.000000 0.064427 0.000000 -0.013377
#
#
# Mechanical properties :
#
#
# Convention : Reuss Voigt Hill
#
# Bulk Modulus (GPa) = 35.29332 43.45169 39.37250
# Shear Modulus (GPa) = 20.41896 10.77870 15.59883
#
# Velocity S-wave (km/s) = 3.40188 2.47164 2.97336
# Velocity P-wave (km/s) = 5.95260 5.72471 5.83977
#
# Compressibility (1/GPa) = 0.02833397
#
# Stress axis : x y z
#
# Youngs Moduli (GPa) = 35.02298 57.59381 60.48701
#
# Poissons Ratio (x) = 0.08958 0.50858
# Poissons Ratio (y) = 0.05447 0.42907
# Poissons Ratio (z) = 0.29448 0.40855
#
# Static dielectric constant tensor:
#      x y z
#    x 1.605230 0.000000 0.008720 
#    y 0.000000 1.650320 0.000000 
#    z 0.008720 0.000000 1.585690 
# 
# From -- ./inp_files/91481.got.cif
#   From: 2010.05.17/outbox.cif.g08.bks.cpg/sg10_46_cif.got.tgz:91481.got - 2010.06.03 11:33:40.
