data_PCOD9145729
_publ_section_title
;
Structure prediction by ZEFSAII (Michael W. Deem and Ramdas Pophale) SiO2 
 PCOD9145729
Probable space group: P 2/M
;
_chemical_formula_sum "Si O2"
_cell_formula_units_Z 28
_cell_length_a 12.112963
_cell_length_b 14.390826
_cell_length_c 10.224985
_cell_angle_alpha 90.000000
_cell_angle_beta 58.819004
_cell_angle_gamma 90.000000
_cell_volume 1524.885021
_symmetry_space_group_name_H-M "P 2/M"
_symmetry_group_IT_number 10
_symmetry_cell_setting 'monoclinic'
loop_
_space_group_symop_operation_xyz
x,y,z
-x,y,-z
-x,-y,-z
x,-y,z
loop_
_atom_site_type_symbol
_atom_site_label
_atom_site_fract_x
_atom_site_fract_y
_atom_site_fract_z
Si Si1 0.608024 0.104729 0.545101
Si Si2 0.463664 0.739798 0.207993
Si Si3 0.711957 0.242025 0.909817
Si Si4 0.074895 0.891431 0.322943
Si Si5 0.868467 0.104228 0.219444
Si Si6 0.598915 0.610488 0.321843
Si Si7 0.146888 0.293513 0.923667
O O1 0.500000 0.117267 0.500000
O O2 0.597431 0.186720 0.655255
O O3 0.742790 0.108405 0.387461
O O4 0.593015 0.000000 0.610317
O O5 0.361048 0.706536 0.163531
O O6 0.525873 0.652394 0.241912
O O7 0.588335 0.791833 0.069039
O O8 0.796765 0.164110 0.788442
O O9 0.802702 0.295320 0.957574
O O10 0.000000 0.858532 0.500000
O O11 0.985272 0.882479 0.249497
O O12 0.102953 0.000000 0.326867
O O13 0.858986 0.186129 0.120468
O O14 0.874443 0.000000 0.158186
O O15 0.500000 0.634540 0.500000
O O16 0.613619 0.500000 0.309222
O O17 0.741545 0.656940 0.231433
O O18 0.000000 0.329876 0.000000
#
# Coordination Sequence:
#
# PCOD9145729 Si02
#       7
#     4   4   4   4   4   4   4
#     4  10  19  32  52  79 111 150 193 235 280 329
#     4  10  20  36  57  80 115 142 188 233 284 342
#     4  10  21  35  51  80 109 148 187 232 282 335
#     4  10  20  33  49  73 109 154 199 234 271 327
#     4  10  20  33  52  79 113 156 195 228 273 333
#     4  10  22  41  66  91 113 145 186 233 291 352
#     4  11  21  37  60  86 119 150 194 237 286 332
#
# _framework density 18.362041999999999
#
# number of rings (size 3 to 8) (size 9 to 14) (size 15 to 20)
#    0.000    1.857    1.429    3.857    0.000    3.429 
#    0.000    7.143    0.000    0.000    0.000    2.000 
#    0.000    0.000    0.000    0.000    0.000    0.000 
#
# Total GULP energy -156109.430569 kJ/mol
# GULP energy per Si atom -5575.336806 kJ/mol
# Density = 1.832025 g / cm^3
# Si number density = 18.362042 Si / 1000 Ang^3
#
#
#
# Elastic Constant Matrix: (Units=GPa)
#
#
# Indices 1 2 3 4 5 6 
#
# 1 129.9286 31.6948 44.4849 0.0000 -11.2772 0.0000
# 2 31.6948 57.2679 34.7940 0.0000 -6.1589 0.0000
# 3 44.4849 34.7940 97.4596 0.0000 -18.0369 0.0000
# 4 0.0000 0.0000 0.0000 7.4868 0.0000 -5.0099
# 5 -11.2772 -6.1589 -18.0369 0.0000 31.5352 0.0000
# 6 0.0000 0.0000 0.0000 -5.0099 0.0000 13.8785
#
#
#
# Elastic Compliance Matrix: (Units=1/GPa)
#
#
# Indices 1 2 3 4 5 6 
#
# 1 0.009643 -0.003407 -0.002986 0.000000 0.001075 0.000000
# 2 -0.003407 0.023504 -0.006947 0.000000 -0.000602 0.000000
# 3 -0.002986 -0.006947 0.015272 0.000000 0.006310 0.000000
# 4 0.000000 0.000000 0.000000 0.176109 0.000000 0.063572
# 5 0.001075 -0.000602 0.006310 0.000000 0.035587 0.000000
# 6 0.000000 0.000000 0.000000 0.063572 0.000000 0.095002
#
#
# Mechanical properties :
#
#
# Convention : Reuss Voigt Hill
#
# Bulk Modulus (GPa) = 46.00341 56.28925 51.14633
# Shear Modulus (GPa) = 12.85202 22.15892 17.50547
#
# Velocity S-wave (km/s) = 2.64848 3.47764 3.09099
# Velocity P-wave (km/s) = 5.87031 6.84449 6.37603
#
# Compressibility (1/GPa) = 0.02173752
#
# Stress axis : x y z
#
# Youngs Moduli (GPa) = 103.69740 42.54665 65.48013
#
# Poissons Ratio (x) = 0.14496 0.19555
# Poissons Ratio (y) = 0.35331 0.45490
# Poissons Ratio (z) = 0.30968 0.29558
#
# Static dielectric constant tensor:
#      x y z
#    x 1.690390 0.000000 0.004890 
#    y 0.000000 1.606370 0.000000 
#    z 0.004890 0.000000 1.668000 
# 
# From -- ./inp_files/25165.got.cif
#   From: 2010.05.17/outbox.cif.g08.bks.cpg/sg10_13_cif.got.tgz:25165.got - 2010.06.03 11:33:40.
