data_PCOD9145965
_publ_section_title
;
Structure prediction by ZEFSAII (Michael W. Deem and Ramdas Pophale) SiO2 
 PCOD9145965
Probable space group: P 2/M
;
_chemical_formula_sum "Si O2"
_cell_formula_units_Z 32
_cell_length_a 12.610137
_cell_length_b 8.585409
_cell_length_c 21.145619
_cell_angle_alpha 90.000000
_cell_angle_beta 127.853116
_cell_angle_gamma 90.000000
_cell_volume 1807.594034
_symmetry_space_group_name_H-M "P 2/M"
_symmetry_group_IT_number 10
_symmetry_cell_setting 'monoclinic'
loop_
_space_group_symop_operation_xyz
x,y,z
-x,y,-z
-x,-y,-z
x,-y,z
loop_
_atom_site_type_symbol
_atom_site_label
_atom_site_fract_x
_atom_site_fract_y
_atom_site_fract_z
Si Si1 0.060145 0.686739 0.207768
Si Si2 0.069107 0.811982 0.711879
Si Si3 0.343939 0.311131 0.264289
Si Si4 0.911059 0.188131 0.528108
Si Si5 0.355871 0.313252 0.121310
Si Si6 0.645854 0.812842 0.235460
Si Si7 0.643310 0.312864 0.376983
Si Si8 0.913959 0.186511 0.030239
O O1 0.060948 0.500000 0.209151
O O2 0.214270 0.743201 0.255133
O O3 0.993314 0.748177 0.246955
O O4 0.978579 0.742341 0.116533
O O5 0.223773 0.765260 0.756867
O O6 0.983190 0.762223 0.619064
O O7 0.066208 0.000000 0.712630
O O8 0.342560 0.500000 0.264766
O O9 0.331230 0.265415 0.185769
O O10 0.492238 0.262899 0.341007
O O11 0.761949 0.252960 0.464556
O O12 0.000000 0.237260 0.500000
O O13 0.905861 0.000000 0.525378
O O14 0.351049 0.500000 0.116573
O O15 0.505174 0.255447 0.159882
O O16 0.238045 0.241739 0.036457
O O17 0.665617 0.753425 0.314526
O O18 0.638468 0.000000 0.233982
O O19 0.646301 0.500000 0.374865
O O20 0.918938 0.000000 0.036011
O O21 0.000000 0.236278 0.000000
#
# Coordination Sequence:
#
# PCOD9145965 Si02
#       8
#     4   4   4   4   4   4   4   4
#     4  11  22  38  59  81 112 152 189 227 281 338
#     4  10  22  39  57  79 114 151 186 231 282 339
#     4   8  17  33  52  78 112 146 177 221 280 328
#     4  10  19  36  57  80 110 148 188 230 284 336
#     4  10  19  34  57  85 115 143 183 235 280 325
#     4  10  19  35  56  80 113 151 185 225 284 338
#     4  10  19  32  54  85 113 140 184 236 280 327
#     4  11  22  36  57  87 116 146 189 232 274 331
#
# _framework density 17.703088999999999
#
# number of rings (size 3 to 8) (size 9 to 14) (size 15 to 20)
#    0.000    2.000    2.500    2.625    0.000    2.250 
#    0.000    3.125    0.000    7.500    0.000    0.000 
#    0.000    0.000    0.000    0.000    0.000    0.000 
#
# Total GULP energy -178601.799445 kJ/mol
# GULP energy per Si atom -5581.306233 kJ/mol
# Density = 1.766280 g / cm^3
# Si number density = 17.703089 Si / 1000 Ang^3
#
#
#
# Elastic Constant Matrix: (Units=GPa)
#
#
# Indices 1 2 3 4 5 6 
#
# 1 168.4064 30.1418 89.1411 0.0000 14.7501 0.0000
# 2 30.1418 23.3494 16.6629 0.0000 -1.9721 0.0000
# 3 89.1411 16.6629 109.0325 0.0000 10.8998 0.0000
# 4 0.0000 0.0000 0.0000 29.4979 0.0000 4.1252
# 5 14.7501 -1.9721 10.8998 0.0000 30.8995 0.0000
# 6 0.0000 0.0000 0.0000 4.1252 0.0000 19.2496
#
#
#
# Elastic Compliance Matrix: (Units=1/GPa)
#
#
# Indices 1 2 3 4 5 6 
#
# 1 0.012531 -0.010606 -0.008250 0.000000 -0.003749 0.000000
# 2 -0.010606 0.058095 -0.001124 0.000000 0.009167 0.000000
# 3 -0.008250 -0.001124 0.016275 0.000000 -0.001875 0.000000
# 4 0.000000 0.000000 0.000000 0.034948 0.000000 -0.007489
# 5 -0.003749 0.009167 -0.001875 0.000000 0.035399 0.000000
# 6 0.000000 0.000000 0.000000 -0.007489 0.000000 0.053554
#
#
# Mechanical properties :
#
#
# Convention : Reuss Voigt Hill
#
# Bulk Modulus (GPa) = 21.30234 63.63109 42.46671
# Shear Modulus (GPa) = 18.76813 26.91891 22.84352
#
# Velocity S-wave (km/s) = 3.25954 3.90369 3.59607
# Velocity P-wave (km/s) = 5.12108 7.50599 6.42516
#
# Compressibility (1/GPa) = 0.04694320
#
# Stress axis : x y z
#
# Youngs Moduli (GPa) = 79.79993 17.21313 61.44312
#
# Poissons Ratio (x) = 0.18257 0.50688
# Poissons Ratio (y) = 0.84638 0.06903
# Poissons Ratio (z) = 0.65831 0.01934
#
# Static dielectric constant tensor:
#      x y z
#    x 1.604610 0.000000 0.023860 
#    y 0.000000 1.599250 0.000000 
#    z 0.023860 0.000000 1.583030 
# 
# From -- ./inp_files/49833.got.cif
#   From: 2010.05.17/outbox.cif.g08.bks.cpg/sg10_25_cif.got.tgz:49833.got - 2010.06.03 11:33:40.
