data_PCOD9145693
_publ_section_title
;
Structure prediction by ZEFSAII (Michael W. Deem and Ramdas Pophale) SiO2 
 PCOD9145693
Probable space group: P 2/M
;
_chemical_formula_sum "Si O2"
_cell_formula_units_Z 32
_cell_length_a 11.255836
_cell_length_b 7.611689
_cell_length_c 22.444371
_cell_angle_alpha 90.000000
_cell_angle_beta 129.408705
_cell_angle_gamma 90.000000
_cell_volume 1485.736544
_symmetry_space_group_name_H-M "P 2/M"
_symmetry_group_IT_number 10
_symmetry_cell_setting 'monoclinic'
loop_
_space_group_symop_operation_xyz
x,y,z
-x,y,-z
-x,-y,-z
x,-y,z
loop_
_atom_site_type_symbol
_atom_site_label
_atom_site_fract_x
_atom_site_fract_y
_atom_site_fract_z
Si Si1 0.941905 0.799271 0.154426
Si Si2 0.153165 0.289258 0.401367
Si Si3 0.826284 0.284186 0.460450
Si Si4 0.482959 0.289369 0.163373
Si Si5 0.833801 0.288142 0.249024
Si Si6 0.474405 0.705492 0.696673
Si Si7 0.739501 0.208398 0.695656
Si Si8 0.360359 0.205717 0.996548
O O1 0.864858 0.797303 0.195242
O O2 0.109669 0.719095 0.221276
O O3 0.968793 0.000000 0.142809
O O4 0.808489 0.717176 0.071193
O O5 0.155724 0.500000 0.404307
O O6 0.211213 0.227319 0.483807
O O7 0.239358 0.239559 0.368051
O O8 0.974722 0.235413 0.336081
O O9 0.824730 0.500000 0.458279
O O10 0.692409 0.221060 0.373809
O O11 0.000000 0.231572 0.500000
O O12 0.461873 0.500000 0.151985
O O13 0.664205 0.247329 0.216458
O O14 0.443251 0.225321 0.217278
O O15 0.401623 0.216392 0.078975
O O16 0.842182 0.500000 0.244337
O O17 0.447550 0.500000 0.701210
O O18 0.586145 0.719006 0.676036
O O19 0.737964 0.000000 0.703475
O O20 0.349016 0.000000 0.976025
O O21 0.500000 0.279903 0.000000
#
# Coordination Sequence:
#
# PCOD9145693 Si02
#       8
#     4   4   4   4   4   4   4   4
#     4   9  18  33  51  73 101 133 170 211 254 303
#     4   9  17  31  54  81 105 135 175 216 257 301
#     4   9  17  32  57  85 110 136 171 214 259 309
#     4  10  20  32  49  76 108 137 167 209 265 316
#     4   9  16  27  47  76 106 132 162 205 258 312
#     4  10  21  37  55  76 105 140 177 217 257 305
#     4  10  21  37  55  74 102 141 182 218 255 303
#     4  10  19  32  52  78 105 133 169 213 259 312
#
# _framework density 21.538139000000001
#
# number of rings (size 3 to 8) (size 9 to 14) (size 15 to 20)
#    0.000    2.500    1.250    1.125    0.000    5.250 
#    0.000    3.750    0.000    6.750    0.000    0.000 
#    0.000    0.000    0.000    0.000    0.000    0.000 
#
# Total GULP energy -178463.458338 kJ/mol
# GULP energy per Si atom -5576.983073 kJ/mol
# Density = 2.148912 g / cm^3
# Si number density = 21.538139 Si / 1000 Ang^3
#
#
#
# Elastic Constant Matrix: (Units=GPa)
#
#
# Indices 1 2 3 4 5 6 
#
# 1 63.6419 -6.1961 31.2285 0.0000 3.0444 0.0000
# 2 -6.1961 37.6078 5.3302 0.0000 3.7342 0.0000
# 3 31.2285 5.3302 137.4519 0.0000 -11.4101 0.0000
# 4 0.0000 0.0000 0.0000 17.6162 0.0000 -13.8017
# 5 3.0444 3.7342 -11.4101 0.0000 17.3273 0.0000
# 6 0.0000 0.0000 0.0000 -13.8017 0.0000 5.4168
#
#
#
# Elastic Compliance Matrix: (Units=1/GPa)
#
#
# Indices 1 2 3 4 5 6 
#
# 1 0.019064 0.004640 -0.005154 0.000000 -0.007744 0.000000
# 2 0.004640 0.028650 -0.002904 0.000000 -0.008902 0.000000
# 3 -0.005154 -0.002904 0.009188 0.000000 0.007582 0.000000
# 4 0.000000 0.000000 0.000000 -0.056980 0.000000 -0.145183
# 5 -0.007744 -0.008902 0.007582 0.000000 0.065984 0.000000
# 6 0.000000 0.000000 0.000000 -0.145183 0.000000 -0.185308
#
#
# Mechanical properties :
#
#
# Convention : Reuss Voigt Hill
#
# Bulk Modulus (GPa) = 19.97338 33.26967 26.62152
# Shear Modulus (GPa) = -52.15044 21.96133 -15.09456
#
# Velocity S-wave (km/s) = -4.92602 3.19666 -2.65019
# Velocity P-wave (km/s) = 4.80214 5.39493 1.73849
#
# Compressibility (1/GPa) = 0.05006664
#
# Stress axis : x y z
#
# Youngs Moduli (GPa) = 52.45443 34.90369 108.83444
#
# Poissons Ratio (x) = -0.16196 0.56094
# Poissons Ratio (y) = -0.24340 0.31608
# Poissons Ratio (z) = 0.27035 0.10137
#
# Static dielectric constant tensor:
#      x y z
#    x 1.772900 0.000000 0.010950 
#    y 0.000000 1.833640 0.000000 
#    z 0.010950 0.000000 1.812080 
# 
# From -- ./inp_files/83604.got.cif
#   From: 2010.05.17/outbox.cif.g08.bks.cpg/sg10_42_cif.got.tgz:83604.got - 2010.06.03 11:33:40.
