data_PCOD9145249
_publ_section_title
;
Structure prediction by ZEFSAII (Michael W. Deem and Ramdas Pophale) SiO2 
 PCOD9145249
Probable space group: P 2/M
;
_chemical_formula_sum "Si O2"
_cell_formula_units_Z 32
_cell_length_a 18.173473
_cell_length_b 7.662894
_cell_length_c 17.159451
_cell_angle_alpha 90.000000
_cell_angle_beta 145.866926
_cell_angle_gamma 90.000000
_cell_volume 1340.872505
_symmetry_space_group_name_H-M "P 2/M"
_symmetry_group_IT_number 10
_symmetry_cell_setting 'monoclinic'
loop_
_space_group_symop_operation_xyz
x,y,z
-x,y,-z
-x,-y,-z
x,-y,z
loop_
_atom_site_type_symbol
_atom_site_label
_atom_site_fract_x
_atom_site_fract_y
_atom_site_fract_z
Si Si1 0.651589 0.297764 0.310587
Si Si2 0.183280 0.710034 0.860375
Si Si3 0.655702 0.294620 0.144410
Si Si4 0.208322 0.286087 0.062532
Si Si5 0.075288 0.300615 0.165199
Si Si6 0.365680 0.200227 0.411409
Si Si7 0.498912 0.287838 0.319141
Si Si8 0.894249 0.206270 0.627603
O O1 0.615256 0.500000 0.263644
O O2 0.682774 0.218073 0.253872
O O3 0.534780 0.228237 0.263096
O O4 0.779119 0.288920 0.476424
O O5 0.197156 0.500000 0.876662
O O6 0.275897 0.778395 0.872871
O O7 0.207591 0.768771 0.970607
O O8 0.033885 0.757492 0.710340
O O9 0.695632 0.500000 0.181035
O O10 0.500000 0.285823 0.000000
O O11 0.206255 0.500000 0.063821
O O12 0.069965 0.220700 0.977841
O O13 0.353120 0.233120 0.217984
O O14 0.060642 0.500000 0.131484
O O15 0.219630 0.254704 0.260865
O O16 0.091745 0.281467 0.273061
O O17 0.500000 0.292007 0.500000
O O18 0.390151 0.218210 0.525523
O O19 0.371467 0.000000 0.394032
O O20 0.504452 0.500000 0.325093
O O21 0.871751 0.000000 0.614711
#
# Coordination Sequence:
#
# PCOD9145249 Si02
#       8
#     4   4   4   4   4   4   4   4
#     4  10  19  31  52  80 107 138 182 230 276 324
#     4   9  17  32  53  76 108 144 185 231 275 326
#     4   9  17  30  51  78 105 137 181 234 284 325
#     4   8  16  31  55  85 111 140 182 232 277 319
#     4  10  19  36  61  86 112 143 183 227 273 328
#     4  11  24  40  58  83 116 150 183 221 267 325
#     4  10  19  34  58  85 112 142 183 232 277 328
#     4  11  21  33  51  75 107 144 184 228 275 327
#
# _framework density 23.865058999999999
#
# number of rings (size 3 to 8) (size 9 to 14) (size 15 to 20)
#    0.000    2.250    1.250    3.375    0.000    4.500 
#    0.000    6.875    0.000    8.250    0.000    0.000 
#    0.000    0.000    0.000    0.000    0.000    0.000 
#
# Total GULP energy -178635.545850 kJ/mol
# GULP energy per Si atom -5582.360808 kJ/mol
# Density = 2.381074 g / cm^3
# Si number density = 23.865059 Si / 1000 Ang^3
#
#
#
# Elastic Constant Matrix: (Units=GPa)
#
#
# Indices 1 2 3 4 5 6 
#
# 1 133.3108 13.9702 41.2114 0.0000 26.6427 0.0000
# 2 13.9702 53.7666 -3.9455 0.0000 1.9346 0.0000
# 3 41.2114 -3.9455 130.2134 0.0000 20.1820 0.0000
# 4 0.0000 0.0000 0.0000 -114.3272 0.0000 -20.1123
# 5 26.6427 1.9346 20.1820 0.0000 48.6356 0.0000
# 6 0.0000 0.0000 0.0000 -20.1123 0.0000 13.3690
#
#
#
# Elastic Compliance Matrix: (Units=1/GPa)
#
#
# Indices 1 2 3 4 5 6 
#
# 1 0.009299 -0.002448 -0.002397 0.000000 -0.004002 0.000000
# 2 -0.002448 0.019334 0.001359 0.000000 0.000008 0.000000
# 3 -0.002397 0.001359 0.008854 0.000000 -0.002415 0.000000
# 4 0.000000 0.000000 0.000000 -0.006916 0.000000 -0.010405
# 5 -0.004002 0.000008 -0.002415 0.000000 0.023755 0.000000
# 6 0.000000 0.000000 0.000000 -0.010405 0.000000 0.059147
#
#
# Mechanical properties :
#
#
# Convention : Reuss Voigt Hill
#
# Bulk Modulus (GPa) = 32.76978 46.64035 39.70507
# Shear Modulus (GPa) = 38.28045 7.27245 22.77645
#
# Velocity S-wave (km/s) = 4.00939 1.74755 3.09266
# Velocity P-wave (km/s) = 5.93251 4.86392 5.42459
#
# Compressibility (1/GPa) = 0.03051592
#
# Stress axis : x y z
#
# Youngs Moduli (GPa) = 107.54394 51.72124 112.94607
#
# Poissons Ratio (x) = 0.12661 0.27071
# Poissons Ratio (y) = 0.26326 -0.15354
# Poissons Ratio (z) = 0.25776 -0.07031
#
# Static dielectric constant tensor:
#      x y z
#    x 2.016200 0.000000 0.008690 
#    y 0.000000 1.882770 0.000000 
#    z 0.008690 0.000000 1.937180 
# 
# From -- ./inp_files/86168.got.cif
#   From: 2010.05.17/outbox.cif.g08.bks.cpg/sg10_44_cif.got.tgz:86168.got - 2010.06.03 11:33:40.
