data_PCOD9145170
_publ_section_title
;
Structure prediction by ZEFSAII (Michael W. Deem and Ramdas Pophale) SiO2 
 PCOD9145170
Probable space group: P 2/M
;
_chemical_formula_sum "Si O2"
_cell_formula_units_Z 20
_cell_length_a 9.598436
_cell_length_b 13.736556
_cell_length_c 17.331020
_cell_angle_alpha 90.000000
_cell_angle_beta 23.007620
_cell_angle_gamma 90.000000
_cell_volume 893.133779
_symmetry_space_group_name_H-M "P 2/M"
_symmetry_group_IT_number 10
_symmetry_cell_setting 'monoclinic'
loop_
_space_group_symop_operation_xyz
x,y,z
-x,y,-z
-x,-y,-z
x,-y,z
loop_
_atom_site_type_symbol
_atom_site_label
_atom_site_fract_x
_atom_site_fract_y
_atom_site_fract_z
Si Si1 0.144041 0.802965 0.644956
Si Si2 0.733602 0.671833 0.952715
Si Si3 0.468414 0.606959 0.409243
Si Si4 0.289269 0.105153 0.418318
Si Si5 0.585804 0.302400 0.199135
O O1 0.500000 0.847044 0.500000
O O2 0.262456 0.695600 0.554080
O O3 0.077463 0.866091 0.603947
O O4 0.860799 0.777454 0.854878
O O5 0.108015 0.619415 0.785171
O O6 0.500000 0.630340 0.000000
O O7 0.516322 0.685707 0.143456
O O8 0.350340 0.500000 0.492939
O O9 0.404973 0.622884 0.350353
O O10 0.521258 0.196458 0.270739
O O11 0.000000 0.096983 0.500000
O O12 0.472613 0.000000 0.334433
O O13 0.000000 0.321981 0.000000
#
# Coordination Sequence:
#
# PCOD9145170 Si02
#       5
#     4   4   4   4   4
#     4   9  19  35  54  74 101 135 169 205 247 298
#     4  10  19  31  51  77 104 131 162 210 258 288
#     4   9  19  36  54  71  98 139 176 201 239 300
#     4  10  20  35  55  76 100 133 169 205 249 301
#     4   9  19  35  54  74 101 135 169 205 247 298
#
# _framework density 22.393062
#
# number of rings (size 3 to 8) (size 9 to 14) (size 15 to 20)
#    0.000    2.600    0.000    2.400    0.000    8.400 
#    0.000    1.000    0.000   24.000    0.000    0.000 
#    0.000    0.000    0.000    0.000    0.000    0.000 
#
# Total GULP energy -111397.767855 kJ/mol
# GULP energy per Si atom -5569.888393 kJ/mol
# Density = 2.234209 g / cm^3
# Si number density = 22.393062 Si / 1000 Ang^3
#
#
#
# Elastic Constant Matrix: (Units=GPa)
#
#
# Indices 1 2 3 4 5 6 
#
# 1 169.1579 25.5399 24.1454 0.0000 34.0995 0.0000
# 2 25.5399 76.4081 -15.4261 0.0000 13.8784 0.0000
# 3 24.1454 -15.4261 25.7150 0.0000 10.4644 0.0000
# 4 0.0000 0.0000 0.0000 9.8953 0.0000 2.4433
# 5 34.0995 13.8784 10.4644 0.0000 41.6250 0.0000
# 6 0.0000 0.0000 0.0000 2.4433 0.0000 -9.2877
#
#
#
# Elastic Compliance Matrix: (Units=1/GPa)
#
#
# Indices 1 2 3 4 5 6 
#
# 1 0.008487 -0.004061 -0.009053 0.000000 -0.003323 0.000000
# 2 -0.004061 0.019711 0.018890 0.000000 -0.007994 0.000000
# 3 -0.009053 0.018890 0.064905 0.000000 -0.015199 0.000000
# 4 0.000000 0.000000 0.000000 0.094895 0.000000 0.024963
# 5 -0.003323 -0.007994 -0.015199 0.000000 0.033232 0.000000
# 6 0.000000 0.000000 0.000000 0.024963 0.000000 -0.101102
#
#
# Mechanical properties :
#
#
# Convention : Reuss Voigt Hill
#
# Bulk Modulus (GPa) = 9.55507 37.75548 23.65528
# Shear Modulus (GPa) = 34.85301 24.24796 29.55049
#
# Velocity S-wave (km/s) = 3.94943 3.29421 3.63661
# Velocity P-wave (km/s) = 5.00735 5.60054 5.31223
#
# Compressibility (1/GPa) = 0.10465650
#
# Stress axis : x y z
#
# Youngs Moduli (GPa) = 117.83127 50.73357 15.40706
#
# Poissons Ratio (x) = 0.20602 0.13948
# Poissons Ratio (y) = 0.47850 -0.29105
# Poissons Ratio (z) = 1.06669 -0.95838
#
# Static dielectric constant tensor:
#      x y z
#    x 1.964140 0.000000 0.048540 
#    y 0.000000 1.882990 0.000000 
#    z 0.048540 0.000000 1.906330 
# 
# From -- ./inp_files/75160.got.cif
#   From: 2010.05.17/outbox.cif.g08.bks.cpg/sg10_38_cif.got.tgz:75160.got - 2010.06.03 11:33:40.
