data_PCOD9145589
_publ_section_title
;
Structure prediction by ZEFSAII (Michael W. Deem and Ramdas Pophale) SiO2 
 PCOD9145589
Probable space group: P 2/M
;
_chemical_formula_sum "Si O2"
_cell_formula_units_Z 32
_cell_length_a 9.454491
_cell_length_b 13.557280
_cell_length_c 16.298781
_cell_angle_alpha 90.000000
_cell_angle_beta 108.316142
_cell_angle_gamma 90.000000
_cell_volume 1983.290085
_symmetry_space_group_name_H-M "P 2/M"
_symmetry_group_IT_number 10
_symmetry_cell_setting 'monoclinic'
loop_
_space_group_symop_operation_xyz
x,y,z
-x,y,-z
-x,-y,-z
x,-y,z
loop_
_atom_site_type_symbol
_atom_site_label
_atom_site_fract_x
_atom_site_fract_y
_atom_site_fract_z
Si Si1 0.651225 0.619115 0.484585
Si Si2 0.720357 0.384588 0.920682
Si Si3 0.875743 0.743599 0.811128
Si Si4 0.918040 0.383883 0.656681
Si Si5 0.687147 0.883196 0.869499
Si Si6 0.734466 0.383483 0.316431
Si Si7 0.189259 0.768347 0.949158
Si Si8 0.427547 0.741362 0.852619
O O1 0.500000 0.656052 0.500000
O O2 0.641745 0.500000 0.480719
O O3 0.795748 0.641445 0.565670
O O4 0.673173 0.648180 0.394150
O O5 0.713248 0.500000 0.916195
O O6 0.798436 0.338929 0.854905
O O7 0.556819 0.336634 0.900134
O O8 0.812409 0.341930 0.013714
O O9 0.898862 0.691251 0.728581
O O10 0.766230 0.836332 0.804028
O O11 0.032148 0.780796 0.876794
O O12 0.894556 0.500000 0.676661
O O13 0.086272 0.377567 0.653645
O O14 0.522278 0.836603 0.842779
O O15 0.689307 0.000000 0.871555
O O16 0.773267 0.838886 0.966293
O O17 0.695496 0.500000 0.295240
O O18 0.666514 0.313199 0.234685
O O19 0.321506 0.771508 0.907766
#
# Coordination Sequence:
#
# PCOD9145589 Si02
#       8
#     4   4   4   4   4   4   4   4
#     4   9  19  31  49  77 107 142 181 208 238 295
#     4  10  20  30  44  66 103 142 175 209 247 297
#     4  10  20  34  51  74 102 134 176 219 255 312
#     4  10  19  32  51  76 111 146 173 206 249 297
#     4  10  22  38  56  74 100 135 172 225 278 316
#     4  10  19  32  51  76 111 146 173 206 249 297
#     4  10  20  34  50  73  99 132 177 218 257 309
#     4  10  20  34  51  74 102 134 176 219 255 312
#
# _framework density 16.134805
#
# number of rings (size 3 to 8) (size 9 to 14) (size 15 to 20)
#    0.000    2.375    1.250    4.125    3.500    6.500 
#    0.000    0.000    0.000    0.000    0.000    1.750 
#    0.000    2.000    0.000    0.000    0.000    0.000 
#
# Total GULP energy -178322.642830 kJ/mol
# GULP energy per Si atom -5572.582588 kJ/mol
# Density = 1.609808 g / cm^3
# Si number density = 16.134805 Si / 1000 Ang^3
#
#
#
# Elastic Constant Matrix: (Units=GPa)
#
#
# Indices 1 2 3 4 5 6 
#
# 1 50.0418 20.3025 10.5585 0.0000 -16.9963 0.0000
# 2 20.3025 96.2831 13.2553 0.0000 -5.9917 0.0000
# 3 10.5585 13.2553 59.3498 0.0000 -8.4878 0.0000
# 4 0.0000 0.0000 0.0000 14.3947 0.0000 -0.4503
# 5 -16.9963 -5.9917 -8.4878 0.0000 27.8876 0.0000
# 6 0.0000 0.0000 0.0000 -0.4503 0.0000 11.0204
#
#
#
# Elastic Compliance Matrix: (Units=1/GPa)
#
#
# Indices 1 2 3 4 5 6 
#
# 1 0.027354 -0.004594 -0.001670 0.000000 0.015176 0.000000
# 2 -0.004594 0.011560 -0.001892 0.000000 -0.000892 0.000000
# 3 -0.001670 -0.001892 0.018156 0.000000 0.004101 0.000000
# 4 0.000000 0.000000 0.000000 0.069559 0.000000 0.002842
# 5 0.015176 -0.000892 0.004101 0.000000 0.046164 0.000000
# 6 0.000000 0.000000 0.000000 0.002842 0.000000 0.090857
#
#
# Mechanical properties :
#
#
# Convention : Reuss Voigt Hill
#
# Bulk Modulus (GPa) = 24.53544 32.65637 28.59590
# Shear Modulus (GPa) = 17.03314 21.43111 19.23212
#
# Velocity S-wave (km/s) = 3.25264 3.64847 3.45623
# Velocity P-wave (km/s) = 5.41718 6.16702 5.80422
#
# Compressibility (1/GPa) = 0.04075737
#
# Stress axis : x y z
#
# Youngs Moduli (GPa) = 36.55826 86.50796 55.07969
#
# Poissons Ratio (x) = 0.39738 0.09198
# Poissons Ratio (y) = 0.16793 0.10422
# Poissons Ratio (z) = 0.06105 0.16368
#
# Static dielectric constant tensor:
#      x y z
#    x 1.568660 0.000000 -0.001460 
#    y 0.000000 1.516930 0.000000 
#    z -0.001460 0.000000 1.542070 
# 
# From -- ./inp_files/61567.got.cif
#   From: 2010.05.17/outbox.cif.g08.bks.cpg/sg10_31_cif.got.tgz:61567.got - 2010.06.03 11:33:40.
