data_PCOD9145570
_publ_section_title
;
Structure prediction by ZEFSAII (Michael W. Deem and Ramdas Pophale) SiO2 
 PCOD9145570
Probable space group: P 2/M
;
_chemical_formula_sum "Si O2"
_cell_formula_units_Z 32
_cell_length_a 19.849749
_cell_length_b 10.294281
_cell_length_c 18.311118
_cell_angle_alpha 90.000000
_cell_angle_beta 22.779724
_cell_angle_gamma 90.000000
_cell_volume 1448.736096
_symmetry_space_group_name_H-M "P 2/M"
_symmetry_group_IT_number 10
_symmetry_cell_setting 'monoclinic'
loop_
_space_group_symop_operation_xyz
x,y,z
-x,y,-z
-x,-y,-z
x,-y,z
loop_
_atom_site_type_symbol
_atom_site_label
_atom_site_fract_x
_atom_site_fract_y
_atom_site_fract_z
Si Si1 0.598020 0.853020 0.307925
Si Si2 0.945260 0.649007 0.639249
Si Si3 0.020390 0.635781 0.166312
Si Si4 0.371474 0.354254 0.448754
Si Si5 0.627274 0.846861 0.989194
Si Si6 0.667893 0.651321 0.687459
Si Si7 0.811688 0.132385 0.948896
Si Si8 0.808754 0.643635 0.158346
O O1 0.465980 0.757830 0.398365
O O2 0.537783 0.000000 0.384808
O O3 0.743790 0.872106 0.099109
O O4 0.683935 0.768491 0.287610
O O5 0.883250 0.500000 0.718313
O O6 0.129651 0.672514 0.495889
O O7 0.000000 0.649850 0.500000
O O8 0.795762 0.759374 0.798439
O O9 0.027115 0.500000 0.199863
O O10 0.828737 0.649512 0.326318
O O11 0.066762 0.746046 0.175457
O O12 0.152608 0.631928 0.966968
O O13 0.442418 0.500000 0.392726
O O14 0.364437 0.338965 0.367952
O O15 0.655114 0.857061 0.049139
O O16 0.622402 0.000000 0.968318
O O17 0.455935 0.758034 0.149565
O O18 0.626777 0.500000 0.748721
O O19 0.909160 0.000000 0.833527
O O20 0.745421 0.500000 0.246709
O O21 0.000000 0.666128 0.000000
#
# Coordination Sequence:
#
# PCOD9145570 Si02
#       8
#     4   4   4   4   4   4   4   4
#     4  10  19  32  51  75 106 138 171 215 266 324
#     4  10  23  43  63  85 116 155 201 247 289 340
#     4   9  18  31  51  77 104 137 178 226 276 326
#     4  10  19  32  51  79 109 134 171 221 276 333
#     4  11  22  37  59  87 119 153 191 237 293 353
#     4  10  21  37  60  87 115 151 192 239 293 350
#     4   9  18  32  49  75 106 136 171 214 271 331
#     4   9  18  34  54  75 101 138 184 227 270 323
#
# _framework density 22.088218000000001
#
# number of rings (size 3 to 8) (size 9 to 14) (size 15 to 20)
#    0.000    2.250    1.250    1.500    0.000    4.500 
#    0.000    3.125    0.000    3.750    0.000    0.000 
#    0.000    0.000    0.000    0.000    0.000    0.000 
#
# Total GULP energy -178310.362957 kJ/mol
# GULP energy per Si atom -5572.198842 kJ/mol
# Density = 2.203794 g / cm^3
# Si number density = 22.088218 Si / 1000 Ang^3
#
#
#
# Elastic Constant Matrix: (Units=GPa)
#
#
# Indices 1 2 3 4 5 6 
#
# 1 53.4824 30.4711 13.4520 0.0000 -1.3954 0.0000
# 2 30.4711 219.5249 83.6243 0.0000 -25.1284 0.0000
# 3 13.4520 83.6243 84.1922 0.0000 -6.5329 0.0000
# 4 0.0000 0.0000 0.0000 39.8375 0.0000 -9.7234
# 5 -1.3954 -25.1284 -6.5329 0.0000 20.6597 0.0000
# 6 0.0000 0.0000 0.0000 -9.7234 0.0000 10.1850
#
#
#
# Elastic Compliance Matrix: (Units=1/GPa)
#
#
# Indices 1 2 3 4 5 6 
#
# 1 0.020423 -0.002875 -0.000586 0.000000 -0.002303 0.000000
# 2 -0.002875 0.008792 -0.007646 0.000000 0.008082 0.000000
# 3 -0.000586 -0.007646 0.019315 0.000000 -0.003232 0.000000
# 4 0.000000 0.000000 0.000000 0.032728 0.000000 0.031245
# 5 -0.002303 0.008082 -0.003232 0.000000 0.057056 0.000000
# 6 0.000000 0.000000 0.000000 0.031245 0.000000 0.128012
#
#
# Mechanical properties :
#
#
# Convention : Reuss Voigt Hill
#
# Bulk Modulus (GPa) = 38.00064 68.03269 53.01666
# Shear Modulus (GPa) = 16.81725 29.44659 23.13192
#
# Velocity S-wave (km/s) = 2.76228 3.65517 3.23964
# Velocity P-wave (km/s) = 5.23593 6.97718 6.16831
#
# Compressibility (1/GPa) = 0.02631535
#
# Stress axis : x y z
#
# Youngs Moduli (GPa) = 48.96391 113.73604 51.77245
#
# Poissons Ratio (x) = 0.32702 0.03034
# Poissons Ratio (y) = 0.14078 0.39588
# Poissons Ratio (z) = 0.02869 0.86968
#
# Static dielectric constant tensor:
#      x y z
#    x 1.865930 0.000000 0.030370 
#    y 0.000000 1.904660 0.000000 
#    z 0.030370 0.000000 1.813960 
# 
# From -- ./inp_files/90618.got.cif
#   From: 2010.05.17/outbox.cif.g08.bks.cpg/sg10_46_cif.got.tgz:90618.got - 2010.06.03 11:33:40.
