data_PCOD9145542
_publ_section_title
;
Structure prediction by ZEFSAII (Michael W. Deem and Ramdas Pophale) SiO2 
 PCOD9145542
Probable space group: P 2/M
;
_chemical_formula_sum "Si O2"
_cell_formula_units_Z 30
_cell_length_a 24.867808
_cell_length_b 11.337999
_cell_length_c 7.025293
_cell_angle_alpha 90.000000
_cell_angle_beta 132.654818
_cell_angle_gamma 90.000000
_cell_volume 1456.770069
_symmetry_space_group_name_H-M "P 2/M"
_symmetry_group_IT_number 10
_symmetry_cell_setting 'monoclinic'
loop_
_space_group_symop_operation_xyz
x,y,z
-x,y,-z
-x,-y,-z
x,-y,z
loop_
_atom_site_type_symbol
_atom_site_label
_atom_site_fract_x
_atom_site_fract_y
_atom_site_fract_z
Si Si1 0.302517 0.296872 0.248579
Si Si2 0.500000 0.192318 0.000000
Si Si3 0.176387 0.134701 0.055030
Si Si4 0.019707 0.142639 0.760353
Si Si5 0.765911 0.367348 0.296823
Si Si6 0.138283 0.862331 0.510322
Si Si7 0.569852 0.868270 0.550783
Si Si8 0.379248 0.627934 0.800800
O O1 0.359087 0.212328 0.273291
O O2 0.349679 0.368300 0.513155
O O3 0.246104 0.217487 0.234219
O O4 0.256541 0.364663 0.979856
O O5 0.543887 0.126335 0.269175
O O6 0.559638 0.273422 0.037886
O O7 0.104030 0.177108 0.994190
O O8 0.154806 0.132790 0.778375
O O9 0.194109 0.000000 0.150044
O O10 0.000000 0.185987 0.500000
O O11 0.948201 0.166650 0.714327
O O12 0.023114 0.000000 0.760778
O O13 0.796484 0.500000 0.413518
O O14 0.814250 0.249334 0.446025
O O15 0.691077 0.355635 0.235544
O O16 0.150718 0.000000 0.474697
O O17 0.500000 0.823406 0.500000
O O18 0.586817 0.000000 0.661907
O O19 0.411635 0.500000 0.921508
#
# Coordination Sequence:
#
# PCOD9145542 Si02
#       8
#     4   2   4   4   4   4   4   4
#     4  10  19  32  51  73  98 131 168 204 245 296
#     4  10  20  36  54  72  94 126 168 208 248 296
#     4   8  13  23  43  71 100 129 164 206 248 291
#     4   7  10  19  39  67  96 126 162 203 244 287
#     4  10  20  34  52  75 103 133 166 206 251 296
#     4   8  14  26  46  72 100 131 167 205 247 295
#     4  10  20  33  50  74 105 135 163 201 251 302
#     4  10  21  36  53  72  95 126 165 208 251 295
#
# _framework density 20.593502999999998
#
# number of rings (size 3 to 8) (size 9 to 14) (size 15 to 20)
#    0.000    2.933    0.000    3.600    0.000    0.533 
#    0.000    4.000    0.000   18.000    0.000    4.667 
#    0.000    0.000    0.000    0.000    0.000    0.000 
#
# Total GULP energy -167197.403054 kJ/mol
# GULP energy per Si atom -5573.246768 kJ/mol
# Density = 2.054663 g / cm^3
# Si number density = 20.593503 Si / 1000 Ang^3
#
#
#
# Elastic Constant Matrix: (Units=GPa)
#
#
# Indices 1 2 3 4 5 6 
#
# 1 93.6197 47.6751 -1.6253 0.0000 20.5974 0.0000
# 2 47.6751 111.7483 26.7363 0.0000 27.8929 0.0000
# 3 -1.6253 26.7363 46.4483 0.0000 3.7798 0.0000
# 4 0.0000 0.0000 0.0000 218.8308 0.0000 167.4480
# 5 20.5974 27.8929 3.7798 0.0000 37.7270 0.0000
# 6 0.0000 0.0000 0.0000 167.4480 0.0000 133.4908
#
#
#
# Elastic Compliance Matrix: (Units=1/GPa)
#
#
# Indices 1 2 3 4 5 6 
#
# 1 0.014910 -0.006511 0.004578 0.000000 -0.003784 0.000000
# 2 -0.006511 0.015553 -0.008604 0.000000 -0.007082 0.000000
# 3 0.004578 -0.008604 0.026544 0.000000 0.001203 0.000000
# 4 0.000000 0.000000 0.000000 0.113795 0.000000 -0.142742
# 5 -0.003784 -0.007082 0.001203 0.000000 0.033688 0.000000
# 6 0.000000 0.000000 0.000000 -0.142742 0.000000 0.186544
#
#
# Mechanical properties :
#
#
# Convention : Reuss Voigt Hill
#
# Bulk Modulus (GPa) = 27.83096 44.15429 35.99263
# Shear Modulus (GPa) = 11.79007 89.94506 50.86757
#
# Velocity S-wave (km/s) = 2.39532 6.61598 4.97538
# Velocity P-wave (km/s) = 4.60368 8.93583 7.10785
#
# Compressibility (1/GPa) = 0.03593120
#
# Stress axis : x y z
#
# Youngs Moduli (GPa) = 67.07120 64.29690 37.67298
#
# Poissons Ratio (x) = 0.41867 -0.17246
# Poissons Ratio (y) = 0.43673 0.32414
# Poissons Ratio (z) = -0.30704 0.55321
#
# Static dielectric constant tensor:
#      x y z
#    x 1.769690 0.000000 -0.032670 
#    y 0.000000 1.709410 0.000000 
#    z -0.032670 0.000000 1.749570 
# 
# From -- ./inp_files/37523.got.cif
#   From: 2010.05.17/outbox.cif.g08.bks.cpg/sg10_19_cif.got.tgz:37523.got - 2010.06.03 11:33:40.
