data_PCOD9145552
_publ_section_title
;
Structure prediction by ZEFSAII (Michael W. Deem and Ramdas Pophale) SiO2 
 PCOD9145552
Probable space group: P 2/M
;
_chemical_formula_sum "Si O2"
_cell_formula_units_Z 32
_cell_length_a 5.222622
_cell_length_b 13.448073
_cell_length_c 28.564935
_cell_angle_alpha 90.000000
_cell_angle_beta 68.135214
_cell_angle_gamma 90.000000
_cell_volume 1861.917504
_symmetry_space_group_name_H-M "P 2/M"
_symmetry_group_IT_number 10
_symmetry_cell_setting 'monoclinic'
loop_
_space_group_symop_operation_xyz
x,y,z
-x,y,-z
-x,-y,-z
x,-y,z
loop_
_atom_site_type_symbol
_atom_site_label
_atom_site_fract_x
_atom_site_fract_y
_atom_site_fract_z
Si Si1 0.180462 0.880257 0.708851
Si Si2 0.810584 0.118233 0.645440
Si Si3 0.870430 0.810767 0.820934
Si Si4 0.366028 0.611195 0.561002
Si Si5 0.152565 0.688743 0.940432
Si Si6 0.742999 0.884988 0.121797
Si Si7 0.866863 0.268328 0.560450
Si Si8 0.233816 0.385111 0.116862
O O1 0.503704 0.856145 0.684300
O O2 0.032467 0.855028 0.670003
O O3 0.027232 0.827111 0.761857
O O4 0.153333 0.000000 0.717519
O O5 0.863989 0.172220 0.592996
O O6 0.820207 0.000000 0.638231
O O7 0.567530 0.859839 0.840356
O O8 0.835852 0.695578 0.838252
O O9 0.047763 0.862938 0.849915
O O10 0.500000 0.606147 0.500000
O O11 0.369711 0.500000 0.580552
O O12 0.562888 0.686437 0.575045
O O13 0.061313 0.652041 0.573359
O O14 0.188950 0.804439 0.923013
O O15 0.454787 0.639860 0.920498
O O16 0.972138 0.637600 0.912022
O O17 0.000000 0.679523 0.000000
O O18 0.762052 0.000000 0.106246
O O19 0.000000 0.250936 0.500000
O O20 0.212427 0.500000 0.132518
#
# Coordination Sequence:
#
# PCOD9145552 Si02
#       8
#     4   4   4   4   4   4   4   4
#     4  10  19  33  53  74 100 131 163 207 257 298
#     4  10  21  34  50  76 105 134 168 202 243 300
#     4  10  20  34  54  78  99 126 168 212 254 304
#     4   9  17  30  50  74  96 124 166 210 247 282
#     4  10  21  34  50  76 105 136 174 208 245 295
#     4  10  19  32  51  76 105 132 164 207 253 305
#     4  10  19  32  51  74 103 138 170 204 247 294
#     4  10  21  36  54  75 100 133 172 212 251 293
#
# _framework density 17.186582999999999
#
# number of rings (size 3 to 8) (size 9 to 14) (size 15 to 20)
#    0.000    2.125    0.000    3.750    0.000    4.500 
#    0.000    0.000    0.000   13.500    0.000    0.000 
#    0.000    0.000    0.000    0.000    0.000    0.000 
#
# Total GULP energy -178570.413980 kJ/mol
# GULP energy per Si atom -5580.325437 kJ/mol
# Density = 1.714747 g / cm^3
# Si number density = 17.186583 Si / 1000 Ang^3
#
#
#
# Elastic Constant Matrix: (Units=GPa)
#
#
# Indices 1 2 3 4 5 6 
#
# 1 58.8258 5.6063 -15.6265 0.0000 -6.4872 0.0000
# 2 5.6063 83.6356 14.5208 0.0000 -3.2438 0.0000
# 3 -15.6265 14.5208 41.0485 0.0000 -8.2764 0.0000
# 4 0.0000 0.0000 0.0000 9.0132 0.0000 1.7286
# 5 -6.4872 -3.2438 -8.2764 0.0000 12.8464 0.0000
# 6 0.0000 0.0000 0.0000 1.7286 0.0000 11.8768
#
#
#
# Elastic Compliance Matrix: (Units=1/GPa)
#
#
# Indices 1 2 3 4 5 6 
#
# 1 0.023221 -0.003213 0.013996 0.000000 0.019932 0.000000
# 2 -0.003213 0.013185 -0.006371 0.000000 -0.002398 0.000000
# 3 0.013996 -0.006371 0.037977 0.000000 0.029925 0.000000
# 4 0.000000 0.000000 0.000000 0.114135 0.000000 -0.016612
# 5 0.019932 -0.002398 0.029925 0.000000 0.106582 0.000000
# 6 0.000000 0.000000 0.000000 -0.016612 0.000000 0.086616
#
#
# Mechanical properties :
#
#
# Convention : Reuss Voigt Hill
#
# Bulk Modulus (GPa) = 12.01845 21.39013 16.70429
# Shear Modulus (GPa) = 12.48038 18.68123 15.58080
#
# Velocity S-wave (km/s) = 2.69768 3.30049 3.01419
# Velocity P-wave (km/s) = 4.08796 5.19588 4.67486
#
# Compressibility (1/GPa) = 0.08320539
#
# Stress axis : x y z
#
# Youngs Moduli (GPa) = 43.06369 75.84279 26.33192
#
# Poissons Ratio (x) = 0.24372 -0.36853
# Poissons Ratio (y) = 0.13838 0.16776
# Poissons Ratio (z) = -0.60270 0.48320
#
# Static dielectric constant tensor:
#      x y z
#    x 1.585360 0.000000 -0.000220 
#    y 0.000000 1.580120 0.000000 
#    z -0.000220 0.000000 1.546210 
# 
# From -- ./inp_files/87453.got.cif
#   From: 2010.05.17/outbox.cif.g08.bks.cpg/sg10_44_cif.got.tgz:87453.got - 2010.06.03 11:33:40.
