data_PCOD9145685
_publ_section_title
;
Structure prediction by ZEFSAII (Michael W. Deem and Ramdas Pophale) SiO2 
 PCOD9145685
Probable space group: P 2/M
;
_chemical_formula_sum "Si O2"
_cell_formula_units_Z 32
_cell_length_a 31.303107
_cell_length_b 8.599934
_cell_length_c 13.256406
_cell_angle_alpha 90.000000
_cell_angle_beta 152.385483
_cell_angle_gamma 90.000000
_cell_volume 1654.159413
_symmetry_space_group_name_H-M "P 2/M"
_symmetry_group_IT_number 10
_symmetry_cell_setting 'monoclinic'
loop_
_space_group_symop_operation_xyz
x,y,z
-x,y,-z
-x,-y,-z
x,-y,z
loop_
_atom_site_type_symbol
_atom_site_label
_atom_site_fract_x
_atom_site_fract_y
_atom_site_fract_z
Si Si1 0.125356 0.814265 0.055415
Si Si2 0.398385 0.190206 0.325896
Si Si3 0.073101 0.685261 0.379819
Si Si4 0.665455 0.678819 0.156991
Si Si5 0.836549 0.315292 0.644197
Si Si6 0.754763 0.818895 0.153577
Si Si7 0.515502 0.819946 0.151053
Si Si8 0.683695 0.188033 0.632287
O O1 0.138407 0.767423 0.199927
O O2 0.213558 0.754798 0.176291
O O3 0.123347 0.000000 0.044874
O O4 0.028456 0.748839 0.815042
O O5 0.500000 0.241138 0.500000
O O6 0.369186 0.239984 0.377301
O O7 0.400794 0.000000 0.328947
O O8 0.314477 0.240438 0.077566
O O9 0.071893 0.500000 0.374930
O O10 0.107290 0.736259 0.338647
O O11 0.147930 0.738657 0.618834
O O12 0.683535 0.500000 0.164074
O O13 0.729929 0.707789 0.389132
O O14 0.698625 0.792767 0.139236
O O15 0.559846 0.709853 0.957285
O O16 0.853065 0.500000 0.692079
O O17 0.771805 0.000000 0.170195
O O18 0.617342 0.776961 0.399431
O O19 0.499294 0.000000 0.149735
O O20 0.500000 0.813477 0.000000
O O21 0.690457 0.000000 0.654299
#
# Coordination Sequence:
#
# PCOD9145685 Si02
#       8
#     4   4   4   4   4   4   4   4
#     4  11  21  33  53  79 107 140 179 224 267 312
#     4   9  17  32  57  84 107 135 171 216 271 322
#     4  10  21  37  55  76 108 145 177 217 269 319
#     4  10  20  33  50  75 109 144 174 213 269 326
#     4   9  19  34  51  73 105 145 180 212 260 318
#     4  10  19  33  57  83 102 129 177 226 264 310
#     4  10  19  32  52  77 106 142 182 222 262 308
#     4   9  19  34  51  78 112 139 172 222 275 321
#
# _framework density 19.345172999999999
#
# number of rings (size 3 to 8) (size 9 to 14) (size 15 to 20)
#    0.000    2.250    0.000    4.125    0.000    7.750 
#    0.000    1.875    0.000   13.500    0.000    0.000 
#    0.000    0.000    0.000    0.000    0.000    0.000 
#
# Total GULP energy -178504.415756 kJ/mol
# GULP energy per Si atom -5578.262992 kJ/mol
# Density = 1.930114 g / cm^3
# Si number density = 19.345173 Si / 1000 Ang^3
#
#
#
# Elastic Constant Matrix: (Units=GPa)
#
#
# Indices 1 2 3 4 5 6 
#
# 1 85.4824 16.6876 74.6544 0.0000 17.5088 0.0000
# 2 16.6876 19.3143 24.1776 0.0000 3.7618 0.0000
# 3 74.6544 24.1776 140.0234 0.0000 15.8911 0.0000
# 4 0.0000 0.0000 0.0000 13.1071 0.0000 10.0326
# 5 17.5088 3.7618 15.8911 0.0000 35.8937 0.0000
# 6 0.0000 0.0000 0.0000 10.0326 0.0000 3.8941
#
#
#
# Elastic Compliance Matrix: (Units=1/GPa)
#
#
# Indices 1 2 3 4 5 6 
#
# 1 0.023551 -0.005498 -0.010917 0.000000 -0.006078 0.000000
# 2 -0.005498 0.067468 -0.008655 0.000000 -0.000557 0.000000
# 3 -0.010917 -0.008655 0.014477 0.000000 -0.000177 0.000000
# 4 0.000000 0.000000 0.000000 -0.078487 0.000000 0.202214
# 5 -0.006078 -0.000557 -0.000177 0.000000 0.030962 0.000000
# 6 0.000000 0.000000 0.000000 0.202214 0.000000 -0.264182
#
#
# Mechanical properties :
#
#
# Convention : Reuss Voigt Hill
#
# Bulk Modulus (GPa) = 18.06511 52.87327 35.46919
# Shear Modulus (GPa) = -36.33218 19.19902 -8.56658
#
# Velocity S-wave (km/s) = -4.33841 3.15373 -2.10663
# Velocity P-wave (km/s) = 3.96700 6.37591 3.52952
#
# Compressibility (1/GPa) = 0.05535532
#
# Stress axis : x y z
#
# Youngs Moduli (GPa) = 42.46124 14.82178 69.07643
#
# Poissons Ratio (x) = 0.08149 0.75412
# Poissons Ratio (y) = 0.23346 0.59786
# Poissons Ratio (z) = 0.46355 0.12828
#
# Static dielectric constant tensor:
#      x y z
#    x 1.674710 0.000000 0.003420 
#    y 0.000000 1.667100 0.000000 
#    z 0.003420 0.000000 1.686080 
# 
# From -- ./inp_files/58251.got.cif
#   From: 2010.05.17/outbox.cif.g08.bks.cpg/sg10_30_cif.got.tgz:58251.got - 2010.06.03 11:33:40.
