data_PCOD9145660
_publ_section_title
;
Structure prediction by ZEFSAII (Michael W. Deem and Ramdas Pophale) SiO2 
 PCOD9145660
Probable space group: P 2/M
;
_chemical_formula_sum "Si O2"
_cell_formula_units_Z 24
_cell_length_a 22.204533
_cell_length_b 8.138233
_cell_length_c 17.421832
_cell_angle_alpha 90.000000
_cell_angle_beta 18.229179
_cell_angle_gamma 90.000000
_cell_volume 984.823152
_symmetry_space_group_name_H-M "P 2/M"
_symmetry_group_IT_number 10
_symmetry_cell_setting 'monoclinic'
loop_
_space_group_symop_operation_xyz
x,y,z
-x,y,-z
-x,-y,-z
x,-y,z
loop_
_atom_site_type_symbol
_atom_site_label
_atom_site_fract_x
_atom_site_fract_y
_atom_site_fract_z
Si Si1 0.241478 0.810928 0.970072
Si Si2 0.738551 0.000000 0.797438
Si Si3 0.608991 0.308858 0.450843
Si Si4 0.259497 0.319813 0.108047
Si Si5 0.979197 0.194800 0.921864
Si Si6 0.724095 0.317470 0.540065
Si Si7 0.728699 0.000000 0.634566
O O1 0.468299 0.790903 0.676702
O O2 0.186968 0.703930 0.109190
O O3 0.203732 0.000000 0.034894
O O4 0.134987 0.768997 0.020036
O O5 0.802869 0.000000 0.631442
O O6 0.794960 0.834602 0.773759
O O7 0.504552 0.000000 0.079656
O O8 0.500000 0.296348 0.500000
O O9 0.608068 0.500000 0.473288
O O10 0.825030 0.246543 0.172850
O O11 0.207442 0.500000 0.201463
O O12 0.492809 0.314267 0.818185
O O13 0.177242 0.286752 0.662127
O O14 0.012114 0.000000 0.887967
O O15 0.780502 0.500000 0.498860
O O16 0.782555 0.164559 0.523254
#
# Coordination Sequence:
#
# PCOD9145660 Si02
#       7
#     4   2   4   4   4   4   2
#     4  10  19  32  52  76 103 138 177 214 254 301
#     4   9  18  34  55  78 105 134 166 209 257 307
#     4   9  17  29  46  71 102 135 174 217 253 292
#     4  10  20  34  54  79 106 136 170 210 257 307
#     4  10  19  32  52  76 103 138 177 214 254 301
#     4  10  20  34  54  79 106 136 170 210 257 307
#     4   9  18  34  55  78 105 134 166 209 257 307
#
# _framework density 24.369858000000001
#
# number of rings (size 3 to 8) (size 9 to 14) (size 15 to 20)
#    0.000    2.333    1.667    1.500    0.000    4.667 
#    0.000    4.167    0.000    7.000    0.000    2.333 
#    0.000    0.000    0.000    0.000    0.000    0.000 
#
# Total GULP energy -134315.502816 kJ/mol
# GULP energy per Si atom -5596.479284 kJ/mol
# Density = 2.431439 g / cm^3
# Si number density = 24.369858 Si / 1000 Ang^3
#
#
#
# Elastic Constant Matrix: (Units=GPa)
#
#
# Indices 1 2 3 4 5 6 
#
# 1 81.1237 55.6098 19.7217 0.0000 23.8759 0.0000
# 2 55.6098 150.6220 19.4395 0.0000 24.2981 0.0000
# 3 19.7217 19.4395 120.5882 0.0000 1.5243 0.0000
# 4 0.0000 0.0000 0.0000 -15.2283 0.0000 -15.6058
# 5 23.8759 24.2981 1.5243 0.0000 46.4498 0.0000
# 6 0.0000 0.0000 0.0000 -15.6058 0.0000 16.3945
#
#
#
# Elastic Compliance Matrix: (Units=1/GPa)
#
#
# Indices 1 2 3 4 5 6 
#
# 1 0.018548 -0.005521 -0.002060 0.000000 -0.006579 0.000000
# 2 -0.005521 0.009049 -0.000532 0.000000 -0.001878 0.000000
# 3 -0.002060 -0.000532 0.008702 0.000000 0.001052 0.000000
# 4 0.000000 0.000000 0.000000 -0.033241 0.000000 -0.031642
# 5 -0.006579 -0.001878 0.001052 0.000000 0.025858 0.000000
# 6 0.000000 0.000000 0.000000 -0.031642 0.000000 0.030877
#
#
# Mechanical properties :
#
#
# Convention : Reuss Voigt Hill
#
# Bulk Modulus (GPa) = 49.81835 60.20844 55.01340
# Shear Modulus (GPa) = 60.45118 26.69404 43.57261
#
# Velocity S-wave (km/s) = 4.98594 3.31323 4.23303
# Velocity P-wave (km/s) = 7.32346 6.27666 6.82017
#
# Compressibility (1/GPa) = 0.02007292
#
# Stress axis : x y z
#
# Youngs Moduli (GPa) = 53.91277 110.50743 114.91440
#
# Poissons Ratio (x) = 0.61011 0.23676
# Poissons Ratio (y) = 0.29765 0.06115
# Poissons Ratio (z) = 0.11108 0.05880
#
# Static dielectric constant tensor:
#      x y z
#    x 2.042580 0.000000 -0.074420 
#    y 0.000000 1.856780 0.000000 
#    z -0.074420 0.000000 1.950270 
# 
# From -- ./inp_files/80062.got.cif
#   From: 2010.05.17/outbox.cif.g08.bks.cpg/sg10_41_cif.got.tgz:80062.got - 2010.06.03 11:33:40.
