data_PCOD9145670
_publ_section_title
;
Structure prediction by ZEFSAII (Michael W. Deem and Ramdas Pophale) SiO2 
 PCOD9145670
Probable space group: P 2/M
;
_chemical_formula_sum "Si O2"
_cell_formula_units_Z 24
_cell_length_a 8.839894
_cell_length_b 19.449550
_cell_length_c 8.736679
_cell_angle_alpha 90.000000
_cell_angle_beta 63.160131
_cell_angle_gamma 90.000000
_cell_volume 1340.294365
_symmetry_space_group_name_H-M "P 2/M"
_symmetry_group_IT_number 10
_symmetry_cell_setting 'monoclinic'
loop_
_space_group_symop_operation_xyz
x,y,z
-x,y,-z
-x,-y,-z
x,-y,z
loop_
_atom_site_type_symbol
_atom_site_label
_atom_site_fract_x
_atom_site_fract_y
_atom_site_fract_z
Si Si1 0.169278 0.317225 0.529586
Si Si2 0.680665 0.330206 0.847869
Si Si3 0.688774 0.826896 0.478000
Si Si4 0.010950 0.419920 0.177425
Si Si5 0.005158 0.079432 0.684736
Si Si6 0.684656 0.829972 0.847603
O O1 0.312166 0.334594 0.339429
O O2 0.221634 0.246904 0.587245
O O3 0.000000 0.306159 0.500000
O O4 0.131155 0.377118 0.666278
O O5 0.817361 0.382601 0.849768
O O6 0.721098 0.250215 0.869448
O O7 0.500000 0.345779 0.000000
O O8 0.500000 0.829704 0.500000
O O9 0.817904 0.883907 0.355194
O O10 0.674684 0.834190 0.668086
O O11 0.007514 0.500000 0.222194
O O12 0.000000 0.414586 0.000000
O O13 0.000000 0.082005 0.500000
O O14 0.842627 0.121782 0.819347
O O15 0.998846 0.000000 0.733692
O O16 0.500000 0.848024 0.000000
#
# Coordination Sequence:
#
# PCOD9145670 Si02
#       6
#     4   4   4   4   4   4
#     4   9  18  34  54  72  97 134 173 207 248 306
#     4   9  18  33  53  75  99 129 168 211 249 298
#     4  10  19  32  52  77 102 130 169 214 255 296
#     4  10  21  35  51  74 103 132 164 205 253 302
#     4   9  17  31  51  73 102 140 173 202 246 305
#     4   9  18  34  53  76 101 130 172 212 249 297
#
# _framework density 17.906514999999999
#
# number of rings (size 3 to 8) (size 9 to 14) (size 15 to 20)
#    0.000    2.667    0.000    3.500    0.000    8.000 
#    0.000    0.833    0.000    3.500    0.000    0.000 
#    0.000    0.000    0.000    0.000    0.000    0.000 
#
# Total GULP energy -133781.032673 kJ/mol
# GULP energy per Si atom -5574.209695 kJ/mol
# Density = 1.786576 g / cm^3
# Si number density = 17.906515 Si / 1000 Ang^3
#
#
#
# Elastic Constant Matrix: (Units=GPa)
#
#
# Indices 1 2 3 4 5 6 
#
# 1 72.5979 67.4544 21.4161 0.0000 -15.7348 0.0000
# 2 67.4544 148.2484 63.5454 0.0000 -22.0709 0.0000
# 3 21.4161 63.5454 83.1430 0.0000 -38.3121 0.0000
# 4 0.0000 0.0000 0.0000 13.6836 0.0000 2.4675
# 5 -15.7348 -22.0709 -38.3121 0.0000 26.9993 0.0000
# 6 0.0000 0.0000 0.0000 2.4675 0.0000 0.1973
#
#
#
# Elastic Compliance Matrix: (Units=1/GPa)
#
#
# Indices 1 2 3 4 5 6 
#
# 1 0.032746 -0.019349 0.022705 0.000000 0.035485 0.000000
# 2 -0.019349 0.022058 -0.025314 0.000000 -0.029166 0.000000
# 3 0.022705 -0.025314 0.063816 0.000000 0.083094 0.000000
# 4 0.000000 0.000000 0.000000 -0.058219 0.000000 0.728123
# 5 0.035485 -0.029166 0.083094 0.000000 0.151787 0.000000
# 6 0.000000 0.000000 0.000000 0.728123 0.000000 -4.037816
#
#
# Mechanical properties :
#
#
# Convention : Reuss Voigt Hill
#
# Bulk Modulus (GPa) = 13.38632 67.64679 40.51656
# Shear Modulus (GPa) = -1.33092 18.28093 8.47501
#
# Velocity S-wave (km/s) = -0.86306 3.19863 2.17789
# Velocity P-wave (km/s) = 2.54926 7.17645 5.38517
#
# Compressibility (1/GPa) = 0.07470311
#
# Stress axis : x y z
#
# Youngs Moduli (GPa) = 30.53840 45.33505 15.67004
#
# Poissons Ratio (x) = 0.87718 -0.35579
# Poissons Ratio (y) = 0.59088 0.39668
# Poissons Ratio (z) = -0.69337 1.14763
#
# Static dielectric constant tensor:
#      x y z
#    x 1.609350 0.000000 -0.005130 
#    y 0.000000 1.611750 0.000000 
#    z -0.005130 0.000000 1.631280 
# 
# From -- ./inp_files/19921.got.cif
#   From: 2010.05.17/outbox.cif.g08.bks.cpg/sg10_10_cif.got.tgz:19921.got - 2010.06.03 11:33:40.
