data_PCOD9145080
_publ_section_title
;
Structure prediction by ZEFSAII (Michael W. Deem and Ramdas Pophale) SiO2 
 PCOD9145080
Probable space group: P 2/M
;
_chemical_formula_sum "Si O2"
_cell_formula_units_Z 32
_cell_length_a 19.227263
_cell_length_b 7.376851
_cell_length_c 20.518597
_cell_angle_alpha 90.000000
_cell_angle_beta 30.625510
_cell_angle_gamma 90.000000
_cell_volume 1482.572875
_symmetry_space_group_name_H-M "P 2/M"
_symmetry_group_IT_number 10
_symmetry_cell_setting 'monoclinic'
loop_
_space_group_symop_operation_xyz
x,y,z
-x,y,-z
-x,-y,-z
x,-y,z
loop_
_atom_site_type_symbol
_atom_site_label
_atom_site_fract_x
_atom_site_fract_y
_atom_site_fract_z
Si Si1 0.105705 0.778994 0.730185
Si Si2 0.079907 0.779288 0.999210
Si Si3 0.583253 0.778528 0.497565
Si Si4 0.612052 0.221159 0.228965
Si Si5 0.914718 0.218541 0.769827
Si Si6 0.636117 0.786998 0.063169
Si Si7 0.418989 0.281335 0.128820
Si Si8 0.113405 0.285827 0.359611
O O1 0.258988 0.720250 0.624101
O O2 0.998880 0.722826 0.872153
O O3 0.041645 0.722469 0.712542
O O4 0.108396 0.000000 0.727929
O O5 0.079142 0.000000 0.000297
O O6 0.236831 0.724742 0.870388
O O7 0.000000 0.719010 0.000000
O O8 0.500000 0.721956 0.500000
O O9 0.501231 0.720333 0.628165
O O10 0.584798 0.000000 0.494726
O O11 0.602232 0.284498 0.162260
O O12 0.605920 0.000000 0.234134
O O13 0.921501 0.267330 0.688526
O O14 0.911955 0.000000 0.773969
O O15 0.772534 0.285084 0.917357
O O16 0.507165 0.766883 0.120411
O O17 0.664807 0.000000 0.049460
O O18 0.415061 0.500000 0.128456
O O19 0.264729 0.212225 0.251060
O O20 0.500000 0.215988 0.000000
O O21 0.122062 0.500000 0.366078
O O22 0.000000 0.210312 0.500000
#
# Coordination Sequence:
#
# PCOD9145080 Si02
#       8
#     4   4   4   4   4   4   4   4
#     4   9  16  26  39  60  91 126 161 196 241 289
#     4   9  14  21  36  56  82 119 158 192 229 279
#     4   9  16  25  38  59  92 132 166 198 241 291
#     4   9  16  26  38  59  91 123 158 198 239 283
#     4  10  19  32  51  74 103 134 164 205 252 298
#     4  10  19  31  50  75 103 133 165 207 253 295
#     4  10  20  35  55  76  97 128 168 206 246 294
#     4  10  22  39  56  75 101 130 162 205 251 295
#
# _framework density 21.584101
#
# number of rings (size 3 to 8) (size 9 to 14) (size 15 to 20)
#    0.000    2.500    2.500    0.750    0.000    5.000 
#    0.000    1.250    0.000    0.000    0.000    0.000 
#    0.000    6.000    0.000    0.000    0.000    0.000 
#
# Total GULP energy -178731.420064 kJ/mol
# GULP energy per Si atom -5585.356877 kJ/mol
# Density = 2.153498 g / cm^3
# Si number density = 21.584101 Si / 1000 Ang^3
#
#
#
# Elastic Constant Matrix: (Units=GPa)
#
#
# Indices 1 2 3 4 5 6 
#
# 1 101.8168 -16.2509 19.9385 0.0000 -0.4281 0.0000
# 2 -16.2509 73.0987 1.3762 0.0000 -0.4919 0.0000
# 3 19.9385 1.3762 115.7451 0.0000 -1.8051 0.0000
# 4 0.0000 0.0000 0.0000 8.2204 0.0000 145.7225
# 5 -0.4281 -0.4919 -1.8051 0.0000 37.8213 0.0000
# 6 0.0000 0.0000 0.0000 145.7225 0.0000 799.7989
#
#
#
# Elastic Compliance Matrix: (Units=1/GPa)
#
#
# Indices 1 2 3 4 5 6 
#
# 1 0.010564 0.002384 -0.001847 0.000000 0.000062 0.000000
# 2 0.002384 0.014222 -0.000577 0.000000 0.000184 0.000000
# 3 -0.001847 -0.000577 0.008971 0.000000 0.000400 0.000000
# 4 0.000000 0.000000 0.000000 -0.054555 0.000000 0.009940
# 5 0.000062 0.000184 0.000400 0.000000 0.026462 0.000000
# 6 0.000000 0.000000 0.000000 0.009940 0.000000 -0.000561
#
#
# Mechanical properties :
#
#
# Convention : Reuss Voigt Hill
#
# Bulk Modulus (GPa) = 29.69421 33.42090 31.55756
# Shear Modulus (GPa) = 304.69714 188.20791 246.45252
#
# Velocity S-wave (km/s) = 11.89428 9.34809 10.69721
# Velocity P-wave (km/s) = 14.22741 11.49058 12.93160
#
# Compressibility (1/GPa) = 0.03367660
#
# Stress axis : x y z
#
# Youngs Moduli (GPa) = 94.66107 70.31278 111.47075
#
# Poissons Ratio (x) = -0.16761 0.20590
# Poissons Ratio (y) = -0.22565 0.06430
# Poissons Ratio (z) = 0.17485 0.04056
#
# Static dielectric constant tensor:
#      x y z
#    x 1.776760 0.000000 -0.025930 
#    y 0.000000 1.836330 0.000000 
#    z -0.025930 0.000000 1.765900 
# 
# From -- ./inp_files/78941.got.cif
#   From: 2010.05.17/outbox.cif.g08.bks.cpg/sg10_40_cif.got.tgz:78941.got - 2010.06.03 11:33:40.
