data_PCOD9145463
_publ_section_title
;
Structure prediction by ZEFSAII (Michael W. Deem and Ramdas Pophale) SiO2 
 PCOD9145463
Probable space group: P 2/M
;
_chemical_formula_sum "Si O2"
_cell_formula_units_Z 30
_cell_length_a 5.294289
_cell_length_b 37.588106
_cell_length_c 7.986641
_cell_angle_alpha 90.000000
_cell_angle_beta 59.587273
_cell_angle_gamma 90.000000
_cell_volume 1370.665952
_symmetry_space_group_name_H-M "P 2/M"
_symmetry_group_IT_number 10
_symmetry_cell_setting 'monoclinic'
loop_
_space_group_symop_operation_xyz
x,y,z
-x,y,-z
-x,-y,-z
x,-y,z
loop_
_atom_site_type_symbol
_atom_site_label
_atom_site_fract_x
_atom_site_fract_y
_atom_site_fract_z
Si Si1 0.147662 0.647507 0.130116
Si Si2 0.149504 0.724439 0.132861
Si Si3 0.168836 0.959362 0.262868
Si Si4 0.664587 0.837629 0.261831
Si Si5 0.332518 0.918847 0.736595
Si Si6 0.147701 0.500000 0.635553
Si Si7 0.147521 0.576776 0.630943
Si Si8 0.845666 0.800987 0.726536
O O1 0.075843 0.685838 0.238146
O O2 0.999412 0.612047 0.248412
O O3 0.500000 0.643204 0.000000
O O4 0.000000 0.651712 0.000000
O O5 0.086449 0.760062 0.255347
O O6 0.500000 0.723676 0.000000
O O7 0.000000 0.727477 0.000000
O O8 0.485705 0.944226 0.202301
O O9 0.000000 0.959371 0.500000
O O10 0.984952 0.933978 0.202686
O O11 0.172001 0.000000 0.202350
O O12 0.500000 0.836697 0.500000
O O13 0.658846 0.878284 0.205545
O O14 0.489083 0.811075 0.198428
O O15 0.990948 0.824871 0.192169
O O16 0.500000 0.918898 0.500000
O O17 0.500000 0.500000 0.500000
O O18 0.078434 0.538419 0.740343
O O19 0.000000 0.500000 0.500000
O O20 0.500000 0.580817 0.500000
O O21 0.000000 0.573512 0.500000
O O22 0.000000 0.809630 0.500000
#
# Coordination Sequence:
#
# PCOD9145463 Si02
#       8
#     4   4   4   4   4   2   4   4
#     4  10  21  37  54  76 108 141 174 218 268 318
#     4  10  21  37  54  72 100 136 167 200 256 317
#     4   9  15  21  30  46  70 105 151 191 217 260
#     4   9  17  28  43  64  89 116 151 199 248 286
#     4   9  15  23  34  49  74 108 144 185 232 275
#     4   8  16  30  50  76 108 140 174 218 268 314
#     4  10  19  34  56  81 107 142 184 223 263 315
#     4  10  19  32  50  72  94 119 161 209 241 284
#
# _framework density 21.887172
#
# number of rings (size 3 to 8) (size 9 to 14) (size 15 to 20)
#    0.000    2.533    0.000    2.800    0.000    5.333 
#    0.000    2.667    0.000    0.000    0.000    0.000 
#    0.000    0.000    0.000    0.000    0.000  168.000 
#
# Total GULP energy -167440.310012 kJ/mol
# GULP energy per Si atom -5581.343667 kJ/mol
# Density = 2.183736 g / cm^3
# Si number density = 21.887172 Si / 1000 Ang^3
#
#
#
# Elastic Constant Matrix: (Units=GPa)
#
#
# Indices 1 2 3 4 5 6 
#
# 1 166.7018 43.9600 19.5899 0.0000 5.8922 0.0000
# 2 43.9600 162.9973 3.8006 0.0000 12.3122 0.0000
# 3 19.5899 3.8006 33.1904 0.0000 -0.9153 0.0000
# 4 0.0000 0.0000 0.0000 85.1169 0.0000 15.0553
# 5 5.8922 12.3122 -0.9153 0.0000 26.5169 0.0000
# 6 0.0000 0.0000 0.0000 15.0553 0.0000 40.2400
#
#
#
# Elastic Compliance Matrix: (Units=1/GPa)
#
#
# Indices 1 2 3 4 5 6 
#
# 1 0.006943 -0.001714 -0.003926 0.000000 -0.000882 0.000000
# 2 -0.001714 0.006803 0.000156 0.000000 -0.002772 0.000000
# 3 -0.003926 0.000156 0.032482 0.000000 0.001921 0.000000
# 4 0.000000 0.000000 0.000000 0.012581 0.000000 -0.004707
# 5 -0.000882 -0.002772 0.001921 0.000000 0.039261 0.000000
# 6 0.000000 0.000000 0.000000 -0.004707 0.000000 0.026612
#
#
# Mechanical properties :
#
#
# Convention : Reuss Voigt Hill
#
# Bulk Modulus (GPa) = 28.36090 55.28784 41.82437
# Shear Modulus (GPa) = 33.92025 50.07737 41.99881
#
# Velocity S-wave (km/s) = 3.94099 4.78847 4.38525
# Velocity P-wave (km/s) = 5.80469 7.47582 6.69262
#
# Compressibility (1/GPa) = 0.03525981
#
# Stress axis : x y z
#
# Youngs Moduli (GPa) = 144.02140 146.98913 30.78663
#
# Poissons Ratio (x) = 0.25200 0.12088
# Poissons Ratio (y) = 0.24691 -0.00482
# Poissons Ratio (z) = 0.56546 -0.02299
#
# Static dielectric constant tensor:
#      x y z
#    x 1.749730 0.000000 -0.017390 
#    y 0.000000 1.843500 0.000000 
#    z -0.017390 0.000000 1.858400 
# 
# From -- ./inp_files/15898.got.cif
#   From: 2010.05.17/outbox.cif.g08.bks.cpg/sg10_8_cif.got.tgz:15898.got - 2010.06.03 11:33:40.
