data_PCOD9145625
_publ_section_title
;
Structure prediction by ZEFSAII (Michael W. Deem and Ramdas Pophale) SiO2 
 PCOD9145625
Probable space group: P 2/M
;
_chemical_formula_sum "Si O2"
_cell_formula_units_Z 32
_cell_length_a 17.041107
_cell_length_b 7.491802
_cell_length_c 21.819055
_cell_angle_alpha 90.000000
_cell_angle_beta 152.236639
_cell_angle_gamma 90.000000
_cell_volume 1297.594463
_symmetry_space_group_name_H-M "P 2/M"
_symmetry_group_IT_number 10
_symmetry_cell_setting 'monoclinic'
loop_
_space_group_symop_operation_xyz
x,y,z
-x,y,-z
-x,-y,-z
x,-y,z
loop_
_atom_site_type_symbol
_atom_site_label
_atom_site_fract_x
_atom_site_fract_y
_atom_site_fract_z
Si Si1 0.989957 0.703741 0.180758
Si Si2 0.805822 0.217550 0.363716
Si Si3 0.845951 0.796955 0.208834
Si Si4 0.332707 0.713076 0.106397
Si Si5 0.488118 0.790060 0.080749
Si Si6 0.491465 0.204874 0.343700
Si Si7 0.186764 0.219131 0.495481
Si Si8 0.321515 0.793274 0.343057
O O1 0.946526 0.500000 0.166773
O O2 0.177388 0.711682 0.285320
O O3 0.940223 0.806325 0.207806
O O4 0.863581 0.758266 0.039075
O O5 0.678219 0.280705 0.222428
O O6 0.746586 0.268548 0.391188
O O7 0.000000 0.273008 0.500000
O O8 0.804848 0.000000 0.359382
O O9 0.995704 0.717399 0.353340
O O10 0.819457 0.000000 0.212702
O O11 0.660035 0.718192 0.066151
O O12 0.352249 0.500000 0.125324
O O13 0.415297 0.772979 0.099455
O O14 0.407962 0.795615 0.219342
O O15 0.498466 0.000000 0.073646
O O16 0.678558 0.281648 0.461910
O O17 0.364991 0.284793 0.306175
O O18 0.519041 0.000000 0.383369
O O19 0.182777 0.000000 0.490820
O O20 0.500000 0.783625 0.500000
O O21 0.269232 0.000000 0.300489
#
# Coordination Sequence:
#
# PCOD9145625 Si02
#       8
#     4   4   4   4   4   4   4   4
#     4  10  21  35  50  71 102 134 165 207 258 303
#     4   9  16  27  48  77 106 134 162 200 252 302
#     4   9  17  30  52  75  97 132 174 213 247 288
#     4  10  20  33  50  73  99 130 166 206 253 297
#     4   9  16  30  51  74  99 131 171 205 243 299
#     4  10  19  32  52  73  95 128 169 208 248 296
#     4   9  16  29  49  74 102 129 163 208 252 293
#     4  10  21  36  53  72  96 130 171 211 252 300
#
# _framework density 24.661019
#
# number of rings (size 3 to 8) (size 9 to 14) (size 15 to 20)
#    0.000    2.500    1.250    1.500    0.000    4.750 
#    0.000    5.000    0.000    4.125    0.000    0.000 
#    0.000    4.000    0.000    0.000    0.000    0.000 
#
# Total GULP energy -178683.221495 kJ/mol
# GULP energy per Si atom -5583.850672 kJ/mol
# Density = 2.460489 g / cm^3
# Si number density = 24.661019 Si / 1000 Ang^3
#
#
#
# Elastic Constant Matrix: (Units=GPa)
#
#
# Indices 1 2 3 4 5 6 
#
# 1 93.3004 2.9102 31.4956 0.0000 3.0270 0.0000
# 2 2.9102 70.2790 4.1614 0.0000 2.8113 0.0000
# 3 31.4956 4.1614 179.5348 0.0000 -1.1717 0.0000
# 4 0.0000 0.0000 0.0000 141.5865 0.0000 2.3000
# 5 3.0270 2.8113 -1.1717 0.0000 47.4635 0.0000
# 6 0.0000 0.0000 0.0000 2.3000 0.0000 -215.8196
#
#
#
# Elastic Compliance Matrix: (Units=1/GPa)
#
#
# Indices 1 2 3 4 5 6 
#
# 1 0.011429 -0.000324 -0.002002 0.000000 -0.000759 0.000000
# 2 -0.000324 0.014292 -0.000280 0.000000 -0.000833 0.000000
# 3 -0.002002 -0.000280 0.005930 0.000000 0.000291 0.000000
# 4 0.000000 0.000000 0.000000 0.007062 0.000000 0.000075
# 5 -0.000759 -0.000833 0.000291 0.000000 0.021174 0.000000
# 6 0.000000 0.000000 0.000000 0.000075 0.000000 -0.004633
#
#
# Mechanical properties :
#
#
# Convention : Reuss Voigt Hill
#
# Bulk Modulus (GPa) = 37.82487 46.69431 42.25959
# Shear Modulus (GPa) = 72.17207 14.94921 43.56064
#
# Velocity S-wave (km/s) = 5.41564 2.46476 4.20739
# Velocity P-wave (km/s) = 7.38084 5.20342 6.38562
#
# Compressibility (1/GPa) = 0.02643764
#
# Stress axis : x y z
#
# Youngs Moduli (GPa) = 87.49860 69.96772 168.64524
#
# Poissons Ratio (x) = 0.02269 0.33769
# Poissons Ratio (y) = 0.02838 0.04719
# Poissons Ratio (z) = 0.17520 0.01958
#
# Static dielectric constant tensor:
#      x y z
#    x 1.982770 0.000000 0.023040 
#    y 0.000000 1.946780 0.000000 
#    z 0.023040 0.000000 1.987370 
# 
# From -- ./inp_files/93703.got.cif
#   From: 2010.05.17/outbox.cif.g08.bks.cpg/sg10_47_cif.got.tgz:93703.got - 2010.06.03 11:33:40.
