data_PCOD9145994
_publ_section_title
;
Structure prediction by ZEFSAII (Michael W. Deem and Ramdas Pophale) SiO2 
 PCOD9145994
Probable space group: P 2/M
;
_chemical_formula_sum "Si O2"
_cell_formula_units_Z 32
_cell_length_a 20.868215
_cell_length_b 9.165475
_cell_length_c 14.503091
_cell_angle_alpha 90.000000
_cell_angle_beta 136.652660
_cell_angle_gamma 90.000000
_cell_volume 1904.102932
_symmetry_space_group_name_H-M "P 2/M"
_symmetry_group_IT_number 10
_symmetry_cell_setting 'monoclinic'
loop_
_space_group_symop_operation_xyz
x,y,z
-x,y,-z
-x,-y,-z
x,-y,z
loop_
_atom_site_type_symbol
_atom_site_label
_atom_site_fract_x
_atom_site_fract_y
_atom_site_fract_z
Si Si1 0.471079 0.326203 0.074902
Si Si2 0.804830 0.825835 0.355853
Si Si3 0.671129 0.673954 0.362484
Si Si4 0.891411 0.674728 0.903666
Si Si5 0.720412 0.173406 0.071411
Si Si6 0.964407 0.170606 0.655774
Si Si7 0.144587 0.673994 0.920876
Si Si8 0.800706 0.171235 0.637622
O O1 0.450902 0.500000 0.056889
O O2 0.562063 0.296517 0.232145
O O3 0.500000 0.290906 0.000000
O O4 0.380806 0.237601 0.010950
O O5 0.728911 0.739896 0.336906
O O6 0.786225 0.797608 0.229548
O O7 0.906772 0.789867 0.503251
O O8 0.792017 0.000000 0.359147
O O9 0.684699 0.500000 0.379021
O O10 0.715251 0.747610 0.498651
O O11 0.881948 0.500000 0.881030
O O12 0.829700 0.757149 0.763972
O O13 0.865747 0.710835 0.981878
O O14 0.000000 0.712067 0.000000
O O15 0.766708 0.251017 0.032876
O O16 0.715707 0.000000 0.053686
O O17 0.888394 0.185814 0.658593
O O18 0.052910 0.266927 0.772699
O O19 0.992250 0.000000 0.679148
O O20 0.149982 0.500000 0.918115
O O21 0.781478 0.000000 0.627230
#
# Coordination Sequence:
#
# PCOD9145994 Si02
#       8
#     4   4   4   4   4   4   4   4
#     4  10  20  36  57  83 111 142 183 227 271 319
#     4   9  19  34  51  76 109 146 184 222 265 316
#     4  10  19  32  55  82 111 143 176 223 272 319
#     4  10  20  36  57  81 108 141 185 229 273 325
#     4  11  23  37  55  78 110 149 186 226 272 327
#     4   9  18  33  51  74 107 144 182 219 263 319
#     4  11  23  37  54  77 109 145 183 230 274 323
#     4  10  20  33  54  83 113 142 177 224 272 325
#
# _framework density 16.805813000000001
#
# number of rings (size 3 to 8) (size 9 to 14) (size 15 to 20)
#    0.000    2.000    2.500    2.250    0.000    5.500 
#    0.000    2.500    0.000    0.750    0.000    5.250 
#    0.000    0.000    0.000    0.000    0.000    0.000 
#
# Total GULP energy -178652.150677 kJ/mol
# GULP energy per Si atom -5582.879709 kJ/mol
# Density = 1.676756 g / cm^3
# Si number density = 16.805813 Si / 1000 Ang^3
#
#
#
# Elastic Constant Matrix: (Units=GPa)
#
#
# Indices 1 2 3 4 5 6 
#
# 1 104.3881 58.7890 60.7336 0.0000 -6.3603 0.0000
# 2 58.7890 63.8525 63.0056 0.0000 -4.7713 0.0000
# 3 60.7336 63.0056 114.1419 0.0000 -6.8416 0.0000
# 4 0.0000 0.0000 0.0000 30.7806 0.0000 2.5372
# 5 -6.3603 -4.7713 -6.8416 0.0000 15.2164 0.0000
# 6 0.0000 0.0000 0.0000 2.5372 0.0000 15.9684
#
#
#
# Elastic Compliance Matrix: (Units=1/GPa)
#
#
# Indices 1 2 3 4 5 6 
#
# 1 0.020046 -0.017333 -0.000947 0.000000 0.002518 0.000000
# 2 -0.017333 0.049462 -0.018072 0.000000 0.000139 0.000000
# 3 -0.000947 -0.018072 0.019400 0.000000 0.002660 0.000000
# 4 0.000000 0.000000 0.000000 0.032919 0.000000 -0.005230
# 5 0.002518 0.000139 0.002660 0.000000 0.068011 0.000000
# 6 0.000000 0.000000 0.000000 -0.005230 0.000000 0.063455
#
#
# Mechanical properties :
#
#
# Convention : Reuss Voigt Hill
#
# Bulk Modulus (GPa) = 61.71532 71.93765 66.82649
# Shear Modulus (GPa) = 15.08755 19.05004 17.06880
#
# Velocity S-wave (km/s) = 2.99951 3.37046 3.19038
# Velocity P-wave (km/s) = 6.98559 7.61871 7.30901
#
# Compressibility (1/GPa) = 0.01620343
#
# Stress axis : x y z
#
# Youngs Moduli (GPa) = 49.88507 20.21741 51.54641
#
# Poissons Ratio (x) = 0.35044 0.04884
# Poissons Ratio (y) = 0.86468 0.93153
# Poissons Ratio (z) = 0.04726 0.36536
#
# Static dielectric constant tensor:
#      x y z
#    x 1.549230 0.000000 -0.006260 
#    y 0.000000 1.556490 0.000000 
#    z -0.006260 0.000000 1.563680 
# 
# From -- ./inp_files/70042.got.cif
#   From: 2010.05.17/outbox.cif.g08.bks.cpg/sg10_36_cif.got.tgz:70042.got - 2010.06.03 11:33:40.
