data_PCOD9145314
_publ_section_title
;
Structure prediction by ZEFSAII (Michael W. Deem and Ramdas Pophale) SiO2 
 PCOD9145314
Probable space group: P 2/M
;
_chemical_formula_sum "Si O2"
_cell_formula_units_Z 24
_cell_length_a 12.412553
_cell_length_b 10.492058
_cell_length_c 14.018416
_cell_angle_alpha 90.000000
_cell_angle_beta 136.355410
_cell_angle_gamma 90.000000
_cell_volume 1260.041785
_symmetry_space_group_name_H-M "P 2/M"
_symmetry_group_IT_number 10
_symmetry_cell_setting 'monoclinic'
loop_
_space_group_symop_operation_xyz
x,y,z
-x,y,-z
-x,-y,-z
x,-y,z
loop_
_atom_site_type_symbol
_atom_site_label
_atom_site_fract_x
_atom_site_fract_y
_atom_site_fract_z
Si Si1 0.871050 0.645789 0.766287
Si Si2 0.186986 0.135434 0.127817
Si Si3 0.780775 0.741059 0.044285
Si Si4 0.547535 0.648035 0.220923
Si Si5 0.588310 0.650848 0.463118
Si Si6 0.330244 0.856032 0.840199
O O1 0.850500 0.500000 0.785172
O O2 0.796439 0.741314 0.795572
O O3 0.771218 0.663360 0.605962
O O4 0.053823 0.674047 0.869628
O O5 0.246935 0.000000 0.204732
O O6 0.243899 0.158435 0.057225
O O7 0.000000 0.125970 0.000000
O O8 0.782330 0.808715 0.147419
O O9 0.627341 0.653817 0.935305
O O10 0.600753 0.500000 0.251311
O O11 0.546632 0.694427 0.330536
O O12 0.651865 0.747256 0.228050
O O13 0.500000 0.704246 0.500000
O O14 0.550585 0.500000 0.436963
O O15 0.293425 0.000000 0.783518
O O16 0.500000 0.861780 0.000000
#
# Coordination Sequence:
#
# PCOD9145314 Si02
#       6
#     4   4   4   4   4   4
#     4  10  20  33  52  79 107 135 171 215 259 303
#     4   9  18  31  48  73 104 135 167 206 254 305
#     4  10  19  31  54  79 103 132 173 218 258 300
#     4  10  20  34  54  78 103 134 173 215 257 304
#     4   9  18  34  53  74 105 141 169 200 254 315
#     4   9  19  35  54  76 104 138 173 211 258 309
#
# _framework density 19.046987000000001
#
# number of rings (size 3 to 8) (size 9 to 14) (size 15 to 20)
#    0.000    2.500    0.000    2.000    0.000   10.000 
#    0.000    1.667    0.000    6.000    0.000    0.000 
#    0.000    0.000    0.000    0.000    0.000    0.000 
#
# Total GULP energy -133645.272441 kJ/mol
# GULP energy per Si atom -5568.553018 kJ/mol
# Density = 1.900364 g / cm^3
# Si number density = 19.046987 Si / 1000 Ang^3
#
#
#
# Elastic Constant Matrix: (Units=GPa)
#
#
# Indices 1 2 3 4 5 6 
#
# 1 88.9521 55.1927 33.0521 0.0000 -27.7375 0.0000
# 2 55.1927 133.1211 40.1148 0.0000 -20.3095 0.0000
# 3 33.0521 40.1148 70.2531 0.0000 -11.6258 0.0000
# 4 0.0000 0.0000 0.0000 -40.7008 0.0000 46.2656
# 5 -27.7375 -20.3095 -11.6258 0.0000 29.1156 0.0000
# 6 0.0000 0.0000 0.0000 46.2656 0.0000 -74.1800
#
#
#
# Elastic Compliance Matrix: (Units=1/GPa)
#
#
# Indices 1 2 3 4 5 6 
#
# 1 0.020384 -0.004956 -0.004410 0.000000 0.014201 0.000000
# 2 -0.004956 0.010881 -0.003648 0.000000 0.001413 0.000000
# 3 -0.004410 -0.003648 0.018498 0.000000 0.000640 0.000000
# 4 0.000000 0.000000 0.000000 -0.084422 0.000000 -0.052654
# 5 0.014201 0.001413 0.000640 0.000000 0.049116 0.000000
# 6 0.000000 0.000000 0.000000 -0.052654 0.000000 -0.046320
#
#
# Mechanical properties :
#
#
# Convention : Reuss Voigt Hill
#
# Bulk Modulus (GPa) = 42.13105 61.00506 51.56805
# Shear Modulus (GPa) = 2407.58176 -6.22192 1200.67992
#
# Velocity S-wave (km/s) = 35.59166 -1.80934 25.13456
# Velocity P-wave (km/s) = 41.36653 5.26624 29.48663
#
# Compressibility (1/GPa) = 0.02373547
#
# Stress axis : x y z
#
# Youngs Moduli (GPa) = 49.05816 91.89972 54.05955
#
# Poissons Ratio (x) = 0.45543 0.23842
# Poissons Ratio (y) = 0.24312 0.19721
# Poissons Ratio (z) = 0.21636 0.33526
#
# Static dielectric constant tensor:
#      x y z
#    x 1.691340 0.000000 0.002070 
#    y 0.000000 1.701640 0.000000 
#    z 0.002070 0.000000 1.667070 
# 
# From -- ./inp_files/45905.got.cif
#   From: 2010.05.17/outbox.cif.g08.bks.cpg/sg10_23_cif.got.tgz:45905.got - 2010.06.03 11:33:40.
