data_PCOD9145039
_publ_section_title
;
Structure prediction by ZEFSAII (Michael W. Deem and Ramdas Pophale) SiO2 
 PCOD9145039
Probable space group: P 2/M
;
_chemical_formula_sum "Si O2"
_cell_formula_units_Z 30
_cell_length_a 18.600311
_cell_length_b 10.205397
_cell_length_c 12.540907
_cell_angle_alpha 90.000000
_cell_angle_beta 139.124167
_cell_angle_gamma 90.000000
_cell_volume 1557.890427
_symmetry_space_group_name_H-M "P 2/M"
_symmetry_group_IT_number 10
_symmetry_cell_setting 'monoclinic'
loop_
_space_group_symop_operation_xyz
x,y,z
-x,y,-z
-x,-y,-z
x,-y,z
loop_
_atom_site_type_symbol
_atom_site_label
_atom_site_fract_x
_atom_site_fract_y
_atom_site_fract_z
Si Si1 0.667753 0.345955 0.587373
Si Si2 0.374600 0.847053 0.642750
Si Si3 0.690479 0.346986 0.860934
Si Si4 0.922126 0.342085 0.818982
Si Si5 0.764569 0.150949 0.322898
Si Si6 0.000000 0.214651 0.500000
Si Si7 0.061429 0.653645 0.785409
Si Si8 0.618001 0.846347 0.963268
O O1 0.642127 0.500000 0.537326
O O2 0.610452 0.245213 0.443294
O O3 0.346429 0.323957 0.302239
O O4 0.796468 0.322461 0.706655
O O5 0.276910 0.794867 0.610089
O O6 0.487663 0.842717 0.836628
O O7 0.356229 0.000000 0.590400
O O8 0.665210 0.500000 0.857973
O O9 0.641105 0.243968 0.887535
O O10 0.822479 0.332013 0.023853
O O11 0.937540 0.500000 0.832733
O O12 0.967187 0.290767 0.757220
O O13 0.000000 0.290619 0.000000
O O14 0.892940 0.151816 0.436748
O O15 0.729598 0.000000 0.291441
O O16 0.692316 0.205038 0.143988
O O17 0.943761 0.288222 0.337818
O O18 0.042228 0.500000 0.749598
O O19 0.647085 0.000000 0.975392
#
# Coordination Sequence:
#
# PCOD9145039 Si02
#       8
#     4   4   4   4   4   2   4   4
#     4  10  20  35  58  86 116 150 192 236 281 334
#     4  10  22  40  61  82 112 150 194 240 279 329
#     4  10  20  36  57  83 116 151 184 232 287 333
#     4   9  15  28  51  76 105 149 192 221 261 330
#     4  10  21  38  59  84 112 148 189 230 285 344
#     4  12  20  32  56  86 114 142 178 232 286 340
#     4  10  19  31  49  78 115 150 185 223 274 336
#     4  10  21  40  62  82 108 152 198 233 275 339
#
# _framework density 19.256810999999999
#
# number of rings (size 3 to 8) (size 9 to 14) (size 15 to 20)
#    0.000    2.000    2.667    1.600    0.000    3.200 
#    0.000    4.000    0.000    2.000    0.000    0.000 
#    0.000    0.000    0.000    0.000    0.000    0.000 
#
# Total GULP energy -167111.184020 kJ/mol
# GULP energy per Si atom -5570.372801 kJ/mol
# Density = 1.921298 g / cm^3
# Si number density = 19.256811 Si / 1000 Ang^3
#
#
#
# Elastic Constant Matrix: (Units=GPa)
#
#
# Indices 1 2 3 4 5 6 
#
# 1 75.3930 29.0644 12.0733 0.0000 -12.9171 0.0000
# 2 29.0644 41.2743 31.7320 0.0000 -7.3517 0.0000
# 3 12.0733 31.7320 73.4850 0.0000 -17.0555 0.0000
# 4 0.0000 0.0000 0.0000 20.1515 0.0000 0.9010
# 5 -12.9171 -7.3517 -17.0555 0.0000 29.7587 0.0000
# 6 0.0000 0.0000 0.0000 0.9010 0.0000 25.6700
#
#
#
# Elastic Compliance Matrix: (Units=1/GPa)
#
#
# Indices 1 2 3 4 5 6 
#
# 1 0.020491 -0.017729 0.006156 0.000000 0.008042 0.000000
# 2 -0.017729 0.051609 -0.020992 0.000000 -0.006977 0.000000
# 3 0.006156 -0.020992 0.024312 0.000000 0.011420 0.000000
# 4 0.000000 0.000000 0.000000 0.049702 0.000000 -0.001745
# 5 0.008042 -0.006977 0.011420 0.000000 0.041916 0.000000
# 6 0.000000 0.000000 0.000000 -0.001745 0.000000 0.039017
#
#
# Mechanical properties :
#
#
# Convention : Reuss Voigt Hill
#
# Bulk Modulus (GPa) = 31.96859 37.32129 34.64494
# Shear Modulus (GPa) = 16.52322 22.93486 19.72904
#
# Velocity S-wave (km/s) = 2.93242 3.45483 3.20429
# Velocity P-wave (km/s) = 5.30120 5.94452 5.63205
#
# Compressibility (1/GPa) = 0.03128070
#
# Stress axis : x y z
#
# Youngs Moduli (GPa) = 48.80272 19.37659 41.13189
#
# Poissons Ratio (x) = 0.34353 -0.25320
# Poissons Ratio (y) = 0.86523 0.86344
# Poissons Ratio (z) = -0.30042 0.40675
#
# Static dielectric constant tensor:
#      x y z
#    x 1.715710 0.000000 0.008040 
#    y 0.000000 1.646340 0.000000 
#    z 0.008040 0.000000 1.698680 
# 
# From -- ./inp_files/70490.got.cif
#   From: 2010.05.17/outbox.cif.g08.bks.cpg/sg10_36_cif.got.tgz:70490.got - 2010.06.03 11:33:40.
