data_PCOD9145724
_publ_section_title
;
Structure prediction by ZEFSAII (Michael W. Deem and Ramdas Pophale) SiO2 
 PCOD9145724
Probable space group: P 2/M
;
_chemical_formula_sum "Si O2"
_cell_formula_units_Z 28
_cell_length_a 12.948572
_cell_length_b 8.451794
_cell_length_c 15.542906
_cell_angle_alpha 90.000000
_cell_angle_beta 105.839831
_cell_angle_gamma 90.000000
_cell_volume 1636.405488
_symmetry_space_group_name_H-M "P 2/M"
_symmetry_group_IT_number 10
_symmetry_cell_setting 'monoclinic'
loop_
_space_group_symop_operation_xyz
x,y,z
-x,y,-z
-x,-y,-z
x,-y,z
loop_
_atom_site_type_symbol
_atom_site_label
_atom_site_fract_x
_atom_site_fract_y
_atom_site_fract_z
Si Si1 0.198133 0.689043 0.721309
Si Si2 0.605408 0.690977 0.715487
Si Si3 0.345174 0.191090 0.900400
Si Si4 0.747719 0.308749 0.589372
Si Si5 0.583490 0.190610 0.897350
Si Si6 0.634388 0.307152 0.387959
Si Si7 0.018858 0.189065 0.406028
O O1 0.192379 0.500000 0.715680
O O2 0.248544 0.740174 0.823290
O O3 0.281759 0.744339 0.666249
O O4 0.082062 0.757873 0.673579
O O5 0.604218 0.500000 0.713860
O O6 0.691664 0.745341 0.664666
O O7 0.625749 0.745314 0.817132
O O8 0.486036 0.745944 0.660559
O O9 0.459084 0.240241 0.883449
O O10 0.340839 0.000000 0.896500
O O11 0.352750 0.239386 0.002118
O O12 0.747397 0.500000 0.589158
O O13 0.677340 0.256881 0.490888
O O14 0.868738 0.252653 0.603570
O O15 0.583964 0.000000 0.895258
O O16 0.633067 0.500000 0.387172
O O17 0.000000 0.247176 0.500000
O O18 0.023409 0.000000 0.409232
#
# Coordination Sequence:
#
# PCOD9145724 Si02
#       7
#     4   4   4   4   4   4   4
#     4  11  20  32  55  80 104 136 174 216 262 306
#     4  10  19  32  52  79 108 139 175 214 257 305
#     4   9  18  33  51  75 106 140 174 210 258 309
#     4  10  20  35  54  74 104 143 179 215 255 306
#     4   9  18  32  51  74 106 143 173 207 256 313
#     4   9  17  30  49  76 107 138 169 206 255 307
#     4  11  23  37  53  74 103 138 178 221 259 301
#
# _framework density 17.110672999999998
#
# number of rings (size 3 to 8) (size 9 to 14) (size 15 to 20)
#    0.000    2.143    2.857    2.143    0.000    3.429 
#    0.000    2.143    0.000    2.571    0.000    6.000 
#    0.000    0.000    0.000    0.000    0.000    0.000 
#
# Total GULP energy -156251.011574 kJ/mol
# GULP energy per Si atom -5580.393271 kJ/mol
# Density = 1.707173 g / cm^3
# Si number density = 17.110673 Si / 1000 Ang^3
#
#
#
# Elastic Constant Matrix: (Units=GPa)
#
#
# Indices 1 2 3 4 5 6 
#
# 1 113.8911 15.3264 79.0222 0.0000 -14.1138 0.0000
# 2 15.3264 10.9782 17.5408 0.0000 -3.7634 0.0000
# 3 79.0222 17.5408 155.3716 0.0000 -6.8150 0.0000
# 4 0.0000 0.0000 0.0000 18.3294 0.0000 -5.0425
# 5 -14.1138 -3.7634 -6.8150 0.0000 23.1119 0.0000
# 6 0.0000 0.0000 0.0000 -5.0425 0.0000 15.3442
#
#
#
# Elastic Compliance Matrix: (Units=1/GPa)
#
#
# Indices 1 2 3 4 5 6 
#
# 1 0.015194 -0.008842 -0.006469 0.000000 0.005931 0.000000
# 2 -0.008842 0.121358 -0.008686 0.000000 0.011800 0.000000
# 3 -0.006469 -0.008686 0.010609 0.000000 -0.002237 0.000000
# 4 0.000000 0.000000 0.000000 0.059980 0.000000 0.019711
# 5 0.005931 0.011800 -0.002237 0.000000 0.048152 0.000000
# 6 0.000000 0.000000 0.000000 0.019711 0.000000 0.071649
#
#
# Mechanical properties :
#
#
# Convention : Reuss Voigt Hill
#
# Bulk Modulus (GPa) = 10.08409 56.00218 33.04313
# Shear Modulus (GPa) = 12.25517 22.58054 17.41785
#
# Velocity S-wave (km/s) = 2.67915 3.63668 3.19400
# Velocity P-wave (km/s) = 3.93404 7.10171 5.74069
#
# Compressibility (1/GPa) = 0.09916611
#
# Stress axis : x y z
#
# Youngs Moduli (GPa) = 65.81645 8.24007 94.26016
#
# Poissons Ratio (x) = 0.07286 0.60979
# Poissons Ratio (y) = 0.58195 0.81876
# Poissons Ratio (z) = 0.42578 0.07157
#
# Static dielectric constant tensor:
#      x y z
#    x 1.553560 0.000000 -0.009420 
#    y 0.000000 1.589970 0.000000 
#    z -0.009420 0.000000 1.577110 
# 
# From -- ./inp_files/49059.got.cif
#   From: 2010.05.17/outbox.cif.g08.bks.cpg/sg10_25_cif.got.tgz:49059.got - 2010.06.03 11:33:40.
