data_PCOD9145094
_publ_section_title
;
Structure prediction by ZEFSAII (Michael W. Deem and Ramdas Pophale) SiO2 
 PCOD9145094
Probable space group: P 2/M
;
_chemical_formula_sum "Si O2"
_cell_formula_units_Z 32
_cell_length_a 23.587134
_cell_length_b 7.517466
_cell_length_c 19.015488
_cell_angle_alpha 90.000000
_cell_angle_beta 24.864203
_cell_angle_gamma 90.000000
_cell_volume 1417.712399
_symmetry_space_group_name_H-M "P 2/M"
_symmetry_group_IT_number 10
_symmetry_cell_setting 'monoclinic'
loop_
_space_group_symop_operation_xyz
x,y,z
-x,y,-z
-x,-y,-z
x,-y,z
loop_
_atom_site_type_symbol
_atom_site_label
_atom_site_fract_x
_atom_site_fract_y
_atom_site_fract_z
Si Si1 0.428449 0.285133 0.806227
Si Si2 0.278264 0.207302 0.355749
Si Si3 0.141094 0.798186 0.320482
Si Si4 0.166304 0.716088 0.018520
Si Si5 0.273639 0.284633 0.526546
Si Si6 0.572990 0.211710 0.025555
Si Si7 0.010185 0.717921 0.908207
Si Si8 0.979900 0.295175 0.679736
O O1 0.423774 0.500000 0.810563
O O2 0.578106 0.229543 0.613972
O O3 0.307126 0.221180 0.893271
O O4 0.416089 0.233999 0.902247
O O5 0.266171 0.226505 0.453797
O O6 0.137987 0.280855 0.484398
O O7 0.280880 0.000000 0.335525
O O8 0.425575 0.282639 0.170175
O O9 0.115367 0.808524 0.265846
O O10 0.000000 0.707057 0.500000
O O11 0.288901 0.717943 0.164226
O O12 0.140109 0.000000 0.350429
O O13 0.173278 0.500000 0.007218
O O14 0.113800 0.775823 0.001937
O O15 0.051675 0.760927 0.205235
O O16 0.269287 0.500000 0.529747
O O17 0.148800 0.225316 0.714269
O O18 0.426789 0.000000 0.988993
O O19 0.010733 0.500000 0.907864
O O20 0.000000 0.776413 0.000000
O O21 0.938495 0.500000 0.720616
#
# Coordination Sequence:
#
# PCOD9145094 Si02
#       8
#     4   4   4   4   4   4   4   4
#     4   9  16  27  46  70  97 124 157 205 252 291
#     4  10  19  31  50  76 102 129 163 207 252 294
#     4  10  21  37  55  76 104 135 166 204 251 303
#     4   9  16  27  44  70  97 123 159 203 245 284
#     4   9  16  28  46  70  96 127 164 201 248 297
#     4   9  18  32  50  74 101 128 163 202 247 299
#     4   9  16  27  44  67  98 133 165 200 245 295
#     4  11  20  33  53  77 103 131 168 212 250 292
#
# _framework density 22.571573000000001
#
# number of rings (size 3 to 8) (size 9 to 14) (size 15 to 20)
#    0.000    2.500    2.500    0.750    0.000    0.750 
#    0.000    1.250    0.000    7.875    0.000    0.000 
#    0.000    4.000    0.000    0.000    0.000    0.000 
#
# Total GULP energy -178631.706583 kJ/mol
# GULP energy per Si atom -5582.240831 kJ/mol
# Density = 2.252020 g / cm^3
# Si number density = 22.571573 Si / 1000 Ang^3
#
#
#
# Elastic Constant Matrix: (Units=GPa)
#
#
# Indices 1 2 3 4 5 6 
#
# 1 119.3848 3.1209 61.7196 0.0000 -24.4606 0.0000
# 2 3.1209 62.8791 6.3168 0.0000 -2.2552 0.0000
# 3 61.7196 6.3168 136.2977 0.0000 -36.7691 0.0000
# 4 0.0000 0.0000 0.0000 5.7075 0.0000 -5.1392
# 5 -24.4606 -2.2552 -36.7691 0.0000 42.2743 0.0000
# 6 0.0000 0.0000 0.0000 -5.1392 0.0000 -0.4416
#
#
#
# Elastic Compliance Matrix: (Units=1/GPa)
#
#
# Indices 1 2 3 4 5 6 
#
# 1 0.011167 -0.000023 -0.004329 0.000000 0.002695 0.000000
# 2 -0.000023 0.015980 -0.000658 0.000000 0.000267 0.000000
# 3 -0.004329 -0.000658 0.011292 0.000000 0.007282 0.000000
# 4 0.000000 0.000000 0.000000 0.015262 0.000000 -0.177634
# 5 0.002695 0.000267 0.007282 0.000000 0.031562 0.000000
# 6 0.000000 0.000000 0.000000 -0.177634 0.000000 -0.197278
#
#
# Mechanical properties :
#
#
# Convention : Reuss Voigt Hill
#
# Bulk Modulus (GPa) = 35.18672 51.20848 43.19760
# Shear Modulus (GPa) = -54.04144 26.00167 -14.01989
#
# Velocity S-wave (km/s) = -4.89839 3.39774 -2.49495
# Velocity P-wave (km/s) = 4.04593 6.17489 3.29847
#
# Compressibility (1/GPa) = 0.02841981
#
# Stress axis : x y z
#
# Youngs Moduli (GPa) = 89.55067 62.57673 88.55939
#
# Poissons Ratio (x) = 0.00142 0.38333
# Poissons Ratio (y) = 0.00204 0.05831
# Poissons Ratio (z) = 0.38762 0.04120
#
# Static dielectric constant tensor:
#      x y z
#    x 1.834650 0.000000 -0.014380 
#    y 0.000000 1.842390 0.000000 
#    z -0.014380 0.000000 1.866720 
# 
# From -- ./inp_files/86886.got.cif
#   From: 2010.05.17/outbox.cif.g08.bks.cpg/sg10_44_cif.got.tgz:86886.got - 2010.06.03 11:33:40.
