data_PCOD9145629
_publ_section_title
;
Structure prediction by ZEFSAII (Michael W. Deem and Ramdas Pophale) SiO2 
 PCOD9145629
Probable space group: P 2/M
;
_chemical_formula_sum "Si O2"
_cell_formula_units_Z 28
_cell_length_a 17.815839
_cell_length_b 7.380173
_cell_length_c 14.697898
_cell_angle_alpha 90.000000
_cell_angle_beta 39.823979
_cell_angle_gamma 90.000000
_cell_volume 1237.657615
_symmetry_space_group_name_H-M "P 2/M"
_symmetry_group_IT_number 10
_symmetry_cell_setting 'monoclinic'
loop_
_space_group_symop_operation_xyz
x,y,z
-x,y,-z
-x,-y,-z
x,-y,z
loop_
_atom_site_type_symbol
_atom_site_label
_atom_site_fract_x
_atom_site_fract_y
_atom_site_fract_z
Si Si1 0.332822 0.220885 0.321763
Si Si2 0.975436 0.791639 0.706635
Si Si3 0.241942 0.718453 0.960088
Si Si4 0.196611 0.221789 0.277721
Si Si5 0.867584 0.288173 0.121835
Si Si6 0.588002 0.790821 0.046870
Si Si7 0.195508 0.218877 0.615798
O O1 0.227444 0.272543 0.351748
O O2 0.457761 0.286905 0.168762
O O3 0.303856 0.274965 0.451646
O O4 0.337177 0.000000 0.316558
O O5 0.920270 0.714905 0.665068
O O6 0.081676 0.713541 0.665953
O O7 0.009164 0.000000 0.654944
O O8 0.865015 0.786969 0.877912
O O9 0.244128 0.500000 0.962249
O O10 0.213231 0.781846 0.884826
O O11 0.359452 0.782958 0.900286
O O12 0.192275 0.000000 0.277685
O O13 0.309881 0.283354 0.113162
O O14 0.882283 0.500000 0.086206
O O15 0.811680 0.274916 0.273269
O O16 0.000000 0.209830 0.000000
O O17 0.576437 0.000000 0.029291
O O18 0.191390 0.000000 0.621365
#
# Coordination Sequence:
#
# PCOD9145629 Si02
#       7
#     4   4   4   4   4   4   4
#     4   9  17  30  48  73 104 135 164 197 238 286
#     4   9  17  29  47  75 103 127 159 199 243 288
#     4  10  19  32  52  74  95 122 161 207 251 289
#     4   8  14  26  48  74  99 130 166 199 235 281
#     4  10  20  35  53  72  94 127 165 199 245 301
#     4   9  17  31  52  75  99 129 167 204 238 279
#     4  10  20  31  48  76 105 130 160 200 245 288
#
# _framework density 22.623380999999998
#
# number of rings (size 3 to 8) (size 9 to 14) (size 15 to 20)
#    0.000    2.714    1.429    1.714    0.000    3.714 
#    0.000    4.286    0.000   14.571    0.000    5.000 
#    0.000    0.000    0.000    0.000    0.000    0.000 
#
# Total GULP energy -156252.573157 kJ/mol
# GULP energy per Si atom -5580.449041 kJ/mol
# Density = 2.257189 g / cm^3
# Si number density = 22.623381 Si / 1000 Ang^3
#
#
#
# Elastic Constant Matrix: (Units=GPa)
#
#
# Indices 1 2 3 4 5 6 
#
# 1 118.0794 -9.0733 19.6506 0.0000 27.2332 0.0000
# 2 -9.0733 79.8847 -12.5705 0.0000 -5.0131 0.0000
# 3 19.6506 -12.5705 42.6967 0.0000 24.8821 0.0000
# 4 0.0000 0.0000 0.0000 15.8187 0.0000 20.5046
# 5 27.2332 -5.0131 24.8821 0.0000 35.6816 0.0000
# 6 0.0000 0.0000 0.0000 20.5046 0.0000 3.6128
#
#
#
# Elastic Compliance Matrix: (Units=1/GPa)
#
#
# Indices 1 2 3 4 5 6 
#
# 1 0.010315 0.000681 -0.000025 0.000000 -0.007760 0.000000
# 2 0.000681 0.013215 0.004714 0.000000 -0.001950 0.000000
# 3 -0.000025 0.004714 0.041143 0.000000 -0.028009 0.000000
# 4 0.000000 0.000000 0.000000 -0.009945 0.000000 0.056441
# 5 -0.007760 -0.001950 -0.028009 0.000000 0.053206 0.000000
# 6 0.000000 0.000000 0.000000 0.056441 0.000000 -0.043543
#
#
# Mechanical properties :
#
#
# Convention : Reuss Voigt Hill
#
# Bulk Modulus (GPa) = 13.26052 26.29715 19.77884
# Shear Modulus (GPa) = 63.46011 27.19955 45.32983
#
# Velocity S-wave (km/s) = 5.30203 3.47115 4.48110
# Velocity P-wave (km/s) = 6.58455 5.26443 5.96115
#
# Compressibility (1/GPa) = 0.07541181
#
# Stress axis : x y z
#
# Youngs Moduli (GPa) = 96.94652 75.67321 24.30542
#
# Poissons Ratio (x) = -0.05151 0.00060
# Poissons Ratio (y) = -0.06599 -0.11457
# Poissons Ratio (z) = 0.00241 -0.35670
#
# Static dielectric constant tensor:
#      x y z
#    x 1.845260 0.000000 0.001040 
#    y 0.000000 1.933020 0.000000 
#    z 0.001040 0.000000 1.818940 
# 
# From -- ./inp_files/55010.got.cif
#   From: 2010.05.17/outbox.cif.g08.bks.cpg/sg10_28_cif.got.tgz:55010.got - 2010.06.03 11:33:40.
