data_PCOD9145803
_publ_section_title
;
Structure prediction by ZEFSAII (Michael W. Deem and Ramdas Pophale) SiO2 
 PCOD9145803
Probable space group: P 2/M
;
_chemical_formula_sum "Si O2"
_cell_formula_units_Z 28
_cell_length_a 9.729676
_cell_length_b 13.588340
_cell_length_c 16.499933
_cell_angle_alpha 90.000000
_cell_angle_beta 145.339233
_cell_angle_gamma 90.000000
_cell_volume 1240.631317
_symmetry_space_group_name_H-M "P 2/M"
_symmetry_group_IT_number 10
_symmetry_cell_setting 'monoclinic'
loop_
_space_group_symop_operation_xyz
x,y,z
-x,y,-z
-x,-y,-z
x,-y,z
loop_
_atom_site_type_symbol
_atom_site_label
_atom_site_fract_x
_atom_site_fract_y
_atom_site_fract_z
Si Si1 0.572697 0.116836 0.211334
Si Si2 0.116019 0.382047 0.643376
Si Si3 0.211707 0.811753 0.155867
Si Si4 0.317680 0.693949 0.486077
Si Si5 0.570270 0.614233 0.769343
Si Si6 0.122186 0.114535 0.883938
Si Si7 0.058522 0.114052 0.383470
O O1 0.454302 0.140492 0.240202
O O2 0.848984 0.152127 0.342322
O O3 0.592875 0.000000 0.209990
O O4 0.373117 0.150156 0.046932
O O5 0.096539 0.500000 0.638551
O O6 0.398511 0.361541 0.763226
O O7 0.000000 0.353254 0.500000
O O8 0.963805 0.341248 0.645557
O O9 0.232613 0.698126 0.142572
O O10 0.111010 0.826784 0.196117
O O11 0.000000 0.860235 0.000000
O O12 0.500000 0.676812 0.500000
O O13 0.427154 0.635066 0.615764
O O14 0.278963 0.810562 0.481649
O O15 0.640320 0.500000 0.807075
O O16 0.097258 0.115989 0.775750
O O17 0.095111 0.000000 0.894764
O O18 0.128342 0.000000 0.433073
#
# Coordination Sequence:
#
# PCOD9145803 Si02
#       7
#     4   4   4   4   4   4   4
#     4   9  17  31  53  78 102 132 169 204 239 287
#     4   8  16  32  52  70  89 120 161 203 246 290
#     4  10  19  32  53  79 103 128 162 207 252 292
#     4  11  21  33  51  73  99 129 167 209 248 290
#     4  10  21  37  54  72  98 132 167 205 252 304
#     4   9  17  31  51  76 106 136 165 199 242 291
#     4  10  20  33  49  72 104 139 170 200 240 292
#
# _framework density 22.569153
#
# number of rings (size 3 to 8) (size 9 to 14) (size 15 to 20)
#    0.000    2.429    0.000    3.857    0.000    5.143 
#    0.000    1.429    0.000    5.571    0.000    0.000 
#    0.000   19.429    0.000    0.000    0.000    0.000 
#
# Total GULP energy -156022.998186 kJ/mol
# GULP energy per Si atom -5572.249935 kJ/mol
# Density = 2.251778 g / cm^3
# Si number density = 22.569153 Si / 1000 Ang^3
#
#
#
# Elastic Constant Matrix: (Units=GPa)
#
#
# Indices 1 2 3 4 5 6 
#
# 1 153.6230 40.0200 22.1483 0.0000 36.3138 0.0000
# 2 40.0200 75.6878 0.4542 0.0000 12.3373 0.0000
# 3 22.1483 0.4542 31.8214 0.0000 -3.1545 0.0000
# 4 0.0000 0.0000 0.0000 14.6014 0.0000 7.7484
# 5 36.3138 12.3373 -3.1545 0.0000 23.3897 0.0000
# 6 0.0000 0.0000 0.0000 7.7484 0.0000 30.6619
#
#
#
# Elastic Compliance Matrix: (Units=1/GPa)
#
#
# Indices 1 2 3 4 5 6 
#
# 1 0.014557 -0.004015 -0.012269 0.000000 -0.022138 0.000000
# 2 -0.004015 0.015592 0.002407 0.000000 -0.001666 0.000000
# 3 -0.012269 0.002407 0.042258 0.000000 0.023479 0.000000
# 4 0.000000 0.000000 0.000000 0.079093 0.000000 -0.019987
# 5 -0.022138 -0.001666 0.023479 0.000000 0.081170 0.000000
# 6 0.000000 0.000000 0.000000 -0.019987 0.000000 0.037665
#
#
# Mechanical properties :
#
#
# Convention : Reuss Voigt Hill
#
# Bulk Modulus (GPa) = 22.39514 42.93082 32.66298
# Shear Modulus (GPa) = 15.97569 26.96457 21.47013
#
# Velocity S-wave (km/s) = 2.66344 3.46027 3.08767
# Velocity P-wave (km/s) = 4.40488 5.91843 5.21684
#
# Compressibility (1/GPa) = 0.04465254
#
# Stress axis : x y z
#
# Youngs Moduli (GPa) = 68.69366 64.13423 23.66402
#
# Poissons Ratio (x) = 0.25750 0.29035
# Poissons Ratio (y) = 0.27581 -0.05695
# Poissons Ratio (z) = 0.84284 -0.15436
#
# Static dielectric constant tensor:
#      x y z
#    x 1.916010 0.000000 0.052220 
#    y 0.000000 1.858980 0.000000 
#    z 0.052220 0.000000 1.911920 
# 
# From -- ./inp_files/75267.got.cif
#   From: 2010.05.17/outbox.cif.g08.bks.cpg/sg10_38_cif.got.tgz:75267.got - 2010.06.03 11:33:40.
