data_PCOD9145246
_publ_section_title
;
Structure prediction by ZEFSAII (Michael W. Deem and Ramdas Pophale) SiO2 
 PCOD9145246
Probable space group: P 2/M
;
_chemical_formula_sum "Si O2"
_cell_formula_units_Z 24
_cell_length_a 11.191651
_cell_length_b 9.349889
_cell_length_c 21.834171
_cell_angle_alpha 90.000000
_cell_angle_beta 147.099488
_cell_angle_gamma 90.000000
_cell_volume 1241.031066
_symmetry_space_group_name_H-M "P 2/M"
_symmetry_group_IT_number 10
_symmetry_cell_setting 'monoclinic'
loop_
_space_group_symop_operation_xyz
x,y,z
-x,y,-z
-x,-y,-z
x,-y,z
loop_
_atom_site_type_symbol
_atom_site_label
_atom_site_fract_x
_atom_site_fract_y
_atom_site_fract_z
Si Si1 0.989976 0.662353 0.569843
Si Si2 0.281739 0.830789 0.369435
Si Si3 0.846651 0.669550 0.174354
Si Si4 0.436617 0.829875 0.767374
Si Si5 0.552686 0.831487 0.371179
Si Si6 0.389280 0.329668 0.048835
O O1 0.003294 0.500000 0.599804
O O2 0.759551 0.739335 0.483375
O O3 0.000000 0.654531 0.500000
O O4 0.200376 0.756033 0.678363
O O5 0.500000 0.785858 0.500000
O O6 0.346011 0.806648 0.326052
O O7 0.059974 0.749781 0.290014
O O8 0.252259 0.000000 0.367340
O O9 0.885001 0.500000 0.191419
O O10 0.626126 0.695662 0.118328
O O11 0.788499 0.711177 0.079183
O O12 0.488187 0.801432 0.717974
O O13 0.607993 0.758931 0.887699
O O14 0.422967 0.000000 0.770163
O O15 0.611870 0.000000 0.401700
O O16 0.372109 0.500000 0.053039
#
# Coordination Sequence:
#
# PCOD9145246 Si02
#       6
#     4   4   4   4   4   4
#     4   9  17  29  47  73 105 140 177 218 262 311
#     4  10  22  38  56  79 110 145 182 223 265 317
#     4   9  20  39  59  80 108 141 178 224 274 321
#     4  10  19  31  52  79 107 142 180 218 268 323
#     4   9  19  35  50  73 111 146 177 220 269 317
#     4   9  19  37  59  82 109 138 175 227 276 317
#
# _framework density 19.338759
#
# number of rings (size 3 to 8) (size 9 to 14) (size 15 to 20)
#    0.000    2.667    0.000    2.000    2.333    5.000 
#    0.000    2.500    0.000    5.000    0.000    0.000 
#    0.000    0.000    0.000    0.000    0.000    0.000 
#
# Total GULP energy -133944.659453 kJ/mol
# GULP energy per Si atom -5581.027477 kJ/mol
# Density = 1.929474 g / cm^3
# Si number density = 19.338759 Si / 1000 Ang^3
#
#
#
# Elastic Constant Matrix: (Units=GPa)
#
#
# Indices 1 2 3 4 5 6 
#
# 1 43.4218 23.4176 19.3878 0.0000 -10.6313 0.0000
# 2 23.4176 40.8636 30.3890 0.0000 -6.6760 0.0000
# 3 19.3878 30.3890 91.6251 0.0000 -10.9448 0.0000
# 4 0.0000 0.0000 0.0000 28.9012 0.0000 -11.5431
# 5 -10.6313 -6.6760 -10.9448 0.0000 32.8626 0.0000
# 6 0.0000 0.0000 0.0000 -11.5431 0.0000 55.4871
#
#
#
# Elastic Compliance Matrix: (Units=1/GPa)
#
#
# Indices 1 2 3 4 5 6 
#
# 1 0.035042 -0.018601 -0.000357 0.000000 0.007439 0.000000
# 2 -0.018601 0.042670 -0.010310 0.000000 -0.000783 0.000000
# 3 -0.000357 -0.010310 0.014731 0.000000 0.002696 0.000000
# 4 0.000000 0.000000 0.000000 0.037736 0.000000 0.007850
# 5 0.007439 -0.000783 0.002696 0.000000 0.033575 0.000000
# 6 0.000000 0.000000 0.000000 0.007850 0.000000 0.019655
#
#
# Mechanical properties :
#
#
# Convention : Reuss Voigt Hill
#
# Bulk Modulus (GPa) = 29.49139 35.81104 32.65122
# Shear Modulus (GPa) = 19.74350 30.29792 25.02071
#
# Velocity S-wave (km/s) = 3.19866 3.96244 3.60086
# Velocity P-wave (km/s) = 5.37819 6.28431 5.84882
#
# Compressibility (1/GPa) = 0.03390820
#
# Stress axis : x y z
#
# Youngs Moduli (GPa) = 28.53719 23.43550 67.88340
#
# Poissons Ratio (x) = 0.43591 0.02424
# Poissons Ratio (y) = 0.53081 0.69987
# Poissons Ratio (z) = 0.01019 0.24162
#
# Static dielectric constant tensor:
#      x y z
#    x 1.706800 0.000000 -0.043630 
#    y 0.000000 1.649000 0.000000 
#    z -0.043630 0.000000 1.670040 
# 
# From -- ./inp_files/45066.got.cif
#   From: 2010.05.17/outbox.cif.g08.bks.cpg/sg10_23_cif.got.tgz:45066.got - 2010.06.03 11:33:40.
