data_PCOD9145069
_publ_section_title
;
Structure prediction by ZEFSAII (Michael W. Deem and Ramdas Pophale) SiO2 
 PCOD9145069
Probable space group: P 2/M
;
_chemical_formula_sum "Si O2"
_cell_formula_units_Z 32
_cell_length_a 11.822973
_cell_length_b 7.529667
_cell_length_c 20.587252
_cell_angle_alpha 90.000000
_cell_angle_beta 125.624210
_cell_angle_gamma 90.000000
_cell_volume 1489.751317
_symmetry_space_group_name_H-M "P 2/M"
_symmetry_group_IT_number 10
_symmetry_cell_setting 'monoclinic'
loop_
_space_group_symop_operation_xyz
x,y,z
-x,y,-z
-x,-y,-z
x,-y,z
loop_
_atom_site_type_symbol
_atom_site_label
_atom_site_fract_x
_atom_site_fract_y
_atom_site_fract_z
Si Si1 0.973545 0.717973 0.754938
Si Si2 0.397748 0.284089 0.565168
Si Si3 0.791670 0.795780 0.962224
Si Si4 0.504003 0.786472 0.926024
Si Si5 0.322616 0.284112 0.393207
Si Si6 0.152425 0.282497 0.579938
Si Si7 0.774509 0.712543 0.248439
Si Si8 0.076339 0.299715 0.119292
O O1 0.981660 0.500000 0.759532
O O2 0.832829 0.771097 0.672681
O O3 0.954051 0.782089 0.821436
O O4 0.108666 0.780464 0.762277
O O5 0.396430 0.500000 0.568842
O O6 0.356523 0.232905 0.478140
O O7 0.560130 0.227363 0.619809
O O8 0.281032 0.224200 0.576889
O O9 0.646263 0.724236 0.939426
O O10 0.815175 0.789898 0.892865
O O11 0.804643 0.000000 0.987642
O O12 0.924841 0.697334 0.035408
O O13 0.373616 0.745587 0.835659
O O14 0.509715 0.000000 0.931338
O O15 0.500000 0.722126 0.000000
O O16 0.325460 0.500000 0.393235
O O17 0.149891 0.500000 0.578837
O O18 0.189695 0.224614 0.666264
O O19 0.000000 0.228819 0.500000
O O20 0.787948 0.500000 0.257046
O O21 0.127964 0.500000 0.145922
#
# Coordination Sequence:
#
# PCOD9145069 Si02
#       8
#     4   4   4   4   4   4   4   4
#     4   9  17  28  42  65  97 127 155 195 247 292
#     4   8  13  21  35  56  84 125 167 194 229 284
#     4  10  20  35  53  71  94 125 162 200 242 295
#     4  10  22  39  56  73  98 135 172 208 253 303
#     4   8  13  22  36  55  85 123 160 196 233 282
#     4   9  16  26  42  67 101 135 165 202 249 300
#     4  10  20  32  50  77 104 132 169 211 253 299
#     4  10  19  31  50  74  99 126 157 199 248 295
#
# _framework density 21.480094999999999
#
# number of rings (size 3 to 8) (size 9 to 14) (size 15 to 20)
#    0.000    2.750    0.000    3.750    0.000    5.250 
#    0.000    3.125    0.000    0.375    0.000    0.000 
#    0.000    0.000    0.000   15.250    0.000   12.750 
#
# Total GULP energy -178372.049341 kJ/mol
# GULP energy per Si atom -5574.126542 kJ/mol
# Density = 2.143120 g / cm^3
# Si number density = 21.480095 Si / 1000 Ang^3
#
#
#
# Elastic Constant Matrix: (Units=GPa)
#
#
# Indices 1 2 3 4 5 6 
#
# 1 185.4940 -1.0576 62.8035 0.0000 -1.5499 0.0000
# 2 -1.0576 53.8398 -5.4670 0.0000 -3.1309 0.0000
# 3 62.8035 -5.4670 94.0515 0.0000 -5.6138 0.0000
# 4 0.0000 0.0000 0.0000 25.3767 0.0000 4.3920
# 5 -1.5499 -3.1309 -5.6138 0.0000 35.8708 0.0000
# 6 0.0000 0.0000 0.0000 4.3920 0.0000 7.5292
#
#
#
# Elastic Compliance Matrix: (Units=1/GPa)
#
#
# Indices 1 2 3 4 5 6 
#
# 1 0.006980 -0.000368 -0.004710 0.000000 -0.000468 0.000000
# 2 -0.000368 0.018822 0.001451 0.000000 0.001854 0.000000
# 3 -0.004710 0.001451 0.013988 0.000000 0.002112 0.000000
# 4 0.000000 0.000000 0.000000 0.043831 0.000000 -0.025568
# 5 -0.000468 0.001854 0.002112 0.000000 0.028350 0.000000
# 6 0.000000 0.000000 0.000000 -0.025568 0.000000 0.147730
#
#
# Mechanical properties :
#
#
# Convention : Reuss Voigt Hill
#
# Bulk Modulus (GPa) = 30.73728 49.54922 40.14325
# Shear Modulus (GPa) = 17.99852 32.22910 25.11381
#
# Velocity S-wave (km/s) = 2.89782 3.87772 3.42302
# Velocity P-wave (km/s) = 5.05343 6.57013 5.86105
#
# Compressibility (1/GPa) = 0.03253378
#
# Stress axis : x y z
#
# Youngs Moduli (GPa) = 143.27237 53.13069 71.48957
#
# Poissons Ratio (x) = 0.01957 0.33672
# Poissons Ratio (y) = 0.05278 -0.10371
# Poissons Ratio (z) = 0.67482 -0.07708
#
# Static dielectric constant tensor:
#      x y z
#    x 1.768760 0.000000 -0.012560 
#    y 0.000000 1.845850 0.000000 
#    z -0.012560 0.000000 1.797700 
# 
# From -- ./inp_files/83646.got.cif
#   From: 2010.05.17/outbox.cif.g08.bks.cpg/sg10_42_cif.got.tgz:83646.got - 2010.06.03 11:33:40.
