data_PCOD9145150
_publ_section_title
;
Structure prediction by ZEFSAII (Michael W. Deem and Ramdas Pophale) SiO2 
 PCOD9145150
Probable space group: P 2/M
;
_chemical_formula_sum "Si O2"
_cell_formula_units_Z 28
_cell_length_a 5.175668
_cell_length_b 32.761543
_cell_length_c 9.296344
_cell_angle_alpha 90.000000
_cell_angle_beta 56.394809
_cell_angle_gamma 90.000000
_cell_volume 1312.867014
_symmetry_space_group_name_H-M "P 2/M"
_symmetry_group_IT_number 10
_symmetry_cell_setting 'monoclinic'
loop_
_space_group_symop_operation_xyz
x,y,z
-x,y,-z
-x,-y,-z
x,-y,z
loop_
_atom_site_type_symbol
_atom_site_label
_atom_site_fract_x
_atom_site_fract_y
_atom_site_fract_z
Si Si1 0.797528 0.953316 0.711556
Si Si2 0.216533 0.187881 0.793189
Si Si3 0.698101 0.094151 0.292175
Si Si4 0.078873 0.325874 0.310580
Si Si5 0.310525 0.630609 0.809083
Si Si6 0.723219 0.233792 0.790153
Si Si7 0.372310 0.454934 0.877756
O O1 0.467418 0.935150 0.770436
O O2 0.000000 0.953342 0.500000
O O3 0.967514 0.923372 0.769716
O O4 0.787007 0.000000 0.764878
O O5 0.308468 0.140904 0.753658
O O6 0.504479 0.218261 0.728935
O O7 0.996890 0.201433 0.731045
O O8 0.000000 0.192096 0.000000
O O9 0.500000 0.091902 0.500000
O O10 0.420503 0.345354 0.190928
O O11 0.121190 0.277804 0.272678
O O12 0.000000 0.333397 0.500000
O O13 0.815223 0.346206 0.292889
O O14 0.433627 0.584062 0.757963
O O15 0.000000 0.628729 0.000000
O O16 0.500000 0.235255 0.000000
O O17 0.491170 0.500000 0.797282
O O18 0.500000 0.446564 0.000000
O O19 0.000000 0.457935 0.000000
#
# Coordination Sequence:
#
# PCOD9145150 Si02
#       7
#     4   4   4   4   4   4   4
#     4   9  17  30  49  74 102 132 169 210 251 303
#     4  10  21  36  55  77 104 136 174 222 270 323
#     4  10  19  31  51  76 100 131 169 211 260 312
#     4  12  25  39  58  87 121 152 189 244 298 341
#     4  11  21  38  62  86 115 156 198 236 286 350
#     4  10  21  38  57  77 102 142 188 223 269 335
#     4   9  17  31  55  88 117 144 192 250 287 322
#
# _framework density 21.327370999999999
#
# number of rings (size 3 to 8) (size 9 to 14) (size 15 to 20)
#    0.000    1.857    0.000    5.571    0.000    4.000 
#    0.000    0.000    0.000    5.143    0.000    0.000 
#    0.000    0.000    0.000    0.000    0.000    0.000 
#
# Total GULP energy -156350.224950 kJ/mol
# GULP energy per Si atom -5583.936605 kJ/mol
# Density = 2.127883 g / cm^3
# Si number density = 21.327371 Si / 1000 Ang^3
#
#
#
# Elastic Constant Matrix: (Units=GPa)
#
#
# Indices 1 2 3 4 5 6 
#
# 1 126.3421 32.1928 7.2180 0.0000 16.9292 0.0000
# 2 32.1928 137.5368 -1.7267 0.0000 10.6824 0.0000
# 3 7.2180 -1.7267 29.8373 0.0000 4.2487 0.0000
# 4 0.0000 0.0000 0.0000 13.5847 0.0000 5.9735
# 5 16.9292 10.6824 4.2487 0.0000 13.8235 0.0000
# 6 0.0000 0.0000 0.0000 5.9735 0.0000 41.5351
#
#
#
# Elastic Compliance Matrix: (Units=1/GPa)
#
#
# Indices 1 2 3 4 5 6 
#
# 1 0.009755 -0.001479 -0.000948 0.000000 -0.010512 0.000000
# 2 -0.001479 0.008012 0.001511 0.000000 -0.004845 0.000000
# 3 -0.000948 0.001511 0.035381 0.000000 -0.010881 0.000000
# 4 0.000000 0.000000 0.000000 0.078582 0.000000 -0.011301
# 5 -0.010512 -0.004845 -0.010881 0.000000 0.092302 0.000000
# 6 0.000000 0.000000 0.000000 -0.011301 0.000000 0.025701
#
#
# Mechanical properties :
#
#
# Convention : Reuss Voigt Hill
#
# Bulk Modulus (GPa) = 19.48688 41.00937 30.24812
# Shear Modulus (GPa) = 18.61011 30.85745 24.73378
#
# Velocity S-wave (km/s) = 2.95717 3.80787 3.40916
# Velocity P-wave (km/s) = 4.56253 6.21317 5.45069
#
# Compressibility (1/GPa) = 0.05131658
#
# Stress axis : x y z
#
# Youngs Moduli (GPa) = 102.51672 124.80986 28.26338
#
# Poissons Ratio (x) = 0.18455 0.02681
# Poissons Ratio (y) = 0.15159 -0.04272
# Poissons Ratio (z) = 0.09723 -0.18863
#
# Static dielectric constant tensor:
#      x y z
#    x 1.756740 0.000000 -0.020500 
#    y 0.000000 1.772260 0.000000 
#    z -0.020500 0.000000 1.842820 
# 
# From -- ./inp_files/15877.got.cif
#   From: 2010.05.17/outbox.cif.g08.bks.cpg/sg10_8_cif.got.tgz:15877.got - 2010.06.03 11:33:40.
