data_PCOD9145052
_publ_section_title
;
Structure prediction by ZEFSAII (Michael W. Deem and Ramdas Pophale) SiO2 
 PCOD9145052
Probable space group: P 2/M
;
_chemical_formula_sum "Si O2"
_cell_formula_units_Z 16
_cell_length_a 6.552237
_cell_length_b 19.384899
_cell_length_c 7.757308
_cell_angle_alpha 90.000000
_cell_angle_beta 42.123645
_cell_angle_gamma 90.000000
_cell_volume 660.866437
_symmetry_space_group_name_H-M "P 2/M"
_symmetry_group_IT_number 10
_symmetry_cell_setting 'monoclinic'
loop_
_space_group_symop_operation_xyz
x,y,z
-x,y,-z
-x,-y,-z
x,-y,z
loop_
_atom_site_type_symbol
_atom_site_label
_atom_site_fract_x
_atom_site_fract_y
_atom_site_fract_z
Si Si1 0.633545 0.425291 0.224250
Si Si2 0.134883 0.924123 0.222044
Si Si3 0.845954 0.784957 0.403656
Si Si4 0.354777 0.722677 0.911652
O O1 0.500000 0.422171 0.500000
O O2 0.537687 0.500000 0.209327
O O3 0.540777 0.355263 0.188368
O O4 0.000000 0.424851 0.000000
O O5 0.000000 0.928387 0.500000
O O6 0.953544 0.858705 0.262082
O O7 0.086620 0.000000 0.171293
O O8 0.500000 0.912295 0.000000
O O9 0.498782 0.771597 0.675362
O O10 0.000000 0.779713 0.500000
O O11 0.000401 0.727788 0.183783
O O12 0.500000 0.746572 0.000000
#
# Coordination Sequence:
#
# PCOD9145052 Si02
#       4
#     4   4   4   4
#     4  10  21  37  54  72  97 127 159 199 244 289
#     4   9  15  23  37  59  92 132 163 188 230 286
#     4   9  16  27  42  66  98 127 157 195 239 280
#     4  10  19  31  50  73  98 127 159 198 242 287
#
# _framework density 24.210639
#
# number of rings (size 3 to 8) (size 9 to 14) (size 15 to 20)
#    0.000    2.500    0.000    5.250    0.000    0.500 
#    0.000    0.000    0.000    9.000    0.000    0.000 
#    0.000   20.000    0.000    0.000    0.000    0.000 
#
# Total GULP energy -89282.557415 kJ/mol
# GULP energy per Si atom -5580.159838 kJ/mol
# Density = 2.415553 g / cm^3
# Si number density = 24.210639 Si / 1000 Ang^3
#
#
#
# Elastic Constant Matrix: (Units=GPa)
#
#
# Indices 1 2 3 4 5 6 
#
# 1 32.4718 -7.7203 33.7339 0.0000 -8.5289 0.0000
# 2 -7.7203 198.0122 63.6323 0.0000 9.8424 0.0000
# 3 33.7339 63.6323 204.6445 0.0000 -15.6868 0.0000
# 4 0.0000 0.0000 0.0000 37.5962 0.0000 -3.6948
# 5 -8.5289 9.8424 -15.6868 0.0000 39.1089 0.0000
# 6 0.0000 0.0000 0.0000 -3.6948 0.0000 22.7288
#
#
#
# Elastic Compliance Matrix: (Units=1/GPa)
#
#
# Indices 1 2 3 4 5 6 
#
# 1 0.040794 0.003760 -0.007515 0.000000 0.004936 0.000000
# 2 0.003760 0.006143 -0.002668 0.000000 -0.001796 0.000000
# 3 -0.007515 -0.002668 0.007099 0.000000 0.001880 0.000000
# 4 0.000000 0.000000 0.000000 0.027030 0.000000 0.004394
# 5 0.004936 -0.001796 0.001880 0.000000 0.027852 0.000000
# 6 0.000000 0.000000 0.000000 0.004394 0.000000 0.044711
#
#
# Mechanical properties :
#
#
# Convention : Reuss Voigt Hill
#
# Bulk Modulus (GPa) = 24.27743 68.26893 46.27318
# Shear Modulus (GPa) = 27.74603 42.91894 35.33248
#
# Velocity S-wave (km/s) = 3.38897 4.21495 3.82433
# Velocity P-wave (km/s) = 5.03616 7.20742 6.21730
#
# Compressibility (1/GPa) = 0.04119051
#
# Stress axis : x y z
#
# Youngs Moduli (GPa) = 24.51345 162.77687 140.86501
#
# Poissons Ratio (x) = -0.61209 1.05866
# Poissons Ratio (y) = -0.09218 0.37579
# Poissons Ratio (z) = 0.18423 0.43425
#
# Static dielectric constant tensor:
#      x y z
#    x 2.052470 0.000000 -0.013420 
#    y 0.000000 1.990940 0.000000 
#    z -0.013420 0.000000 1.917780 
# 
# From -- ./inp_files/3590.got.cif
#   From: 2010.05.17/outbox.cif.g08.bks.cpg/sg10_2_cif.got.tgz:3590.got - 2010.06.03 11:33:40.
