data_PCOD9145559
_publ_section_title
;
Structure prediction by ZEFSAII (Michael W. Deem and Ramdas Pophale) SiO2 
 PCOD9145559
Probable space group: P 2/M
;
_chemical_formula_sum "Si O2"
_cell_formula_units_Z 32
_cell_length_a 29.459353
_cell_length_b 7.622834
_cell_length_c 22.664199
_cell_angle_alpha 90.000000
_cell_angle_beta 161.531566
_cell_angle_gamma 90.000000
_cell_volume 1612.281017
_symmetry_space_group_name_H-M "P 2/M"
_symmetry_group_IT_number 10
_symmetry_cell_setting 'monoclinic'
loop_
_space_group_symop_operation_xyz
x,y,z
-x,y,-z
-x,-y,-z
x,-y,z
loop_
_atom_site_type_symbol
_atom_site_label
_atom_site_fract_x
_atom_site_fract_y
_atom_site_fract_z
Si Si1 0.926654 0.204094 0.968073
Si Si2 0.839340 0.292412 0.302917
Si Si3 0.647215 0.787862 0.818517
Si Si4 0.091450 0.211574 0.418703
Si Si5 0.341168 0.291825 0.810749
Si Si6 0.060448 0.785482 0.885718
Si Si7 0.197925 0.788413 0.874020
Si Si8 0.401109 0.296180 0.431231
O O1 0.753971 0.211625 0.752395
O O2 0.971125 0.000000 0.024671
O O3 0.000000 0.282037 0.000000
O O4 0.967226 0.279076 0.082358
O O5 0.853814 0.500000 0.332382
O O6 0.744376 0.217274 0.238537
O O7 0.774001 0.270440 0.157527
O O8 0.000000 0.216464 0.500000
O O9 0.499682 0.719390 0.610481
O O10 0.641522 0.000000 0.810630
O O11 0.690981 0.731981 0.938396
O O12 0.780626 0.734542 0.940964
O O13 0.240958 0.268992 0.630244
O O14 0.050053 0.269074 0.301577
O O15 0.960164 0.270904 0.299151
O O16 0.089072 0.000000 0.415804
O O17 0.356855 0.500000 0.840410
O O18 0.500000 0.217507 0.000000
O O19 0.060861 0.000000 0.887247
O O20 0.196393 0.000000 0.872635
O O21 0.500000 0.221673 0.500000
O O22 0.374279 0.500000 0.384499
#
# Coordination Sequence:
#
# PCOD9145559 Si02
#       8
#     4   4   4   4   4   4   4   4
#     4  10  20  35  57  81 105 141 182 217 263 318
#     4  10  19  32  51  74  99 131 167 204 251 303
#     4   9  17  32  54  77 103 136 173 215 264 309
#     4   9  17  31  52  76 101 130 167 211 258 303
#     4  10  21  36  51  71 102 136 170 207 248 302
#     4   8  15  30  52  77 103 130 166 214 260 305
#     4   9  18  31  51  80 105 129 167 217 263 303
#     4  11  22  34  51  79 110 139 175 218 264 310
#
# _framework density 19.847656000000001
#
# number of rings (size 3 to 8) (size 9 to 14) (size 15 to 20)
#    0.000    2.500    2.500    1.875    0.000    2.250 
#    0.000    3.750    0.000    4.500    0.000    0.000 
#    0.000    0.000    0.000    0.000    0.000    0.000 
#
# Total GULP energy -178527.009195 kJ/mol
# GULP energy per Si atom -5578.969037 kJ/mol
# Density = 1.980248 g / cm^3
# Si number density = 19.847656 Si / 1000 Ang^3
#
#
#
# Elastic Constant Matrix: (Units=GPa)
#
#
# Indices 1 2 3 4 5 6 
#
# 1 157.2364 1.9820 76.7424 0.0000 -10.0638 0.0000
# 2 1.9820 38.2301 -8.4556 0.0000 8.5533 0.0000
# 3 76.7424 -8.4556 121.6464 0.0000 -9.0552 0.0000
# 4 0.0000 0.0000 0.0000 18.6927 0.0000 -11.9222
# 5 -10.0638 8.5533 -9.0552 0.0000 24.4564 0.0000
# 6 0.0000 0.0000 0.0000 -11.9222 0.0000 7.3746
#
#
#
# Elastic Compliance Matrix: (Units=1/GPa)
#
#
# Indices 1 2 3 4 5 6 
#
# 1 0.009449 -0.002366 -0.005938 0.000000 0.002517 0.000000
# 2 -0.002366 0.029162 0.002764 0.000000 -0.010149 0.000000
# 3 -0.005938 0.002764 0.012242 0.000000 0.001122 0.000000
# 4 0.000000 0.000000 0.000000 -1.719407 0.000000 -2.779712
# 5 0.002517 -0.010149 0.001122 0.000000 0.045890 0.000000
# 6 0.000000 0.000000 0.000000 -2.779712 0.000000 -4.358274
#
#
# Mechanical properties :
#
#
# Convention : Reuss Voigt Hill
#
# Bulk Modulus (GPa) = 25.14243 50.85005 37.99624
# Shear Modulus (GPa) = -0.83941 26.56099 12.86079
#
# Velocity S-wave (km/s) = -0.65103 3.66217 2.54830
# Velocity P-wave (km/s) = 3.48283 6.59983 5.27674
#
# Compressibility (1/GPa) = 0.03977340
#
# Stress axis : x y z
#
# Youngs Moduli (GPa) = 105.83086 34.29090 81.68305
#
# Poissons Ratio (x) = 0.08115 0.48505
# Poissons Ratio (y) = 0.25044 -0.22581
# Poissons Ratio (z) = 0.62844 -0.09480
#
# Static dielectric constant tensor:
#      x y z
#    x 1.716880 0.000000 -0.013240 
#    y 0.000000 1.737220 0.000000 
#    z -0.013240 0.000000 1.682210 
# 
# From -- ./inp_files/87025.got.cif
#   From: 2010.05.17/outbox.cif.g08.bks.cpg/sg10_44_cif.got.tgz:87025.got - 2010.06.03 11:33:40.
