data_PCOD9145121
_publ_section_title
;
Structure prediction by ZEFSAII (Michael W. Deem and Ramdas Pophale) SiO2 
 PCOD9145121
Probable space group: P 2/M
;
_chemical_formula_sum "Si O2"
_cell_formula_units_Z 32
_cell_length_a 25.430340
_cell_length_b 8.785237
_cell_length_c 12.289895
_cell_angle_alpha 90.000000
_cell_angle_beta 134.805119
_cell_angle_gamma 90.000000
_cell_volume 1948.098817
_symmetry_space_group_name_H-M "P 2/M"
_symmetry_group_IT_number 10
_symmetry_cell_setting 'monoclinic'
loop_
_space_group_symop_operation_xyz
x,y,z
-x,y,-z
-x,-y,-z
x,-y,z
loop_
_atom_site_type_symbol
_atom_site_label
_atom_site_fract_x
_atom_site_fract_y
_atom_site_fract_z
Si Si1 0.354117 0.818378 0.342763
Si Si2 0.471358 0.317187 0.669016
Si Si3 0.577469 0.684736 0.167323
Si Si4 0.812279 0.180432 0.523882
Si Si5 0.076752 0.320211 0.162739
Si Si6 0.634964 0.182387 0.893133
Si Si7 0.287628 0.682849 0.790805
Si Si8 0.764477 0.321475 0.669774
O O1 0.427925 0.745372 0.501716
O O2 0.346319 0.779541 0.204599
O O3 0.285907 0.756991 0.314631
O O4 0.359188 0.000000 0.359997
O O5 0.475202 0.500000 0.671111
O O6 0.425616 0.270879 0.710753
O O7 0.553711 0.251117 0.797871
O O8 0.579027 0.500000 0.167991
O O9 0.645260 0.735079 0.191309
O O10 0.500000 0.732920 0.000000
O O11 0.892387 0.233794 0.686100
O O12 0.786211 0.254565 0.373780
O O13 0.758870 0.246510 0.542016
O O14 0.807550 0.000000 0.512676
O O15 0.069552 0.500000 0.177618
O O16 0.146684 0.306947 0.181779
O O17 0.000000 0.265648 0.000000
O O18 0.632410 0.000000 0.900517
O O19 0.692631 0.251647 0.062777
O O20 0.286480 0.500000 0.792131
O O21 0.745442 0.500000 0.634270
#
# Coordination Sequence:
#
# PCOD9145121 Si02
#       8
#     4   4   4   4   4   4   4   4
#     4  11  23  37  51  69  99 135 171 219 268 308
#     4  11  21  35  55  73  92 127 173 220 266 315
#     4   9  17  31  49  70  93 118 157 209 260 302
#     4  10  19  31  50  78 110 137 163 198 248 303
#     4   8  16  32  53  80 112 140 166 200 243 293
#     4  11  24  38  49  67  98 134 174 222 271 309
#     4  11  20  34  53  71  96 132 174 215 255 304
#     4   9  18  33  53  78 104 134 170 205 245 298
#
# _framework density 16.426272000000001
#
# number of rings (size 3 to 8) (size 9 to 14) (size 15 to 20)
#    0.750    1.250    1.250    3.750    0.000    4.750 
#    0.000    2.500    0.000    0.000    0.000    0.875 
#    0.000    7.000    0.000    0.000    0.000    0.000 
#
# Total GULP energy -178371.503806 kJ/mol
# GULP energy per Si atom -5574.109494 kJ/mol
# Density = 1.638888 g / cm^3
# Si number density = 16.426272 Si / 1000 Ang^3
#
#
#
# Elastic Constant Matrix: (Units=GPa)
#
#
# Indices 1 2 3 4 5 6 
#
# 1 24.6432 18.0374 35.5728 0.0000 -7.7814 0.0000
# 2 18.0374 62.7515 50.9342 0.0000 -9.5723 0.0000
# 3 35.5728 50.9342 150.4912 0.0000 -8.1425 0.0000
# 4 0.0000 0.0000 0.0000 24.6165 0.0000 -7.0894
# 5 -7.7814 -9.5723 -8.1425 0.0000 26.2603 0.0000
# 6 0.0000 0.0000 0.0000 -7.0894 0.0000 -11.1645
#
#
#
# Elastic Compliance Matrix: (Units=1/GPa)
#
#
# Indices 1 2 3 4 5 6 
#
# 1 0.069191 -0.007046 -0.013222 0.000000 0.013834 0.000000
# 2 -0.007046 0.023594 -0.006069 0.000000 0.004631 0.000000
# 3 -0.013222 -0.006069 0.011689 0.000000 -0.002506 0.000000
# 4 0.000000 0.000000 0.000000 0.034343 0.000000 -0.021807
# 5 0.013834 0.004631 -0.002506 0.000000 0.043091 0.000000
# 6 0.000000 0.000000 0.000000 -0.021807 0.000000 -0.075722
#
#
# Mechanical properties :
#
#
# Convention : Reuss Voigt Hill
#
# Bulk Modulus (GPa) = 19.30540 49.66388 34.48464
# Shear Modulus (GPa) = 28.38879 16.83190 22.61035
#
# Velocity S-wave (km/s) = 4.16174 3.20456 3.71411
# Velocity P-wave (km/s) = 5.90523 6.63267 6.27949
#
# Compressibility (1/GPa) = 0.05179897
#
# Stress axis : x y z
#
# Youngs Moduli (GPa) = 14.45280 42.38374 85.55143
#
# Poissons Ratio (x) = 0.29864 1.13115
# Poissons Ratio (y) = 0.10184 0.51924
# Poissons Ratio (z) = 0.19109 0.25724
#
# Static dielectric constant tensor:
#      x y z
#    x 1.546740 0.000000 0.007000 
#    y 0.000000 1.547080 0.000000 
#    z 0.007000 0.000000 1.571310 
# 
# From -- ./inp_files/57193.got.cif
#   From: 2010.05.17/outbox.cif.g08.bks.cpg/sg10_29_cif.got.tgz:57193.got - 2010.06.03 11:33:40.
