data_PCOD9145420
_publ_section_title
;
Structure prediction by ZEFSAII (Michael W. Deem and Ramdas Pophale) SiO2 
 PCOD9145420
Probable space group: P 2/M
;
_chemical_formula_sum "Si O2"
_cell_formula_units_Z 32
_cell_length_a 15.290224
_cell_length_b 8.028057
_cell_length_c 10.846912
_cell_angle_alpha 90.000000
_cell_angle_beta 93.795257
_cell_angle_gamma 90.000000
_cell_volume 1328.547043
_symmetry_space_group_name_H-M "P 2/M"
_symmetry_group_IT_number 10
_symmetry_cell_setting 'monoclinic'
loop_
_space_group_symop_operation_xyz
x,y,z
-x,y,-z
-x,-y,-z
x,-y,z
loop_
_atom_site_type_symbol
_atom_site_label
_atom_site_fract_x
_atom_site_fract_y
_atom_site_fract_z
Si Si1 0.824454 0.298917 0.801920
Si Si2 0.375238 0.299274 0.210459
Si Si3 0.274736 0.688327 0.547773
Si Si4 0.550874 0.304513 0.325244
Si Si5 0.912217 0.703239 0.566255
Si Si6 0.613532 0.184735 0.069779
Si Si7 0.776379 0.322880 0.174323
Si Si8 0.914806 0.192349 0.049854
O O1 0.824841 0.500000 0.815319
O O2 0.723603 0.251154 0.760191
O O3 0.900463 0.256340 0.710068
O O4 0.846283 0.213805 0.932583
O O5 0.379078 0.500000 0.211040
O O6 0.451923 0.237269 0.309135
O O7 0.396262 0.244402 0.071331
O O8 0.284653 0.500000 0.493113
O O9 0.372002 0.765823 0.578940
O O10 0.184802 0.764766 0.486924
O O11 0.246561 0.668295 0.686914
O O12 0.547865 0.500000 0.356889
O O13 0.578994 0.291299 0.182681
O O14 0.910603 0.500000 0.553333
O O15 0.000000 0.759017 0.500000
O O16 0.716909 0.185414 0.106762
O O17 0.578293 0.000000 0.082293
O O18 0.753822 0.500000 0.111462
O O19 0.877091 0.285653 0.163253
O O20 0.930226 0.000000 0.080578
O O21 0.000000 0.272547 0.000000
#
# Coordination Sequence:
#
# PCOD9145420 Si02
#       8
#     4   4   4   4   4   4   4   4
#     4  10  21  36  57  82 108 143 187 229 274 333
#     4  10  19  32  49  73 106 145 187 228 273 327
#     4   8  16  31  51  77 108 139 178 228 278 319
#     4   9  18  32  50  72 106 148 185 228 276 323
#     4   9  18  33  55  83 110 135 177 237 283 320
#     4  11  20  30  48  76 111 147 182 223 270 326
#     4  10  19  33  55  80 108 145 184 223 272 331
#     4  11  24  38  53  78 114 148 179 224 279 331
#
# _framework density 24.086463999999999
#
# number of rings (size 3 to 8) (size 9 to 14) (size 15 to 20)
#    0.000    2.250    1.250    3.000    1.750    3.000 
#    0.000    0.625    0.000    7.875    0.000    0.000 
#    0.000    6.000    0.000    0.000    0.000    0.000 
#
# Total GULP energy -178315.643803 kJ/mol
# GULP energy per Si atom -5572.363869 kJ/mol
# Density = 2.403164 g / cm^3
# Si number density = 24.086464 Si / 1000 Ang^3
#
#
#
# Elastic Constant Matrix: (Units=GPa)
#
#
# Indices 1 2 3 4 5 6 
#
# 1 91.5793 -7.3060 13.1138 0.0000 -1.8787 0.0000
# 2 -7.3060 33.3558 -4.3167 0.0000 -0.8610 0.0000
# 3 13.1138 -4.3167 60.6441 0.0000 -16.0001 0.0000
# 4 0.0000 0.0000 0.0000 11.3099 0.0000 16.6744
# 5 -1.8787 -0.8610 -16.0001 0.0000 31.0587 0.0000
# 6 0.0000 0.0000 0.0000 16.6744 0.0000 22.7689
#
#
#
# Elastic Compliance Matrix: (Units=1/GPa)
#
#
# Indices 1 2 3 4 5 6 
#
# 1 0.011434 0.002174 -0.002453 0.000000 -0.000512 0.000000
# 2 0.002174 0.030809 0.002295 0.000000 0.002168 0.000000
# 3 -0.002453 0.002295 0.019860 0.000000 0.010146 0.000000
# 4 0.000000 0.000000 0.000000 -1.109509 0.000000 0.812529
# 5 -0.000512 0.002168 0.010146 0.000000 0.037453 0.000000
# 6 0.000000 0.000000 0.000000 0.812529 0.000000 -0.551121
#
#
# Mechanical properties :
#
#
# Convention : Reuss Voigt Hill
#
# Bulk Modulus (GPa) = 15.12065 20.95126 18.03595
# Shear Modulus (GPa) = -3.24031 25.30003 11.02986
#
# Velocity S-wave (km/s) = -1.16112 3.24448 2.14225
# Velocity P-wave (km/s) = 2.11983 4.76999 3.69096
#
# Compressibility (1/GPa) = 0.06613474
#
# Stress axis : x y z
#
# Youngs Moduli (GPa) = 87.46131 32.45816 50.35151
#
# Poissons Ratio (x) = -0.07055 0.12350
# Poissons Ratio (y) = -0.19012 -0.11555
# Poissons Ratio (z) = 0.21452 -0.07449
#
# Static dielectric constant tensor:
#      x y z
#    x 2.058820 0.000000 0.023910 
#    y 0.000000 1.874530 0.000000 
#    z 0.023910 0.000000 1.927790 
# 
# From -- ./inp_files/49771.got.cif
#   From: 2010.05.17/outbox.cif.g08.bks.cpg/sg10_25_cif.got.tgz:49771.got - 2010.06.03 11:33:40.
