data_PCOD9145839
_publ_section_title
;
Structure prediction by ZEFSAII (Michael W. Deem and Ramdas Pophale) SiO2 
 PCOD9145839
Probable space group: P 2/M
;
_chemical_formula_sum "Si O2"
_cell_formula_units_Z 32
_cell_length_a 19.430282
_cell_length_b 13.133374
_cell_length_c 19.141563
_cell_angle_alpha 90.000000
_cell_angle_beta 21.937513
_cell_angle_gamma 90.000000
_cell_volume 1824.879018
_symmetry_space_group_name_H-M "P 2/M"
_symmetry_group_IT_number 10
_symmetry_cell_setting 'monoclinic'
loop_
_space_group_symop_operation_xyz
x,y,z
-x,y,-z
-x,-y,-z
x,-y,z
loop_
_atom_site_type_symbol
_atom_site_label
_atom_site_fract_x
_atom_site_fract_y
_atom_site_fract_z
Si Si1 0.926727 0.885323 0.139249
Si Si2 0.431420 0.379980 0.269584
Si Si3 0.873045 0.620470 0.724833
Si Si4 0.695523 0.116819 0.133380
Si Si5 0.817172 0.377911 0.370286
Si Si6 0.576299 0.240877 0.506894
Si Si7 0.718549 0.618847 0.727812
Si Si8 0.808466 0.291455 0.935745
O O1 0.752000 0.832705 0.336124
O O2 0.867215 0.000000 0.175743
O O3 0.000000 0.832233 0.000000
O O4 0.102352 0.889937 0.023108
O O5 0.399551 0.500000 0.293019
O O6 0.276364 0.342815 0.468714
O O7 0.412907 0.336745 0.208486
O O8 0.630230 0.361929 0.114772
O O9 0.833886 0.500000 0.778143
O O10 0.742251 0.657445 0.784390
O O11 0.860446 0.686286 0.806455
O O12 0.079162 0.622174 0.498862
O O13 0.569141 0.185428 0.304334
O O14 0.626409 0.000000 0.190928
O O15 0.732846 0.180205 0.027508
O O16 0.839440 0.500000 0.349081
O O17 0.669256 0.341767 0.452059
O O18 0.017809 0.325327 0.180590
O O19 0.500000 0.254251 0.500000
O O20 0.670917 0.500000 0.782696
#
# Coordination Sequence:
#
# PCOD9145839 Si02
#       8
#     4   4   4   4   4   4   4   4
#     4  10  20  36  60  87 111 133 169 231 297 344
#     4  10  19  32  53  80 113 150 187 227 270 325
#     4   9  16  28  50  80 115 152 186 226 277 328
#     4  11  24  39  57  86 113 139 183 238 290 339
#     4  11  23  38  54  80 117 152 188 224 263 329
#     4  12  23  39  63  84 113 145 183 228 289 341
#     4   8  15  28  47  79 118 147 183 234 275 318
#     4  12  21  35  57  79 111 154 191 225 276 338
#
# _framework density 17.535408
#
# number of rings (size 3 to 8) (size 9 to 14) (size 15 to 20)
#    0.000    1.625    5.000    2.250    0.000    1.250 
#    0.000    1.875    0.000    1.125    0.000    3.500 
#    0.000    0.000    0.000    0.125    0.000    0.000 
#
# Total GULP energy -178205.041457 kJ/mol
# GULP energy per Si atom -5568.907546 kJ/mol
# Density = 1.749550 g / cm^3
# Si number density = 17.535408 Si / 1000 Ang^3
#
#
#
# Elastic Constant Matrix: (Units=GPa)
#
#
# Indices 1 2 3 4 5 6 
#
# 1 88.9748 35.2887 26.8206 0.0000 1.5942 0.0000
# 2 35.2887 50.0167 18.1353 0.0000 7.4978 0.0000
# 3 26.8206 18.1353 84.3849 0.0000 -4.2563 0.0000
# 4 0.0000 0.0000 0.0000 32.4165 0.0000 10.1278
# 5 1.5942 7.4978 -4.2563 0.0000 31.2901 0.0000
# 6 0.0000 0.0000 0.0000 10.1278 0.0000 23.2159
#
#
#
# Elastic Compliance Matrix: (Units=1/GPa)
#
#
# Indices 1 2 3 4 5 6 
#
# 1 0.016300 -0.010681 -0.002818 0.000000 0.001346 0.000000
# 2 -0.010681 0.029808 -0.003367 0.000000 -0.007056 0.000000
# 3 -0.002818 -0.003367 0.013611 0.000000 0.002802 0.000000
# 4 0.000000 0.000000 0.000000 0.035716 0.000000 -0.015581
# 5 0.001346 -0.007056 0.002802 0.000000 0.033962 0.000000
# 6 0.000000 0.000000 0.000000 -0.015581 0.000000 0.049871
#
#
# Mechanical properties :
#
#
# Convention : Reuss Voigt Hill
#
# Bulk Modulus (GPa) = 38.47918 42.65173 40.56545
# Shear Modulus (GPa) = 22.55677 26.92661 24.74169
#
# Velocity S-wave (km/s) = 3.59047 3.92287 3.76034
# Velocity P-wave (km/s) = 6.25939 6.70034 6.48361
#
# Compressibility (1/GPa) = 0.02598808
#
# Stress axis : x y z
#
# Youngs Moduli (GPa) = 61.34787 33.54836 73.47007
#
# Poissons Ratio (x) = 0.35832 0.20701
# Poissons Ratio (y) = 0.65524 0.24739
# Poissons Ratio (z) = 0.17285 0.11297
#
# Static dielectric constant tensor:
#      x y z
#    x 1.682400 0.000000 0.002070 
#    y 0.000000 1.602200 0.000000 
#    z 0.002070 0.000000 1.649330 
# 
# From -- ./inp_files/86262.got.cif
#   From: 2010.05.17/outbox.cif.g08.bks.cpg/sg10_44_cif.got.tgz:86262.got - 2010.06.03 11:33:40.
