data_PCOD9145007
_publ_section_title
;
Structure prediction by ZEFSAII (Michael W. Deem and Ramdas Pophale) SiO2 
 PCOD9145007
Probable space group: P 2/M
;
_chemical_formula_sum "Si O2"
_cell_formula_units_Z 28
_cell_length_a 15.423835
_cell_length_b 9.393506
_cell_length_c 21.795311
_cell_angle_alpha 90.000000
_cell_angle_beta 155.864630
_cell_angle_gamma 90.000000
_cell_volume 1291.200797
_symmetry_space_group_name_H-M "P 2/M"
_symmetry_group_IT_number 10
_symmetry_cell_setting 'monoclinic'
loop_
_space_group_symop_operation_xyz
x,y,z
-x,y,-z
-x,-y,-z
x,-y,z
loop_
_atom_site_type_symbol
_atom_site_label
_atom_site_fract_x
_atom_site_fract_y
_atom_site_fract_z
Si Si1 0.992551 0.832314 0.427199
Si Si2 0.271067 0.837351 0.415986
Si Si3 0.633486 0.334793 0.961555
Si Si4 0.906513 0.664044 0.807058
Si Si5 0.692737 0.831410 0.769106
Si Si6 0.815834 0.167306 0.189370
Si Si7 0.474585 0.165800 0.749041
O O1 0.239929 0.829252 0.568568
O O2 0.000000 0.768249 0.500000
O O3 0.846210 0.775536 0.278216
O O4 0.932025 0.000000 0.394453
O O5 0.245383 0.732533 0.342501
O O6 0.475236 0.812053 0.589709
O O7 0.053264 0.826725 0.313981
O O8 0.281873 0.000000 0.399435
O O9 0.578586 0.500000 0.934277
O O10 0.667579 0.254974 0.047961
O O11 0.860271 0.326794 0.072176
O O12 0.482604 0.252621 0.816972
O O13 0.855155 0.500000 0.784557
O O14 0.871861 0.750478 0.847120
O O15 0.636954 0.782861 0.801838
O O16 0.737669 0.000000 0.800186
O O17 0.755577 0.000000 0.151443
O O18 0.520744 0.000000 0.792694
#
# Coordination Sequence:
#
# PCOD9145007 Si02
#       7
#     4   4   4   4   4   4   4
#     4   9  17  33  61  93 115 130 164 223 278 321
#     4   9  16  29  49  73 103 137 175 218 265 315
#     4  10  22  38  53  74 109 150 187 221 260 310
#     4  10  21  33  46  70 104 142 184 225 261 303
#     4  10  19  31  49  74 105 138 177 222 267 314
#     4   9  16  32  58  83 107 140 177 216 266 321
#     4  10  20  36  57  82 109 140 178 220 269 324
#
# _framework density 21.685241999999999
#
# number of rings (size 3 to 8) (size 9 to 14) (size 15 to 20)
#    0.000    2.429    1.429    1.286    0.000    5.143 
#    0.000    4.286    0.000    6.000    0.000    0.000 
#    0.000    0.000    0.000    0.000    0.000    0.000 
#
# Total GULP energy -156412.191996 kJ/mol
# GULP energy per Si atom -5586.149714 kJ/mol
# Density = 2.163589 g / cm^3
# Si number density = 21.685242 Si / 1000 Ang^3
#
#
#
# Elastic Constant Matrix: (Units=GPa)
#
#
# Indices 1 2 3 4 5 6 
#
# 1 117.3221 32.6547 29.2084 0.0000 -31.9897 0.0000
# 2 32.6547 50.6068 34.1409 0.0000 -27.9625 0.0000
# 3 29.2084 34.1409 91.5646 0.0000 -26.2051 0.0000
# 4 0.0000 0.0000 0.0000 87.9615 0.0000 -91.8001
# 5 -31.9897 -27.9625 -26.2051 0.0000 45.1734 0.0000
# 6 0.0000 0.0000 0.0000 -91.8001 0.0000 101.1066
#
#
#
# Elastic Compliance Matrix: (Units=1/GPa)
#
#
# Indices 1 2 3 4 5 6 
#
# 1 0.011173 -0.003976 -0.000625 0.000000 0.005088 0.000000
# 2 -0.003976 0.035788 -0.007844 0.000000 0.014787 0.000000
# 3 -0.000625 -0.007844 0.015023 0.000000 0.003417 0.000000
# 4 0.000000 0.000000 0.000000 0.216865 0.000000 0.196903
# 5 0.005088 0.014787 0.003417 0.000000 0.036876 0.000000
# 6 0.000000 0.000000 0.000000 0.196903 0.000000 0.188670
#
#
# Mechanical properties :
#
#
# Convention : Reuss Voigt Hill
#
# Bulk Modulus (GPa) = 26.95860 50.16685 38.56273
# Shear Modulus (GPa) = 9.23106 57.74759 33.48932
#
# Velocity S-wave (km/s) = 2.06545 5.16602 3.93407
# Velocity P-wave (km/s) = 4.25991 7.66602 6.20140
#
# Compressibility (1/GPa) = 0.03709392
#
# Stress axis : x y z
#
# Youngs Moduli (GPa) = 89.49823 27.94236 66.56373
#
# Poissons Ratio (x) = 0.11111 0.04163
# Poissons Ratio (y) = 0.35588 0.52210
# Poissons Ratio (z) = 0.05597 0.21917
#
# Static dielectric constant tensor:
#      x y z
#    x 1.838770 0.000000 0.036410 
#    y 0.000000 1.725090 0.000000 
#    z 0.036410 0.000000 1.805380 
# 
# From -- ./inp_files/84970.got.cif
#   From: 2010.05.17/outbox.cif.g08.bks.cpg/sg10_43_cif.got.tgz:84970.got - 2010.06.03 11:33:40.
