data_PCOD9145151
_publ_section_title
;
Structure prediction by ZEFSAII (Michael W. Deem and Ramdas Pophale) SiO2 
 PCOD9145151
Probable space group: P 2/M
;
_chemical_formula_sum "Si O2"
_cell_formula_units_Z 32
_cell_length_a 23.795549
_cell_length_b 8.733597
_cell_length_c 12.969174
_cell_angle_alpha 90.000000
_cell_angle_beta 136.049319
_cell_angle_gamma 90.000000
_cell_volume 1870.617616
_symmetry_space_group_name_H-M "P 2/M"
_symmetry_group_IT_number 10
_symmetry_cell_setting 'monoclinic'
loop_
_space_group_symop_operation_xyz
x,y,z
-x,y,-z
-x,-y,-z
x,-y,z
loop_
_atom_site_type_symbol
_atom_site_label
_atom_site_fract_x
_atom_site_fract_y
_atom_site_fract_z
Si Si1 0.653775 0.183267 0.047263
Si Si2 0.777776 0.317127 0.046650
Si Si3 0.037605 0.684064 0.658334
Si Si4 0.821516 0.186840 0.661740
Si Si5 0.994705 0.816057 0.814751
Si Si6 0.177151 0.185136 0.107891
Si Si7 0.684368 0.184700 0.323295
Si Si8 0.483960 0.675234 0.855578
O O1 0.711273 0.248362 0.034790
O O2 0.682931 0.234072 0.201028
O O3 0.655623 0.000000 0.047972
O O4 0.561628 0.239993 0.911794
O O5 0.770918 0.500000 0.036415
O O6 0.867504 0.276164 0.207571
O O7 0.776243 0.254487 0.927871
O O8 0.030629 0.500000 0.659482
O O9 0.000000 0.730025 0.500000
O O10 0.992806 0.763068 0.694160
O O11 0.913797 0.238551 0.764493
O O12 0.793863 0.231042 0.740023
O O13 0.761594 0.236914 0.491524
O O14 0.822501 0.000000 0.661227
O O15 0.994593 0.000000 0.820487
O O16 0.082307 0.766523 0.973231
O O17 0.179857 0.000000 0.103563
O O18 0.602298 0.243146 0.268773
O O19 0.683226 0.000000 0.321422
O O20 0.480387 0.500000 0.815394
O O21 0.500000 0.674986 0.000000
#
# Coordination Sequence:
#
# PCOD9145151 Si02
#       8
#     4   4   4   4   4   4   4   4
#     4  10  19  31  51  76 101 128 161 197 238 294
#     4  10  20  33  49  69  96 129 167 206 243 285
#     4   9  19  33  45  62  95 135 165 197 244 291
#     4   9  17  30  50  74 100 128 161 206 250 288
#     4   9  17  29  48  72  94 124 168 209 243 281
#     4   9  17  32  51  70  95 130 170 206 244 287
#     4   9  18  31  48  74 104 130 157 195 244 293
#     4   9  17  31  50  72 100 131 160 192 236 290
#
# _framework density 17.106649000000001
#
# number of rings (size 3 to 8) (size 9 to 14) (size 15 to 20)
#    0.000    2.750    0.000    1.500    1.750    4.250 
#    0.000    1.875    0.000    3.750    0.000    5.250 
#    0.000    0.000    0.000    0.000    0.000    0.000 
#
# Total GULP energy -178339.946222 kJ/mol
# GULP energy per Si atom -5573.123319 kJ/mol
# Density = 1.706771 g / cm^3
# Si number density = 17.106649 Si / 1000 Ang^3
#
#
#
# Elastic Constant Matrix: (Units=GPa)
#
#
# Indices 1 2 3 4 5 6 
#
# 1 145.2735 31.0290 45.3871 0.0000 -3.4221 0.0000
# 2 31.0290 18.3637 9.7788 0.0000 0.5730 0.0000
# 3 45.3871 9.7788 49.7188 0.0000 -7.3536 0.0000
# 4 0.0000 0.0000 0.0000 14.5086 0.0000 5.2605
# 5 -3.4221 0.5730 -7.3536 0.0000 14.8708 0.0000
# 6 0.0000 0.0000 0.0000 5.2605 0.0000 3.9875
#
#
#
# Elastic Compliance Matrix: (Units=1/GPa)
#
#
# Indices 1 2 3 4 5 6 
#
# 1 0.013495 -0.018072 -0.008850 0.000000 -0.000574 0.000000
# 2 -0.018072 0.086141 -0.001674 0.000000 -0.008305 0.000000
# 3 -0.008850 -0.001674 0.030457 0.000000 0.013089 0.000000
# 4 0.000000 0.000000 0.000000 0.132120 0.000000 -0.174298
# 5 -0.000574 -0.008305 0.013089 0.000000 0.073906 0.000000
# 6 0.000000 0.000000 0.000000 -0.174298 0.000000 0.480725
#
#
# Mechanical properties :
#
#
# Convention : Reuss Voigt Hill
#
# Bulk Modulus (GPa) = 13.71687 42.86065 28.28876
# Shear Modulus (GPa) = 5.56584 15.15078 10.35831
#
# Velocity S-wave (km/s) = 1.80573 2.97924 2.46339
# Velocity P-wave (km/s) = 3.51901 6.07815 4.96625
#
# Compressibility (1/GPa) = 0.07290294
#
# Stress axis : x y z
#
# Youngs Moduli (GPa) = 74.10241 11.60884 32.83325
#
# Poissons Ratio (x) = 0.20979 0.29056
# Poissons Ratio (y) = 1.33915 0.05495
# Poissons Ratio (z) = 0.65579 0.01943
#
# Static dielectric constant tensor:
#      x y z
#    x 1.562650 0.000000 0.000370 
#    y 0.000000 1.575620 0.000000 
#    z 0.000370 0.000000 1.581740 
# 
# From -- ./inp_files/52758.got.cif
#   From: 2010.05.17/outbox.cif.g08.bks.cpg/sg10_27_cif.got.tgz:52758.got - 2010.06.03 11:33:40.
