data_PCOD9145215
_publ_section_title
;
Structure prediction by ZEFSAII (Michael W. Deem and Ramdas Pophale) SiO2 
 PCOD9145215
Probable space group: P 2/M
;
_chemical_formula_sum "Si O2"
_cell_formula_units_Z 32
_cell_length_a 20.611733
_cell_length_b 8.931791
_cell_length_c 25.672163
_cell_angle_alpha 90.000000
_cell_angle_beta 157.135102
_cell_angle_gamma 90.000000
_cell_volume 1836.424476
_symmetry_space_group_name_H-M "P 2/M"
_symmetry_group_IT_number 10
_symmetry_cell_setting 'monoclinic'
loop_
_space_group_symop_operation_xyz
x,y,z
-x,y,-z
-x,-y,-z
x,-y,z
loop_
_atom_site_type_symbol
_atom_site_label
_atom_site_fract_x
_atom_site_fract_y
_atom_site_fract_z
Si Si1 0.840698 0.320228 0.347597
Si Si2 0.464616 0.677705 0.598748
Si Si3 0.163193 0.179959 0.874767
Si Si4 0.863698 0.322266 0.715973
Si Si5 0.339826 0.820205 0.609687
Si Si6 0.333857 0.827297 0.340743
Si Si7 0.028801 0.679881 0.669916
Si Si8 0.463139 0.179710 0.816095
O O1 0.829654 0.500000 0.343948
O O2 0.877632 0.283954 0.314853
O O3 0.673817 0.249861 0.247120
O O4 0.000000 0.270796 0.500000
O O5 0.484594 0.500000 0.619676
O O6 0.290202 0.702897 0.438295
O O7 0.446927 0.758395 0.640825
O O8 0.610412 0.744789 0.670582
O O9 0.120527 0.250729 0.787352
O O10 0.025164 0.241062 0.812682
O O11 0.151995 0.000000 0.863654
O O12 0.349131 0.223006 0.030049
O O13 0.889916 0.500000 0.738693
O O14 0.804684 0.256611 0.727586
O O15 0.417950 0.779202 0.723295
O O16 0.156931 0.747116 0.470417
O O17 0.326155 0.000000 0.596128
O O18 0.500000 0.825843 0.500000
O O19 0.289147 0.000000 0.298268
O O20 0.017836 0.500000 0.667034
O O21 0.451582 0.000000 0.811290
#
# Coordination Sequence:
#
# PCOD9145215 Si02
#       8
#     4   4   4   4   4   4   4   4
#     4  10  21  38  60  84 112 146 184 231 283 336
#     4  10  19  31  51  81 115 145 184 233 278 328
#     4  11  23  39  57  81 115 151 189 231 279 334
#     4  10  19  32  52  79 113 149 186 228 278 331
#     4  11  21  35  57  83 111 146 188 232 280 331
#     4   9  17  29  48  77 112 148 187 227 276 329
#     4  11  22  37  58  85 112 143 187 232 280 334
#     4  10  24  41  58  83 113 148 189 232 280 337
#
# _framework density 17.425166000000001
#
# number of rings (size 3 to 8) (size 9 to 14) (size 15 to 20)
#    0.000    1.750    2.500    2.250    0.000    5.750 
#    0.000    2.500    0.000    0.750    0.000    5.250 
#    0.000    0.000    0.000    0.000    0.000    0.000 
#
# Total GULP energy -178711.077338 kJ/mol
# GULP energy per Si atom -5584.721167 kJ/mol
# Density = 1.738551 g / cm^3
# Si number density = 17.425166 Si / 1000 Ang^3
#
#
#
# Elastic Constant Matrix: (Units=GPa)
#
#
# Indices 1 2 3 4 5 6 
#
# 1 189.2578 72.8395 83.3216 0.0000 14.9172 0.0000
# 2 72.8395 70.0224 50.9092 0.0000 4.4746 0.0000
# 3 83.3216 50.9092 106.3130 0.0000 1.6901 0.0000
# 4 0.0000 0.0000 0.0000 29.2943 0.0000 1.2364
# 5 14.9172 4.4746 1.6901 0.0000 21.8892 0.0000
# 6 0.0000 0.0000 0.0000 1.2364 0.0000 39.5153
#
#
#
# Elastic Compliance Matrix: (Units=1/GPa)
#
#
# Indices 1 2 3 4 5 6 
#
# 1 0.010568 -0.007196 -0.004751 0.000000 -0.005364 0.000000
# 2 -0.007196 0.027107 -0.007340 0.000000 -0.000071 0.000000
# 3 -0.004751 -0.007340 0.016590 0.000000 0.003457 0.000000
# 4 0.000000 0.000000 0.000000 0.034181 0.000000 -0.001070
# 5 -0.005364 -0.000071 0.003457 0.000000 0.049088 0.000000
# 6 0.000000 0.000000 0.000000 -0.001070 0.000000 0.025340
#
#
# Mechanical properties :
#
#
# Convention : Reuss Voigt Hill
#
# Bulk Modulus (GPa) = 63.73119 86.63710 75.18415
# Shear Modulus (GPa) = 24.19212 28.70796 26.45004
#
# Velocity S-wave (km/s) = 3.73009 4.06334 3.90028
# Velocity P-wave (km/s) = 7.43001 8.47596 7.97016
#
# Compressibility (1/GPa) = 0.01569090
#
# Stress axis : x y z
#
# Youngs Moduli (GPa) = 94.62677 36.89028 60.27776
#
# Poissons Ratio (x) = 0.26545 0.28640
# Poissons Ratio (y) = 0.68091 0.44244
# Poissons Ratio (z) = 0.44961 0.27077
#
# Static dielectric constant tensor:
#      x y z
#    x 1.579820 0.000000 -0.005190 
#    y 0.000000 1.581540 0.000000 
#    z -0.005190 0.000000 1.565050 
# 
# From -- ./inp_files/93714.got.cif
#   From: 2010.05.17/outbox.cif.g08.bks.cpg/sg10_47_cif.got.tgz:93714.got - 2010.06.03 11:33:40.
