data_PCOD9145895
_publ_section_title
;
Structure prediction by ZEFSAII (Michael W. Deem and Ramdas Pophale) SiO2 
 PCOD9145895
Probable space group: P 2/M
;
_chemical_formula_sum "Si O2"
_cell_formula_units_Z 24
_cell_length_a 21.384235
_cell_length_b 10.952172
_cell_length_c 5.428897
_cell_angle_alpha 90.000000
_cell_angle_beta 115.483626
_cell_angle_gamma 90.000000
_cell_volume 1147.765065
_symmetry_space_group_name_H-M "P 2/M"
_symmetry_group_IT_number 10
_symmetry_cell_setting 'monoclinic'
loop_
_space_group_symop_operation_xyz
x,y,z
-x,y,-z
-x,-y,-z
x,-y,z
loop_
_atom_site_type_symbol
_atom_site_label
_atom_site_fract_x
_atom_site_fract_y
_atom_site_fract_z
Si Si1 0.500000 0.731498 0.500000
Si Si2 0.045484 0.728703 0.327340
Si Si3 0.251226 0.642437 0.114639
Si Si4 0.610477 0.634170 0.359194
Si Si5 0.422807 0.135995 0.992577
Si Si6 0.044813 0.000000 0.326120
Si Si7 0.806702 0.359259 0.482693
O O1 0.535037 0.648423 0.353661
O O2 0.559435 0.820461 0.702777
O O3 0.111840 0.642978 0.431014
O O4 0.000000 0.713066 0.500000
O O5 0.078077 0.866269 0.383836
O O6 0.000000 0.715004 0.000000
O O7 0.229067 0.500000 0.054142
O O8 0.331004 0.641692 0.331148
O O9 0.210433 0.697097 0.279822
O O10 0.232485 0.697248 0.818654
O O11 0.616948 0.500000 0.250581
O O12 0.617533 0.752375 0.199863
O O13 0.393147 0.000000 0.926016
O O14 0.500000 0.131357 0.000000
O O15 0.000000 0.000000 0.500000
O O16 0.000000 0.000000 0.000000
O O17 0.782292 0.500000 0.464556
#
# Coordination Sequence:
#
# PCOD9145895 Si02
#       7
#     2   4   4   4   4   2   4
#     4  10  20  32  56  86 110 138 184 244 292 338
#     4  10  19  32  54  80 106 137 174 223 268 314
#     4   9  20  36  55  75 106 151 186 216 270 342
#     4  10  21  35  56  82 109 144 189 241 289 336
#     4   9  19  35  54  78 110 145 181 225 290 354
#     4   8  16  30  48  74 102 134 172 205 261 321
#     4  10  20  35  54  78 109 144 181 217 267 334
#
# _framework density 20.910202999999999
#
# number of rings (size 3 to 8) (size 9 to 14) (size 15 to 20)
#    0.000    2.500    0.000    1.500    2.333    5.000 
#    0.000    0.000    3.667    0.000    0.000    0.000 
#    0.000    0.000    0.000    0.000    0.000    0.000 
#
# Total GULP energy -133656.860237 kJ/mol
# GULP energy per Si atom -5569.035843 kJ/mol
# Density = 2.086261 g / cm^3
# Si number density = 20.910203 Si / 1000 Ang^3
#
#
#
# Elastic Constant Matrix: (Units=GPa)
#
#
# Indices 1 2 3 4 5 6 
#
# 1 69.2046 13.5463 12.2949 0.0000 -10.3658 0.0000
# 2 13.5463 109.2673 32.8638 0.0000 -0.2660 0.0000
# 3 12.2949 32.8638 104.1458 0.0000 -12.4095 0.0000
# 4 0.0000 0.0000 0.0000 15.2528 0.0000 -3.5690
# 5 -10.3658 -0.2660 -12.4095 0.0000 27.1480 0.0000
# 6 0.0000 0.0000 0.0000 -3.5690 0.0000 -1.7068
#
#
#
# Elastic Compliance Matrix: (Units=1/GPa)
#
#
# Indices 1 2 3 4 5 6 
#
# 1 0.015760 -0.001751 -0.000627 0.000000 0.005714 0.000000
# 2 -0.001751 0.010359 -0.003310 0.000000 -0.002080 0.000000
# 3 -0.000627 -0.003310 0.011304 0.000000 0.004895 0.000000
# 4 0.000000 0.000000 0.000000 0.044023 0.000000 -0.092053
# 5 0.005714 -0.002080 0.004895 0.000000 0.041234 0.000000
# 6 0.000000 0.000000 0.000000 -0.092053 0.000000 -0.393407
#
#
# Mechanical properties :
#
#
# Convention : Reuss Voigt Hill
#
# Bulk Modulus (GPa) = 38.39331 44.44749 41.42040
# Shear Modulus (GPa) = -19.94671 23.06630 1.55979
#
# Velocity S-wave (km/s) = -3.09191 3.32492 0.86462
# Velocity P-wave (km/s) = 2.37788 6.00355 4.56601
#
# Compressibility (1/GPa) = 0.02604621
#
# Stress axis : x y z
#
# Youngs Moduli (GPa) = 63.45195 96.52982 88.46615
#
# Poissons Ratio (x) = 0.16905 0.05547
# Poissons Ratio (y) = 0.11112 0.29283
# Poissons Ratio (z) = 0.03979 0.31953
#
# Static dielectric constant tensor:
#      x y z
#    x 1.756240 0.000000 -0.050770 
#    y 0.000000 1.796210 0.000000 
#    z -0.050770 0.000000 1.812740 
# 
# From -- ./inp_files/12324.got.cif
#   From: 2010.05.17/outbox.cif.g08.bks.cpg/sg10_7_cif.got.tgz:12324.got - 2010.06.03 11:33:40.
