data_PCOD9145313
_publ_section_title
;
Structure prediction by ZEFSAII (Michael W. Deem and Ramdas Pophale) SiO2 
 PCOD9145313
Probable space group: P 2/M
;
_chemical_formula_sum "Si O2"
_cell_formula_units_Z 28
_cell_length_a 7.255707
_cell_length_b 13.577130
_cell_length_c 12.879599
_cell_angle_alpha 90.000000
_cell_angle_beta 109.822010
_cell_angle_gamma 90.000000
_cell_volume 1193.615767
_symmetry_space_group_name_H-M "P 2/M"
_symmetry_group_IT_number 10
_symmetry_cell_setting 'monoclinic'
loop_
_space_group_symop_operation_xyz
x,y,z
-x,y,-z
-x,-y,-z
x,-y,z
loop_
_atom_site_type_symbol
_atom_site_label
_atom_site_fract_x
_atom_site_fract_y
_atom_site_fract_z
Si Si1 0.865100 0.892786 0.329455
Si Si2 0.756501 0.886663 0.753727
Si Si3 0.791098 0.739425 0.955571
Si Si4 0.543268 0.387450 0.203555
Si Si5 0.627132 0.296888 0.626021
Si Si6 0.943566 0.679384 0.378169
Si Si7 0.294030 0.895061 0.905683
O O1 0.872088 0.791303 0.391159
O O2 0.050463 0.890561 0.284480
O O3 0.861586 0.000000 0.381374
O O4 0.687171 0.888228 0.213867
O O5 0.792464 0.824972 0.866445
O O6 0.609612 0.816385 0.661441
O O7 0.699293 0.000000 0.761006
O O8 0.594079 0.678031 0.898002
O O9 0.792332 0.797059 0.064061
O O10 0.000000 0.683382 0.000000
O O11 0.530730 0.500000 0.168456
O O12 0.442748 0.367496 0.295994
O O13 0.769823 0.362305 0.273271
O O14 0.500000 0.312512 0.500000
O O15 0.854568 0.315765 0.645842
O O16 0.000000 0.631220 0.500000
O O17 0.190277 0.000000 0.909788
O O18 0.500000 0.900857 0.000000
#
# Coordination Sequence:
#
# PCOD9145313 Si02
#       7
#     4   4   4   4   4   4   4
#     4   9  18  33  55  88 126 163 198 236 286 353
#     4   9  18  32  56  90 127 162 198 238 289 359
#     4  11  21  37  63  88 119 162 202 256 308 360
#     4  11  26  45  64  90 120 154 208 266 318 375
#     4  10  21  41  64  93 125 160 202 252 308 364
#     4  11  22  41  67  91 126 164 200 252 307 369
#     4  10  19  31  53  86 123 162 200 239 289 355
#
# _framework density 23.458134999999999
#
# number of rings (size 3 to 8) (size 9 to 14) (size 15 to 20)
#    0.000    1.857    2.857    1.286    0.000    2.571 
#    0.000    2.857    0.000    1.286    0.000    0.000 
#    0.000    0.000    0.000    0.000    0.000    0.000 
#
# Total GULP energy -156316.985228 kJ/mol
# GULP energy per Si atom -5582.749472 kJ/mol
# Density = 2.340474 g / cm^3
# Si number density = 23.458135 Si / 1000 Ang^3
#
#
#
# Elastic Constant Matrix: (Units=GPa)
#
#
# Indices 1 2 3 4 5 6 
#
# 1 105.2125 26.9339 24.5793 0.0000 32.6840 0.0000
# 2 26.9339 104.6756 23.5135 0.0000 19.3733 0.0000
# 3 24.5793 23.5135 102.4348 0.0000 25.3936 0.0000
# 4 0.0000 0.0000 0.0000 9.1672 0.0000 13.0578
# 5 32.6840 19.3733 25.3936 0.0000 35.2225 0.0000
# 6 0.0000 0.0000 0.0000 13.0578 0.0000 51.4045
#
#
#
# Elastic Compliance Matrix: (Units=1/GPa)
#
#
# Indices 1 2 3 4 5 6 
#
# 1 0.013508 -0.001285 -0.000017 0.000000 -0.011815 0.000000
# 2 -0.001285 0.010882 -0.001219 0.000000 -0.003914 0.000000
# 3 -0.000017 -0.001219 0.012025 0.000000 -0.007983 0.000000
# 4 0.000000 0.000000 0.000000 0.170933 0.000000 -0.043421
# 5 -0.011815 -0.003914 -0.007983 0.000000 0.047263 0.000000
# 6 0.000000 0.000000 0.000000 -0.043421 0.000000 0.030483
#
#
# Mechanical properties :
#
#
# Convention : Reuss Voigt Hill
#
# Bulk Modulus (GPa) = 31.87543 51.37514 41.62529
# Shear Modulus (GPa) = 16.63364 34.97858 25.80611
#
# Velocity S-wave (km/s) = 2.66574 3.86567 3.32036
# Velocity P-wave (km/s) = 4.80548 6.47093 5.69936
#
# Compressibility (1/GPa) = 0.03137212
#
# Stress axis : x y z
#
# Youngs Moduli (GPa) = 74.03064 91.89237 83.15787
#
# Poissons Ratio (x) = 0.11809 0.00144
# Poissons Ratio (y) = 0.09514 0.10140
# Poissons Ratio (z) = 0.00128 0.11205
#
# Static dielectric constant tensor:
#      x y z
#    x 1.984280 0.000000 0.020410 
#    y 0.000000 1.896890 0.000000 
#    z 0.020410 0.000000 1.910050 
# 
# From -- ./inp_files/61287.got.cif
#   From: 2010.05.17/outbox.cif.g08.bks.cpg/sg10_31_cif.got.tgz:61287.got - 2010.06.03 11:33:40.
