data_PCOD9145067
_publ_section_title
;
Structure prediction by ZEFSAII (Michael W. Deem and Ramdas Pophale) SiO2 
 PCOD9145067
Probable space group: P 2/M
;
_chemical_formula_sum "Si O2"
_cell_formula_units_Z 28
_cell_length_a 11.497753
_cell_length_b 7.590383
_cell_length_c 20.663980
_cell_angle_alpha 90.000000
_cell_angle_beta 130.713013
_cell_angle_gamma 90.000000
_cell_volume 1366.947842
_symmetry_space_group_name_H-M "P 2/M"
_symmetry_group_IT_number 10
_symmetry_cell_setting 'monoclinic'
loop_
_space_group_symop_operation_xyz
x,y,z
-x,y,-z
-x,-y,-z
x,-y,z
loop_
_atom_site_type_symbol
_atom_site_label
_atom_site_fract_x
_atom_site_fract_y
_atom_site_fract_z
Si Si1 0.128176 0.700915 0.633724
Si Si2 0.203035 0.200057 0.521147
Si Si3 0.056181 0.215639 0.948542
Si Si4 0.478994 0.784460 0.417824
Si Si5 0.845992 0.788034 0.751914
Si Si6 0.866573 0.290589 0.222244
Si Si7 0.658111 0.200511 0.029023
O O1 0.182681 0.500000 0.648786
O O2 0.187424 0.800950 0.592797
O O3 0.168799 0.773144 0.718638
O O4 0.943643 0.700935 0.560060
O O5 0.367113 0.273133 0.562036
O O6 0.191213 0.000000 0.492006
O O7 0.226672 0.273800 0.985189
O O8 0.932222 0.272653 0.848856
O O9 0.060978 0.000000 0.949433
O O10 0.000000 0.268283 0.000000
O O11 0.500000 0.732475 0.500000
O O12 0.323876 0.723201 0.326584
O O13 0.473597 0.000000 0.414474
O O14 0.957381 0.740079 0.733085
O O15 0.839838 0.000000 0.754294
O O16 0.836863 0.500000 0.208828
O O17 0.768234 0.199367 0.131310
O O18 0.618841 0.000000 0.994628
O O19 0.500000 0.282671 0.000000
#
# Coordination Sequence:
#
# PCOD9145067 Si02
#       7
#     4   4   4   4   4   4   4
#     4  10  20  34  49  67  97 135 169 202 247 296
#     4  10  19  31  50  74  98 126 166 209 248 294
#     4   8  14  27  48  72  97 126 158 195 246 302
#     4   9  17  29  46  72 101 125 156 202 252 293
#     4   9  17  31  51  72  97 128 162 203 248 293
#     4  10  20  33  51  73  97 131 170 202 243 296
#     4   9  18  33  52  77 102 126 164 211 255 301
#
# _framework density 20.483592999999999
#
# number of rings (size 3 to 8) (size 9 to 14) (size 15 to 20)
#    0.000    2.714    0.000    3.857    0.000    3.714 
#    2.571    1.429    0.000   10.714    0.000    0.000 
#    0.000    0.000    0.000    0.000    0.000    0.000 
#
# Total GULP energy -156063.072743 kJ/mol
# GULP energy per Si atom -5573.681169 kJ/mol
# Density = 2.043697 g / cm^3
# Si number density = 20.483593 Si / 1000 Ang^3
#
#
#
# Elastic Constant Matrix: (Units=GPa)
#
#
# Indices 1 2 3 4 5 6 
#
# 1 150.5266 -0.6446 61.4844 0.0000 10.9087 0.0000
# 2 -0.6446 47.5748 -2.4185 0.0000 0.8072 0.0000
# 3 61.4844 -2.4185 60.0410 0.0000 -7.6264 0.0000
# 4 0.0000 0.0000 0.0000 19.1442 0.0000 -24.4489
# 5 10.9087 0.8072 -7.6264 0.0000 37.2713 0.0000
# 6 0.0000 0.0000 0.0000 -24.4489 0.0000 90.4342
#
#
#
# Elastic Compliance Matrix: (Units=1/GPa)
#
#
# Indices 1 2 3 4 5 6 
#
# 1 0.012844 -0.000426 -0.014010 0.000000 -0.006617 0.000000
# 2 -0.000426 0.021080 0.001276 0.000000 -0.000071 0.000000
# 3 -0.014010 0.001276 0.032413 0.000000 0.010705 0.000000
# 4 0.000000 0.000000 0.000000 0.079780 0.000000 0.021569
# 5 -0.006617 -0.000071 0.010705 0.000000 0.030959 0.000000
# 6 0.000000 0.000000 0.000000 0.021569 0.000000 0.016889
#
#
# Mechanical properties :
#
#
# Convention : Reuss Voigt Hill
#
# Bulk Modulus (GPa) = 24.98909 41.66500 33.32705
# Shear Modulus (GPa) = 21.40205 42.68468 32.04337
#
# Velocity S-wave (km/s) = 3.23590 4.56987 3.95947
# Velocity P-wave (km/s) = 5.11737 6.94477 6.09989
#
# Compressibility (1/GPa) = 0.04001747
#
# Stress axis : x y z
#
# Youngs Moduli (GPa) = 77.86023 47.43872 30.85169
#
# Poissons Ratio (x) = 0.02020 0.43223
# Poissons Ratio (y) = 0.03316 -0.03938
# Poissons Ratio (z) = 1.09081 -0.06054
#
# Static dielectric constant tensor:
#      x y z
#    x 1.746730 0.000000 0.009680 
#    y 0.000000 1.745130 0.000000 
#    z 0.009680 0.000000 1.700580 
# 
# From -- ./inp_files/83412.got.cif
#   From: 2010.05.17/outbox.cif.g08.bks.cpg/sg10_42_cif.got.tgz:83412.got - 2010.06.03 11:33:40.
