data_PCOD9145387
_publ_section_title
;
Structure prediction by ZEFSAII (Michael W. Deem and Ramdas Pophale) SiO2 
 PCOD9145387
Probable space group: P 2/M
;
_chemical_formula_sum "Si O2"
_cell_formula_units_Z 32
_cell_length_a 27.069481
_cell_length_b 7.539102
_cell_length_c 19.970943
_cell_angle_alpha 90.000000
_cell_angle_beta 158.790575
_cell_angle_gamma 90.000000
_cell_volume 1474.484426
_symmetry_space_group_name_H-M "P 2/M"
_symmetry_group_IT_number 10
_symmetry_cell_setting 'monoclinic'
loop_
_space_group_symop_operation_xyz
x,y,z
-x,y,-z
-x,-y,-z
x,-y,z
loop_
_atom_site_type_symbol
_atom_site_label
_atom_site_fract_x
_atom_site_fract_y
_atom_site_fract_z
Si Si1 0.699168 0.703189 0.720642
Si Si2 0.069573 0.784156 0.486427
Si Si3 0.288943 0.209215 0.412205
Si Si4 0.542830 0.203220 0.805103
Si Si5 0.213104 0.783045 0.799114
Si Si6 0.983496 0.785931 0.872554
Si Si7 0.005401 0.786017 0.261860
Si Si8 0.686255 0.292892 0.851181
O O1 0.656411 0.500000 0.667508
O O2 0.658071 0.775631 0.596640
O O3 0.655060 0.779994 0.736972
O O4 0.864569 0.712534 0.928630
O O5 0.178986 0.726792 0.680277
O O6 0.081843 0.724924 0.425346
O O7 0.919358 0.732953 0.324069
O O8 0.072840 0.000000 0.491078
O O9 0.397680 0.286007 0.602017
O O10 0.135082 0.277310 0.227736
O O11 0.279331 0.000000 0.414091
O O12 0.621216 0.200725 0.832888
O O13 0.518089 0.000000 0.795225
O O14 0.647895 0.282547 0.991369
O O15 0.216683 0.000000 0.805138
O O16 0.935363 0.743242 0.736075
O O17 0.000301 0.000000 0.900979
O O18 0.997129 0.000000 0.254280
O O19 0.849876 0.719031 0.065926
O O20 0.646862 0.500000 0.803854
#
# Coordination Sequence:
#
# PCOD9145387 Si02
#       8
#     4   4   4   4   4   4   4   4
#     4  10  21  35  51  70  91 117 151 194 238 278
#     4   8  12  20  41  71  94 114 148 188 223 261
#     4  10  21  34  48  68  92 122 157 193 230 267
#     4  10  19  32  49  66  92 128 160 184 218 277
#     4   8  13  22  40  68  95 117 148 188 220 260
#     4   9  18  32  50  71  94 118 151 196 234 264
#     4   9  15  27  49  71  92 121 154 186 225 275
#     4  10  20  32  46  68  96 120 147 189 237 275
#
# _framework density 21.702501999999999
#
# number of rings (size 3 to 8) (size 9 to 14) (size 15 to 20)
#    0.000    2.750    1.250    1.875    0.000    4.500 
#    0.000    2.500    0.000    2.250    0.000    5.250 
#    0.000    0.000    0.000    8.500    0.000    9.000 
#
# Total GULP energy -178494.244336 kJ/mol
# GULP energy per Si atom -5577.945135 kJ/mol
# Density = 2.165311 g / cm^3
# Si number density = 21.702502 Si / 1000 Ang^3
#
#
#
# Elastic Constant Matrix: (Units=GPa)
#
#
# Indices 1 2 3 4 5 6 
#
# 1 59.7806 0.4760 20.1743 0.0000 -18.3837 0.0000
# 2 0.4760 52.7147 0.6600 0.0000 -1.3181 0.0000
# 3 20.1743 0.6600 111.7137 0.0000 -28.0794 0.0000
# 4 0.0000 0.0000 0.0000 17.3173 0.0000 18.6143
# 5 -18.3837 -1.3181 -28.0794 0.0000 39.5067 0.0000
# 6 0.0000 0.0000 0.0000 18.6143 0.0000 -19.6925
#
#
#
# Elastic Compliance Matrix: (Units=1/GPa)
#
#
# Indices 1 2 3 4 5 6 
#
# 1 0.019734 0.000043 -0.001529 0.000000 0.008098 0.000000
# 2 0.000043 0.018986 0.000054 0.000000 0.000692 0.000000
# 3 -0.001529 0.000054 0.011017 0.000000 0.007121 0.000000
# 4 0.000000 0.000000 0.000000 0.028643 0.000000 0.027075
# 5 0.008098 0.000692 0.007121 0.000000 0.034164 0.000000
# 6 0.000000 0.000000 0.000000 0.027075 0.000000 -0.025188
#
#
# Mechanical properties :
#
#
# Convention : Reuss Voigt Hill
#
# Bulk Modulus (GPa) = 21.33362 29.64772 25.49067
# Shear Modulus (GPa) = 47.23967 20.95288 34.09627
#
# Velocity S-wave (km/s) = 4.67056 3.11055 3.96798
# Velocity P-wave (km/s) = 6.23995 5.15668 5.72400
#
# Compressibility (1/GPa) = 0.04687436
#
# Stress axis : x y z
#
# Youngs Moduli (GPa) = 50.67525 52.66958 90.76875
#
# Poissons Ratio (x) = -0.00229 0.13875
# Poissons Ratio (y) = -0.00220 -0.00489
# Poissons Ratio (z) = 0.07746 -0.00284
#
# Static dielectric constant tensor:
#      x y z
#    x 1.787530 0.000000 -0.023530 
#    y 0.000000 1.837070 0.000000 
#    z -0.023530 0.000000 1.826190 
# 
# From -- ./inp_files/52789.got.cif
#   From: 2010.05.17/outbox.cif.g08.bks.cpg/sg10_27_cif.got.tgz:52789.got - 2010.06.03 11:33:40.
