data_PCOD9145990
_publ_section_title
;
Structure prediction by ZEFSAII (Michael W. Deem and Ramdas Pophale) SiO2 
 PCOD9145990
Probable space group: P 2/M
;
_chemical_formula_sum "Si O2"
_cell_formula_units_Z 28
_cell_length_a 15.569817
_cell_length_b 7.497834
_cell_length_c 22.506301
_cell_angle_alpha 90.000000
_cell_angle_beta 28.500740
_cell_angle_gamma 90.000000
_cell_volume 1253.708828
_symmetry_space_group_name_H-M "P 2/M"
_symmetry_group_IT_number 10
_symmetry_cell_setting 'monoclinic'
loop_
_space_group_symop_operation_xyz
x,y,z
-x,y,-z
-x,-y,-z
x,-y,z
loop_
_atom_site_type_symbol
_atom_site_label
_atom_site_fract_x
_atom_site_fract_y
_atom_site_fract_z
Si Si1 0.200216 0.786749 0.858666
Si Si2 0.105355 0.700826 0.489568
Si Si3 0.538279 0.714646 0.408299
Si Si4 0.217325 0.283244 0.171705
Si Si5 0.501499 0.794038 0.228964
Si Si6 0.836868 0.718050 0.416505
Si Si7 0.486292 0.284342 0.104250
O O1 0.287379 0.755288 0.739618
O O2 0.346183 0.723195 0.819012
O O3 0.191170 0.000000 0.869812
O O4 0.000000 0.720413 0.000000
O O5 0.027744 0.500000 0.543311
O O6 0.314882 0.691333 0.347366
O O7 0.108243 0.783989 0.552043
O O8 0.000000 0.789083 0.500000
O O9 0.500000 0.775161 0.500000
O O10 0.537256 0.500000 0.411776
O O11 0.358865 0.779655 0.483350
O O12 0.217270 0.500000 0.173856
O O13 0.297744 0.228414 0.187448
O O14 0.017577 0.231544 0.272018
O O15 0.362003 0.230637 0.034969
O O16 0.540332 0.786590 0.135485
O O17 0.468302 0.000000 0.265703
O O18 0.824327 0.500000 0.425173
O O19 0.482872 0.500000 0.110605
#
# Coordination Sequence:
#
# PCOD9145990 Si02
#       7
#     4   4   4   4   4   4   4
#     4  10  23  43  62  80 110 156 203 244 291 353
#     4  10  19  32  55  82 107 143 183 215 262 331
#     4  10  21  37  59  88 117 145 185 245 309 357
#     4   8  15  29  50  77 107 144 185 223 263 326
#     4  11  22  35  53  78 110 143 181 231 282 328
#     4   9  16  29  50  77 110 138 170 222 277 326
#     4   9  17  31  53  78 107 144 187 225 267 330
#
# _framework density 22.333734
#
# number of rings (size 3 to 8) (size 9 to 14) (size 15 to 20)
#    0.000    2.429    1.429    2.143    0.000    4.857 
#    0.000    2.857    0.000    1.714    0.000    0.000 
#    0.000    0.000    0.000    0.000    0.000    0.000 
#
# Total GULP energy -155986.615395 kJ/mol
# GULP energy per Si atom -5570.950550 kJ/mol
# Density = 2.228290 g / cm^3
# Si number density = 22.333734 Si / 1000 Ang^3
#
#
#
# Elastic Constant Matrix: (Units=GPa)
#
#
# Indices 1 2 3 4 5 6 
#
# 1 96.4262 0.4746 71.0392 0.0000 -4.4381 0.0000
# 2 0.4746 65.7042 0.1685 0.0000 -4.9969 0.0000
# 3 71.0392 0.1685 151.8100 0.0000 -10.6098 0.0000
# 4 0.0000 0.0000 0.0000 31.2485 0.0000 22.7910
# 5 -4.4381 -4.9969 -10.6098 0.0000 35.7045 0.0000
# 6 0.0000 0.0000 0.0000 22.7910 0.0000 11.4954
#
#
#
# Elastic Compliance Matrix: (Units=1/GPa)
#
#
# Indices 1 2 3 4 5 6 
#
# 1 0.015830 -0.000115 -0.007425 0.000000 -0.000255 0.000000
# 2 -0.000115 0.015387 0.000190 0.000000 0.002196 0.000000
# 3 -0.007425 0.000190 0.010211 0.000000 0.002138 0.000000
# 4 0.000000 0.000000 0.000000 -0.071750 0.000000 0.142253
# 5 -0.000255 0.002196 0.002138 0.000000 0.028919 0.000000
# 6 0.000000 0.000000 0.000000 0.142253 0.000000 -0.195042
#
#
# Mechanical properties :
#
#
# Convention : Reuss Voigt Hill
#
# Bulk Modulus (GPa) = 37.41377 50.81165 44.11271
# Shear Modulus (GPa) = -28.92915 31.84022 1.45554
#
# Velocity S-wave (km/s) = -3.60295 3.77988 0.80817
# Velocity P-wave (km/s) = 0.72098 6.46919 4.54591
#
# Compressibility (1/GPa) = 0.02672813
#
# Stress axis : x y z
#
# Youngs Moduli (GPa) = 63.17226 64.98972 97.93379
#
# Poissons Ratio (x) = 0.00745 0.72718
# Poissons Ratio (y) = 0.00724 -0.01861
# Poissons Ratio (z) = 0.46906 -0.01235
#
# Static dielectric constant tensor:
#      x y z
#    x 1.830170 0.000000 0.043980 
#    y 0.000000 1.911210 0.000000 
#    z 0.043980 0.000000 2.010280 
# 
# From -- ./inp_files/70185.got.cif
#   From: 2010.05.17/outbox.cif.g08.bks.cpg/sg10_36_cif.got.tgz:70185.got - 2010.06.03 11:33:40.
