data_PCOD9145681
_publ_section_title
;
Structure prediction by ZEFSAII (Michael W. Deem and Ramdas Pophale) SiO2 
 PCOD9145681
Probable space group: P 2/M
;
_chemical_formula_sum "Si O2"
_cell_formula_units_Z 32
_cell_length_a 18.427797
_cell_length_b 13.121171
_cell_length_c 8.120041
_cell_angle_alpha 90.000000
_cell_angle_beta 54.075434
_cell_angle_gamma 90.000000
_cell_volume 1589.925333
_symmetry_space_group_name_H-M "P 2/M"
_symmetry_group_IT_number 10
_symmetry_cell_setting 'monoclinic'
loop_
_space_group_symop_operation_xyz
x,y,z
-x,y,-z
-x,-y,-z
x,-y,z
loop_
_atom_site_type_symbol
_atom_site_label
_atom_site_fract_x
_atom_site_fract_y
_atom_site_fract_z
Si Si1 0.970840 0.611793 0.850600
Si Si2 0.294120 0.775642 0.602009
Si Si3 0.613678 0.116900 0.213586
Si Si4 0.758966 0.386194 0.084633
Si Si5 0.782193 0.807105 0.836824
Si Si6 0.554842 0.120516 0.758104
Si Si7 0.029866 0.828795 0.281169
Si Si8 0.852976 0.881783 0.392698
O O1 0.006732 0.500000 0.751384
O O2 0.992912 0.708474 0.709013
O O3 0.863832 0.606748 0.986959
O O4 0.000000 0.630127 0.000000
O O5 0.341046 0.836769 0.686989
O O6 0.285409 0.664429 0.693981
O O7 0.360088 0.804955 0.364541
O O8 0.197333 0.820528 0.683516
O O9 0.518901 0.157721 0.277328
O O10 0.596608 0.000000 0.266962
O O11 0.691666 0.128872 0.974075
O O12 0.725517 0.500000 0.092797
O O13 0.755452 0.306357 0.936322
O O14 0.822497 0.824818 0.602441
O O15 0.862655 0.840548 0.855867
O O16 0.579508 0.000000 0.700029
O O17 0.500000 0.124062 0.000000
O O18 0.961177 0.878532 0.245010
O O19 0.000000 0.867324 0.500000
O O20 0.824376 0.000000 0.433579
#
# Coordination Sequence:
#
# PCOD9145681 Si02
#       8
#     4   4   4   4   4   4   4   4
#     4   9  16  29  50  72  96 129 173 225 272 309
#     4  11  21  34  54  79 109 138 173 216 266 321
#     4  10  19  32  52  77 105 138 178 221 264 311
#     4   9  19  36  56  76 101 136 177 224 272 313
#     4   9  19  34  53  74 102 142 185 223 262 311
#     4  10  20  34  54  80 109 141 176 216 263 313
#     4   9  19  32  46  70 102 139 180 217 259 311
#     4  11  21  33  50  76 112 148 179 214 260 317
#
# _framework density 20.126730999999999
#
# number of rings (size 3 to 8) (size 9 to 14) (size 15 to 20)
#    0.000    2.250    0.000    3.375    0.000    5.000 
#    0.000    2.500    0.000   14.250    0.000    0.000 
#    0.000    0.000    0.000    0.000    0.000    0.000 
#
# Total GULP energy -178263.080559 kJ/mol
# GULP energy per Si atom -5570.721267 kJ/mol
# Density = 2.008092 g / cm^3
# Si number density = 20.126731 Si / 1000 Ang^3
#
#
#
# Elastic Constant Matrix: (Units=GPa)
#
#
# Indices 1 2 3 4 5 6 
#
# 1 82.2563 1.7244 -6.0596 0.0000 -1.2429 0.0000
# 2 1.7244 88.3973 18.5121 0.0000 0.3822 0.0000
# 3 -6.0596 18.5121 54.0453 0.0000 1.2532 0.0000
# 4 0.0000 0.0000 0.0000 32.3408 0.0000 -10.1141
# 5 -1.2429 0.3822 1.2532 0.0000 28.8876 0.0000
# 6 0.0000 0.0000 0.0000 -10.1141 0.0000 22.9704
#
#
#
# Elastic Compliance Matrix: (Units=1/GPa)
#
#
# Indices 1 2 3 4 5 6 
#
# 1 0.012291 -0.000569 0.001562 0.000000 0.000469 0.000000
# 2 -0.000569 0.012213 -0.004247 0.000000 -0.000002 0.000000
# 3 0.001562 -0.004247 0.020150 0.000000 -0.000751 0.000000
# 4 0.000000 0.000000 0.000000 0.035858 0.000000 0.015789
# 5 0.000469 -0.000002 -0.000751 0.000000 0.034670 0.000000
# 6 0.000000 0.000000 0.000000 0.015789 0.000000 0.050486
#
#
# Mechanical properties :
#
#
# Convention : Reuss Voigt Hill
#
# Bulk Modulus (GPa) = 26.21452 28.11696 27.16574
# Shear Modulus (GPa) = 27.04276 30.87455 28.95865
#
# Velocity S-wave (km/s) = 3.66952 3.92089 3.79729
# Velocity P-wave (km/s) = 5.56838 5.87351 5.72298
#
# Compressibility (1/GPa) = 0.03814679
#
# Stress axis : x y z
#
# Youngs Moduli (GPa) = 81.35902 81.87932 49.62703
#
# Poissons Ratio (x) = 0.04658 -0.07752
# Poissons Ratio (y) = 0.04629 0.21077
# Poissons Ratio (z) = -0.12709 0.34775
#
# Static dielectric constant tensor:
#      x y z
#    x 1.746930 0.000000 0.007780 
#    y 0.000000 1.739600 0.000000 
#    z 0.007780 0.000000 1.823860 
# 
# From -- ./inp_files/29499.got.cif
#   From: 2010.05.17/outbox.cif.g08.bks.cpg/sg10_15_cif.got.tgz:29499.got - 2010.06.03 11:33:40.
