data_PCOD9145676
_publ_section_title
;
Structure prediction by ZEFSAII (Michael W. Deem and Ramdas Pophale) SiO2 
 PCOD9145676
Probable space group: P 2/M
;
_chemical_formula_sum "Si O2"
_cell_formula_units_Z 32
_cell_length_a 18.615135
_cell_length_b 8.945872
_cell_length_c 26.225903
_cell_angle_alpha 90.000000
_cell_angle_beta 156.946532
_cell_angle_gamma 90.000000
_cell_volume 1710.215650
_symmetry_space_group_name_H-M "P 2/M"
_symmetry_group_IT_number 10
_symmetry_cell_setting 'monoclinic'
loop_
_space_group_symop_operation_xyz
x,y,z
-x,y,-z
-x,-y,-z
x,-y,z
loop_
_atom_site_type_symbol
_atom_site_label
_atom_site_fract_x
_atom_site_fract_y
_atom_site_fract_z
Si Si1 0.153185 0.170530 0.891638
Si Si2 0.418932 0.822592 0.660574
Si Si3 0.686987 0.323394 0.911863
Si Si4 0.291613 0.173381 0.865591
Si Si5 0.967286 0.176617 0.917895
Si Si6 0.062426 0.670325 0.396410
Si Si7 0.577189 0.680375 0.659995
Si Si8 0.798397 0.329048 0.630808
O O1 0.279147 0.276181 0.007973
O O2 0.222636 0.174717 0.878939
O O3 0.942493 0.227008 0.754598
O O4 0.164452 0.000000 0.917373
O O5 0.206916 0.775065 0.519360
O O6 0.515389 0.744650 0.674652
O O7 0.441600 0.000000 0.671252
O O8 0.517452 0.759596 0.774807
O O9 0.669533 0.500000 0.894275
O O10 0.868262 0.262174 0.002013
O O11 0.143262 0.267907 0.737588
O O12 0.290509 0.000000 0.847569
O O13 0.500000 0.228890 0.000000
O O14 0.772951 0.248497 0.776087
O O15 0.970393 0.000000 0.908324
O O16 0.000000 0.192580 0.000000
O O17 0.074923 0.500000 0.422736
O O18 0.129050 0.669805 0.380565
O O19 0.587083 0.500000 0.669238
O O20 0.413522 0.718036 0.513366
O O21 0.806833 0.500000 0.655527
#
# Coordination Sequence:
#
# PCOD9145676 Si02
#       8
#     4   4   4   4   4   4   4   4
#     4  10  20  35  55  79 108 140 176 215 258 314
#     4  11  20  32  51  76 105 138 179 223 266 312
#     4  12  24  37  54  74 104 143 180 221 269 320
#     4   9  18  34  58  87 115 143 174 211 259 313
#     4  11  22  35  52  76 105 137 178 228 272 316
#     4   9  17  30  50  79 110 139 175 217 261 308
#     4  10  19  32  52  77 104 136 176 224 272 316
#     4   8  16  31  50  73 102 135 173 215 260 311
#
# _framework density 18.711091
#
# number of rings (size 3 to 8) (size 9 to 14) (size 15 to 20)
#    0.000    2.000    1.250    4.500    0.000    4.750 
#    0.000    0.625    0.000    4.500    0.000    5.250 
#    0.000    0.000    0.000    0.000    0.000    0.000 
#
# Total GULP energy -178661.689355 kJ/mol
# GULP energy per Si atom -5583.177792 kJ/mol
# Density = 1.866850 g / cm^3
# Si number density = 18.711091 Si / 1000 Ang^3
#
#
#
# Elastic Constant Matrix: (Units=GPa)
#
#
# Indices 1 2 3 4 5 6 
#
# 1 10.2404 9.1713 15.0958 0.0000 5.7074 0.0000
# 2 9.1713 97.7089 40.5479 0.0000 1.3450 0.0000
# 3 15.0958 40.5479 114.2368 0.0000 17.8045 0.0000
# 4 0.0000 0.0000 0.0000 36.9631 0.0000 0.2712
# 5 5.7074 1.3450 17.8045 0.0000 25.1344 0.0000
# 6 0.0000 0.0000 0.0000 0.2712 0.0000 12.5544
#
#
#
# Elastic Compliance Matrix: (Units=1/GPa)
#
#
# Indices 1 2 3 4 5 6 
#
# 1 0.133522 -0.007405 -0.011637 0.000000 -0.021680 0.000000
# 2 -0.007405 0.012575 -0.004094 0.000000 0.003909 0.000000
# 3 -0.011637 -0.004094 0.012701 0.000000 -0.006135 0.000000
# 4 0.000000 0.000000 0.000000 0.027058 0.000000 -0.000584
# 5 -0.021680 0.003909 -0.006135 0.000000 0.048846 0.000000
# 6 0.000000 0.000000 0.000000 -0.000584 0.000000 0.079666
#
#
# Mechanical properties :
#
#
# Convention : Reuss Voigt Hill
#
# Bulk Modulus (GPa) = 8.88690 39.09067 23.98879
# Shear Modulus (GPa) = 12.55815 25.42178 18.98996
#
# Velocity S-wave (km/s) = 2.59349 3.68998 3.18921
# Velocity P-wave (km/s) = 3.70514 6.25233 5.13906
#
# Compressibility (1/GPa) = 0.11252514
#
# Stress axis : x y z
#
# Youngs Moduli (GPa) = 7.48943 79.52463 78.73481
#
# Poissons Ratio (x) = 0.58891 0.91621
# Poissons Ratio (y) = 0.05546 0.32234
# Poissons Ratio (z) = 0.08715 0.32557
#
# Static dielectric constant tensor:
#      x y z
#    x 1.654360 0.000000 -0.010470 
#    y 0.000000 1.630860 0.000000 
#    z -0.010470 0.000000 1.655270 
# 
# From -- ./inp_files/93775.got.cif
#   From: 2010.05.17/outbox.cif.g08.bks.cpg/sg10_47_cif.got.tgz:93775.got - 2010.06.03 11:33:40.
