data_PCOD9145758
_publ_section_title
;
Structure prediction by ZEFSAII (Michael W. Deem and Ramdas Pophale) SiO2 
 PCOD9145758
Probable space group: P 2/M
;
_chemical_formula_sum "Si O2"
_cell_formula_units_Z 32
_cell_length_a 22.724732
_cell_length_b 8.503386
_cell_length_c 29.122336
_cell_angle_alpha 90.000000
_cell_angle_beta 163.299209
_cell_angle_gamma 90.000000
_cell_volume 1617.200835
_symmetry_space_group_name_H-M "P 2/M"
_symmetry_group_IT_number 10
_symmetry_cell_setting 'monoclinic'
loop_
_space_group_symop_operation_xyz
x,y,z
-x,y,-z
-x,-y,-z
x,-y,z
loop_
_atom_site_type_symbol
_atom_site_label
_atom_site_fract_x
_atom_site_fract_y
_atom_site_fract_z
Si Si1 0.035608 0.685913 0.748093
Si Si2 0.127992 0.685019 0.524293
Si Si3 0.519443 0.692333 0.756897
Si Si4 0.743569 0.183233 0.283890
Si Si5 0.364295 0.188010 0.441883
Si Si6 0.558413 0.687981 0.402104
Si Si7 0.903304 0.309402 0.105742
Si Si8 0.632866 0.183645 0.059738
O O1 0.061251 0.500000 0.767418
O O2 0.125807 0.747505 0.863591
O O3 0.149450 0.748717 0.789179
O O4 0.797033 0.719510 0.570247
O O5 0.090787 0.500000 0.488296
O O6 0.302789 0.740267 0.618803
O O7 0.223378 0.711342 0.646574
O O8 0.910069 0.772051 0.368892
O O9 0.513662 0.500000 0.752798
O O10 0.546254 0.741249 0.723638
O O11 0.716125 0.742986 0.933742
O O12 0.774413 0.000000 0.318961
O O13 0.516063 0.200401 0.095036
O O14 0.500000 0.239334 0.500000
O O15 0.471200 0.238007 0.569860
O O16 0.134420 0.257363 0.266313
O O17 0.346970 0.000000 0.428580
O O18 0.528656 0.500000 0.384420
O O19 0.902098 0.500000 0.104660
O O20 0.659874 0.000000 0.090494
O O21 0.500000 0.261910 0.000000
#
# Coordination Sequence:
#
# PCOD9145758 Si02
#       8
#     4   4   4   4   4   4   4   4
#     4   9  18  32  52  76 101 133 176 223 266 314
#     4  10  19  32  53  73  95 129 168 213 267 319
#     4   9  18  33  55  82 110 136 171 223 271 314
#     4  10  20  34  47  65  96 131 175 221 264 315
#     4  10  21  38  59  84 114 146 179 213 251 304
#     4   9  19  36  57  83 112 140 176 219 267 321
#     4   9  18  35  59  84 109 139 176 216 262 315
#     4  10  22  35  46  64  95 135 176 219 266 313
#
# _framework density 19.787275999999999
#
# number of rings (size 3 to 8) (size 9 to 14) (size 15 to 20)
#    0.000    2.500    0.000    3.375    1.750    5.250 
#    0.000    3.750    0.000    3.750    0.000    0.000 
#    0.000    0.000    0.000    0.000    0.000    0.000 
#
# Total GULP energy -178379.847198 kJ/mol
# GULP energy per Si atom -5574.370225 kJ/mol
# Density = 1.974224 g / cm^3
# Si number density = 19.787276 Si / 1000 Ang^3
#
#
#
# Elastic Constant Matrix: (Units=GPa)
#
#
# Indices 1 2 3 4 5 6 
#
# 1 115.2108 4.0556 24.3456 0.0000 8.6323 0.0000
# 2 4.0556 18.0483 -2.4924 0.0000 6.4296 0.0000
# 3 24.3456 -2.4924 48.1165 0.0000 -9.1947 0.0000
# 4 0.0000 0.0000 0.0000 14.0363 0.0000 5.4517
# 5 8.6323 6.4296 -9.1947 0.0000 34.1060 0.0000
# 6 0.0000 0.0000 0.0000 5.4517 0.0000 23.0471
#
#
#
# Elastic Compliance Matrix: (Units=1/GPa)
#
#
# Indices 1 2 3 4 5 6 
#
# 1 0.010315 -0.001761 -0.006058 0.000000 -0.003912 0.000000
# 2 -0.001761 0.059741 0.002023 0.000000 -0.010271 0.000000
# 3 -0.006058 0.002023 0.025486 0.000000 0.008023 0.000000
# 4 0.000000 0.000000 0.000000 0.078451 0.000000 -0.018558
# 5 -0.003912 -0.010271 0.008023 0.000000 0.034410 0.000000
# 6 0.000000 0.000000 0.000000 -0.018558 0.000000 0.047779
#
#
# Mechanical properties :
#
#
# Convention : Reuss Voigt Hill
#
# Bulk Modulus (GPa) = 11.91189 25.91037 18.91113
# Shear Modulus (GPa) = 16.90576 24.60233 20.75405
#
# Velocity S-wave (km/s) = 2.92614 3.52993 3.24212
# Velocity P-wave (km/s) = 4.17725 5.45314 4.85727
#
# Compressibility (1/GPa) = 0.08394974
#
# Stress axis : x y z
#
# Youngs Moduli (GPa) = 96.94682 16.73895 39.23751
#
# Poissons Ratio (x) = 0.02947 0.23769
# Poissons Ratio (y) = 0.17070 -0.07936
# Poissons Ratio (z) = 0.58729 -0.03386
#
# Static dielectric constant tensor:
#      x y z
#    x 1.745080 0.000000 -0.031830 
#    y 0.000000 1.681910 0.000000 
#    z -0.031830 0.000000 1.714490 
# 
# From -- ./inp_files/93707.got.cif
#   From: 2010.05.17/outbox.cif.g08.bks.cpg/sg10_47_cif.got.tgz:93707.got - 2010.06.03 11:33:40.
