data_PCOD9145485
_publ_section_title
;
Structure prediction by ZEFSAII (Michael W. Deem and Ramdas Pophale) SiO2 
 PCOD9145485
Probable space group: P 2/M
;
_chemical_formula_sum "Si O2"
_cell_formula_units_Z 28
_cell_length_a 17.839972
_cell_length_b 16.245392
_cell_length_c 5.282117
_cell_angle_alpha 90.000000
_cell_angle_beta 73.748621
_cell_angle_gamma 90.000000
_cell_volume 1469.681135
_symmetry_space_group_name_H-M "P 2/M"
_symmetry_group_IT_number 10
_symmetry_cell_setting 'monoclinic'
loop_
_space_group_symop_operation_xyz
x,y,z
-x,y,-z
-x,-y,-z
x,-y,z
loop_
_atom_site_type_symbol
_atom_site_label
_atom_site_fract_x
_atom_site_fract_y
_atom_site_fract_z
Si Si1 0.813740 0.592387 0.000695
Si Si2 0.245921 0.801733 0.378452
Si Si3 0.533856 0.594133 0.717858
Si Si4 0.070861 0.913273 0.122744
Si Si5 0.287458 0.375813 0.396333
Si Si6 0.086257 0.735099 0.345179
Si Si7 0.754168 0.093428 0.138592
O O1 0.848943 0.500000 0.986194
O O2 0.766464 0.609513 0.304844
O O3 0.754853 0.591259 0.815996
O O4 0.873150 0.667283 0.877074
O O5 0.297687 0.720716 0.331915
O O6 0.157129 0.761621 0.470717
O O7 0.271115 0.856171 0.592721
O O8 0.252682 0.854897 0.115173
O O9 0.500000 0.635045 0.500000
O O10 0.502092 0.500000 0.747648
O O11 0.626779 0.590345 0.635336
O O12 0.500000 0.634913 0.000000
O O13 0.152918 0.913219 0.903565
O O14 0.072297 0.000000 0.276147
O O15 0.067039 0.825205 0.254898
O O16 0.000000 0.916858 0.000000
O O17 0.000000 0.701993 0.500000
O O18 0.723526 0.000000 0.145322
#
# Coordination Sequence:
#
# PCOD9145485 Si02
#       7
#     4   4   4   4   4   4   4
#     4  11  23  38  57  78 103 146 193 231 277 320
#     4  10  20  34  52  76 103 141 181 218 272 324
#     4  10  20  33  53  83 114 141 168 204 256 316
#     4   9  17  29  47  71  98 131 169 214 279 347
#     4  11  21  38  59  80 112 144 180 222 262 322
#     4  10  21  34  51  74 104 139 186 240 283 319
#     4  10  19  32  50  74 105 135 173 223 268 322
#
# _framework density 19.051753000000001
#
# number of rings (size 3 to 8) (size 9 to 14) (size 15 to 20)
#    0.000    1.857    0.000    6.000    0.000    3.429 
#    0.000    0.000    0.000    4.714    0.000    0.000 
#    0.000   11.429    0.000    0.000    0.000    0.000 
#
# Total GULP energy -155879.417627 kJ/mol
# GULP energy per Si atom -5567.122058 kJ/mol
# Density = 1.900839 g / cm^3
# Si number density = 19.051753 Si / 1000 Ang^3
#
#
#
# Elastic Constant Matrix: (Units=GPa)
#
#
# Indices 1 2 3 4 5 6 
#
# 1 46.5511 12.7392 27.4333 0.0000 5.6122 0.0000
# 2 12.7392 134.8915 37.0375 0.0000 2.1368 0.0000
# 3 27.4333 37.0375 103.0521 0.0000 13.1136 0.0000
# 4 0.0000 0.0000 0.0000 76.9166 0.0000 33.7208
# 5 5.6122 2.1368 13.1136 0.0000 24.1600 0.0000
# 6 0.0000 0.0000 0.0000 33.7208 0.0000 32.2336
#
#
#
# Elastic Compliance Matrix: (Units=1/GPa)
#
#
# Indices 1 2 3 4 5 6 
#
# 1 0.025662 -0.000661 -0.006276 0.000000 -0.002496 0.000000
# 2 -0.000661 0.008262 -0.002922 0.000000 0.001009 0.000000
# 3 -0.006276 -0.002922 0.013112 0.000000 -0.005401 0.000000
# 4 0.000000 0.000000 0.000000 0.024015 0.000000 -0.025123
# 5 -0.002496 0.001009 -0.005401 0.000000 0.044813 0.000000
# 6 0.000000 0.000000 0.000000 -0.025123 0.000000 0.057306
#
#
# Mechanical properties :
#
#
# Convention : Reuss Voigt Hill
#
# Bulk Modulus (GPa) = 36.60545 48.76830 42.68687
# Shear Modulus (GPa) = 24.75315 40.48103 32.61709
#
# Velocity S-wave (km/s) = 3.60843 4.61455 4.14215
# Velocity P-wave (km/s) = 6.05115 7.35156 6.73283
#
# Compressibility (1/GPa) = 0.02731834
#
# Stress axis : x y z
#
# Youngs Moduli (GPa) = 38.96770 121.03522 76.26564
#
# Poissons Ratio (x) = 0.07996 0.47868
# Poissons Ratio (y) = 0.02574 0.22284
# Poissons Ratio (z) = 0.24458 0.35365
#
# Static dielectric constant tensor:
#      x y z
#    x 1.652290 0.000000 0.001450 
#    y 0.000000 1.768280 0.000000 
#    z 0.001450 0.000000 1.713880 
# 
# From -- ./inp_files/11268.got.cif
#   From: 2010.05.17/outbox.cif.g08.bks.cpg/sg10_6_cif.got.tgz:11268.got - 2010.06.03 11:33:40.
