data_PCOD9145742
_publ_section_title
;
Structure prediction by ZEFSAII (Michael W. Deem and Ramdas Pophale) SiO2 
 PCOD9145742
Probable space group: P 2/M
;
_chemical_formula_sum "Si O2"
_cell_formula_units_Z 32
_cell_length_a 10.943400
_cell_length_b 12.820928
_cell_length_c 19.382218
_cell_angle_alpha 90.000000
_cell_angle_beta 39.069191
_cell_angle_gamma 90.000000
_cell_volume 1713.933102
_symmetry_space_group_name_H-M "P 2/M"
_symmetry_group_IT_number 10
_symmetry_cell_setting 'monoclinic'
loop_
_space_group_symop_operation_xyz
x,y,z
-x,y,-z
-x,-y,-z
x,-y,z
loop_
_atom_site_type_symbol
_atom_site_label
_atom_site_fract_x
_atom_site_fract_y
_atom_site_fract_z
Si Si1 0.711277 0.389049 0.939504
Si Si2 0.030390 0.119439 0.878405
Si Si3 0.777742 0.881512 0.588595
Si Si4 0.315978 0.377122 0.631021
Si Si5 0.677257 0.883131 0.792716
Si Si6 0.325098 0.259950 0.919254
Si Si7 0.585048 0.248105 0.276612
Si Si8 0.022495 0.783226 0.243033
O O1 0.808502 0.500000 0.884746
O O2 0.820403 0.296442 0.855386
O O3 0.500000 0.392898 0.000000
O O4 0.703783 0.363014 0.023298
O O5 0.248348 0.159302 0.795041
O O6 0.006001 0.135265 0.806694
O O7 0.003202 0.000000 0.910248
O O8 0.871887 0.191833 0.986692
O O9 0.698925 0.889312 0.701017
O O10 0.625774 0.804210 0.618950
O O11 0.000000 0.845612 0.500000
O O12 0.780116 0.000000 0.557862
O O13 0.500000 0.373367 0.500000
O O14 0.256768 0.500000 0.660498
O O15 0.365974 0.332402 0.685760
O O16 0.162686 0.292357 0.668004
O O17 0.493637 0.807713 0.883184
O O18 0.876546 0.838476 0.736729
O O19 0.640957 0.000000 0.835779
O O20 0.392664 0.286033 0.812273
#
# Coordination Sequence:
#
# PCOD9145742 Si02
#       8
#     4   4   4   4   4   4   4   4
#     4  10  19  33  52  76 108 143 179 220 267 319
#     4  10  20  33  53  81 116 153 187 221 262 319
#     4   9  19  34  54  80 109 144 179 218 272 326
#     4  10  23  42  62  80 102 140 186 234 288 331
#     4  10  19  32  52  80 114 148 182 219 265 324
#     4  10  20  34  52  84 113 149 182 222 271 323
#     4  10  21  36  57  81 111 141 184 229 271 324
#     4  10  20  35  55  80 109 144 186 228 271 320
#
# _framework density 18.670506
#
# number of rings (size 3 to 8) (size 9 to 14) (size 15 to 20)
#    0.000    2.125    1.250    1.875    1.750    2.500 
#    0.000    1.875    0.000    7.125    0.000    0.000 
#    0.000    0.000    0.000    0.000    0.000    0.000 
#
# Total GULP energy -178289.998706 kJ/mol
# GULP energy per Si atom -5571.562460 kJ/mol
# Density = 1.862801 g / cm^3
# Si number density = 18.670506 Si / 1000 Ang^3
#
#
#
# Elastic Constant Matrix: (Units=GPa)
#
#
# Indices 1 2 3 4 5 6 
#
# 1 69.5534 20.5705 8.8135 0.0000 -7.7580 0.0000
# 2 20.5705 61.7286 7.3982 0.0000 3.0511 0.0000
# 3 8.8135 7.3982 56.4170 0.0000 -17.3511 0.0000
# 4 0.0000 0.0000 0.0000 129.8168 0.0000 -62.3066
# 5 -7.7580 3.0511 -17.3511 0.0000 33.5038 0.0000
# 6 0.0000 0.0000 0.0000 -62.3066 0.0000 49.5867
#
#
#
# Elastic Compliance Matrix: (Units=1/GPa)
#
#
# Indices 1 2 3 4 5 6 
#
# 1 0.016576 -0.005651 -0.000606 0.000000 0.004039 0.000000
# 2 -0.005651 0.018662 -0.002961 0.000000 -0.004542 0.000000
# 3 -0.000606 -0.002961 0.021705 0.000000 0.011370 0.000000
# 4 0.000000 0.000000 0.000000 0.019407 0.000000 0.024385
# 5 0.004039 -0.004542 0.011370 0.000000 0.037085 0.000000
# 6 0.000000 0.000000 0.000000 0.024385 0.000000 0.050807
#
#
# Mechanical properties :
#
#
# Convention : Reuss Voigt Hill
#
# Bulk Modulus (GPa) = 25.96956 29.02928 27.49942
# Shear Modulus (GPa) = 25.57349 52.64259 39.10804
#
# Velocity S-wave (km/s) = 3.70500 5.31571 4.58169
# Velocity P-wave (km/s) = 5.67823 7.29779 6.53835
#
# Compressibility (1/GPa) = 0.03850662
#
# Stress axis : x y z
#
# Youngs Moduli (GPa) = 60.32828 53.58367 46.07219
#
# Poissons Ratio (x) = 0.30279 0.02794
# Poissons Ratio (y) = 0.34090 0.13643
# Poissons Ratio (z) = 0.03658 0.15868
#
# Static dielectric constant tensor:
#      x y z
#    x 1.729500 0.000000 0.003530 
#    y 0.000000 1.635100 0.000000 
#    z 0.003530 0.000000 1.654170 
# 
# From -- ./inp_files/83865.got.cif
#   From: 2010.05.17/outbox.cif.g08.bks.cpg/sg10_42_cif.got.tgz:83865.got - 2010.06.03 11:33:40.
