data_PCOD9145797
_publ_section_title
;
Structure prediction by ZEFSAII (Michael W. Deem and Ramdas Pophale) SiO2 
 PCOD9145797
Probable space group: P 2/M
;
_chemical_formula_sum "Si O2"
_cell_formula_units_Z 28
_cell_length_a 19.670516
_cell_length_b 9.561401
_cell_length_c 14.536376
_cell_angle_alpha 90.000000
_cell_angle_beta 145.980487
_cell_angle_gamma 90.000000
_cell_volume 1529.587351
_symmetry_space_group_name_H-M "P 2/M"
_symmetry_group_IT_number 10
_symmetry_cell_setting 'monoclinic'
loop_
_space_group_symop_operation_xyz
x,y,z
-x,y,-z
-x,-y,-z
x,-y,z
loop_
_atom_site_type_symbol
_atom_site_label
_atom_site_fract_x
_atom_site_fract_y
_atom_site_fract_z
Si Si1 0.138835 0.339274 0.167414
Si Si2 0.985736 0.155405 0.639360
Si Si3 0.378561 0.834268 0.419960
Si Si4 0.426782 0.337790 0.012966
Si Si5 0.801473 0.155944 0.260739
Si Si6 0.829925 0.342247 0.578161
Si Si7 0.596509 0.835325 0.331967
O O1 0.142579 0.500000 0.136004
O O2 0.253434 0.249721 0.258708
O O3 0.158243 0.345047 0.298900
O O4 0.000000 0.285440 0.000000
O O5 0.890856 0.162824 0.448208
O O6 0.949701 0.275906 0.668582
O O7 0.115999 0.167254 0.737690
O O8 0.974361 0.000000 0.668754
O O9 0.500000 0.790884 0.500000
O O10 0.405013 0.818256 0.558999
O O11 0.358968 0.000000 0.380424
O O12 0.427382 0.500000 0.040702
O O13 0.294264 0.278251 0.844882
O O14 0.500000 0.323461 0.000000
O O15 0.487259 0.243243 0.159446
O O16 0.744455 0.000000 0.197887
O O17 0.806825 0.500000 0.519107
O O18 0.718355 0.239401 0.431736
O O19 0.597462 0.000000 0.312402
#
# Coordination Sequence:
#
# PCOD9145797 Si02
#       7
#     4   4   4   4   4   4   4
#     4   9  19  36  55  78 110 143 179 219 263 324
#     4   9  18  34  54  75 100 134 175 213 256 310
#     4   9  19  37  59  83 110 140 180 228 277 325
#     4  11  23  36  51  76 108 139 175 219 264 307
#     4   9  19  35  53  73 101 137 175 213 254 308
#     4  10  19  32  53  78 105 135 172 215 260 308
#     4  10  20  35  56  78 105 140 178 217 261 317
#
# _framework density 18.305591
#
# number of rings (size 3 to 8) (size 9 to 14) (size 15 to 20)
#    0.000    2.429    0.000    3.000    0.000    6.286 
#    2.571    1.429    0.000    0.000    0.000    0.000 
#    0.000    0.000    0.000    0.000    0.000    0.000 
#
# Total GULP energy -156130.274811 kJ/mol
# GULP energy per Si atom -5576.081243 kJ/mol
# Density = 1.826393 g / cm^3
# Si number density = 18.305591 Si / 1000 Ang^3
#
#
#
# Elastic Constant Matrix: (Units=GPa)
#
#
# Indices 1 2 3 4 5 6 
#
# 1 70.7508 53.3113 8.4960 0.0000 22.7470 0.0000
# 2 53.3113 123.0408 41.6996 0.0000 18.7711 0.0000
# 3 8.4960 41.6996 61.1928 0.0000 23.2296 0.0000
# 4 0.0000 0.0000 0.0000 47.2632 0.0000 8.3746
# 5 22.7470 18.7711 23.2296 0.0000 21.8756 0.0000
# 6 0.0000 0.0000 0.0000 8.3746 0.0000 20.6888
#
#
#
# Elastic Compliance Matrix: (Units=1/GPa)
#
#
# Indices 1 2 3 4 5 6 
#
# 1 0.048561 -0.022287 0.034100 0.000000 -0.067581 0.000000
# 2 -0.022287 0.020871 -0.021993 0.000000 0.028619 0.000000
# 3 0.034100 -0.021993 0.055103 0.000000 -0.075101 0.000000
# 4 0.000000 0.000000 0.000000 0.022793 0.000000 -0.009226
# 5 -0.067581 0.028619 -0.075101 0.000000 0.171177 0.000000
# 6 0.000000 0.000000 0.000000 -0.009226 0.000000 0.052070
#
#
# Mechanical properties :
#
#
# Convention : Reuss Voigt Hill
#
# Bulk Modulus (GPa) = 9.59912 51.33310 30.46611
# Shear Modulus (GPa) = 11.74646 28.06403 19.90525
#
# Velocity S-wave (km/s) = 2.53590 3.91971 3.30113
# Velocity P-wave (km/s) = 3.71882 6.97056 5.58652
#
# Compressibility (1/GPa) = 0.10417623
#
# Stress axis : x y z
#
# Youngs Moduli (GPa) = 20.59277 47.91278 18.14774
#
# Poissons Ratio (x) = 1.06783 -0.61884
# Poissons Ratio (y) = 0.45895 0.39912
# Poissons Ratio (z) = -0.70221 1.05372
#
# Static dielectric constant tensor:
#      x y z
#    x 1.631130 0.000000 0.012530 
#    y 0.000000 1.636120 0.000000 
#    z 0.012530 0.000000 1.635280 
# 
# From -- ./inp_files/50053.got.cif
#   From: 2010.05.17/outbox.cif.g08.bks.cpg/sg10_26_cif.got.tgz:50053.got - 2010.06.03 11:33:40.
