data_PCOD9145004
_publ_section_title
;
Structure prediction by ZEFSAII (Michael W. Deem and Ramdas Pophale) SiO2 
 PCOD9145004
Probable space group: P 2/M
;
_chemical_formula_sum "Si O2"
_cell_formula_units_Z 28
_cell_length_a 18.640544
_cell_length_b 8.001715
_cell_length_c 16.092554
_cell_angle_alpha 90.000000
_cell_angle_beta 142.365734
_cell_angle_gamma 90.000000
_cell_volume 1465.672266
_symmetry_space_group_name_H-M "P 2/M"
_symmetry_group_IT_number 10
_symmetry_cell_setting 'monoclinic'
loop_
_space_group_symop_operation_xyz
x,y,z
-x,y,-z
-x,-y,-z
x,-y,z
loop_
_atom_site_type_symbol
_atom_site_label
_atom_site_fract_x
_atom_site_fract_y
_atom_site_fract_z
Si Si1 0.872149 0.310164 0.406056
Si Si2 0.589700 0.199873 0.336833
Si Si3 0.963645 0.702030 0.833024
Si Si4 0.146620 0.194233 0.430520
Si Si5 0.602807 0.201343 0.157917
Si Si6 0.181535 0.296239 0.144048
Si Si7 0.441958 0.299170 0.360845
O O1 0.874301 0.500000 0.376253
O O2 0.874951 0.302057 0.508255
O O3 0.740419 0.242444 0.263124
O O4 0.000000 0.230825 0.500000
O O5 0.724130 0.239311 0.484133
O O6 0.576341 0.260699 0.228714
O O7 0.507488 0.261731 0.335125
O O8 0.576725 0.000000 0.321818
O O9 0.961706 0.500000 0.824302
O O10 0.944666 0.778405 0.726085
O O11 0.861304 0.753384 0.803543
O O12 0.083494 0.753550 0.987783
O O13 0.150150 0.000000 0.460081
O O14 0.596935 0.000000 0.153577
O O15 0.500000 0.260021 0.000000
O O16 0.181075 0.500000 0.143874
O O17 0.309183 0.234832 0.238023
O O18 0.500000 0.236614 0.500000
O O19 0.437742 0.500000 0.363823
#
# Coordination Sequence:
#
# PCOD9145004 Si02
#       7
#     4   4   4   4   4   4   4
#     4  10  21  37  57  83 111 137 176 227 272 320
#     4   9  19  34  51  74 103 134 172 212 254 307
#     4   9  16  31  53  71  96 135 174 211 257 308
#     4  10  20  34  53  76 102 133 172 214 260 315
#     4   9  19  38  61  82 110 148 183 220 271 332
#     4   8  16  30  48  72 101 134 170 212 259 306
#     4  10  19  31  49  74 102 133 173 214 255 305
#
# _framework density 19.103860999999998
#
# number of rings (size 3 to 8) (size 9 to 14) (size 15 to 20)
#    0.000    2.714    0.000    3.429    0.000    5.714 
#    2.571    2.857    0.000    0.000    0.000    0.000 
#    0.000    0.000    0.000    0.000    0.000    0.000 
#
# Total GULP energy -155937.015941 kJ/mol
# GULP energy per Si atom -5569.179141 kJ/mol
# Density = 1.906038 g / cm^3
# Si number density = 19.103861 Si / 1000 Ang^3
#
#
#
# Elastic Constant Matrix: (Units=GPa)
#
#
# Indices 1 2 3 4 5 6 
#
# 1 112.8763 7.0474 63.5124 0.0000 26.8982 0.0000
# 2 7.0474 14.5565 8.5545 0.0000 2.5686 0.0000
# 3 63.5124 8.5545 114.7967 0.0000 -1.0851 0.0000
# 4 0.0000 0.0000 0.0000 19.8090 0.0000 -5.2740
# 5 26.8982 2.5686 -1.0851 0.0000 25.8904 0.0000
# 6 0.0000 0.0000 0.0000 -5.2740 0.0000 24.1596
#
#
#
# Elastic Compliance Matrix: (Units=1/GPa)
#
#
# Indices 1 2 3 4 5 6 
#
# 1 0.020618 0.000756 -0.011671 0.000000 -0.021985 0.000000
# 2 0.000756 0.073299 -0.005959 0.000000 -0.008308 0.000000
# 3 -0.011671 -0.005959 0.015739 0.000000 0.013377 0.000000
# 4 0.000000 0.000000 0.000000 0.053597 0.000000 0.011700
# 5 -0.021985 -0.008308 0.013377 0.000000 0.062850 0.000000
# 6 0.000000 0.000000 0.000000 0.011700 0.000000 0.043946
#
#
# Mechanical properties :
#
#
# Convention : Reuss Voigt Hill
#
# Bulk Modulus (GPa) = 13.17384 44.49535 28.83459
# Shear Modulus (GPa) = 15.19295 24.84616 20.01955
#
# Velocity S-wave (km/s) = 2.82313 3.61027 3.24069
# Velocity P-wave (km/s) = 4.18780 6.38127 5.39714
#
# Compressibility (1/GPa) = 0.07590801
#
# Stress axis : x y z
#
# Youngs Moduli (GPa) = 48.50095 13.64268 63.53703
#
# Poissons Ratio (x) = -0.01032 0.74156
# Poissons Ratio (y) = -0.03668 0.37862
# Poissons Ratio (z) = 0.56607 0.08130
#
# Static dielectric constant tensor:
#      x y z
#    x 1.660290 0.000000 0.027610 
#    y 0.000000 1.703430 0.000000 
#    z 0.027610 0.000000 1.670560 
# 
# From -- ./inp_files/68708.got.cif
#   From: 2010.05.17/outbox.cif.g08.bks.cpg/sg10_35_cif.got.tgz:68708.got - 2010.06.03 11:33:40.
