data_PCOD9145012
_publ_section_title
;
Structure prediction by ZEFSAII (Michael W. Deem and Ramdas Pophale) SiO2 
 PCOD9145012
Probable space group: P 2/M
;
_chemical_formula_sum "Si O2"
_cell_formula_units_Z 28
_cell_length_a 15.267590
_cell_length_b 7.488547
_cell_length_c 18.622236
_cell_angle_alpha 90.000000
_cell_angle_beta 50.471780
_cell_angle_gamma 90.000000
_cell_volume 1642.213103
_symmetry_space_group_name_H-M "P 2/M"
_symmetry_group_IT_number 10
_symmetry_cell_setting 'monoclinic'
loop_
_space_group_symop_operation_xyz
x,y,z
-x,y,-z
-x,-y,-z
x,-y,z
loop_
_atom_site_type_symbol
_atom_site_label
_atom_site_fract_x
_atom_site_fract_y
_atom_site_fract_z
Si Si1 0.352818 0.214743 0.727764
Si Si2 0.607246 0.790443 0.593820
Si Si3 0.813410 0.500000 0.122014
Si Si4 0.822335 0.714996 0.570356
Si Si5 0.732172 0.215752 0.386995
Si Si6 0.008468 0.794720 0.767279
Si Si7 0.954973 0.500000 0.906355
Si Si8 0.960676 0.283713 0.634461
O O1 0.481491 0.275577 0.676542
O O2 0.262251 0.327256 0.819874
O O3 0.329385 0.253588 0.655789
O O4 0.339980 0.000000 0.745063
O O5 0.699103 0.771985 0.608738
O O6 0.665362 0.714314 0.491275
O O7 0.589556 0.000000 0.588428
O O8 0.923954 0.500000 0.115692
O O9 0.859366 0.500000 0.017106
O O10 0.824937 0.500000 0.568738
O O11 0.866024 0.772370 0.625874
O O12 0.918187 0.774084 0.462855
O O13 0.862792 0.275149 0.313648
O O14 0.737549 0.000000 0.391286
O O15 0.951853 0.671344 0.856260
O O16 0.948806 0.784618 0.720982
O O17 0.015127 0.000000 0.787774
O O18 0.961083 0.500000 0.636904
#
# Coordination Sequence:
#
# PCOD9145012 Si02
#       8
#     4   4   2   4   4   4   2   4
#     4  10  21  37  54  76 108 141 180 221 255 308
#     4  10  19  31  49  74 109 148 180 213 250 299
#     4  11  24  40  58  78  99 139 177 218 282 316
#     4   9  18  29  45  73 109 150 180 213 252 296
#     4   9  17  31  49  74 108 144 178 208 246 301
#     4  11  20  33  56  81 105 142 176 211 264 312
#     4  11  24  40  57  78 106 129 175 233 266 323
#     4   9  17  31  48  71 111 147 180 217 253 300
#
# _framework density 17.050162
#
# number of rings (size 3 to 8) (size 9 to 14) (size 15 to 20)
#    0.000    2.143    3.571    1.286    1.000    2.857 
#    1.286    3.571    0.000    0.000    0.000    2.000 
#    0.000    3.429    0.000    0.000    0.000    0.000 
#
# Total GULP energy -156261.476922 kJ/mol
# GULP energy per Si atom -5580.767033 kJ/mol
# Density = 1.701136 g / cm^3
# Si number density = 17.050162 Si / 1000 Ang^3
#
#
#
# Elastic Constant Matrix: (Units=GPa)
#
#
# Indices 1 2 3 4 5 6 
#
# 1 102.1148 17.2549 63.9243 0.0000 0.4182 0.0000
# 2 17.2549 75.1263 35.3778 0.0000 3.2728 0.0000
# 3 63.9243 35.3778 98.7802 0.0000 3.7310 0.0000
# 4 0.0000 0.0000 0.0000 17.4568 0.0000 -1.0542
# 5 0.4182 3.2728 3.7310 0.0000 23.2915 0.0000
# 6 0.0000 0.0000 0.0000 -1.0542 0.0000 19.3412
#
#
#
# Elastic Compliance Matrix: (Units=1/GPa)
#
#
# Indices 1 2 3 4 5 6 
#
# 1 0.016641 0.001462 -0.011342 0.000000 0.001313 0.000000
# 2 0.001462 0.016181 -0.006695 0.000000 -0.001228 0.000000
# 3 -0.011342 -0.006695 0.019938 0.000000 -0.002049 0.000000
# 4 0.000000 0.000000 0.000000 0.057474 0.000000 0.003133
# 5 0.001313 -0.001228 -0.002049 0.000000 0.043411 0.000000
# 6 0.000000 0.000000 0.000000 0.003133 0.000000 0.051874
#
#
# Mechanical properties :
#
#
# Convention : Reuss Voigt Hill
#
# Bulk Modulus (GPa) = 50.99335 56.57058 53.78197
# Shear Modulus (GPa) = 20.39105 22.64885 21.51995
#
# Velocity S-wave (km/s) = 3.46199 3.64863 3.55654
# Velocity P-wave (km/s) = 6.77889 7.14149 6.96255
#
# Compressibility (1/GPa) = 0.01961040
#
# Stress axis : x y z
#
# Youngs Moduli (GPa) = 60.09416 61.79950 50.15448
#
# Poissons Ratio (x) = -0.09034 0.56884
# Poissons Ratio (y) = -0.08785 0.33578
# Poissons Ratio (z) = 0.68158 0.41374
#
# Static dielectric constant tensor:
#      x y z
#    x 1.589460 0.000000 -0.006030 
#    y 0.000000 1.632130 0.000000 
#    z -0.006030 0.000000 1.542870 
# 
# From -- ./inp_files/77746.got.cif
#   From: 2010.05.17/outbox.cif.g08.bks.cpg/sg10_39_cif.got.tgz:77746.got - 2010.06.03 11:33:40.
