data_PCOD9145928
_publ_section_title
;
Structure prediction by ZEFSAII (Michael W. Deem and Ramdas Pophale) SiO2 
 PCOD9145928
Probable space group: P 2/M
;
_chemical_formula_sum "Si O2"
_cell_formula_units_Z 32
_cell_length_a 26.957643
_cell_length_b 12.390514
_cell_length_c 8.044646
_cell_angle_alpha 90.000000
_cell_angle_beta 35.730335
_cell_angle_gamma 90.000000
_cell_volume 1569.168282
_symmetry_space_group_name_H-M "P 2/M"
_symmetry_group_IT_number 10
_symmetry_cell_setting 'monoclinic'
loop_
_space_group_symop_operation_xyz
x,y,z
-x,y,-z
-x,-y,-z
x,-y,z
loop_
_atom_site_type_symbol
_atom_site_label
_atom_site_fract_x
_atom_site_fract_y
_atom_site_fract_z
Si Si1 0.887124 0.621792 0.917756
Si Si2 0.738858 0.875175 0.605866
Si Si3 0.696107 0.673222 0.519571
Si Si4 0.911055 0.754282 0.179955
Si Si5 0.552306 0.238954 0.707664
Si Si6 0.157940 0.371206 0.318449
Si Si7 0.328103 0.764247 0.886047
Si Si8 0.416016 0.380367 0.888245
O O1 0.916528 0.500000 0.870134
O O2 0.900480 0.647666 0.686505
O O3 0.783781 0.626212 0.216525
O O4 0.918298 0.699535 0.979108
O O5 0.709780 0.798318 0.534141
O O6 0.836357 0.841603 0.373438
O O7 0.728226 0.000000 0.600076
O O8 0.689414 0.839780 0.907841
O O9 0.615586 0.671605 0.617248
O O10 0.668281 0.619315 0.767502
O O11 0.883070 0.665629 0.395137
O O12 0.000000 0.799763 0.000000
O O13 0.617606 0.179632 0.406826
O O14 0.479063 0.296663 0.802285
O O15 0.500000 0.183228 0.000000
O O16 0.177778 0.500000 0.267544
O O17 0.240217 0.293363 0.074059
O O18 0.386401 0.666225 0.794287
O O19 0.450862 0.500000 0.789838
#
# Coordination Sequence:
#
# PCOD9145928 Si02
#       8
#     4   4   4   4   4   4   4   4
#     4  10  19  32  54  81 114 157 195 222 260 323
#     4   9  20  39  64  84  96 132 185 229 287 344
#     4   9  18  34  53  74 110 143 184 236 273 318
#     4  10  22  38  57  84 118 144 173 229 286 336
#     4  10  20  32  49  75 110 147 178 221 279 323
#     4  10  20  33  55  83 113 158 200 222 260 326
#     4  10  19  35  54  74 111 145 187 239 270 320
#     4  10  20  30  48  79 113 151 188 224 274 324
#
# _framework density 20.392969000000001
#
# number of rings (size 3 to 8) (size 9 to 14) (size 15 to 20)
#    0.000    2.250    1.250    2.250    0.000    6.000 
#    0.000    1.875    0.000   23.250    0.000    3.500 
#    0.000    0.000    0.000    0.000    0.000    0.000 
#
# Total GULP energy -178444.569827 kJ/mol
# GULP energy per Si atom -5576.392807 kJ/mol
# Density = 2.034655 g / cm^3
# Si number density = 20.392969 Si / 1000 Ang^3
#
#
#
# Elastic Constant Matrix: (Units=GPa)
#
#
# Indices 1 2 3 4 5 6 
#
# 1 74.1298 4.7460 5.6299 0.0000 1.3235 0.0000
# 2 4.7460 82.2680 5.1933 0.0000 8.4461 0.0000
# 3 5.6299 5.1933 88.3693 0.0000 9.3389 0.0000
# 4 0.0000 0.0000 0.0000 5.2069 0.0000 1.1007
# 5 1.3235 8.4461 9.3389 0.0000 32.3005 0.0000
# 6 0.0000 0.0000 0.0000 1.1007 0.0000 8.3619
#
#
#
# Elastic Compliance Matrix: (Units=1/GPa)
#
#
# Indices 1 2 3 4 5 6 
#
# 1 0.013600 -0.000720 -0.000810 0.000000 -0.000135 0.000000
# 2 -0.000720 0.012543 -0.000359 0.000000 -0.003146 0.000000
# 3 -0.000810 -0.000359 0.011734 0.000000 -0.003266 0.000000
# 4 0.000000 0.000000 0.000000 0.197548 0.000000 -0.026003
# 5 -0.000135 -0.003146 -0.003266 0.000000 0.032732 0.000000
# 6 0.000000 0.000000 0.000000 -0.026003 0.000000 0.123012
#
#
# Mechanical properties :
#
#
# Convention : Reuss Voigt Hill
#
# Bulk Modulus (GPa) = 29.32556 30.65616 29.99086
# Shear Modulus (GPa) = 12.30583 24.45375 18.37979
#
# Velocity S-wave (km/s) = 2.45916 3.46660 3.00539
# Velocity P-wave (km/s) = 4.74075 5.57570 5.17509
#
# Compressibility (1/GPa) = 0.03409995
#
# Stress axis : x y z
#
# Youngs Moduli (GPa) = 73.53029 79.72840 85.22291
#
# Poissons Ratio (x) = 0.05737 0.06902
# Poissons Ratio (y) = 0.05291 0.03057
# Poissons Ratio (z) = 0.05955 0.02860
#
# Static dielectric constant tensor:
#      x y z
#    x 1.754580 0.000000 0.025060 
#    y 0.000000 1.661460 0.000000 
#    z 0.025060 0.000000 1.814860 
# 
# From -- ./inp_files/38207.got.cif
#   From: 2010.05.17/outbox.cif.g08.bks.cpg/sg10_20_cif.got.tgz:38207.got - 2010.06.03 11:33:40.
