data_PCOD9145270
_publ_section_title
;
Structure prediction by ZEFSAII (Michael W. Deem and Ramdas Pophale) SiO2 
 PCOD9145270
Probable space group: P 2/M
;
_chemical_formula_sum "Si O2"
_cell_formula_units_Z 32
_cell_length_a 17.967092
_cell_length_b 8.898090
_cell_length_c 17.950612
_cell_angle_alpha 90.000000
_cell_angle_beta 38.905306
_cell_angle_gamma 90.000000
_cell_volume 1802.344393
_symmetry_space_group_name_H-M "P 2/M"
_symmetry_group_IT_number 10
_symmetry_cell_setting 'monoclinic'
loop_
_space_group_symop_operation_xyz
x,y,z
-x,y,-z
-x,-y,-z
x,-y,z
loop_
_atom_site_type_symbol
_atom_site_label
_atom_site_fract_x
_atom_site_fract_y
_atom_site_fract_z
Si Si1 0.737547 0.680804 0.118055
Si Si2 0.173671 0.178850 0.797125
Si Si3 0.248691 0.679650 0.388461
Si Si4 0.398547 0.820703 0.520081
Si Si5 0.878261 0.172784 0.643198
Si Si6 0.022454 0.321001 0.145394
Si Si7 0.037729 0.181016 0.650227
Si Si8 0.469358 0.319243 0.309023
O O1 0.736377 0.500000 0.130712
O O2 0.774577 0.758813 0.166259
O O3 0.605979 0.729912 0.196696
O O4 0.840241 0.713003 0.978514
O O5 0.272440 0.207864 0.656532
O O6 0.054848 0.260485 0.863391
O O7 0.155177 0.000000 0.816927
O O8 0.238444 0.500000 0.401016
O O9 0.214076 0.732435 0.332640
O O10 0.153088 0.751785 0.519658
O O11 0.379038 0.726945 0.314322
O O12 0.500000 0.774812 0.500000
O O13 0.418054 0.739359 0.427125
O O14 0.410064 0.000000 0.499439
O O15 0.000000 0.174207 0.500000
O O16 0.923337 0.224705 0.688826
O O17 0.838395 0.000000 0.678678
O O18 0.007571 0.500000 0.163498
O O19 0.977786 0.241255 0.254861
O O20 0.046550 0.000000 0.642245
O O21 0.469553 0.500000 0.310488
#
# Coordination Sequence:
#
# PCOD9145270 Si02
#       8
#     4   4   4   4   4   4   4   4
#     4  10  22  39  54  70  99 138 176 216 258 299
#     4  11  22  36  55  77 102 132 170 216 261 306
#     4  10  19  31  52  83 111 135 168 207 250 306
#     4  10  20  34  50  73 102 131 166 207 252 302
#     4   8  16  31  51  76 107 139 166 200 252 306
#     4  11  23  37  54  75 100 133 175 218 258 302
#     4  10  20  35  54  78 108 138 168 206 255 307
#     4  10  21  35  52  75 103 137 173 209 253 304
#
# _framework density 17.754653999999999
#
# number of rings (size 3 to 8) (size 9 to 14) (size 15 to 20)
#    0.000    2.000    1.250    3.375    0.000    9.500 
#    0.000    0.000    0.000    0.750    0.000    5.250 
#    0.000    0.000    0.000    0.000    0.000    0.000 
#
# Total GULP energy -178608.216196 kJ/mol
# GULP energy per Si atom -5581.506756 kJ/mol
# Density = 1.771424 g / cm^3
# Si number density = 17.754654 Si / 1000 Ang^3
#
#
#
# Elastic Constant Matrix: (Units=GPa)
#
#
# Indices 1 2 3 4 5 6 
#
# 1 137.0898 37.7767 34.9799 0.0000 -17.9527 0.0000
# 2 37.7767 34.9446 25.9966 0.0000 -10.2019 0.0000
# 3 34.9799 25.9966 47.8503 0.0000 -13.5193 0.0000
# 4 0.0000 0.0000 0.0000 7.8387 0.0000 1.7161
# 5 -17.9527 -10.2019 -13.5193 0.0000 17.2168 0.0000
# 6 0.0000 0.0000 0.0000 1.7161 0.0000 40.9940
#
#
#
# Elastic Compliance Matrix: (Units=1/GPa)
#
#
# Indices 1 2 3 4 5 6 
#
# 1 0.010837 -0.009143 -0.001662 0.000000 0.004578 0.000000
# 2 -0.009143 0.057190 -0.022497 0.000000 0.006689 0.000000
# 3 -0.001662 -0.022497 0.038656 0.000000 0.015291 0.000000
# 4 0.000000 0.000000 0.000000 0.128752 0.000000 -0.005390
# 5 0.004578 0.006689 0.015291 0.000000 0.078827 0.000000
# 6 0.000000 0.000000 0.000000 -0.005390 0.000000 0.024619
#
#
# Mechanical properties :
#
#
# Convention : Reuss Voigt Hill
#
# Bulk Modulus (GPa) = 24.95043 46.37679 35.66361
# Shear Modulus (GPa) = 11.93759 21.28534 16.61147
#
# Velocity S-wave (km/s) = 2.59581 3.46621 3.06210
# Velocity P-wave (km/s) = 4.80289 6.49593 5.71248
#
# Compressibility (1/GPa) = 0.04007948
#
# Stress axis : x y z
#
# Youngs Moduli (GPa) = 92.27231 17.48562 25.86930
#
# Poissons Ratio (x) = 0.15987 0.04299
# Poissons Ratio (y) = 0.84365 0.58199
# Poissons Ratio (z) = 0.15333 0.39338
#
# Static dielectric constant tensor:
#      x y z
#    x 1.625530 0.000000 -0.021790 
#    y 0.000000 1.593830 0.000000 
#    z -0.021790 0.000000 1.589030 
# 
# From -- ./inp_files/78641.got.cif
#   From: 2010.05.17/outbox.cif.g08.bks.cpg/sg10_40_cif.got.tgz:78641.got - 2010.06.03 11:33:40.
