data_PCOD9145941
_publ_section_title
;
Structure prediction by ZEFSAII (Michael W. Deem and Ramdas Pophale) SiO2 
 PCOD9145941
Probable space group: P 2/M
;
_chemical_formula_sum "Si O2"
_cell_formula_units_Z 26
_cell_length_a 8.997696
_cell_length_b 14.542896
_cell_length_c 11.148625
_cell_angle_alpha 90.000000
_cell_angle_beta 67.586284
_cell_angle_gamma 90.000000
_cell_volume 1348.618757
_symmetry_space_group_name_H-M "P 2/M"
_symmetry_group_IT_number 10
_symmetry_cell_setting 'monoclinic'
loop_
_space_group_symop_operation_xyz
x,y,z
-x,y,-z
-x,-y,-z
x,-y,z
loop_
_atom_site_type_symbol
_atom_site_label
_atom_site_fract_x
_atom_site_fract_y
_atom_site_fract_z
Si Si1 0.090492 0.609389 0.776451
Si Si2 0.750634 0.755189 0.098619
Si Si3 0.172908 0.104844 0.717058
Si Si4 0.127256 0.768034 0.204638
Si Si5 0.825080 0.391558 0.511376
Si Si6 0.593510 0.263127 0.710337
Si Si7 0.500000 0.846145 0.500000
O O1 0.076248 0.500000 0.802105
O O2 0.157089 0.669127 0.866755
O O3 0.198957 0.625446 0.623672
O O4 0.927132 0.660605 0.786148
O O5 0.777517 0.842871 0.176177
O O6 0.564117 0.727274 0.160284
O O7 0.813772 0.782982 0.949336
O O8 0.332167 0.104773 0.585234
O O9 0.026691 0.169149 0.716536
O O10 0.120660 0.000000 0.751705
O O11 0.268741 0.785396 0.254152
O O12 0.834222 0.500000 0.523306
O O13 0.680857 0.353396 0.634041
O O14 0.000000 0.352921 0.500000
O O15 0.541059 0.211277 0.606137
#
# Coordination Sequence:
#
# PCOD9145941 Si02
#       7
#     4   4   4   4   4   4   2
#     4  10  20  36  58  84 115 153 197 244 290 342
#     4  10  23  38  56  87 116 156 199 237 284 344
#     4  10  21  40  64  88 117 151 188 236 291 348
#     4  11  22  37  60  85 116 155 200 236 283 346
#     4  10  19  32  54  82 111 149 196 240 287 337
#     4  11  21  38  59  82 119 152 191 244 293 339
#     4  10  23  38  61  90 116 148 185 236 300 352
#
# _framework density 19.278984000000001
#
# number of rings (size 3 to 8) (size 9 to 14) (size 15 to 20)
#    0.000    1.692    1.538    5.308    0.000    3.077 
#    0.000    6.538    0.000    7.385    0.000    0.000 
#    0.000    0.000    0.000    0.000    0.000    0.000 
#
# Total GULP energy -144918.587154 kJ/mol
# GULP energy per Si atom -5573.791814 kJ/mol
# Density = 1.923510 g / cm^3
# Si number density = 19.278984 Si / 1000 Ang^3
#
#
#
# Elastic Constant Matrix: (Units=GPa)
#
#
# Indices 1 2 3 4 5 6 
#
# 1 118.9230 28.1803 32.3734 0.0000 -4.2117 0.0000
# 2 28.1803 85.3091 23.0653 0.0000 -0.1452 0.0000
# 3 32.3734 23.0653 76.4441 0.0000 -6.5078 0.0000
# 4 0.0000 0.0000 0.0000 10.8667 0.0000 -2.9028
# 5 -4.2117 -0.1452 -6.5078 0.0000 32.8788 0.0000
# 6 0.0000 0.0000 0.0000 -2.9028 0.0000 6.0891
#
#
#
# Elastic Compliance Matrix: (Units=1/GPa)
#
#
# Indices 1 2 3 4 5 6 
#
# 1 0.009923 -0.002345 -0.003445 0.000000 0.000579 0.000000
# 2 -0.002345 0.013334 -0.003103 0.000000 -0.000856 0.000000
# 3 -0.003445 -0.003103 0.015703 0.000000 0.002653 0.000000
# 4 0.000000 0.000000 0.000000 0.105454 0.000000 0.050272
# 5 0.000579 -0.000856 0.002653 0.000000 0.031010 0.000000
# 6 0.000000 0.000000 0.000000 0.050272 0.000000 0.188194
#
#
# Mechanical properties :
#
#
# Convention : Reuss Voigt Hill
#
# Bulk Modulus (GPa) = 47.23081 49.76822 48.49951
# Shear Modulus (GPa) = 12.87126 23.10406 17.98766
#
# Velocity S-wave (km/s) = 2.58666 3.46556 3.05785
# Velocity P-wave (km/s) = 5.78557 6.47180 6.13829
#
# Compressibility (1/GPa) = 0.02117262
#
# Stress axis : x y z
#
# Youngs Moduli (GPa) = 100.77638 74.99448 63.68360
#
# Poissons Ratio (x) = 0.17589 0.21941
# Poissons Ratio (y) = 0.23636 0.19761
# Poissons Ratio (z) = 0.34721 0.23270
#
# Static dielectric constant tensor:
#      x y z
#    x 1.711020 0.000000 -0.006710 
#    y 0.000000 1.651300 0.000000 
#    z -0.006710 0.000000 1.713540 
# 
# From -- ./inp_files/42615.got.cif
#   From: 2010.05.17/outbox.cif.g08.bks.cpg/sg10_22_cif.got.tgz:42615.got - 2010.06.03 11:33:40.
