data_PCOD9145529
_publ_section_title
;
Structure prediction by ZEFSAII (Michael W. Deem and Ramdas Pophale) SiO2 
 PCOD9145529
Probable space group: P 2/M
;
_chemical_formula_sum "Si O2"
_cell_formula_units_Z 32
_cell_length_a 24.478340
_cell_length_b 8.725846
_cell_length_c 12.805049
_cell_angle_alpha 90.000000
_cell_angle_beta 133.911830
_cell_angle_gamma 90.000000
_cell_volume 1970.376571
_symmetry_space_group_name_H-M "P 2/M"
_symmetry_group_IT_number 10
_symmetry_cell_setting 'monoclinic'
loop_
_space_group_symop_operation_xyz
x,y,z
-x,y,-z
-x,-y,-z
x,-y,z
loop_
_atom_site_type_symbol
_atom_site_label
_atom_site_fract_x
_atom_site_fract_y
_atom_site_fract_z
Si Si1 0.591628 0.316251 0.947658
Si Si2 0.315653 0.316532 0.718133
Si Si3 0.836986 0.815433 0.401670
Si Si4 0.426248 0.815481 0.693523
Si Si5 0.995572 0.823185 0.367423
Si Si6 0.688006 0.815779 0.882571
Si Si7 0.579507 0.186328 0.554763
Si Si8 0.838034 0.681402 0.168771
O O1 0.589315 0.500000 0.933708
O O2 0.506967 0.250321 0.837853
O O3 0.636235 0.244589 0.909093
O O4 0.636723 0.279567 0.113590
O O5 0.311734 0.500000 0.704259
O O6 0.232213 0.247741 0.623055
O O7 0.360366 0.246642 0.680190
O O8 0.920598 0.770299 0.554422
O O9 0.828835 0.751637 0.272979
O O10 0.835385 0.000000 0.394315
O O11 0.414724 0.766392 0.557729
O O12 0.428712 0.000000 0.700756
O O13 0.000000 0.821669 0.500000
O O14 0.922048 0.726017 0.241307
O O15 0.983956 0.000000 0.320321
O O16 0.647707 0.767591 0.721381
O O17 0.689917 0.000000 0.889666
O O18 0.771689 0.750339 0.010170
O O19 0.500000 0.238291 0.500000
O O20 0.577795 0.000000 0.552738
O O21 0.829719 0.500000 0.165343
#
# Coordination Sequence:
#
# PCOD9145529 Si02
#       8
#     4   4   4   4   4   4   4   4
#     4  11  22  35  50  73 105 136 169 211 258 303
#     4  11  23  36  50  73 108 139 170 212 255 302
#     4  10  19  32  51  73 100 136 176 208 244 299
#     4  11  22  37  56  74  97 133 178 217 255 305
#     4   8  16  30  47  70  99 133 171 207 242 295
#     4  11  20  33  55  75  99 135 174 213 256 302
#     4   9  18  35  55  76  97 125 171 223 261 295
#     4  11  20  30  46  74 108 136 166 206 254 306
#
# _framework density 16.240549000000001
#
# number of rings (size 3 to 8) (size 9 to 14) (size 15 to 20)
#    0.000    1.750    2.500    4.125    0.000    5.750 
#    0.000    3.125    0.000    0.000    0.000    0.875 
#    0.000    7.000    0.000    0.000    0.000    0.000 
#
# Total GULP energy -178620.728873 kJ/mol
# GULP energy per Si atom -5581.897777 kJ/mol
# Density = 1.620359 g / cm^3
# Si number density = 16.240549 Si / 1000 Ang^3
#
#
#
# Elastic Constant Matrix: (Units=GPa)
#
#
# Indices 1 2 3 4 5 6 
#
# 1 129.0319 41.6210 68.6012 0.0000 22.4590 0.0000
# 2 41.6210 55.5725 31.5727 0.0000 9.0262 0.0000
# 3 68.6012 31.5727 71.2378 0.0000 23.9494 0.0000
# 4 0.0000 0.0000 0.0000 -4.6857 0.0000 7.1416
# 5 22.4590 9.0262 23.9494 0.0000 28.5081 0.0000
# 6 0.0000 0.0000 0.0000 7.1416 0.0000 15.2633
#
#
#
# Elastic Compliance Matrix: (Units=1/GPa)
#
#
# Indices 1 2 3 4 5 6 
#
# 1 0.016683 -0.004495 -0.014121 0.000000 0.000144 0.000000
# 2 -0.004495 0.025333 -0.007516 0.000000 0.001834 0.000000
# 3 -0.014121 -0.007516 0.036829 0.000000 -0.017435 0.000000
# 4 0.000000 0.000000 0.000000 -0.124576 0.000000 0.058289
# 5 0.000144 0.001834 -0.017435 0.000000 0.049031 0.000000
# 6 0.000000 0.000000 0.000000 0.058289 0.000000 0.038244
#
#
# Mechanical properties :
#
#
# Convention : Reuss Voigt Hill
#
# Bulk Modulus (GPa) = 37.62182 59.93690 48.77936
# Shear Modulus (GPa) = 48.70117 15.42030 32.06074
#
# Velocity S-wave (km/s) = 5.48202 3.08473 4.44792
# Velocity P-wave (km/s) = 7.95523 7.04792 7.51528
#
# Compressibility (1/GPa) = 0.02658032
#
# Stress axis : x y z
#
# Youngs Moduli (GPa) = 59.94219 39.47414 27.15280
#
# Poissons Ratio (x) = 0.17744 0.38344
# Poissons Ratio (y) = 0.26944 0.20407
# Poissons Ratio (z) = 0.84647 0.29667
#
# Static dielectric constant tensor:
#      x y z
#    x 1.537500 0.000000 0.019840 
#    y 0.000000 1.543550 0.000000 
#    z 0.019840 0.000000 1.537680 
# 
# From -- ./inp_files/56465.got.cif
#   From: 2010.05.17/outbox.cif.g08.bks.cpg/sg10_29_cif.got.tgz:56465.got - 2010.06.03 11:33:40.
