data_PCOD9145286
_publ_section_title
;
Structure prediction by ZEFSAII (Michael W. Deem and Ramdas Pophale) SiO2 
 PCOD9145286
Probable space group: P 2/M
;
_chemical_formula_sum "Si O2"
_cell_formula_units_Z 32
_cell_length_a 14.680273
_cell_length_b 8.364894
_cell_length_c 20.192322
_cell_angle_alpha 90.000000
_cell_angle_beta 46.586402
_cell_angle_gamma 90.000000
_cell_volume 1801.206885
_symmetry_space_group_name_H-M "P 2/M"
_symmetry_group_IT_number 10
_symmetry_cell_setting 'monoclinic'
loop_
_space_group_symop_operation_xyz
x,y,z
-x,y,-z
-x,-y,-z
x,-y,z
loop_
_atom_site_type_symbol
_atom_site_label
_atom_site_fract_x
_atom_site_fract_y
_atom_site_fract_z
Si Si1 0.366995 0.692767 0.858944
Si Si2 0.984027 0.689843 0.331968
Si Si3 0.874102 0.695089 0.102119
Si Si4 0.736572 0.808877 0.953214
Si Si5 0.118442 0.189749 0.484842
Si Si6 0.022053 0.307285 0.812769
Si Si7 0.356041 0.310926 0.286819
Si Si8 0.265573 0.189433 0.194522
O O1 0.366754 0.500000 0.856281
O O2 0.250637 0.751779 0.872719
O O3 0.503785 0.747522 0.767236
O O4 0.343184 0.741076 0.946710
O O5 0.009480 0.500000 0.319486
O O6 0.893107 0.732171 0.437357
O O7 0.936346 0.734931 0.282413
O O8 0.116449 0.779002 0.276208
O O9 0.870766 0.500000 0.102455
O O10 0.891894 0.746271 0.169299
O O11 0.000000 0.742897 0.000000
O O12 0.699723 0.756169 0.897221
O O13 0.880962 0.757135 0.891822
O O14 0.729586 0.000000 0.957577
O O15 0.245983 0.228572 0.383051
O O16 0.000000 0.247751 0.500000
O O17 0.105531 0.000000 0.498929
O O18 0.014265 0.500000 0.820361
O O19 0.348043 0.500000 0.303090
O O20 0.332501 0.278053 0.220946
O O21 0.289413 0.000000 0.188364
#
# Coordination Sequence:
#
# PCOD9145286 Si02
#       8
#     4   4   4   4   4   4   4   4
#     4  10  21  36  53  76 105 139 177 215 258 307
#     4  10  19  31  53  82 107 130 169 219 260 299
#     4   9  15  29  56  80 103 136 173 212 256 306
#     4  10  20  32  49  74 106 142 176 213 252 301
#     4  11  22  36  56  78 103 137 173 209 259 316
#     4   9  17  31  53  80 106 136 171 212 260 305
#     4  11  23  36  53  77 104 135 175 221 260 299
#     4  10  20  34  50  72 105 143 178 207 252 311
#
# _framework density 17.765865000000002
#
# number of rings (size 3 to 8) (size 9 to 14) (size 15 to 20)
#    0.000    2.000    2.500    1.875    0.000    4.000 
#    0.000    3.750    0.000    0.750    0.000    5.250 
#    0.000    0.000    0.000    0.000    0.000    0.000 
#
# Total GULP energy -178580.671681 kJ/mol
# GULP energy per Si atom -5580.645990 kJ/mol
# Density = 1.772543 g / cm^3
# Si number density = 17.765865 Si / 1000 Ang^3
#
#
#
# Elastic Constant Matrix: (Units=GPa)
#
#
# Indices 1 2 3 4 5 6 
#
# 1 91.2897 3.2572 55.4751 0.0000 3.0399 0.0000
# 2 3.2572 8.5191 6.0147 0.0000 3.1976 0.0000
# 3 55.4751 6.0147 105.9314 0.0000 1.9251 0.0000
# 4 0.0000 0.0000 0.0000 17.0509 0.0000 10.8661
# 5 3.0399 3.1976 1.9251 0.0000 23.2066 0.0000
# 6 0.0000 0.0000 0.0000 10.8661 0.0000 -5.1020
#
#
#
# Elastic Compliance Matrix: (Units=1/GPa)
#
#
# Indices 1 2 3 4 5 6 
#
# 1 0.016114 0.000339 -0.008432 0.000000 -0.001458 0.000000
# 2 0.000339 0.128773 -0.007177 0.000000 -0.017193 0.000000
# 3 -0.008432 -0.007177 0.014247 0.000000 0.000912 0.000000
# 4 0.000000 0.000000 0.000000 0.024880 0.000000 0.052988
# 5 -0.001458 -0.017193 0.000912 0.000000 0.045576 0.000000
# 6 0.000000 0.000000 0.000000 0.052988 0.000000 -0.083149
#
#
# Mechanical properties :
#
#
# Convention : Reuss Voigt Hill
#
# Bulk Modulus (GPa) = 7.77632 37.24825 22.51228
# Shear Modulus (GPa) = 22.74332 16.43064 19.58698
#
# Velocity S-wave (km/s) = 3.58183 3.04442 3.32400
# Velocity P-wave (km/s) = 4.63601 5.77665 5.23748
#
# Compressibility (1/GPa) = 0.12859550
#
# Stress axis : x y z
#
# Youngs Moduli (GPa) = 62.05639 7.76559 70.19236
#
# Poissons Ratio (x) = -0.00263 0.59184
# Poissons Ratio (y) = -0.02104 0.50375
# Poissons Ratio (z) = 0.52324 0.05573
#
# Static dielectric constant tensor:
#      x y z
#    x 1.621350 0.000000 0.012940 
#    y 0.000000 1.605260 0.000000 
#    z 0.012940 0.000000 1.596570 
# 
# From -- ./inp_files/66030.got.cif
#   From: 2010.05.17/outbox.cif.g08.bks.cpg/sg10_34_cif.got.tgz:66030.got - 2010.06.03 11:33:40.
