data_PCOD9145220
_publ_section_title
;
Structure prediction by ZEFSAII (Michael W. Deem and Ramdas Pophale) SiO2 
 PCOD9145220
Probable space group: P 2/M
;
_chemical_formula_sum "Si O2"
_cell_formula_units_Z 32
_cell_length_a 19.730464
_cell_length_b 8.839611
_cell_length_c 12.160077
_cell_angle_alpha 90.000000
_cell_angle_beta 125.852416
_cell_angle_gamma 90.000000
_cell_volume 1718.996462
_symmetry_space_group_name_H-M "P 2/M"
_symmetry_group_IT_number 10
_symmetry_cell_setting 'monoclinic'
loop_
_space_group_symop_operation_xyz
x,y,z
-x,y,-z
-x,-y,-z
x,-y,z
loop_
_atom_site_type_symbol
_atom_site_label
_atom_site_fract_x
_atom_site_fract_y
_atom_site_fract_z
Si Si1 0.845674 0.318908 0.990285
Si Si2 0.812343 0.182223 0.722186
Si Si3 0.950799 0.821944 0.279574
Si Si4 0.124047 0.320665 0.438747
Si Si5 0.378889 0.183107 0.453494
Si Si6 0.452337 0.182809 0.284285
Si Si7 0.685675 0.680044 0.992581
Si Si8 0.788426 0.822348 0.280239
O O1 0.855396 0.500000 0.995077
O O2 0.842714 0.248408 0.866859
O O3 0.917731 0.245618 0.133268
O O4 0.758412 0.284958 0.971371
O O5 0.862879 0.245771 0.667542
O O6 0.715371 0.231637 0.614850
O O7 0.815986 0.000000 0.728422
O O8 0.873748 0.804157 0.290297
O O9 0.033620 0.735210 0.394101
O O10 0.969288 0.000000 0.287752
O O11 0.126279 0.500000 0.433404
O O12 0.194376 0.261210 0.589418
O O13 0.407450 0.225240 0.357243
O O14 0.451302 0.230996 0.606958
O O15 0.379595 0.000000 0.455960
O O16 0.448957 0.000000 0.271574
O O17 0.400507 0.255829 0.136951
O O18 0.682263 0.500000 0.001325
O O19 0.715985 0.754461 0.134888
O O20 0.774913 0.000000 0.286144
#
# Coordination Sequence:
#
# PCOD9145220 Si02
#       8
#     4   4   4   4   4   4   4   4
#     4  10  20  34  52  79 113 144 175 216 270 320
#     4  11  21  36  56  77 107 147 186 220 259 315
#     4  10  21  38  60  83 105 134 178 226 266 313
#     4  12  25  39  55  78 108 142 177 219 272 322
#     4   8  16  29  51  79 108 141 179 221 259 306
#     4   9  15  29  52  80 109 140 179 218 261 311
#     4  10  19  31  51  82 115 143 172 216 271 320
#     4  10  21  38  60  82 104 136 180 226 265 310
#
# _framework density 18.615513
#
# number of rings (size 3 to 8) (size 9 to 14) (size 15 to 20)
#    0.000    2.000    1.250    4.125    0.000    4.500 
#    0.000    5.000    0.000    0.750    0.000    5.250 
#    0.000    0.000    0.000    0.000    0.000    0.000 
#
# Total GULP energy -178684.992057 kJ/mol
# GULP energy per Si atom -5583.906002 kJ/mol
# Density = 1.857314 g / cm^3
# Si number density = 18.615513 Si / 1000 Ang^3
#
#
#
# Elastic Constant Matrix: (Units=GPa)
#
#
# Indices 1 2 3 4 5 6 
#
# 1 9.7051 9.4955 0.8470 0.0000 -1.6781 0.0000
# 2 9.4955 56.9163 33.1980 0.0000 -12.5707 0.0000
# 3 0.8470 33.1980 120.7376 0.0000 -2.2504 0.0000
# 4 0.0000 0.0000 0.0000 -4.5736 0.0000 -35.2761
# 5 -1.6781 -12.5707 -2.2504 0.0000 24.0280 0.0000
# 6 0.0000 0.0000 0.0000 -35.2761 0.0000 -17.3229
#
#
#
# Elastic Compliance Matrix: (Units=1/GPa)
#
#
# Indices 1 2 3 4 5 6 
#
# 1 0.126849 -0.025575 0.006069 0.000000 -0.003953 0.000000
# 2 -0.025575 0.029061 -0.007574 0.000000 0.012708 0.000000
# 3 0.006069 -0.007574 0.010274 0.000000 -0.002577 0.000000
# 4 0.000000 0.000000 0.000000 0.014867 0.000000 -0.030275
# 5 -0.003953 0.012708 -0.002577 0.000000 0.047749 0.000000
# 6 0.000000 0.000000 0.000000 -0.030275 0.000000 0.003925
#
#
# Mechanical properties :
#
#
# Convention : Reuss Voigt Hill
#
# Bulk Modulus (GPa) = 8.92677 30.49333 19.71005
# Shear Modulus (GPa) = 15.42116 10.01418 12.71767
#
# Velocity S-wave (km/s) = 2.88132 2.32189 2.61660
# Velocity P-wave (km/s) = 3.98436 4.85843 4.44294
#
# Compressibility (1/GPa) = 0.11202265
#
# Stress axis : x y z
#
# Youngs Moduli (GPa) = 7.88339 34.41004 97.32843
#
# Poissons Ratio (x) = 0.88005 -0.59065
# Poissons Ratio (y) = 0.20162 0.73721
# Poissons Ratio (z) = -0.04784 0.26064
#
# Static dielectric constant tensor:
#      x y z
#    x 1.645120 0.000000 0.011640 
#    y 0.000000 1.614650 0.000000 
#    z 0.011640 0.000000 1.640210 
# 
# From -- ./inp_files/55366.got.cif
#   From: 2010.05.17/outbox.cif.g08.bks.cpg/sg10_28_cif.got.tgz:55366.got - 2010.06.03 11:33:40.
