data_PCOD9145106
_publ_section_title
;
Structure prediction by ZEFSAII (Michael W. Deem and Ramdas Pophale) SiO2 
 PCOD9145106
Probable space group: P 2/M
;
_chemical_formula_sum "Si O2"
_cell_formula_units_Z 32
_cell_length_a 21.706390
_cell_length_b 7.580345
_cell_length_c 20.575837
_cell_angle_alpha 90.000000
_cell_angle_beta 26.295499
_cell_angle_gamma 90.000000
_cell_volume 1499.817993
_symmetry_space_group_name_H-M "P 2/M"
_symmetry_group_IT_number 10
_symmetry_cell_setting 'monoclinic'
loop_
_space_group_symop_operation_xyz
x,y,z
-x,y,-z
-x,-y,-z
x,-y,z
loop_
_atom_site_type_symbol
_atom_site_label
_atom_site_fract_x
_atom_site_fract_y
_atom_site_fract_z
Si Si1 0.426544 0.786913 0.770466
Si Si2 0.292298 0.706784 0.437926
Si Si3 0.152895 0.200855 0.703127
Si Si4 0.116328 0.207111 0.252944
Si Si5 0.167054 0.293181 0.422710
Si Si6 0.430298 0.783741 0.498917
Si Si7 0.342855 0.713095 0.135236
Si Si8 0.120455 0.782848 0.101112
O O1 0.542291 0.725176 0.712164
O O2 0.479796 0.729956 0.648945
O O3 0.427420 0.000000 0.770370
O O4 0.272122 0.728692 0.933688
O O5 0.255498 0.500000 0.478281
O O6 0.226435 0.800504 0.562672
O O7 0.232710 0.779653 0.427164
O O8 0.271720 0.278861 0.637192
O O9 0.002608 0.279963 0.829843
O O10 0.129636 0.000000 0.747317
O O11 0.269079 0.236979 0.137627
O O12 0.098812 0.276495 0.196158
O O13 0.998493 0.280163 0.412737
O O14 0.091099 0.000000 0.273927
O O15 0.202318 0.500000 0.389072
O O16 0.240457 0.220038 0.289309
O O17 0.500000 0.727802 0.500000
O O18 0.426293 0.000000 0.502367
O O19 0.345835 0.500000 0.133024
O O20 0.500000 0.774288 0.000000
O O21 0.115705 0.000000 0.106077
#
# Coordination Sequence:
#
# PCOD9145106 Si02
#       8
#     4   4   4   4   4   4   4   4
#     4   9  18  32  50  71 103 138 165 203 255 299
#     4  10  19  31  50  77 101 125 168 212 246 295
#     4   9  16  31  52  72 102 137 166 202 250 299
#     4  11  22  36  55  78 102 131 172 214 252 302
#     4  10  21  37  55  75 100 132 168 207 254 309
#     4   8  14  26  48  76 102 133 173 207 239 290
#     4  10  23  41  57  73 101 137 170 207 259 313
#     4   9  18  32  50  75 103 133 168 206 254 304
#
# _framework density 21.335920999999999
#
# number of rings (size 3 to 8) (size 9 to 14) (size 15 to 20)
#    0.000    2.500    1.250    1.875    1.750    2.750 
#    0.000    1.875    0.000    9.750    0.000    0.000 
#    0.000    8.000    0.000    0.000    0.000    0.000 
#
# Total GULP energy -178591.918838 kJ/mol
# GULP energy per Si atom -5580.997464 kJ/mol
# Density = 2.128736 g / cm^3
# Si number density = 21.335921 Si / 1000 Ang^3
#
#
#
# Elastic Constant Matrix: (Units=GPa)
#
#
# Indices 1 2 3 4 5 6 
#
# 1 107.2526 -4.9106 29.4931 0.0000 -31.8450 0.0000
# 2 -4.9106 50.8195 -9.6307 0.0000 4.5842 0.0000
# 3 29.4931 -9.6307 107.8700 0.0000 -28.8110 0.0000
# 4 0.0000 0.0000 0.0000 13.6398 0.0000 -4.0524
# 5 -31.8450 4.5842 -28.8110 0.0000 32.6225 0.0000
# 6 0.0000 0.0000 0.0000 -4.0524 0.0000 5.0967
#
#
#
# Elastic Compliance Matrix: (Units=1/GPa)
#
#
# Indices 1 2 3 4 5 6 
#
# 1 0.013133 0.000090 -0.000212 0.000000 0.012621 0.000000
# 2 0.000090 0.020082 0.001359 0.000000 -0.001534 0.000000
# 3 -0.000212 0.001359 0.012228 0.000000 0.010401 0.000000
# 4 0.000000 0.000000 0.000000 0.095989 0.000000 0.076320
# 5 0.012621 -0.001534 0.010401 0.000000 0.052375 0.000000
# 6 0.000000 0.000000 0.000000 0.076320 0.000000 0.256886
#
#
# Mechanical properties :
#
#
# Convention : Reuss Voigt Hill
#
# Bulk Modulus (GPa) = 20.86933 32.87176 26.87054
# Shear Modulus (GPa) = 10.77141 27.00450 18.88795
#
# Velocity S-wave (km/s) = 2.24932 3.56150 2.97857
# Velocity P-wave (km/s) = 4.06798 5.68794 4.94475
#
# Compressibility (1/GPa) = 0.04791721
#
# Stress axis : x y z
#
# Youngs Moduli (GPa) = 76.14148 49.79570 81.78125
#
# Poissons Ratio (x) = -0.00450 0.01734
# Poissons Ratio (y) = -0.00689 -0.11110
# Poissons Ratio (z) = 0.01614 -0.06765
#
# Static dielectric constant tensor:
#      x y z
#    x 1.766110 0.000000 -0.023510 
#    y 0.000000 1.819890 0.000000 
#    z -0.023510 0.000000 1.767860 
# 
# From -- ./inp_files/90595.got.cif
#   From: 2010.05.17/outbox.cif.g08.bks.cpg/sg10_46_cif.got.tgz:90595.got - 2010.06.03 11:33:40.
