data_PCOD9145805
_publ_section_title
;
Structure prediction by ZEFSAII (Michael W. Deem and Ramdas Pophale) SiO2 
 PCOD9145805
Probable space group: P 2/M
;
_chemical_formula_sum "Si O2"
_cell_formula_units_Z 18
_cell_length_a 5.258056
_cell_length_b 22.322522
_cell_length_c 8.610741
_cell_angle_alpha 90.000000
_cell_angle_beta 58.334357
_cell_angle_gamma 90.000000
_cell_volume 860.206811
_symmetry_space_group_name_H-M "P 2/M"
_symmetry_group_IT_number 10
_symmetry_cell_setting 'monoclinic'
loop_
_space_group_symop_operation_xyz
x,y,z
-x,y,-z
-x,-y,-z
x,-y,z
loop_
_atom_site_type_symbol
_atom_site_label
_atom_site_fract_x
_atom_site_fract_y
_atom_site_fract_z
Si Si1 0.860027 0.884602 0.374460
Si Si2 0.142611 0.247336 0.626089
Si Si3 0.141696 0.000000 0.122458
Si Si4 0.659211 0.568246 0.777631
Si Si5 0.151482 0.629119 0.784577
O O1 0.500000 0.892108 0.500000
O O2 0.934039 0.818602 0.282744
O O3 0.000000 0.882952 0.500000
O O4 0.014954 0.940344 0.243172
O O5 0.500000 0.247391 0.500000
O O6 0.073148 0.304124 0.754555
O O7 0.000000 0.253623 0.500000
O O8 0.500000 0.000000 0.000000
O O9 0.000000 0.000000 0.000000
O O10 0.627029 0.500000 0.734562
O O11 0.494215 0.613184 0.712096
O O12 0.997376 0.586004 0.708377
O O13 0.500000 0.571944 0.000000
O O14 0.000000 0.618786 0.000000
#
# Coordination Sequence:
#
# PCOD9145805 Si02
#       5
#     4   4   2   4   4
#     4  10  21  40  62  82 112 159 199 222 267 346
#     4  10  21  37  57  79 107 146 186 223 268 327
#     4  12  24  38  60  94 124 146 182 242 294 316
#     4   9  17  30  50  76 104 136 177 221 268 328
#     4  10  19  32  53  79 104 135 177 228 277 318
#
# _framework density 20.925201999999999
#
# number of rings (size 3 to 8) (size 9 to 14) (size 15 to 20)
#    0.000    2.000    0.000    4.000    0.000    3.556 
#    0.000    3.333    0.000   13.333    0.000    0.000 
#    0.000    0.000    0.000    0.000    0.000    0.000 
#
# Total GULP energy -100475.378004 kJ/mol
# GULP energy per Si atom -5581.965445 kJ/mol
# Density = 2.087758 g / cm^3
# Si number density = 20.925202 Si / 1000 Ang^3
#
#
#
# Elastic Constant Matrix: (Units=GPa)
#
#
# Indices 1 2 3 4 5 6 
#
# 1 176.6795 54.7020 29.8980 0.0000 10.6241 0.0000
# 2 54.7020 134.2786 14.3206 0.0000 17.0014 0.0000
# 3 29.8980 14.3206 20.8798 0.0000 -1.0885 0.0000
# 4 0.0000 0.0000 0.0000 7.8450 0.0000 -0.3404
# 5 10.6241 17.0014 -1.0885 0.0000 23.3516 0.0000
# 6 0.0000 0.0000 0.0000 -0.3404 0.0000 33.0074
#
#
#
# Elastic Compliance Matrix: (Units=1/GPa)
#
#
# Indices 1 2 3 4 5 6 
#
# 1 0.008203 -0.001842 -0.010633 0.000000 -0.002887 0.000000
# 2 -0.001842 0.009428 -0.004152 0.000000 -0.006220 0.000000
# 3 -0.010633 -0.004152 0.066538 0.000000 0.010963 0.000000
# 4 0.000000 0.000000 0.000000 0.127527 0.000000 0.001315
# 5 -0.002887 -0.006220 0.010963 0.000000 0.049176 0.000000
# 6 0.000000 0.000000 0.000000 0.001315 0.000000 0.030310
#
#
# Mechanical properties :
#
#
# Convention : Reuss Voigt Hill
#
# Bulk Modulus (GPa) = 19.64110 58.85323 39.24716
# Shear Modulus (GPa) = 14.64513 28.36862 21.50687
#
# Velocity S-wave (km/s) = 2.64839 3.68600 3.20941
# Velocity P-wave (km/s) = 4.33113 6.80456 5.70354
#
# Compressibility (1/GPa) = 0.05091365
#
# Stress axis : x y z
#
# Youngs Moduli (GPa) = 121.90165 106.06638 15.02890
#
# Poissons Ratio (x) = 0.19541 0.15981
# Poissons Ratio (y) = 0.22459 0.06241
# Poissons Ratio (z) = 1.29622 0.44044
#
# Static dielectric constant tensor:
#      x y z
#    x 1.766720 0.000000 -0.005750 
#    y 0.000000 1.848850 0.000000 
#    z -0.005750 0.000000 1.741730 
# 
# From -- ./inp_files/15121.got.cif
#   From: 2010.05.17/outbox.cif.g08.bks.cpg/sg10_8_cif.got.tgz:15121.got - 2010.06.03 11:33:40.
