data_PCOD9145627
_publ_section_title
;
Structure prediction by ZEFSAII (Michael W. Deem and Ramdas Pophale) SiO2 
 PCOD9145627
Probable space group: P 2/M
;
_chemical_formula_sum "Si O2"
_cell_formula_units_Z 28
_cell_length_a 9.649018
_cell_length_b 7.340318
_cell_length_c 27.759566
_cell_angle_alpha 90.000000
_cell_angle_beta 141.852523
_cell_angle_gamma 90.000000
_cell_volume 1214.450018
_symmetry_space_group_name_H-M "P 2/M"
_symmetry_group_IT_number 10
_symmetry_cell_setting 'monoclinic'
loop_
_space_group_symop_operation_xyz
x,y,z
-x,y,-z
-x,-y,-z
x,-y,z
loop_
_atom_site_type_symbol
_atom_site_label
_atom_site_fract_x
_atom_site_fract_y
_atom_site_fract_z
Si Si1 0.208397 0.278070 0.161732
Si Si2 0.948458 0.294044 0.256203
Si Si3 0.554423 0.277462 0.871574
Si Si4 0.350258 0.722816 0.302886
Si Si5 0.302395 0.278378 0.982157
Si Si6 0.749729 0.791423 0.573474
Si Si7 0.200274 0.279732 0.520342
O O1 0.207721 0.500000 0.160440
O O2 0.308834 0.216761 0.138109
O O3 0.354210 0.224486 0.248096
O O4 0.950623 0.221700 0.099497
O O5 0.903424 0.500000 0.226508
O O6 0.704427 0.215023 0.199467
O O7 0.118341 0.213258 0.263631
O O8 0.090437 0.299453 0.344178
O O9 0.558717 0.500000 0.870741
O O10 0.652780 0.225081 0.950260
O O11 0.350162 0.500000 0.304790
O O12 0.561988 0.781130 0.392626
O O13 0.306078 0.500000 0.981626
O O14 0.500000 0.217444 0.000000
O O15 0.500000 0.710879 0.500000
O O16 0.842546 0.785733 0.545147
O O17 0.724498 0.000000 0.582955
O O18 0.204267 0.500000 0.519792
O O19 0.000000 0.222826 0.500000
#
# Coordination Sequence:
#
# PCOD9145627 Si02
#       7
#     4   4   4   4   4   4   4
#     4   9  16  25  39  62  98 133 165 206 252 303
#     4  10  19  32  52  74 100 132 173 216 259 307
#     4   9  17  26  41  67  96 130 168 208 252 302
#     4   9  17  29  44  68  97 129 165 208 255 302
#     4   9  15  24  38  59  94 137 170 197 245 307
#     4  11  23  38  55  76 104 138 176 216 265 314
#     4  10  21  35  55  79 104 135 175 216 263 313
#
# _framework density 23.055703000000001
#
# number of rings (size 3 to 8) (size 9 to 14) (size 15 to 20)
#    0.000    2.429    1.429    1.714    2.000    6.000 
#    0.000    0.000    0.000    0.000    0.000    0.000 
#    0.000    8.571    0.000    0.000    0.000    0.286 
#
# Total GULP energy -156474.304484 kJ/mol
# GULP energy per Si atom -5588.368017 kJ/mol
# Density = 2.300323 g / cm^3
# Si number density = 23.055703 Si / 1000 Ang^3
#
#
#
# Elastic Constant Matrix: (Units=GPa)
#
#
# Indices 1 2 3 4 5 6 
#
# 1 144.7605 -1.7268 22.2663 0.0000 -14.7420 0.0000
# 2 -1.7268 87.7005 -3.2579 0.0000 3.9563 0.0000
# 3 22.2663 -3.2579 79.4175 0.0000 -11.2938 0.0000
# 4 0.0000 0.0000 0.0000 -47.9365 0.0000 21.1929
# 5 -14.7420 3.9563 -11.2938 0.0000 44.5813 0.0000
# 6 0.0000 0.0000 0.0000 21.1929 0.0000 -25.8385
#
#
#
# Elastic Compliance Matrix: (Units=1/GPa)
#
#
# Indices 1 2 3 4 5 6 
#
# 1 0.007386 -0.000011 -0.001788 0.000000 0.001990 0.000000
# 2 -0.000011 0.011457 0.000340 0.000000 -0.000934 0.000000
# 3 -0.001788 0.000340 0.013505 0.000000 0.002800 0.000000
# 4 0.000000 0.000000 0.000000 -0.032729 0.000000 -0.026845
# 5 0.001990 -0.000934 0.002800 0.000000 0.023881 0.000000
# 6 0.000000 0.000000 0.000000 -0.026845 0.000000 -0.060720
#
#
# Mechanical properties :
#
#
# Convention : Reuss Voigt Hill
#
# Bulk Modulus (GPa) = 33.97865 38.49352 36.23609
# Shear Modulus (GPa) = -204.14142 13.80106 -95.17018
#
# Velocity S-wave (km/s) = -9.41992 2.44928 -6.43179
# Velocity P-wave (km/s) = 10.17564 4.97300 6.27745
#
# Compressibility (1/GPa) = 0.02943024
#
# Stress axis : x y z
#
# Youngs Moduli (GPa) = 135.39959 87.28283 74.04599
#
# Poissons Ratio (x) = 0.00094 0.13240
# Poissons Ratio (y) = 0.00146 -0.02519
# Poissons Ratio (z) = 0.24211 -0.02969
#
# Static dielectric constant tensor:
#      x y z
#    x 1.833970 0.000000 0.006730 
#    y 0.000000 1.937330 0.000000 
#    z 0.006730 0.000000 1.809300 
# 
# From -- ./inp_files/37017.got.cif
#   From: 2010.05.17/outbox.cif.g08.bks.cpg/sg10_19_cif.got.tgz:37017.got - 2010.06.03 11:33:40.
