data_PCOD9145398
_publ_section_title
;
Structure prediction by ZEFSAII (Michael W. Deem and Ramdas Pophale) SiO2 
 PCOD9145398
Probable space group: P 2/M
;
_chemical_formula_sum "Si O2"
_cell_formula_units_Z 23
_cell_length_a 23.345751
_cell_length_b 11.218013
_cell_length_c 23.345731
_cell_angle_alpha 90.000000
_cell_angle_beta 12.854087
_cell_angle_gamma 90.000000
_cell_volume 1360.193337
_symmetry_space_group_name_H-M "P 2/M"
_symmetry_group_IT_number 10
_symmetry_cell_setting 'monoclinic'
loop_
_space_group_symop_operation_xyz
x,y,z
-x,y,-z
-x,-y,-z
x,-y,z
loop_
_atom_site_type_symbol
_atom_site_label
_atom_site_fract_x
_atom_site_fract_y
_atom_site_fract_z
Si Si1 0.565954 0.239145 0.565258
Si Si2 0.368207 0.144440 0.371097
Si Si3 0.966536 0.856597 0.967250
Si Si4 0.167534 0.855204 0.164732
Si Si5 0.000000 0.500000 0.000000
Si Si6 0.543110 0.500000 0.543187
Si Si7 0.767619 0.145425 0.767567
O O1 0.598735 0.198120 0.598370
O O2 0.561816 0.380301 0.561817
O O3 0.798814 0.187857 0.299991
O O4 0.301212 0.187616 0.797445
O O5 0.100421 0.180081 0.602829
O O6 0.371023 0.000000 0.373876
O O7 0.598498 0.179979 0.104298
O O8 0.967574 0.000000 0.967648
O O9 0.000000 0.810558 0.000000
O O10 0.199459 0.814352 0.199049
O O11 0.168362 0.000000 0.165938
O O12 0.789931 0.500000 0.259372
O O13 0.740729 0.500000 0.209950
O O14 0.000000 0.182566 0.500000
O O15 0.768329 0.000000 0.768071
O O16 0.500000 0.182486 0.000000
#
# Coordination Sequence:
#
# PCOD9145398 Si02
#       7
#     4   4   4   4   1   2   4
#     4  12  24  38  59  79 107 137 175 219 264 321
#     4  10  19  32  49  69  97 134 169 208 251 303
#     4  11  24  39  57  82 108 136 168 213 266 318
#     4   9  17  28  43  66  95 131 174 206 243 298
#     4  10  24  42  60  78 102 130 168 208 260 330
#     4  11  26  40  62  84 102 136 174 215 272 317
#     4   9  15  23  37  59  90 129 168 205 241 283
#
# _framework density 16.909362000000002
#
# number of rings (size 3 to 8) (size 9 to 14) (size 15 to 20)
#    0.000    1.739    0.000    5.217    7.304    6.957 
#    0.000    0.000    0.000    0.000    0.000    0.000 
#    0.000    0.000    0.000   15.652    0.000    6.957 
#
# Total GULP energy -128153.868605 kJ/mol
# GULP energy per Si atom -5571.907331 kJ/mol
# Density = 1.687088 g / cm^3
# Si number density = 16.909362 Si / 1000 Ang^3
#
#
#
# Elastic Constant Matrix: (Units=GPa)
#
#
# Indices 1 2 3 4 5 6 
#
# 1 214.7545 38.4204 118.9790 0.0000 2.9353 0.0000
# 2 38.4204 49.7329 31.4821 0.0000 0.6499 0.0000
# 3 118.9790 31.4821 209.2277 0.0000 -2.0990 0.0000
# 4 0.0000 0.0000 0.0000 10.8683 0.0000 -1.1884
# 5 2.9353 0.6499 -2.0990 0.0000 32.9387 0.0000
# 6 0.0000 0.0000 0.0000 -1.1884 0.0000 -2.4985
#
#
#
# Elastic Compliance Matrix: (Units=1/GPa)
#
#
# Indices 1 2 3 4 5 6 
#
# 1 0.007282 -0.003303 -0.003652 0.000000 -0.000816 0.000000
# 2 -0.003303 0.023736 -0.001696 0.000000 -0.000282 0.000000
# 3 -0.003652 -0.001696 0.007120 0.000000 0.000813 0.000000
# 4 0.000000 0.000000 0.000000 0.087462 0.000000 -0.041601
# 5 -0.000816 -0.000282 0.000813 0.000000 0.030490 0.000000
# 6 0.000000 0.000000 0.000000 -0.041601 0.000000 -0.380458
#
#
# Mechanical properties :
#
#
# Convention : Reuss Voigt Hill
#
# Bulk Modulus (GPa) = 47.99489 94.60870 71.30179
# Shear Modulus (GPa) = -24.98482 27.25062 1.13290
#
# Velocity S-wave (km/s) = -3.84809 4.01879 0.81941
# Velocity P-wave (km/s) = 2.94983 8.80944 6.56916
#
# Compressibility (1/GPa) = 0.02083555
#
# Stress axis : x y z
#
# Youngs Moduli (GPa) = 137.32656 42.12925 140.45620
#
# Poissons Ratio (x) = 0.13915 0.51296
# Poissons Ratio (y) = 0.45359 0.23823
# Poissons Ratio (z) = 0.50153 0.07146
#
# Static dielectric constant tensor:
#      x y z
#    x 1.553300 0.000000 -0.001710 
#    y 0.000000 1.522770 0.000000 
#    z -0.001710 0.000000 1.572670 
# 
# From -- ./inp_files/90731.got.cif
#   From: 2010.05.17/outbox.cif.g08.bks.cpg/sg10_46_cif.got.tgz:90731.got - 2010.06.03 11:33:40.
