data_PCOD9145917
_publ_section_title
;
Structure prediction by ZEFSAII (Michael W. Deem and Ramdas Pophale) SiO2 
 PCOD9145917
Probable space group: P 2/M
;
_chemical_formula_sum "Si O2"
_cell_formula_units_Z 32
_cell_length_a 13.021952
_cell_length_b 7.606334
_cell_length_c 14.333941
_cell_angle_alpha 90.000000
_cell_angle_beta 89.285255
_cell_angle_gamma 90.000000
_cell_volume 1419.656587
_symmetry_space_group_name_H-M "P 2/M"
_symmetry_group_IT_number 10
_symmetry_cell_setting 'monoclinic'
loop_
_space_group_symop_operation_xyz
x,y,z
-x,y,-z
-x,-y,-z
x,-y,z
loop_
_atom_site_type_symbol
_atom_site_label
_atom_site_fract_x
_atom_site_fract_y
_atom_site_fract_z
Si Si1 0.326417 0.795898 0.749934
Si Si2 0.105795 0.792617 0.810010
Si Si3 0.453376 0.786711 0.209914
Si Si4 0.707622 0.787463 0.639804
Si Si5 0.114646 0.210541 0.222223
Si Si6 0.607556 0.295143 0.456264
Si Si7 0.389470 0.297269 0.016980
Si Si8 0.168603 0.288871 0.007124
O O1 0.215372 0.716861 0.775155
O O2 0.429414 0.722089 0.797346
O O3 0.353839 0.788604 0.640086
O O4 0.322415 0.000000 0.777865
O O5 0.001544 0.719311 0.766529
O O6 0.107515 0.000000 0.788074
O O7 0.099058 0.772903 0.922345
O O8 0.397743 0.737145 0.305964
O O9 0.384407 0.710053 0.128822
O O10 0.451970 0.000000 0.203799
O O11 0.802119 0.724421 0.703332
O O12 0.693967 0.722940 0.535097
O O13 0.711828 0.000000 0.637120
O O14 0.143639 0.239461 0.113334
O O15 0.112378 0.000000 0.234448
O O16 0.500000 0.222145 0.500000
O O17 0.590217 0.500000 0.435879
O O18 0.394884 0.500000 0.986383
O O19 0.283676 0.219601 0.982358
O O20 0.500000 0.209659 0.000000
O O21 0.170087 0.500000 0.003906
#
# Coordination Sequence:
#
# PCOD9145917 Si02
#       8
#     4   4   4   4   4   4   4   4
#     4  10  21  38  59  84 113 145 184 230 280 331
#     4  10  22  39  59  82 110 148 191 233 276 325
#     4  10  19  32  54  81 107 139 180 227 275 321
#     4  10  20  36  59  84 110 141 181 229 277 323
#     4  10  21  39  60  82 111 148 191 234 274 322
#     4  11  23  37  58  88 117 146 180 221 276 340
#     4  10  21  34  48  73 112 152 184 220 273 333
#     4  11  22  35  55  83 114 150 191 232 277 329
#
# _framework density 22.540662999999999
#
# number of rings (size 3 to 8) (size 9 to 14) (size 15 to 20)
#    0.000    1.750    2.500    1.875    0.000    5.250 
#    0.000    0.625    0.000    3.750    0.000    0.000 
#    0.000    0.000    0.000    0.000    0.000    0.000 
#
# Total GULP energy -178720.038725 kJ/mol
# GULP energy per Si atom -5585.001210 kJ/mol
# Density = 2.248936 g / cm^3
# Si number density = 22.540663 Si / 1000 Ang^3
#
#
#
# Elastic Constant Matrix: (Units=GPa)
#
#
# Indices 1 2 3 4 5 6 
#
# 1 158.9721 11.4382 34.3020 0.0000 20.5963 0.0000
# 2 11.4382 58.3001 -4.3528 0.0000 -0.2281 0.0000
# 3 34.3020 -4.3528 84.2844 0.0000 12.4241 0.0000
# 4 0.0000 0.0000 0.0000 31.2666 0.0000 3.9485
# 5 20.5963 -0.2281 12.4241 0.0000 29.9698 0.0000
# 6 0.0000 0.0000 0.0000 3.9485 0.0000 6.9775
#
#
#
# Elastic Compliance Matrix: (Units=1/GPa)
#
#
# Indices 1 2 3 4 5 6 
#
# 1 0.007489 -0.001674 -0.002528 0.000000 -0.004111 0.000000
# 2 -0.001674 0.017595 0.001492 0.000000 0.000666 0.000000
# 3 -0.002528 0.001492 0.013540 0.000000 -0.003864 0.000000
# 4 0.000000 0.000000 0.000000 0.034445 0.000000 -0.019492
# 5 -0.004111 0.000666 -0.003864 0.000000 0.037799 0.000000
# 6 0.000000 0.000000 0.000000 -0.019492 0.000000 0.154349
#
#
# Mechanical properties :
#
#
# Convention : Reuss Voigt Hill
#
# Bulk Modulus (GPa) = 30.11763 42.70349 36.41056
# Shear Modulus (GPa) = 17.74898 30.98738 24.36818
#
# Velocity S-wave (km/s) = 2.80915 3.71176 3.29154
# Velocity P-wave (km/s) = 4.89001 6.11194 5.53480
#
# Compressibility (1/GPa) = 0.03320315
#
# Stress axis : x y z
#
# Youngs Moduli (GPa) = 133.52779 56.83405 73.85399
#
# Poissons Ratio (x) = 0.09515 0.18673
# Poissons Ratio (y) = 0.22355 -0.11018
# Poissons Ratio (z) = 0.33760 -0.08479
#
# Static dielectric constant tensor:
#      x y z
#    x 1.899030 0.000000 -0.014270 
#    y 0.000000 1.832020 0.000000 
#    z -0.014270 0.000000 1.839410 
# 
# From -- ./inp_files/49958.got.cif
#   From: 2010.05.17/outbox.cif.g08.bks.cpg/sg10_25_cif.got.tgz:49958.got - 2010.06.03 11:33:40.
