data_PCOD9145317
_publ_section_title
;
Structure prediction by ZEFSAII (Michael W. Deem and Ramdas Pophale) SiO2 
 PCOD9145317
Probable space group: P 2/M
;
_chemical_formula_sum "Si O2"
_cell_formula_units_Z 28
_cell_length_a 17.575806
_cell_length_b 8.105704
_cell_length_c 19.229545
_cell_angle_alpha 90.000000
_cell_angle_beta 31.751839
_cell_angle_gamma 90.000000
_cell_volume 1441.650076
_symmetry_space_group_name_H-M "P 2/M"
_symmetry_group_IT_number 10
_symmetry_cell_setting 'monoclinic'
loop_
_space_group_symop_operation_xyz
x,y,z
-x,y,-z
-x,-y,-z
x,-y,z
loop_
_atom_site_type_symbol
_atom_site_label
_atom_site_fract_x
_atom_site_fract_y
_atom_site_fract_z
Si Si1 0.556084 0.677548 0.536726
Si Si2 0.435365 0.200030 0.977938
Si Si3 0.877623 0.200288 0.834609
Si Si4 0.841559 0.000000 0.098715
Si Si5 0.235183 0.684620 0.933306
Si Si6 0.572298 0.000000 0.369572
Si Si7 0.793692 0.801380 0.440467
Si Si8 0.543718 0.199750 0.744142
O O1 0.500000 0.673850 0.500000
O O2 0.516980 0.500000 0.596197
O O3 0.478607 0.836273 0.628551
O O4 0.722029 0.714140 0.428143
O O5 0.267249 0.247496 0.095573
O O6 0.434394 0.000000 0.981948
O O7 0.500000 0.263213 0.000000
O O8 0.534138 0.241401 0.833897
O O9 0.037331 0.240144 0.681426
O O10 0.871589 0.000000 0.848773
O O11 0.856567 0.286191 0.925222
O O12 0.807511 0.835102 0.082977
O O13 0.741085 0.000000 0.244671
O O14 0.000000 0.000000 0.000000
O O15 0.210982 0.500000 0.924601
O O16 0.402135 0.710337 0.824744
O O17 0.500000 0.000000 0.500000
O O18 0.688268 0.759474 0.587757
O O19 0.785400 0.000000 0.436667
O O20 0.523052 0.000000 0.754890
#
# Coordination Sequence:
#
# PCOD9145317 Si02
#       8
#     4   4   4   2   4   2   4   4
#     4  10  21  36  55  81 111 146 192 242 287 342
#     4   8  14  28  53  81 114 157 197 235 284 346
#     4   9  18  35  56  82 116 151 192 239 291 348
#     4  12  26  42  58  82 117 148 189 248 298 343
#     4  11  22  39  61  82 110 153 198 237 288 349
#     4  10  22  40  58  78 104 144 185 226 286 349
#     4  10  19  31  54  82 111 150 192 241 297 347
#     4   9  17  33  55  82 113 148 194 240 288 349
#
# _framework density 19.422187999999998
#
# number of rings (size 3 to 8) (size 9 to 14) (size 15 to 20)
#    0.000    2.286    2.143    1.714    0.000    5.429 
#    0.000    2.143    0.000   11.143    0.000    0.000 
#    0.000   10.286    0.000    0.000    0.000    0.000 
#
# Total GULP energy -155961.910520 kJ/mol
# GULP energy per Si atom -5570.068233 kJ/mol
# Density = 1.937798 g / cm^3
# Si number density = 19.422188 Si / 1000 Ang^3
#
#
#
# Elastic Constant Matrix: (Units=GPa)
#
#
# Indices 1 2 3 4 5 6 
#
# 1 111.6822 23.6851 66.1854 0.0000 2.7972 0.0000
# 2 23.6851 101.6913 29.1880 0.0000 -0.6295 0.0000
# 3 66.1854 29.1880 169.0280 0.0000 -9.1217 0.0000
# 4 0.0000 0.0000 0.0000 -4.9059 0.0000 -26.0236
# 5 2.7972 -0.6295 -9.1217 0.0000 24.5074 0.0000
# 6 0.0000 0.0000 0.0000 -26.0236 0.0000 -62.8858
#
#
#
# Elastic Compliance Matrix: (Units=1/GPa)
#
#
# Indices 1 2 3 4 5 6 
#
# 1 0.012109 -0.001505 -0.004652 0.000000 -0.003152 0.000000
# 2 -0.001505 0.010537 -0.001231 0.000000 -0.000016 0.000000
# 3 -0.004652 -0.001231 0.008141 0.000000 0.003529 0.000000
# 4 0.000000 0.000000 0.000000 0.170552 0.000000 -0.070578
# 5 -0.003152 -0.000016 0.003529 0.000000 0.042477 0.000000
# 6 0.000000 0.000000 0.000000 -0.070578 0.000000 0.013305
#
#
# Mechanical properties :
#
#
# Convention : Reuss Voigt Hill
#
# Bulk Modulus (GPa) = 62.45445 68.94650 65.70048
# Shear Modulus (GPa) = 18.03536 8.89934 13.46735
#
# Velocity S-wave (km/s) = 3.05059 2.14289 2.63611
# Velocity P-wave (km/s) = 6.68088 6.45744 6.57011
#
# Compressibility (1/GPa) = 0.01601167
#
# Stress axis : x y z
#
# Youngs Moduli (GPa) = 82.58550 94.89957 122.84004
#
# Poissons Ratio (x) = 0.14279 0.57140
# Poissons Ratio (y) = 0.12426 0.15125
# Poissons Ratio (z) = 0.38415 0.11685
#
# Static dielectric constant tensor:
#      x y z
#    x 1.634840 0.000000 -0.007990 
#    y 0.000000 2.080400 0.000000 
#    z -0.007990 0.000000 1.694150 
# 
# From -- ./inp_files/85629.got.cif
#   From: 2010.05.17/outbox.cif.g08.bks.cpg/sg10_43_cif.got.tgz:85629.got - 2010.06.03 11:33:40.
