data_PCOD9145751
_publ_section_title
;
Structure prediction by ZEFSAII (Michael W. Deem and Ramdas Pophale) SiO2 
 PCOD9145751
Probable space group: P 2/M
;
_chemical_formula_sum "Si O2"
_cell_formula_units_Z 28
_cell_length_a 9.229992
_cell_length_b 13.836584
_cell_length_c 12.249816
_cell_angle_alpha 90.000000
_cell_angle_beta 115.439549
_cell_angle_gamma 90.000000
_cell_volume 1412.753140
_symmetry_space_group_name_H-M "P 2/M"
_symmetry_group_IT_number 10
_symmetry_cell_setting 'monoclinic'
loop_
_space_group_symop_operation_xyz
x,y,z
-x,y,-z
-x,-y,-z
x,-y,z
loop_
_atom_site_type_symbol
_atom_site_label
_atom_site_fract_x
_atom_site_fract_y
_atom_site_fract_z
Si Si1 0.242395 0.733596 0.323455
Si Si2 0.350230 0.611518 0.030595
Si Si3 0.491219 0.887932 0.124887
Si Si4 0.981487 0.392792 0.123916
Si Si5 0.538289 0.714462 0.278411
Si Si6 0.816460 0.386976 0.480974
Si Si7 0.857715 0.887675 0.875673
O O1 0.429422 0.730858 0.350546
O O2 0.213919 0.694297 0.435891
O O3 0.173407 0.833006 0.248780
O O4 0.133037 0.658704 0.221247
O O5 0.311758 0.500000 0.047380
O O6 0.409567 0.667585 0.154466
O O7 0.500000 0.610731 0.000000
O O8 0.194147 0.653498 0.919730
O O9 0.585548 0.814397 0.234188
O O10 0.307847 0.882633 0.109258
O O11 0.543182 0.000000 0.150077
O O12 0.500000 0.859839 0.000000
O O13 0.975303 0.500000 0.170686
O O14 0.000000 0.396965 0.000000
O O15 0.686159 0.643489 0.347590
O O16 0.787638 0.500000 0.504782
O O17 0.000000 0.381122 0.500000
O O18 0.894893 0.000000 0.866538
O O19 0.000000 0.847700 0.000000
#
# Coordination Sequence:
#
# PCOD9145751 Si02
#       7
#     4   4   4   4   4   4   4
#     4  11  22  37  61  83 113 155 198 238 289 350
#     4  10  21  33  51  82 115 146 183 236 295 351
#     4   9  19  36  60  92 125 154 188 235 293 350
#     4  10  19  32  52  82 113 142 185 237 291 350
#     4  11  22  38  60  84 114 155 199 237 287 350
#     4  11  27  45  60  82 113 154 203 252 295 343
#     4   9  19  35  59  92 125 154 189 236 290 349
#
# _framework density 19.819457
#
# number of rings (size 3 to 8) (size 9 to 14) (size 15 to 20)
#    0.000    1.857    1.429    2.143    4.000    3.429 
#    0.000    0.714    0.000    4.286    0.000    0.000 
#    0.000    0.000    0.000    0.000    0.000    0.000 
#
# Total GULP energy -156108.077618 kJ/mol
# GULP energy per Si atom -5575.288486 kJ/mol
# Density = 1.977435 g / cm^3
# Si number density = 19.819457 Si / 1000 Ang^3
#
#
#
# Elastic Constant Matrix: (Units=GPa)
#
#
# Indices 1 2 3 4 5 6 
#
# 1 71.6482 26.5451 21.7622 0.0000 3.3974 0.0000
# 2 26.5451 91.8363 32.0693 0.0000 -1.8977 0.0000
# 3 21.7622 32.0693 59.1995 0.0000 4.4679 0.0000
# 4 0.0000 0.0000 0.0000 35.5251 0.0000 -5.9578
# 5 3.3974 -1.8977 4.4679 0.0000 36.0533 0.0000
# 6 0.0000 0.0000 0.0000 -5.9578 0.0000 25.7233
#
#
#
# Elastic Compliance Matrix: (Units=1/GPa)
#
#
# Indices 1 2 3 4 5 6 
#
# 1 0.016520 -0.003344 -0.004170 0.000000 -0.001216 0.000000
# 2 -0.003344 0.014201 -0.006606 0.000000 0.001881 0.000000
# 3 -0.004170 -0.006606 0.022207 0.000000 -0.002707 0.000000
# 4 0.000000 0.000000 0.000000 0.029287 0.000000 0.006783
# 5 -0.001216 0.001881 -0.002707 0.000000 0.028286 0.000000
# 6 0.000000 0.000000 0.000000 0.006783 0.000000 0.040446
#
#
# Mechanical properties :
#
#
# Convention : Reuss Voigt Hill
#
# Bulk Modulus (GPa) = 40.50222 42.60415 41.55319
# Shear Modulus (GPa) = 26.67857 28.94749 27.81303
#
# Velocity S-wave (km/s) = 3.67288 3.82587 3.75015
# Velocity P-wave (km/s) = 6.20215 6.40774 6.30578
#
# Compressibility (1/GPa) = 0.02469000
#
# Stress axis : x y z
#
# Youngs Moduli (GPa) = 60.53193 70.41690 45.02995
#
# Poissons Ratio (x) = 0.23549 0.18775
# Poissons Ratio (y) = 0.20243 0.29745
# Poissons Ratio (z) = 0.25239 0.46515
#
# Static dielectric constant tensor:
#      x y z
#    x 1.746590 0.000000 -0.025040 
#    y 0.000000 1.750970 0.000000 
#    z -0.025040 0.000000 1.760370 
# 
# From -- ./inp_files/43039.got.cif
#   From: 2010.05.17/outbox.cif.g08.bks.cpg/sg10_22_cif.got.tgz:43039.got - 2010.06.03 11:33:40.
