data_PCOD9145414
_publ_section_title
;
Structure prediction by ZEFSAII (Michael W. Deem and Ramdas Pophale) SiO2 
 PCOD9145414
Probable space group: P 2/M
;
_chemical_formula_sum "Si O2"
_cell_formula_units_Z 28
_cell_length_a 17.356177
_cell_length_b 7.558742
_cell_length_c 20.337430
_cell_angle_alpha 90.000000
_cell_angle_beta 28.964369
_cell_angle_gamma 90.000000
_cell_volume 1292.061842
_symmetry_space_group_name_H-M "P 2/M"
_symmetry_group_IT_number 10
_symmetry_cell_setting 'monoclinic'
loop_
_space_group_symop_operation_xyz
x,y,z
-x,y,-z
-x,-y,-z
x,-y,z
loop_
_atom_site_type_symbol
_atom_site_label
_atom_site_fract_x
_atom_site_fract_y
_atom_site_fract_z
Si Si1 0.005208 0.215789 0.420742
Si Si2 0.358178 0.215434 0.152103
Si Si3 0.858938 0.712203 0.059477
Si Si4 0.508312 0.297766 0.320600
Si Si5 0.116730 0.787392 0.112407
Si Si6 0.527107 0.214683 0.154633
Si Si7 0.844115 0.208928 0.412340
O O1 0.181196 0.263561 0.263675
O O2 0.000000 0.278343 0.500000
O O3 0.880238 0.277668 0.459218
O O4 0.992105 0.000000 0.434482
O O5 0.399257 0.268518 0.195918
O O6 0.362231 0.000000 0.147970
O O7 0.500000 0.278292 0.000000
O O8 0.850917 0.500000 0.074220
O O9 0.681284 0.783391 0.207900
O O10 0.896261 0.743260 0.954949
O O11 0.000000 0.781210 0.000000
O O12 0.512450 0.500000 0.338864
O O13 0.501792 0.286747 0.246132
O O14 0.339349 0.226758 0.470658
O O15 0.972545 0.718221 0.264563
O O16 0.115624 0.000000 0.117809
O O17 0.294805 0.732748 0.000836
O O18 0.521501 0.000000 0.164016
O O19 0.874989 0.000000 0.393293
#
# Coordination Sequence:
#
# PCOD9145414 Si02
#       7
#     4   4   4   4   4   4   4
#     4   9  16  25  40  64  93 127 165 201 237 276
#     4   9  15  23  40  67  93 118 156 205 247 280
#     4   9  19  37  58  77  97 123 158 199 241 289
#     4  10  20  33  51  73  95 124 162 198 236 289
#     4   9  18  31  50  77 104 130 160 197 245 295
#     4   9  16  29  49  71  96 126 162 205 248 287
#     4  10  19  32  49  72 104 135 164 201 243 288
#
# _framework density 21.670788000000002
#
# number of rings (size 3 to 8) (size 9 to 14) (size 15 to 20)
#    0.000    2.714    0.000    2.143    0.000    7.143 
#    0.000    0.714    0.000    8.571    0.000    0.000 
#    0.000    0.000    0.000    0.000    0.000    0.000 
#
# Total GULP energy -156210.281159 kJ/mol
# GULP energy per Si atom -5578.938613 kJ/mol
# Density = 2.162146 g / cm^3
# Si number density = 21.670788 Si / 1000 Ang^3
#
#
#
# Elastic Constant Matrix: (Units=GPa)
#
#
# Indices 1 2 3 4 5 6 
#
# 1 84.0333 0.2478 30.8671 0.0000 -31.7654 0.0000
# 2 0.2478 45.2708 1.6636 0.0000 -2.2613 0.0000
# 3 30.8671 1.6636 108.7743 0.0000 -20.8984 0.0000
# 4 0.0000 0.0000 0.0000 -67.6734 0.0000 -6.3193
# 5 -31.7654 -2.2613 -20.8984 0.0000 29.4608 0.0000
# 6 0.0000 0.0000 0.0000 -6.3193 0.0000 19.8248
#
#
#
# Elastic Compliance Matrix: (Units=1/GPa)
#
#
# Indices 1 2 3 4 5 6 
#
# 1 0.020434 0.000995 -0.001813 0.000000 0.020823 0.000000
# 2 0.000995 0.022223 -0.000102 0.000000 0.002706 0.000000
# 3 -0.001813 -0.000102 0.010805 0.000000 0.005702 0.000000
# 4 0.000000 0.000000 0.000000 -0.014350 0.000000 -0.004574
# 5 0.020823 0.002706 0.005702 0.000000 0.060648 0.000000
# 6 0.000000 0.000000 0.000000 -0.004574 0.000000 0.048984
#
#
# Mechanical properties :
#
#
# Convention : Reuss Voigt Hill
#
# Bulk Modulus (GPa) = 19.37203 33.73725 26.55464
# Shear Modulus (GPa) = 29.79875 10.00911 19.90393
#
# Velocity S-wave (km/s) = 3.71221 2.15145 3.03391
# Velocity P-wave (km/s) = 5.22806 4.66621 4.95511
#
# Compressibility (1/GPa) = 0.05162082
#
# Stress axis : x y z
#
# Youngs Moduli (GPa) = 48.93686 44.99891 92.55062
#
# Poissons Ratio (x) = -0.04477 0.16782
# Poissons Ratio (y) = -0.04869 0.00947
# Poissons Ratio (z) = 0.08874 0.00460
#
# Static dielectric constant tensor:
#      x y z
#    x 1.760670 0.000000 -0.017080 
#    y 0.000000 1.830770 0.000000 
#    z -0.017080 0.000000 1.814050 
# 
# From -- ./inp_files/85615.got.cif
#   From: 2010.05.17/outbox.cif.g08.bks.cpg/sg10_43_cif.got.tgz:85615.got - 2010.06.03 11:33:40.
