data_PCOD9145279
_publ_section_title
;
Structure prediction by ZEFSAII (Michael W. Deem and Ramdas Pophale) SiO2 
 PCOD9145279
Probable space group: P 2/M
;
_chemical_formula_sum "Si O2"
_cell_formula_units_Z 32
_cell_length_a 13.207473
_cell_length_b 13.090298
_cell_length_c 11.226400
_cell_angle_alpha 90.000000
_cell_angle_beta 77.071264
_cell_angle_gamma 90.000000
_cell_volume 1891.725267
_symmetry_space_group_name_H-M "P 2/M"
_symmetry_group_IT_number 10
_symmetry_cell_setting 'monoclinic'
loop_
_space_group_symop_operation_xyz
x,y,z
-x,y,-z
-x,-y,-z
x,-y,z
loop_
_atom_site_type_symbol
_atom_site_label
_atom_site_fract_x
_atom_site_fract_y
_atom_site_fract_z
Si Si1 0.454659 0.379026 0.137773
Si Si2 0.632138 0.878716 0.617782
Si Si3 0.759986 0.246606 0.394034
Si Si4 0.877163 0.621379 0.556383
Si Si5 0.459854 0.286672 0.639646
Si Si6 0.251270 0.742693 0.221475
Si Si7 0.145073 0.883819 0.068726
Si Si8 0.096509 0.115977 0.805808
O O1 0.462973 0.500000 0.133277
O O2 0.506869 0.342124 0.247584
O O3 0.336133 0.343255 0.174783
O O4 0.500000 0.338228 0.000000
O O5 0.704797 0.839133 0.491034
O O6 0.520886 0.822098 0.632660
O O7 0.689682 0.829296 0.716378
O O8 0.623374 0.000000 0.624822
O O9 0.807715 0.334275 0.465888
O O10 0.663983 0.282816 0.338322
O O11 0.851180 0.196305 0.294440
O O12 0.858538 0.500000 0.578152
O O13 0.839543 0.689516 0.677903
O O14 0.000000 0.635558 0.500000
O O15 0.500000 0.330005 0.500000
O O16 0.211173 0.797917 0.114856
O O17 0.027362 0.874742 0.148617
O O18 0.180514 0.000000 0.086173
O O19 0.140345 0.872663 0.927960
O O20 0.119312 0.000000 0.759514
#
# Coordination Sequence:
#
# PCOD9145279 Si02
#       8
#     4   4   4   4   4   4   4   4
#     4  10  22  38  55  76 103 136 176 223 268 312
#     4   9  18  32  49  76 108 135 167 206 252 303
#     4  10  19  31  53  77 100 136 172 209 255 305
#     4  10  21  36  54  78 105 133 170 217 267 314
#     4   9  20  34  52  78 105 136 173 215 261 310
#     4  10  19  33  56  75 100 139 172 209 257 313
#     4   9  18  32  50  73 103 137 169 206 251 300
#     4   9  18  31  48  74 104 134 171 208 247 301
#
# _framework density 16.915776000000001
#
# number of rings (size 3 to 8) (size 9 to 14) (size 15 to 20)
#    0.000    2.500    0.000    3.375    1.750    3.500 
#    0.000    0.000    0.000    7.875    0.000    4.375 
#    0.000    0.000    0.000    0.000    0.000    0.000 
#
# Total GULP energy -178285.590350 kJ/mol
# GULP energy per Si atom -5571.424698 kJ/mol
# Density = 1.687727 g / cm^3
# Si number density = 16.915776 Si / 1000 Ang^3
#
#
#
# Elastic Constant Matrix: (Units=GPa)
#
#
# Indices 1 2 3 4 5 6 
#
# 1 38.5292 15.8354 -6.1963 0.0000 7.7798 0.0000
# 2 15.8354 70.0768 14.0999 0.0000 6.6248 0.0000
# 3 -6.1963 14.0999 41.0710 0.0000 3.6745 0.0000
# 4 0.0000 0.0000 0.0000 21.8589 0.0000 -0.0531
# 5 7.7798 6.6248 3.6745 0.0000 19.8403 0.0000
# 6 0.0000 0.0000 0.0000 -0.0531 0.0000 4.1862
#
#
#
# Elastic Compliance Matrix: (Units=1/GPa)
#
#
# Indices 1 2 3 4 5 6 
#
# 1 0.033132 -0.008143 0.008860 0.000000 -0.011914 0.000000
# 2 -0.008143 0.017685 -0.007176 0.000000 -0.001383 0.000000
# 3 0.008860 -0.007176 0.028721 0.000000 -0.006397 0.000000
# 4 0.000000 0.000000 0.000000 0.045749 0.000000 0.000581
# 5 -0.011914 -0.001383 -0.006397 0.000000 0.056720 0.000000
# 6 0.000000 0.000000 0.000000 0.000581 0.000000 0.238885
#
#
# Mechanical properties :
#
#
# Convention : Reuss Voigt Hill
#
# Bulk Modulus (GPa) = 15.01087 21.90611 18.45849
# Shear Modulus (GPa) = 10.96450 17.57297 14.26873
#
# Velocity S-wave (km/s) = 2.54870 3.22662 2.90749
# Velocity P-wave (km/s) = 4.18979 5.18263 4.71243
#
# Compressibility (1/GPa) = 0.06661839
#
# Stress axis : x y z
#
# Youngs Moduli (GPa) = 30.18261 56.54563 34.81807
#
# Poissons Ratio (x) = 0.46047 -0.30849
# Poissons Ratio (y) = 0.24579 0.24986
# Poissons Ratio (z) = -0.26742 0.40578
#
# Static dielectric constant tensor:
#      x y z
#    x 1.567710 0.000000 0.005810 
#    y 0.000000 1.550880 0.000000 
#    z 0.005810 0.000000 1.581600 
# 
# From -- ./inp_files/47001.got.cif
#   From: 2010.05.17/outbox.cif.g08.bks.cpg/sg10_24_cif.got.tgz:47001.got - 2010.06.03 11:33:40.
