data_PCOD9145975
_publ_section_title
;
Structure prediction by ZEFSAII (Michael W. Deem and Ramdas Pophale) SiO2 
 PCOD9145975
Probable space group: P 2/M
;
_chemical_formula_sum "Si O2"
_cell_formula_units_Z 24
_cell_length_a 8.933091
_cell_length_b 11.591575
_cell_length_c 25.285472
_cell_angle_alpha 90.000000
_cell_angle_beta 149.530708
_cell_angle_gamma 90.000000
_cell_volume 1327.665752
_symmetry_space_group_name_H-M "P 2/M"
_symmetry_group_IT_number 10
_symmetry_cell_setting 'monoclinic'
loop_
_space_group_symop_operation_xyz
x,y,z
-x,y,-z
-x,-y,-z
x,-y,z
loop_
_atom_site_type_symbol
_atom_site_label
_atom_site_fract_x
_atom_site_fract_y
_atom_site_fract_z
Si Si1 0.084296 0.139126 0.769763
Si Si2 0.245877 0.000000 0.499133
Si Si3 0.200470 0.229625 0.424112
Si Si4 0.313618 0.868020 0.998004
Si Si5 0.579030 0.000000 0.325415
Si Si6 0.812164 0.362708 0.390698
Si Si7 0.220508 0.772777 0.216379
O O1 0.965806 0.184173 0.678300
O O2 0.917927 0.203072 0.767596
O O3 0.038499 0.000000 0.761137
O O4 0.435932 0.159480 0.882924
O O5 0.322030 0.881615 0.493542
O O6 0.364963 0.000000 0.594602
O O7 0.892972 0.000000 0.393724
O O8 0.500000 0.297094 0.500000
O O9 0.975550 0.299740 0.392112
O O10 0.053243 0.777128 0.907942
O O11 0.203837 0.000000 0.973207
O O12 0.500000 0.872505 0.000000
O O13 0.403594 0.113206 0.258045
O O14 0.832588 0.500000 0.391687
O O15 0.469089 0.325448 0.291414
O O16 0.000000 0.326569 0.500000
#
# Coordination Sequence:
#
# PCOD9145975 Si02
#       7
#     4   2   4   4   2   4   4
#     4  10  19  32  54  89 124 146 171 215 279 346
#     4  11  21  30  47  81 118 140 169 219 284 342
#     4  12  23  35  54  83 117 146 174 226 284 335
#     4   8  15  29  51  83 117 149 177 210 267 336
#     4  11  18  28  52  81 109 142 179 221 272 332
#     4  11  25  43  59  76 103 148 201 236 266 316
#     4  11  18  34  59  82 111 146 185 228 269 323
#
# _framework density 18.076839
#
# number of rings (size 3 to 8) (size 9 to 14) (size 15 to 20)
#    0.000    1.500    4.167    4.250    0.000    0.333 
#    0.000    1.667    0.000    9.500    0.000    0.000 
#    0.000    0.000    0.000    0.000    0.000    0.000 
#
# Total GULP energy -133900.701219 kJ/mol
# GULP energy per Si atom -5579.195884 kJ/mol
# Density = 1.803570 g / cm^3
# Si number density = 18.076839 Si / 1000 Ang^3
#
#
#
# Elastic Constant Matrix: (Units=GPa)
#
#
# Indices 1 2 3 4 5 6 
#
# 1 82.5145 30.1877 49.0858 0.0000 8.9102 0.0000
# 2 30.1877 48.3194 31.9256 0.0000 3.1249 0.0000
# 3 49.0858 31.9256 103.6313 0.0000 10.5189 0.0000
# 4 0.0000 0.0000 0.0000 17.4311 0.0000 10.3798
# 5 8.9102 3.1249 10.5189 0.0000 24.5743 0.0000
# 6 0.0000 0.0000 0.0000 10.3798 0.0000 -55.6577
#
#
#
# Elastic Compliance Matrix: (Units=1/GPa)
#
#
# Indices 1 2 3 4 5 6 
#
# 1 0.018977 -0.007439 -0.006371 0.000000 -0.003208 0.000000
# 2 -0.007439 0.028901 -0.005521 0.000000 0.001385 0.000000
# 3 -0.006371 -0.005521 0.014701 0.000000 -0.003281 0.000000
# 4 0.000000 0.000000 0.000000 0.051635 0.000000 0.009630
# 5 -0.003208 0.001385 -0.003281 0.000000 0.043084 0.000000
# 6 0.000000 0.000000 0.000000 0.009630 0.000000 -0.016171
#
#
# Mechanical properties :
#
#
# Convention : Reuss Voigt Hill
#
# Bulk Modulus (GPa) = 41.81027 50.76261 46.28644
# Shear Modulus (GPa) = 26.62953 5.48726 16.05840
#
# Velocity S-wave (km/s) = 3.84230 1.74416 2.98374
# Velocity P-wave (km/s) = 6.54704 5.67439 6.12627
#
# Compressibility (1/GPa) = 0.02391757
#
# Stress axis : x y z
#
# Youngs Moduli (GPa) = 52.69510 34.60071 68.02170
#
# Poissons Ratio (x) = 0.25739 0.43339
# Poissons Ratio (y) = 0.39199 0.37553
# Poissons Ratio (z) = 0.33574 0.19102
#
# Static dielectric constant tensor:
#      x y z
#    x 1.652820 0.000000 0.017450 
#    y 0.000000 1.594020 0.000000 
#    z 0.017450 0.000000 1.662050 
# 
# From -- ./inp_files/32103.got.cif
#   From: 2010.05.17/outbox.cif.g08.bks.cpg/sg10_17_cif.got.tgz:32103.got - 2010.06.03 11:33:40.
