data_PCOD9145644
_publ_section_title
;
Structure prediction by ZEFSAII (Michael W. Deem and Ramdas Pophale) SiO2 
 PCOD9145644
Probable space group: P 2/M
;
_chemical_formula_sum "Si O2"
_cell_formula_units_Z 32
_cell_length_a 19.025062
_cell_length_b 18.016552
_cell_length_c 14.002724
_cell_angle_alpha 90.000000
_cell_angle_beta 158.210979
_cell_angle_gamma 90.000000
_cell_volume 1781.584618
_symmetry_space_group_name_H-M "P 2/M"
_symmetry_group_IT_number 10
_symmetry_cell_setting 'monoclinic'
loop_
_space_group_symop_operation_xyz
x,y,z
-x,y,-z
-x,-y,-z
x,-y,z
loop_
_atom_site_type_symbol
_atom_site_label
_atom_site_fract_x
_atom_site_fract_y
_atom_site_fract_z
Si Si1 0.255566 0.415515 0.716886
Si Si2 0.549784 0.583856 0.663239
Si Si3 0.326136 0.302995 0.635807
Si Si4 0.155878 0.583670 0.278765
Si Si5 0.716483 0.835825 0.289317
Si Si6 0.170463 0.628548 0.822359
Si Si7 0.286463 0.775296 0.925071
Si Si8 0.922637 0.082718 0.293187
O O1 0.310432 0.500000 0.768090
O O2 0.343388 0.360003 0.748143
O O3 0.273433 0.397442 0.853496
O O4 0.029008 0.410604 0.419414
O O5 0.500000 0.621537 0.500000
O O6 0.615746 0.500000 0.724017
O O7 0.358250 0.580262 0.481923
O O8 0.707453 0.616995 0.929770
O O9 0.184232 0.348902 0.388590
O O10 0.265338 0.225652 0.606281
O O11 0.515744 0.271629 0.819964
O O12 0.121038 0.500000 0.276323
O O13 0.000000 0.596423 0.000000
O O14 0.884029 0.894043 0.516094
O O15 0.500000 0.865692 0.000000
O O16 0.741672 0.792573 0.221453
O O17 0.133679 0.715852 0.765820
O O18 0.238903 0.853566 0.915729
O O19 0.000000 0.081264 0.500000
O O20 0.857026 0.000000 0.185632
#
# Coordination Sequence:
#
# PCOD9145644 Si02
#       8
#     4   4   4   4   4   4   4   4
#     4  11  23  33  49  77 106 144 188 233 280 332
#     4  10  21  36  52  70  98 139 188 240 282 318
#     4  11  20  35  52  76 107 143 184 227 280 333
#     4  10  22  38  53  72 103 144 191 243 290 326
#     4   9  18  31  52  81 112 144 178 214 266 322
#     4  11  20  36  52  74 105 143 188 230 276 337
#     4  10  19  32  52  75 105 144 178 216 272 320
#     4   9  18  33  53  79 113 151 181 209 253 327
#
# _framework density 17.961538000000001
#
# number of rings (size 3 to 8) (size 9 to 14) (size 15 to 20)
#    0.000    1.875    2.500    2.625    5.250    0.250 
#    0.000    2.500    0.000    0.000    0.000    0.000 
#    0.000    5.500    0.000    0.000    0.000    0.000 
#
# Total GULP energy -178164.097043 kJ/mol
# GULP energy per Si atom -5567.628033 kJ/mol
# Density = 1.792066 g / cm^3
# Si number density = 17.961538 Si / 1000 Ang^3
#
#
#
# Elastic Constant Matrix: (Units=GPa)
#
#
# Indices 1 2 3 4 5 6 
#
# 1 51.5934 24.8878 33.1923 0.0000 2.0432 0.0000
# 2 24.8878 112.4561 32.8900 0.0000 13.3225 0.0000
# 3 33.1923 32.8900 96.3069 0.0000 -3.7407 0.0000
# 4 0.0000 0.0000 0.0000 11.9285 0.0000 0.1728
# 5 2.0432 13.3225 -3.7407 0.0000 30.7723 0.0000
# 6 0.0000 0.0000 0.0000 0.1728 0.0000 11.6776
#
#
#
# Elastic Compliance Matrix: (Units=1/GPa)
#
#
# Indices 1 2 3 4 5 6 
#
# 1 0.026128 -0.003316 -0.007922 0.000000 -0.001262 0.000000
# 2 -0.003316 0.011029 -0.002814 0.000000 -0.004897 0.000000
# 3 -0.007922 -0.002814 0.014210 0.000000 0.003472 0.000000
# 4 0.000000 0.000000 0.000000 0.083851 0.000000 -0.001241
# 5 -0.001262 -0.004897 0.003472 0.000000 0.035123 0.000000
# 6 0.000000 0.000000 0.000000 -0.001241 0.000000 0.085652
#
#
# Mechanical properties :
#
#
# Convention : Reuss Voigt Hill
#
# Bulk Modulus (GPa) = 42.98543 49.14407 46.06475
# Shear Modulus (GPa) = 17.13202 22.16809 19.65006
#
# Velocity S-wave (km/s) = 3.09174 3.51693 3.31117
# Velocity P-wave (km/s) = 6.06045 6.62660 6.34984
#
# Compressibility (1/GPa) = 0.02326370
#
# Stress axis : x y z
#
# Youngs Moduli (GPa) = 38.27264 90.66685 70.37525
#
# Poissons Ratio (x) = 0.30066 0.55749
# Poissons Ratio (y) = 0.12692 0.19803
# Poissons Ratio (z) = 0.30318 0.25513
#
# Static dielectric constant tensor:
#      x y z
#    x 1.679910 0.000000 0.048110 
#    y 0.000000 1.642770 0.000000 
#    z 0.048110 0.000000 1.681230 
# 
# From -- ./inp_files/70866.got.cif
#   From: 2010.05.17/outbox.cif.g08.bks.cpg/sg10_36_cif.got.tgz:70866.got - 2010.06.03 11:33:40.
