data_PCOD9145042
_publ_section_title
;
Structure prediction by ZEFSAII (Michael W. Deem and Ramdas Pophale) SiO2 
 PCOD9145042
Probable space group: P 2/M
;
_chemical_formula_sum "Si O2"
_cell_formula_units_Z 28
_cell_length_a 20.737603
_cell_length_b 7.526270
_cell_length_c 11.769827
_cell_angle_alpha 90.000000
_cell_angle_beta 130.755383
_cell_angle_gamma 90.000000
_cell_volume 1391.531884
_symmetry_space_group_name_H-M "P 2/M"
_symmetry_group_IT_number 10
_symmetry_cell_setting 'monoclinic'
loop_
_space_group_symop_operation_xyz
x,y,z
-x,y,-z
-x,-y,-z
x,-y,z
loop_
_atom_site_type_symbol
_atom_site_label
_atom_site_fract_x
_atom_site_fract_y
_atom_site_fract_z
Si Si1 0.796813 0.714826 0.201419
Si Si2 0.692046 0.707382 0.483143
Si Si3 0.025227 0.706501 0.662985
Si Si4 0.527919 0.784500 0.157753
Si Si5 0.593565 0.705103 0.584915
Si Si6 0.156058 0.718652 0.489640
Si Si7 0.628324 0.208473 0.869368
O O1 0.801233 0.500000 0.207123
O O2 0.807324 0.771704 0.344477
O O3 0.879515 0.781843 0.226422
O O4 0.708659 0.766723 0.043372
O O5 0.709379 0.500000 0.526799
O O6 0.620022 0.720505 0.303039
O O7 0.648778 0.785926 0.546549
O O8 0.779663 0.781098 0.533518
O O9 0.031820 0.500000 0.705138
O O10 0.942005 0.780303 0.629868
O O11 0.000000 0.708927 0.500000
O O12 0.456681 0.723470 0.165947
O O13 0.529250 0.000000 0.159964
O O14 0.500000 0.727621 0.000000
O O15 0.500000 0.785486 0.500000
O O16 0.578053 0.500000 0.532832
O O17 0.640142 0.708530 0.759318
O O18 0.154807 0.500000 0.488233
O O19 0.616215 0.000000 0.836502
#
# Coordination Sequence:
#
# PCOD9145042 Si02
#       7
#     4   4   4   4   4   4   4
#     4   9  16  28  49  74  99 125 151 186 233 280
#     4  10  19  31  50  72  92 119 155 197 234 268
#     4   7  11  22  43  71  99 123 147 181 228 280
#     4  10  21  34  46  65  96 128 152 182 230 282
#     4  10  20  35  51  67  90 120 160 204 238 269
#     4   8  14  26  47  76 101 120 150 189 232 282
#     4  11  22  33  48  68  93 126 161 195 229 274
#
# _framework density 20.12171
#
# number of rings (size 3 to 8) (size 9 to 14) (size 15 to 20)
#    0.000    2.714    1.429    3.000    0.000    1.714 
#    0.000    0.000    0.000    5.571    0.000    6.000 
#    0.000    0.000    0.000    0.000    0.000    0.000 
#
# Total GULP energy -156142.406895 kJ/mol
# GULP energy per Si atom -5576.514532 kJ/mol
# Density = 2.007591 g / cm^3
# Si number density = 20.121710 Si / 1000 Ang^3
#
#
#
# Elastic Constant Matrix: (Units=GPa)
#
#
# Indices 1 2 3 4 5 6 
#
# 1 173.1038 12.8450 10.3167 0.0000 4.4546 0.0000
# 2 12.8450 53.3501 -0.3906 0.0000 -1.1098 0.0000
# 3 10.3167 -0.3906 11.5792 0.0000 -3.6765 0.0000
# 4 0.0000 0.0000 0.0000 -9.1396 0.0000 -5.2390
# 5 4.4546 -1.1098 -3.6765 0.0000 34.7026 0.0000
# 6 0.0000 0.0000 0.0000 -5.2390 0.0000 -6.4309
#
#
#
# Elastic Compliance Matrix: (Units=1/GPa)
#
#
# Indices 1 2 3 4 5 6 
#
# 1 0.006300 -0.001593 -0.006147 0.000000 -0.001511 0.000000
# 2 -0.001593 0.019168 0.002407 0.000000 0.001072 0.000000
# 3 -0.006147 0.002407 0.095404 0.000000 0.010973 0.000000
# 4 0.000000 0.000000 0.000000 -0.205273 0.000000 0.167229
# 5 -0.001511 0.001072 0.010973 0.000000 0.030207 0.000000
# 6 0.000000 0.000000 0.000000 0.167229 0.000000 -0.291734
#
#
# Mechanical properties :
#
#
# Convention : Reuss Voigt Hill
#
# Bulk Modulus (GPa) = 9.07400 31.50838 20.29119
# Shear Modulus (GPa) = -16.74897 18.17721 0.71412
#
# Velocity S-wave (km/s) = -2.88823 3.00886 0.59638
# Velocity P-wave (km/s) = 2.56967 5.26914 3.25274
#
# Compressibility (1/GPa) = 0.11020498
#
# Stress axis : x y z
#
# Youngs Moduli (GPa) = 158.72154 52.17119 10.48172
#
# Poissons Ratio (x) = 0.08313 0.06443
# Poissons Ratio (y) = 0.25290 -0.02523
# Poissons Ratio (z) = 0.97565 -0.12556
#
# Static dielectric constant tensor:
#      x y z
#    x 1.764530 0.000000 0.006440 
#    y 0.000000 1.748970 0.000000 
#    z 0.006440 0.000000 1.670400 
# 
# From -- ./inp_files/54641.got.cif
#   From: 2010.05.17/outbox.cif.g08.bks.cpg/sg10_28_cif.got.tgz:54641.got - 2010.06.03 11:33:40.
