data_PCOD9145934
_publ_section_title
;
Structure prediction by ZEFSAII (Michael W. Deem and Ramdas Pophale) SiO2 
 PCOD9145934
Probable space group: P 2/M
;
_chemical_formula_sum "Si O2"
_cell_formula_units_Z 20
_cell_length_a 13.772605
_cell_length_b 14.584478
_cell_length_c 8.771659
_cell_angle_alpha 90.000000
_cell_angle_beta 31.839402
_cell_angle_gamma 90.000000
_cell_volume 929.488948
_symmetry_space_group_name_H-M "P 2/M"
_symmetry_group_IT_number 10
_symmetry_cell_setting 'monoclinic'
loop_
_space_group_symop_operation_xyz
x,y,z
-x,y,-z
-x,-y,-z
x,-y,z
loop_
_atom_site_type_symbol
_atom_site_label
_atom_site_fract_x
_atom_site_fract_y
_atom_site_fract_z
Si Si1 0.345158 0.296717 0.326082
Si Si2 0.200906 0.267735 0.821527
Si Si3 0.016936 0.391540 0.303485
Si Si4 0.232406 0.104348 0.344198
Si Si5 0.210863 0.896834 0.023476
O O1 0.353857 0.299208 0.496751
O O2 0.174912 0.362459 0.514843
O O3 0.304034 0.189658 0.344337
O O4 0.500000 0.324469 0.000000
O O5 0.254355 0.174033 0.833453
O O6 0.000000 0.257151 0.000000
O O7 0.166331 0.339609 0.002981
O O8 0.045996 0.500000 0.264340
O O9 0.000000 0.357854 0.500000
O O10 0.280079 0.122673 0.102821
O O11 0.011576 0.105599 0.659455
O O12 0.290889 0.000000 0.305290
O O13 0.265278 0.000000 0.910600
#
# Coordination Sequence:
#
# PCOD9145934 Si02
#       5
#     4   4   4   4   4
#     4  11  23  36  53  82 117 145 172 218 275 318
#     4  10  19  32  54  82 108 140 180 221 266 316
#     4  10  21  40  64  82 101 136 180 222 265 323
#     4   9  17  31  52  76 109 147 181 220 264 310
#     4   9  16  29  53  80 103 139 190 232 256 297
#
# _framework density 21.517199000000002
#
# number of rings (size 3 to 8) (size 9 to 14) (size 15 to 20)
#    0.000    2.200    4.000    2.400    0.000    5.600 
#    0.000    4.000    0.000    4.800    0.000    0.000 
#    0.000    0.000    0.000    0.000    0.000    0.000 
#
# Total GULP energy -111636.758339 kJ/mol
# GULP energy per Si atom -5581.837917 kJ/mol
# Density = 2.146823 g / cm^3
# Si number density = 21.517199 Si / 1000 Ang^3
#
#
#
# Elastic Constant Matrix: (Units=GPa)
#
#
# Indices 1 2 3 4 5 6 
#
# 1 23.3953 22.3277 23.7700 0.0000 23.1759 0.0000
# 2 22.3277 52.7327 29.4504 0.0000 28.5326 0.0000
# 3 23.7700 29.4504 142.0214 0.0000 43.5248 0.0000
# 4 0.0000 0.0000 0.0000 28.0237 0.0000 33.7806
# 5 23.1759 28.5326 43.5248 0.0000 42.8223 0.0000
# 6 0.0000 0.0000 0.0000 33.7806 0.0000 40.8657
#
#
#
# Elastic Compliance Matrix: (Units=1/GPa)
#
#
# Indices 1 2 3 4 5 6 
#
# 1 0.105863 -0.021615 -0.000132 0.000000 -0.042758 0.000000
# 2 -0.021615 0.034070 -0.000109 0.000000 -0.010892 0.000000
# 3 -0.000132 -0.000109 0.010228 0.000000 -0.010251 0.000000
# 4 0.000000 0.000000 0.000000 10.023048 0.000000 -8.285299
# 5 -0.042758 -0.010892 -0.010251 0.000000 0.064170 0.000000
# 6 0.000000 0.000000 0.000000 -8.285299 0.000000 6.873304
#
#
# Mechanical properties :
#
#
# Convention : Reuss Voigt Hill
#
# Bulk Modulus (GPa) = 9.39422 41.02730 25.21076
# Shear Modulus (GPa) = 0.29087 31.84909 16.06998
#
# Velocity S-wave (km/s) = 0.36807 3.85147 2.73581
# Velocity P-wave (km/s) = 2.13448 6.23595 4.66064
#
# Compressibility (1/GPa) = 0.10644841
#
# Stress axis : x y z
#
# Youngs Moduli (GPa) = 9.44614 29.35154 97.77497
#
# Poissons Ratio (x) = 0.63442 0.01292
# Poissons Ratio (y) = 0.20417 0.01070
# Poissons Ratio (z) = 0.00125 0.00321
#
# Static dielectric constant tensor:
#      x y z
#    x 1.854130 0.000000 -0.001410 
#    y 0.000000 1.743180 0.000000 
#    z -0.001410 0.000000 1.846380 
# 
# From -- ./inp_files/18507.got.cif
#   From: 2010.05.17/outbox.cif.g08.bks.cpg/sg10_10_cif.got.tgz:18507.got - 2010.06.03 11:33:40.
