data_PCOD9145222
_publ_section_title
;
Structure prediction by ZEFSAII (Michael W. Deem and Ramdas Pophale) SiO2 
 PCOD9145222
Probable space group: P 2/M
;
_chemical_formula_sum "Si O2"
_cell_formula_units_Z 32
_cell_length_a 12.739740
_cell_length_b 8.230008
_cell_length_c 32.579878
_cell_angle_alpha 90.000000
_cell_angle_beta 151.938141
_cell_angle_gamma 90.000000
_cell_volume 1606.942218
_symmetry_space_group_name_H-M "P 2/M"
_symmetry_group_IT_number 10
_symmetry_cell_setting 'monoclinic'
loop_
_space_group_symop_operation_xyz
x,y,z
-x,y,-z
-x,-y,-z
x,-y,z
loop_
_atom_site_type_symbol
_atom_site_label
_atom_site_fract_x
_atom_site_fract_y
_atom_site_fract_z
Si Si1 0.252299 0.186609 0.572552
Si Si2 0.629390 0.196047 0.002665
Si Si3 0.527762 0.806770 0.268776
Si Si4 0.666403 0.312409 0.486971
Si Si5 0.768410 0.806145 0.191020
Si Si6 0.131103 0.305705 0.683059
Si Si7 0.864498 0.307598 0.820652
Si Si8 0.210939 0.695450 0.298237
O O1 0.376978 0.255554 0.654983
O O2 0.270277 0.297383 0.539090
O O3 0.000000 0.175522 0.500000
O O4 0.325885 0.000000 0.588337
O O5 0.873459 0.271466 0.085930
O O6 0.654758 0.000000 0.010623
O O7 0.500000 0.237990 0.000000
O O8 0.466389 0.247655 0.909518
O O9 0.678174 0.737996 0.284231
O O10 0.268350 0.767098 0.186464
O O11 0.558493 0.000000 0.278317
O O12 0.646956 0.500000 0.493670
O O13 0.414284 0.242281 0.397450
O O14 0.882559 0.241120 0.584840
O O15 0.798586 0.758056 0.248442
O O16 0.974111 0.735892 0.236098
O O17 0.777403 0.000000 0.190013
O O18 0.113747 0.500000 0.678235
O O19 0.827429 0.500000 0.808395
O O20 0.786620 0.244354 0.748311
O O21 0.235492 0.500000 0.305005
#
# Coordination Sequence:
#
# PCOD9145222 Si02
#       8
#     4   4   4   4   4   4   4   4
#     4  10  19  31  51  82 116 152 198 249 291 337
#     4  10  21  40  65  92 121 152 192 244 306 367
#     4  11  22  37  59  87 124 163 201 247 299 353
#     4  10  21  36  56  84 120 162 202 244 294 349
#     4  11  24  42  64  87 117 157 200 247 301 362
#     4  11  24  41  61  84 119 166 209 248 292 350
#     4  11  22  36  61  96 127 154 192 247 304 355
#     4  10  21  37  58  88 124 157 196 244 297 355
#
# _framework density 19.913598
#
# number of rings (size 3 to 8) (size 9 to 14) (size 15 to 20)
#    0.000    1.500    3.750    1.500    0.000    4.000 
#    0.000    3.125    0.000    3.750    0.000    0.000 
#    0.000    0.000    0.000    0.000    0.000    0.000 
#
# Total GULP energy -178537.294077 kJ/mol
# GULP energy per Si atom -5579.290440 kJ/mol
# Density = 1.986827 g / cm^3
# Si number density = 19.913598 Si / 1000 Ang^3
#
#
#
# Elastic Constant Matrix: (Units=GPa)
#
#
# Indices 1 2 3 4 5 6 
#
# 1 47.1031 -9.3690 39.0655 0.0000 -1.5191 0.0000
# 2 -9.3690 14.5363 9.8211 0.0000 -1.2738 0.0000
# 3 39.0655 9.8211 125.0171 0.0000 2.4871 0.0000
# 4 0.0000 0.0000 0.0000 29.4806 0.0000 5.6841
# 5 -1.5191 -1.2738 2.4871 0.0000 32.5612 0.0000
# 6 0.0000 0.0000 0.0000 5.6841 0.0000 17.3481
#
#
#
# Elastic Compliance Matrix: (Units=1/GPa)
#
#
# Indices 1 2 3 4 5 6 
#
# 1 0.043009 0.039377 -0.016629 0.000000 0.004817 0.000000
# 2 0.039377 0.109054 -0.021025 0.000000 0.007709 0.000000
# 3 -0.016629 -0.021025 0.014901 0.000000 -0.002737 0.000000
# 4 0.000000 0.000000 0.000000 0.036208 0.000000 -0.011864
# 5 0.004817 0.007709 -0.002737 0.000000 0.031447 0.000000
# 6 0.000000 0.000000 0.000000 -0.011864 0.000000 0.061530
#
#
# Mechanical properties :
#
#
# Convention : Reuss Voigt Hill
#
# Bulk Modulus (GPa) = 5.86816 29.52130 17.69473
# Shear Modulus (GPa) = 14.30591 25.68724 19.99657
#
# Velocity S-wave (km/s) = 2.68320 3.59546 3.17230
# Velocity P-wave (km/s) = 3.54297 5.66510 4.72472
#
# Compressibility (1/GPa) = 0.17041116
#
# Stress axis : x y z
#
# Youngs Moduli (GPa) = 23.25094 9.16977 67.10851
#
# Poissons Ratio (x) = -0.36108 1.11593
# Poissons Ratio (y) = -0.91556 1.41097
# Poissons Ratio (z) = 0.38663 0.19280
#
# Static dielectric constant tensor:
#      x y z
#    x 1.691800 0.000000 0.034610 
#    y 0.000000 1.717250 0.000000 
#    z 0.034610 0.000000 1.771120 
# 
# From -- ./inp_files/95033.got.cif
#   From: 2010.05.17/outbox.cif.g08.bks.cpg/sg10_48_cif.got.tgz:95033.got - 2010.06.03 11:33:40.
