data_PCOD9145537
_publ_section_title
;
Structure prediction by ZEFSAII (Michael W. Deem and Ramdas Pophale) SiO2 
 PCOD9145537
Probable space group: P 2/M
;
_chemical_formula_sum "Si O2"
_cell_formula_units_Z 30
_cell_length_a 11.557681
_cell_length_b 7.617037
_cell_length_c 14.431578
_cell_angle_alpha 90.000000
_cell_angle_beta 67.661375
_cell_angle_gamma 90.000000
_cell_volume 1175.142642
_symmetry_space_group_name_H-M "P 2/M"
_symmetry_group_IT_number 10
_symmetry_cell_setting 'monoclinic'
loop_
_space_group_symop_operation_xyz
x,y,z
-x,y,-z
-x,-y,-z
x,-y,z
loop_
_atom_site_type_symbol
_atom_site_label
_atom_site_fract_x
_atom_site_fract_y
_atom_site_fract_z
Si Si1 0.472159 0.786951 0.217843
Si Si2 0.761373 0.684966 0.472430
Si Si3 0.299081 0.500000 0.319639
Si Si4 0.725500 0.788600 0.033622
Si Si5 0.384753 0.798548 0.643615
Si Si6 0.016927 0.802709 0.396423
Si Si7 0.870104 0.205265 0.819743
Si Si8 0.131746 0.706255 0.827091
O O1 0.357650 0.658362 0.236806
O O2 0.523719 0.727516 0.304659
O O3 0.450019 0.000000 0.224095
O O4 0.587264 0.747998 0.113292
O O5 0.812604 0.500000 0.420154
O O6 0.737519 0.651610 0.587686
O O7 0.637338 0.720538 0.451292
O O8 0.871067 0.817095 0.414470
O O9 0.766990 0.721022 0.920701
O O10 0.731299 0.000000 0.028439
O O11 0.826882 0.731240 0.079236
O O12 0.248785 0.782143 0.733969
O O13 0.418748 0.000000 0.621965
O O14 0.094250 0.713463 0.291201
O O15 0.000000 0.708611 0.500000
O O16 0.066911 0.000000 0.397615
O O17 0.001115 0.210790 0.836541
O O18 0.840765 0.000000 0.810739
O O19 0.122079 0.500000 0.812222
#
# Coordination Sequence:
#
# PCOD9145537 Si02
#       8
#     4   4   2   4   4   4   4   4
#     4   9  20  36  53  78 111 151 193 236 280 326
#     4  10  22  35  52  80 103 144 183 227 282 334
#     4  10  24  37  57  78 110 151 190 246 283 331
#     4   9  19  33  50  75 107 149 189 223 270 325
#     4  10  19  32  51  73 107 151 190 231 274 325
#     4  10  21  38  61  86 113 146 184 231 284 341
#     4  10  19  33  53  76 108 146 183 223 273 336
#     4  11  20  28  45  75 113 148 184 222 265 325
#
# _framework density 25.528817
#
# number of rings (size 3 to 8) (size 9 to 14) (size 15 to 20)
#    0.400    1.733    1.333    3.200    4.667    4.533 
#    0.000    1.333    0.000    0.000    0.000    1.867 
#    0.000    5.333    0.000    0.000    0.000    0.000 
#
# Total GULP energy -167061.333965 kJ/mol
# GULP energy per Si atom -5568.711132 kJ/mol
# Density = 2.547071 g / cm^3
# Si number density = 25.528817 Si / 1000 Ang^3
#
#
#
# Elastic Constant Matrix: (Units=GPa)
#
#
# Indices 1 2 3 4 5 6 
#
# 1 88.2699 4.3098 39.9585 0.0000 -13.4884 0.0000
# 2 4.3098 82.4529 11.3263 0.0000 -8.4562 0.0000
# 3 39.9585 11.3263 197.6695 0.0000 -5.7214 0.0000
# 4 0.0000 0.0000 0.0000 4.8456 0.0000 -51.5193
# 5 -13.4884 -8.4562 -5.7214 0.0000 34.1910 0.0000
# 6 0.0000 0.0000 0.0000 -51.5193 0.0000 -38.4842
#
#
#
# Elastic Compliance Matrix: (Units=1/GPa)
#
#
# Indices 1 2 3 4 5 6 
#
# 1 0.013208 0.000153 -0.002539 0.000000 0.004824 0.000000
# 2 0.000153 0.012523 -0.000660 0.000000 0.003047 0.000000
# 3 -0.002539 -0.000660 0.005603 0.000000 -0.000227 0.000000
# 4 0.000000 0.000000 0.000000 0.013547 0.000000 -0.018136
# 5 0.004824 0.003047 -0.000227 0.000000 0.031866 0.000000
# 6 0.000000 0.000000 0.000000 -0.018136 0.000000 -0.001706
#
#
# Mechanical properties :
#
#
# Convention : Reuss Voigt Hill
#
# Bulk Modulus (GPa) = 39.61636 53.28682 46.45159
# Shear Modulus (GPa) = 55.83534 20.96364 38.39949
#
# Velocity S-wave (km/s) = 4.68177 2.86873 3.88256
# Velocity P-wave (km/s) = 6.69158 5.64724 6.19147
#
# Compressibility (1/GPa) = 0.02524209
#
# Stress axis : x y z
#
# Youngs Moduli (GPa) = 75.71220 79.85075 178.46047
#
# Poissons Ratio (x) = -0.01223 0.45313
# Poissons Ratio (y) = -0.01159 0.11784
# Poissons Ratio (z) = 0.19224 0.05273
#
# Static dielectric constant tensor:
#      x y z
#    x 2.129290 0.000000 0.059490 
#    y 0.000000 2.012640 0.000000 
#    z 0.059490 0.000000 2.055720 
# 
# From -- ./inp_files/49738.got.cif
#   From: 2010.05.17/outbox.cif.g08.bks.cpg/sg10_25_cif.got.tgz:49738.got - 2010.06.03 11:33:40.
