data_PCOD9145762
_publ_section_title
;
Structure prediction by ZEFSAII (Michael W. Deem and Ramdas Pophale) SiO2 
 PCOD9145762
Probable space group: P 2/M
;
_chemical_formula_sum "Si O2"
_cell_formula_units_Z 32
_cell_length_a 17.405068
_cell_length_b 9.314166
_cell_length_c 28.416068
_cell_angle_alpha 90.000000
_cell_angle_beta 23.242078
_cell_angle_gamma 90.000000
_cell_volume 1817.855128
_symmetry_space_group_name_H-M "P 2/M"
_symmetry_group_IT_number 10
_symmetry_cell_setting 'monoclinic'
loop_
_space_group_symop_operation_xyz
x,y,z
-x,y,-z
-x,-y,-z
x,-y,z
loop_
_atom_site_type_symbol
_atom_site_label
_atom_site_fract_x
_atom_site_fract_y
_atom_site_fract_z
Si Si1 0.063945 0.329724 0.777533
Si Si2 0.598658 0.669263 0.677718
Si Si3 0.176227 0.329292 0.607065
Si Si4 0.019473 0.331515 0.597437
Si Si5 0.701313 0.169579 0.715869
Si Si6 0.442915 0.163916 0.587690
Si Si7 0.259843 0.833405 0.986914
Si Si8 0.206944 0.170626 0.905528
O O1 0.079249 0.500000 0.775513
O O2 0.088458 0.299506 0.708008
O O3 0.242349 0.250588 0.703289
O O4 0.864450 0.268558 0.910106
O O5 0.570706 0.500000 0.702604
O O6 0.762958 0.684967 0.545637
O O7 0.681521 0.746894 0.677738
O O8 0.392530 0.742594 0.782070
O O9 0.218564 0.500000 0.580959
O O10 0.032409 0.294990 0.645242
O O11 0.377214 0.243070 0.489147
O O12 0.966230 0.500000 0.621980
O O13 0.871683 0.235421 0.651242
O O14 0.491817 0.187141 0.858996
O O15 0.729561 0.000000 0.691199
O O16 0.500000 0.162351 0.500000
O O17 0.419761 0.000000 0.616595
O O18 0.205408 0.807929 0.962801
O O19 0.214887 0.000000 0.022965
O O20 0.236610 0.000000 0.880579
O O21 0.000000 0.212291 0.000000
#
# Coordination Sequence:
#
# PCOD9145762 Si02
#       8
#     4   4   4   4   4   4   4   4
#     4  10  19  32  53  76 100 137 177 210 250 301
#     4  10  20  34  54  79 105 135 170 208 253 305
#     4   9  19  35  51  73 106 137 170 212 253 299
#     4  10  21  36  54  77 105 134 166 211 261 303
#     4  10  21  37  56  77 101 132 170 211 257 309
#     4   9  17  30  49  72  99 132 168 207 250 295
#     4   9  19  35  53  74 101 133 171 213 254 301
#     4   9  19  36  55  77 108 141 171 209 255 301
#
# _framework density 17.603162999999999
#
# number of rings (size 3 to 8) (size 9 to 14) (size 15 to 20)
#    0.000    2.500    0.000    2.625    0.000    8.750 
#    0.000    3.125    0.000    3.750    0.000    0.000 
#    0.000    0.000    0.000    0.000    0.000    0.000 
#
# Total GULP energy -178545.286372 kJ/mol
# GULP energy per Si atom -5579.540199 kJ/mol
# Density = 1.756310 g / cm^3
# Si number density = 17.603163 Si / 1000 Ang^3
#
#
#
# Elastic Constant Matrix: (Units=GPa)
#
#
# Indices 1 2 3 4 5 6 
#
# 1 71.6886 41.9003 34.0801 0.0000 -27.0651 0.0000
# 2 41.9003 75.8929 51.8328 0.0000 -9.1508 0.0000
# 3 34.0801 51.8328 65.8757 0.0000 -10.3896 0.0000
# 4 0.0000 0.0000 0.0000 35.3446 0.0000 -8.1806
# 5 -27.0651 -9.1508 -10.3896 0.0000 18.6038 0.0000
# 6 0.0000 0.0000 0.0000 -8.1806 0.0000 17.5397
#
#
#
# Elastic Compliance Matrix: (Units=1/GPa)
#
#
# Indices 1 2 3 4 5 6 
#
# 1 0.047929 -0.018920 -0.000416 0.000000 0.060189 0.000000
# 2 -0.018920 0.035997 -0.022024 0.000000 -0.022119 0.000000
# 3 -0.000416 -0.022024 0.033906 0.000000 0.007498 0.000000
# 4 0.000000 0.000000 0.000000 0.031717 0.000000 0.014793
# 5 0.060189 -0.022119 0.007498 0.000000 0.134624 0.000000
# 6 0.000000 0.000000 0.000000 0.014793 0.000000 0.063913
#
#
# Mechanical properties :
#
#
# Convention : Reuss Voigt Hill
#
# Bulk Modulus (GPa) = 28.47945 52.12039 40.29992
# Shear Modulus (GPa) = 11.29921 20.00723 15.65322
#
# Velocity S-wave (km/s) = 2.53629 3.37496 2.98523
# Velocity P-wave (km/s) = 4.97903 6.69776 5.90130
#
# Compressibility (1/GPa) = 0.03511304
#
# Stress axis : x y z
#
# Youngs Moduli (GPa) = 20.86428 27.78035 29.49291
#
# Poissons Ratio (x) = 0.52560 0.01227
# Poissons Ratio (y) = 0.39475 0.64954
# Poissons Ratio (z) = 0.00868 0.61182
#
# Static dielectric constant tensor:
#      x y z
#    x 1.589520 0.000000 0.007330 
#    y 0.000000 1.591400 0.000000 
#    z 0.007330 0.000000 1.586580 
# 
# From -- ./inp_files/87168.got.cif
#   From: 2010.05.17/outbox.cif.g08.bks.cpg/sg10_44_cif.got.tgz:87168.got - 2010.06.03 11:33:40.
