data_PCOD9145257
_publ_section_title
;
Structure prediction by ZEFSAII (Michael W. Deem and Ramdas Pophale) SiO2 
 PCOD9145257
Probable space group: P 2/M
;
_chemical_formula_sum "Si O2"
_cell_formula_units_Z 30
_cell_length_a 22.239825
_cell_length_b 14.340571
_cell_length_c 22.490974
_cell_angle_alpha 90.000000
_cell_angle_beta 12.788511
_cell_angle_gamma 90.000000
_cell_volume 1587.783914
_symmetry_space_group_name_H-M "P 2/M"
_symmetry_group_IT_number 10
_symmetry_cell_setting 'monoclinic'
loop_
_space_group_symop_operation_xyz
x,y,z
-x,y,-z
-x,-y,-z
x,-y,z
loop_
_atom_site_type_symbol
_atom_site_label
_atom_site_fract_x
_atom_site_fract_y
_atom_site_fract_z
Si Si1 0.277465 0.000000 0.263892
Si Si2 0.794323 0.387750 0.066638
Si Si3 0.349875 0.387161 0.585760
Si Si4 0.054331 0.113068 0.638072
Si Si5 0.492026 0.833858 0.128198
Si Si6 0.621358 0.393938 0.702368
Si Si7 0.088124 0.700586 0.173733
Si Si8 0.707136 0.656673 0.750815
O O1 0.318488 0.912818 0.264494
O O2 0.000000 0.000000 0.500000
O O3 0.500000 0.000000 0.000000
O O4 0.795551 0.500000 0.056484
O O5 0.514060 0.360109 0.368181
O O6 0.853130 0.338809 0.947914
O O7 0.035843 0.364390 0.879865
O O8 0.500000 0.351829 0.500000
O O9 0.364461 0.500000 0.574321
O O10 0.969772 0.188364 0.770590
O O11 0.333944 0.158221 0.343818
O O12 0.070407 0.000000 0.633156
O O13 0.802960 0.134182 0.835297
O O14 0.440158 0.749114 0.133132
O O15 0.547970 0.500000 0.756490
O O16 0.736271 0.395131 0.659085
O O17 0.842224 0.353201 0.443735
O O18 0.353728 0.328780 0.956418
O O19 0.000000 0.670388 0.500000
O O20 0.500000 0.616178 0.000000
#
# Coordination Sequence:
#
# PCOD9145257 Si02
#       8
#     2   4   4   4   4   4   4   4
#     4  12  22  34  52  80 100 128 166 214 269 348
#     4  10  19  31  52  81 112 150 188 221 261 309
#     4   9  17  30  49  78 118 156 186 217 256 305
#     4  12  22  40  62  80 107 142 178 220 283 343
#     4  12  22  40  56  78 106 135 170 219 281 346
#     4  12  25  42  62  81 106 145 185 231 287 334
#     4  12  23  41  60  84 115 144 188 237 275 326
#     4  12  24  40  59  78 104 135 178 228 281 344
#
# _framework density 18.894259999999999
#
# number of rings (size 3 to 8) (size 9 to 14) (size 15 to 20)
#    0.000    0.667    4.000    5.600    0.000    3.200 
#    0.000    0.000    0.000    0.000    0.000    0.000 
#    0.000    3.200    0.000    0.000    0.000    0.000 
#
# Total GULP energy -167263.609864 kJ/mol
# GULP energy per Si atom -5575.453662 kJ/mol
# Density = 1.885126 g / cm^3
# Si number density = 18.894260 Si / 1000 Ang^3
#
#
#
# Elastic Constant Matrix: (Units=GPa)
#
#
# Indices 1 2 3 4 5 6 
#
# 1 53.8634 0.6715 -9.9259 0.0000 2.8365 0.0000
# 2 0.6715 83.2121 0.3103 0.0000 7.2478 0.0000
# 3 -9.9259 0.3103 84.1717 0.0000 5.1030 0.0000
# 4 0.0000 0.0000 0.0000 18.1759 0.0000 2.7731
# 5 2.8365 7.2478 5.1030 0.0000 23.0467 0.0000
# 6 0.0000 0.0000 0.0000 2.7731 0.0000 14.0346
#
#
#
# Elastic Compliance Matrix: (Units=1/GPa)
#
#
# Indices 1 2 3 4 5 6 
#
# 1 0.019168 0.000091 0.002437 0.000000 -0.002927 0.000000
# 2 0.000091 0.012359 0.000204 0.000000 -0.003943 0.000000
# 3 0.002437 0.000204 0.012355 0.000000 -0.003100 0.000000
# 4 0.000000 0.000000 0.000000 0.056728 0.000000 -0.011209
# 5 -0.002927 -0.003943 -0.003100 0.000000 0.045677 0.000000
# 6 0.000000 0.000000 0.000000 -0.011209 0.000000 0.073467
#
#
# Mechanical properties :
#
#
# Convention : Reuss Voigt Hill
#
# Bulk Modulus (GPa) = 20.26422 22.59547 21.42985
# Shear Modulus (GPa) = 21.66965 26.39754 24.03360
#
# Velocity S-wave (km/s) = 3.39025 3.74186 3.57039
# Velocity P-wave (km/s) = 5.10621 5.53657 5.32574
#
# Compressibility (1/GPa) = 0.04934806
#
# Stress axis : x y z
#
# Youngs Moduli (GPa) = 52.17118 80.90980 80.93823
#
# Poissons Ratio (x) = -0.00738 -0.19728
# Poissons Ratio (y) = -0.00476 -0.01653
# Poissons Ratio (z) = -0.12717 -0.01653
#
# Static dielectric constant tensor:
#      x y z
#    x 1.699580 0.000000 0.018260 
#    y 0.000000 1.702360 0.000000 
#    z 0.018260 0.000000 1.713620 
# 
# From -- ./inp_files/91044.got.cif
#   From: 2010.05.17/outbox.cif.g08.bks.cpg/sg10_46_cif.got.tgz:91044.got - 2010.06.03 11:33:40.
