data_PCOD9145509
_publ_section_title
;
Structure prediction by ZEFSAII (Michael W. Deem and Ramdas Pophale) SiO2 
 PCOD9145509
Probable space group: P 2/M
;
_chemical_formula_sum "Si O2"
_cell_formula_units_Z 32
_cell_length_a 30.702747
_cell_length_b 8.071287
_cell_length_c 22.495434
_cell_angle_alpha 90.000000
_cell_angle_beta 19.347395
_cell_angle_gamma 90.000000
_cell_volume 1846.839989
_symmetry_space_group_name_H-M "P 2/M"
_symmetry_group_IT_number 10
_symmetry_cell_setting 'monoclinic'
loop_
_space_group_symop_operation_xyz
x,y,z
-x,y,-z
-x,-y,-z
x,-y,z
loop_
_atom_site_type_symbol
_atom_site_label
_atom_site_fract_x
_atom_site_fract_y
_atom_site_fract_z
Si Si1 0.356132 0.698694 0.915037
Si Si2 0.627363 0.297411 0.372379
Si Si3 0.099449 0.700001 0.037429
Si Si4 0.626731 0.299986 0.509686
Si Si5 0.918684 0.802513 0.162538
Si Si6 0.054981 0.800676 0.520831
Si Si7 0.900120 0.301298 0.828243
Si Si8 0.206684 0.199331 0.217027
O O1 0.355993 0.500000 0.909005
O O2 0.497303 0.760747 0.710995
O O3 0.234120 0.761751 0.031161
O O4 0.324461 0.737882 0.024503
O O5 0.500000 0.243784 0.500000
O O6 0.627728 0.500000 0.372009
O O7 0.621918 0.242520 0.447503
O O8 0.761181 0.242523 0.168691
O O9 0.102926 0.500000 0.035079
O O10 0.084161 0.760723 0.124771
O O11 0.988518 0.748400 0.133269
O O12 0.620954 0.500000 0.516582
O O13 0.767585 0.251624 0.354185
O O14 0.923018 0.000000 0.153888
O O15 0.000000 0.736716 0.000000
O O16 0.177379 0.743926 0.322301
O O17 0.023792 0.738065 0.626640
O O18 0.924250 0.753884 0.651701
O O19 0.059668 0.000000 0.517003
O O20 0.887758 0.500000 0.846708
O O21 0.213174 0.000000 0.209609
#
# Coordination Sequence:
#
# PCOD9145509 Si02
#       8
#     4   4   4   4   4   4   4   4
#     4   9  17  28  44  71 102 125 151 192 237 279
#     4   9  16  27  47  72  94 119 152 187 224 273
#     4  10  19  32  51  71  92 122 159 194 233 281
#     4  10  19  32  51  71  92 122 159 194 233 281
#     4  11  23  37  51  67  90 119 158 207 245 274
#     4   8  14  25  41  62  91 129 166 191 218 268
#     4   9  17  28  44  71 102 125 151 192 237 279
#     4   8  14  25  41  62  91 129 166 191 218 268
#
# _framework density 17.326893999999999
#
# number of rings (size 3 to 8) (size 9 to 14) (size 15 to 20)
#    0.000    2.750    1.250    1.875    0.000    5.000 
#    0.000    2.500    0.000    3.000    0.000    0.875 
#    0.000    7.000    0.000    0.000    0.000    0.000 
#
# Total GULP energy -178254.479133 kJ/mol
# GULP energy per Si atom -5570.452473 kJ/mol
# Density = 1.728746 g / cm^3
# Si number density = 17.326894 Si / 1000 Ang^3
#
#
#
# Elastic Constant Matrix: (Units=GPa)
#
#
# Indices 1 2 3 4 5 6 
#
# 1 113.2765 9.4081 114.1778 0.0000 11.0147 0.0000
# 2 9.4081 8.8121 13.3992 0.0000 5.3213 0.0000
# 3 114.1778 13.3992 143.6955 0.0000 33.9169 0.0000
# 4 0.0000 0.0000 0.0000 11.4324 0.0000 6.0201
# 5 11.0147 5.3213 33.9169 0.0000 32.2873 0.0000
# 6 0.0000 0.0000 0.0000 6.0201 0.0000 6.7208
#
#
#
# Elastic Compliance Matrix: (Units=1/GPa)
#
#
# Indices 1 2 3 4 5 6 
#
# 1 0.082706 -0.001997 -0.078383 0.000000 0.054454 0.000000
# 2 -0.001997 0.135720 -0.007912 0.000000 -0.013376 0.000000
# 3 -0.078383 -0.007912 0.084249 0.000000 -0.060457 0.000000
# 4 0.000000 0.000000 0.000000 0.165563 0.000000 -0.148302
# 5 0.054454 -0.013376 -0.060457 0.000000 0.078108 0.000000
# 6 0.000000 0.000000 0.000000 -0.148302 0.000000 0.281631
#
#
# Mechanical properties :
#
#
# Convention : Reuss Voigt Hill
#
# Bulk Modulus (GPa) = 7.93077 59.97271 33.95174
# Shear Modulus (GPa) = 4.77741 18.67470 11.72606
#
# Velocity S-wave (km/s) = 1.66229 3.28653 2.60427
# Velocity P-wave (km/s) = 2.87600 7.00638 5.35540
#
# Compressibility (1/GPa) = 0.12609112
#
# Stress axis : x y z
#
# Youngs Moduli (GPa) = 12.09105 7.36810 11.86963
#
# Poissons Ratio (x) = 0.01471 0.93038
# Poissons Ratio (y) = 0.02414 0.09391
# Poissons Ratio (z) = 0.94774 0.05829
#
# Static dielectric constant tensor:
#      x y z
#    x 1.580050 0.000000 0.034090 
#    y 0.000000 1.616560 0.000000 
#    z 0.034090 0.000000 1.606400 
# 
# From -- ./inp_files/87170.got.cif
#   From: 2010.05.17/outbox.cif.g08.bks.cpg/sg10_44_cif.got.tgz:87170.got - 2010.06.03 11:33:40.
