data_PCOD9145667
_publ_section_title
;
Structure prediction by ZEFSAII (Michael W. Deem and Ramdas Pophale) SiO2 
 PCOD9145667
Probable space group: P 2/M
;
_chemical_formula_sum "Si O2"
_cell_formula_units_Z 32
_cell_length_a 12.567533
_cell_length_b 9.004800
_cell_length_c 17.021163
_cell_angle_alpha 90.000000
_cell_angle_beta 124.160355
_cell_angle_gamma 90.000000
_cell_volume 1593.915255
_symmetry_space_group_name_H-M "P 2/M"
_symmetry_group_IT_number 10
_symmetry_cell_setting 'monoclinic'
loop_
_space_group_symop_operation_xyz
x,y,z
-x,y,-z
-x,-y,-z
x,-y,z
loop_
_atom_site_type_symbol
_atom_site_label
_atom_site_fract_x
_atom_site_fract_y
_atom_site_fract_z
Si Si1 0.010997 0.823417 0.334907
Si Si2 0.070594 0.179022 0.867787
Si Si3 0.553973 0.670358 0.222043
Si Si4 0.258095 0.321856 0.484743
Si Si5 0.535007 0.329702 0.630837
Si Si6 0.696557 0.824960 0.928887
Si Si7 0.802160 0.177260 0.372759
Si Si8 0.785207 0.826310 0.784365
O O1 0.930758 0.782250 0.378959
O O2 0.923848 0.794468 0.222696
O O3 0.146261 0.740681 0.383590
O O4 0.036156 0.000000 0.348675
O O5 0.929397 0.235009 0.834548
O O6 0.069052 0.000000 0.880406
O O7 0.192047 0.233161 0.967393
O O8 0.584055 0.500000 0.214857
O O9 0.508841 0.671868 0.295191
O O10 0.435574 0.734630 0.123739
O O11 0.679026 0.773437 0.270664
O O12 0.258880 0.500000 0.485733
O O13 0.406401 0.272722 0.533552
O O14 0.215248 0.260308 0.552247
O O15 0.557200 0.500000 0.616418
O O16 0.669985 0.246377 0.687276
O O17 0.748688 0.815198 0.861145
O O18 0.671874 0.000000 0.934345
O O19 0.801881 0.000000 0.385384
O O20 0.788962 0.000000 0.764433
#
# Coordination Sequence:
#
# PCOD9145667 Si02
#       8
#     4   4   4   4   4   4   4   4
#     4  10  21  35  50  70  99 133 166 202 243 290
#     4   9  18  33  50  71 101 132 164 204 246 287
#     4   9  17  30  49  74 102 128 158 201 248 291
#     4  10  20  34  53  75  99 128 161 201 248 293
#     4   8  16  30  47  70  98 124 153 194 244 293
#     4   9  16  29  52  77  99 127 164 204 244 288
#     4  10  19  32  52  76  98 125 164 203 242 292
#     4   9  16  28  51  78  98 123 162 204 243 284
#
# _framework density 20.076347999999999
#
# number of rings (size 3 to 8) (size 9 to 14) (size 15 to 20)
#    0.000    2.750    0.000    2.625    0.000    7.500 
#    0.000    3.125    0.000   10.500    0.000    0.000 
#    0.000    0.000    0.000    0.000    0.000    0.000 
#
# Total GULP energy -178526.589139 kJ/mol
# GULP energy per Si atom -5578.955911 kJ/mol
# Density = 2.003065 g / cm^3
# Si number density = 20.076348 Si / 1000 Ang^3
#
#
#
# Elastic Constant Matrix: (Units=GPa)
#
#
# Indices 1 2 3 4 5 6 
#
# 1 57.7873 18.5218 30.6332 0.0000 16.0536 0.0000
# 2 18.5218 21.4160 24.5114 0.0000 -0.0223 0.0000
# 3 30.6332 24.5114 133.7187 0.0000 31.1198 0.0000
# 4 0.0000 0.0000 0.0000 -0.9565 0.0000 -1.1656
# 5 16.0536 -0.0223 31.1198 0.0000 18.8370 0.0000
# 6 0.0000 0.0000 0.0000 -1.1656 0.0000 2.2973
#
#
#
# Elastic Compliance Matrix: (Units=1/GPa)
#
#
# Indices 1 2 3 4 5 6 
#
# 1 0.044188 -0.054284 0.013983 0.000000 -0.060823 0.000000
# 2 -0.054284 0.137635 -0.038338 0.000000 0.109761 0.000000
# 3 0.013983 -0.038338 0.022885 0.000000 -0.049770 0.000000
# 4 0.000000 0.000000 0.000000 -0.646039 0.000000 -0.327792
# 5 -0.060823 0.109761 -0.049770 0.000000 0.187274 0.000000
# 6 0.000000 0.000000 0.000000 -0.327792 0.000000 0.268973
#
#
# Mechanical properties :
#
#
# Convention : Reuss Voigt Hill
#
# Bulk Modulus (GPa) = 21.08322 40.02832 30.55577
# Shear Modulus (GPa) = 26.59485 13.31929 19.95707
#
# Velocity S-wave (km/s) = 3.64357 2.57851 3.15629
# Velocity P-wave (km/s) = 5.31273 5.37087 5.34188
#
# Compressibility (1/GPa) = 0.04743108
#
# Stress axis : x y z
#
# Youngs Moduli (GPa) = 22.63033 7.26557 43.69611
#
# Poissons Ratio (x) = 0.39440 -0.61099
# Poissons Ratio (y) = 1.22846 1.67522
# Poissons Ratio (z) = -0.31643 0.27855
#
# Static dielectric constant tensor:
#      x y z
#    x 1.720100 0.000000 -0.007460 
#    y 0.000000 1.681180 0.000000 
#    z -0.007460 0.000000 1.748200 
# 
# From -- ./inp_files/70017.got.cif
#   From: 2010.05.17/outbox.cif.g08.bks.cpg/sg10_36_cif.got.tgz:70017.got - 2010.06.03 11:33:40.
