data_PCOD9145283
_publ_section_title
;
Structure prediction by ZEFSAII (Michael W. Deem and Ramdas Pophale) SiO2 
 PCOD9145283
Probable space group: P 2/M
;
_chemical_formula_sum "Si O2"
_cell_formula_units_Z 32
_cell_length_a 29.737043
_cell_length_b 7.429252
_cell_length_c 11.281439
_cell_angle_alpha 90.000000
_cell_angle_beta 150.447638
_cell_angle_gamma 90.000000
_cell_volume 1229.269086
_symmetry_space_group_name_H-M "P 2/M"
_symmetry_group_IT_number 10
_symmetry_cell_setting 'monoclinic'
loop_
_space_group_symop_operation_xyz
x,y,z
-x,y,-z
-x,-y,-z
x,-y,z
loop_
_atom_site_type_symbol
_atom_site_label
_atom_site_fract_x
_atom_site_fract_y
_atom_site_fract_z
Si Si1 0.444574 0.219367 0.987105
Si Si2 0.716177 0.219752 0.233889
Si Si3 0.105228 0.210704 0.473437
Si Si4 0.792602 0.714151 0.794032
Si Si5 0.937027 0.704103 0.957456
Si Si6 0.616943 0.214759 0.517649
Si Si7 0.104890 0.716318 0.736280
Si Si8 0.606677 0.219308 0.749234
O O1 0.514159 0.268879 0.252157
O O2 0.440481 0.000000 0.969926
O O3 0.500000 0.282796 0.000000
O O4 0.343607 0.280574 0.791079
O O5 0.819657 0.277430 0.448407
O O6 0.717949 0.000000 0.239652
O O7 0.660644 0.277330 0.988949
O O8 0.140830 0.233649 0.688595
O O9 0.007749 0.301137 0.230278
O O10 0.091179 0.000000 0.422707
O O11 0.807725 0.500000 0.824062
O O12 0.686014 0.742134 0.570294
O O13 0.845105 0.788376 0.799376
O O14 0.839132 0.784288 0.022173
O O15 0.918024 0.500000 0.875400
O O16 0.000000 0.790276 0.000000
O O17 0.646932 0.282465 0.715233
O O18 0.615128 0.000000 0.520456
O O19 0.104870 0.500000 0.742082
O O20 0.000000 0.779494 0.500000
O O21 0.500000 0.268402 0.500000
O O22 0.609678 0.000000 0.759757
#
# Coordination Sequence:
#
# PCOD9145283 Si02
#       8
#     4   4   4   4   4   4   4   4
#     4   9  17  30  48  72 104 141 177 211 256 318
#     4   9  17  29  45  72 107 139 169 208 262 318
#     4  11  22  34  55  87 118 141 171 228 286 322
#     4  10  21  37  57  80 107 141 178 226 277 319
#     4  10  22  42  62  76 100 147 198 228 259 325
#     4  10  19  31  53  81 104 135 176 218 263 317
#     4  10  19  36  59  79 107 147 186 218 262 333
#     4   9  14  25  47  73 102 134 172 210 246 302
#
# _framework density 26.031731000000001
#
# number of rings (size 3 to 8) (size 9 to 14) (size 15 to 20)
#    0.000    2.250    2.500    1.125    0.000    3.500 
#    0.000    1.250    0.000    2.250    0.000    0.000 
#    0.000    0.000    0.000    0.000    0.000    0.000 
#
# Total GULP energy -178950.627123 kJ/mol
# GULP energy per Si atom -5592.207098 kJ/mol
# Density = 2.597248 g / cm^3
# Si number density = 26.031731 Si / 1000 Ang^3
#
#
#
# Elastic Constant Matrix: (Units=GPa)
#
#
# Indices 1 2 3 4 5 6 
#
# 1 171.1264 -0.5239 19.4147 0.0000 28.7221 0.0000
# 2 -0.5239 91.1966 5.7949 0.0000 -2.1421 0.0000
# 3 19.4147 5.7949 66.3770 0.0000 23.5941 0.0000
# 4 0.0000 0.0000 0.0000 9.1799 0.0000 -0.9230
# 5 28.7221 -2.1421 23.5941 0.0000 50.4923 0.0000
# 6 0.0000 0.0000 0.0000 -0.9230 0.0000 9.0974
#
#
#
# Elastic Compliance Matrix: (Units=1/GPa)
#
#
# Indices 1 2 3 4 5 6 
#
# 1 0.006488 0.000003 -0.000703 0.000000 -0.003362 0.000000
# 2 0.000003 0.011078 -0.001360 0.000000 0.001104 0.000000
# 3 -0.000703 -0.001360 0.018309 0.000000 -0.008214 0.000000
# 4 0.000000 0.000000 0.000000 0.110056 0.000000 0.011166
# 5 -0.003362 0.001104 -0.008214 0.000000 0.025602 0.000000
# 6 0.000000 0.000000 0.000000 0.011166 0.000000 0.111055
#
#
# Mechanical properties :
#
#
# Convention : Reuss Voigt Hill
#
# Bulk Modulus (GPa) = 31.49190 42.00793 36.74992
# Shear Modulus (GPa) = 16.81843 34.02154 25.41999
#
# Velocity S-wave (km/s) = 2.54456 3.61906 3.12829
# Velocity P-wave (km/s) = 4.55596 5.79963 5.21500
#
# Compressibility (1/GPa) = 0.03175419
#
# Stress axis : x y z
#
# Youngs Moduli (GPa) = 154.13908 90.27131 54.61688
#
# Poissons Ratio (x) = -0.00027 0.03839
# Poissons Ratio (y) = -0.00046 0.07430
# Poissons Ratio (z) = 0.10833 0.12281
#
# Static dielectric constant tensor:
#      x y z
#    x 2.102350 0.000000 -0.023520 
#    y 0.000000 1.980810 0.000000 
#    z -0.023520 0.000000 2.014130 
# 
# From -- ./inp_files/49959.got.cif
#   From: 2010.05.17/outbox.cif.g08.bks.cpg/sg10_25_cif.got.tgz:49959.got - 2010.06.03 11:33:40.
