data_PCOD9145054
_publ_section_title
;
Structure prediction by ZEFSAII (Michael W. Deem and Ramdas Pophale) SiO2 
 PCOD9145054
Probable space group: P 2/M
;
_chemical_formula_sum "Si O2"
_cell_formula_units_Z 32
_cell_length_a 13.518639
_cell_length_b 9.247293
_cell_length_c 15.713348
_cell_angle_alpha 90.000000
_cell_angle_beta 70.161202
_cell_angle_gamma 90.000000
_cell_volume 1847.757275
_symmetry_space_group_name_H-M "P 2/M"
_symmetry_group_IT_number 10
_symmetry_cell_setting 'monoclinic'
loop_
_space_group_symop_operation_xyz
x,y,z
-x,y,-z
-x,-y,-z
x,-y,z
loop_
_atom_site_type_symbol
_atom_site_label
_atom_site_fract_x
_atom_site_fract_y
_atom_site_fract_z
Si Si1 0.106289 0.169343 0.913572
Si Si2 0.302079 0.669240 0.283331
Si Si3 0.347511 0.826730 0.610546
Si Si4 0.613587 0.338174 0.925817
Si Si5 0.796458 0.169671 0.944448
Si Si6 0.866333 0.673043 0.271598
Si Si7 0.426331 0.172608 0.395451
Si Si8 0.095638 0.674009 0.241981
O O1 0.113362 0.268665 0.829641
O O2 0.115514 0.000000 0.885598
O O3 0.192082 0.206868 0.959925
O O4 0.000000 0.183603 0.000000
O O5 0.293127 0.500000 0.308509
O O6 0.376910 0.680441 0.178269
O O7 0.355569 0.753435 0.344563
O O8 0.185967 0.718208 0.283666
O O9 0.240186 0.746609 0.664752
O O10 0.450493 0.781947 0.635580
O O11 0.378587 0.800267 0.503158
O O12 0.334363 0.000000 0.625152
O O13 0.659591 0.500000 0.929304
O O14 0.681937 0.213537 0.947406
O O15 0.500000 0.336063 0.000000
O O16 0.871438 0.255970 0.857734
O O17 0.819626 0.000000 0.929259
O O18 0.855515 0.500000 0.275155
O O19 0.973308 0.710656 0.292839
O O20 0.425778 0.000000 0.382515
O O21 0.102557 0.500000 0.233172
#
# Coordination Sequence:
#
# PCOD9145054 Si02
#       8
#     4   4   4   4   4   4   4   4
#     4  10  20  34  50  73 107 142 175 214 263 309
#     4   9  18  33  55  79 104 138 176 218 266 312
#     4   9  20  39  59  79 108 140 169 216 277 323
#     4   9  19  35  51  70 104 144 175 212 264 312
#     4  10  19  31  50  73  98 135 180 219 256 302
#     4  11  22  34  54  82 109 140 183 223 261 318
#     4   9  19  38  61  81 103 137 178 217 267 327
#     4   9  19  35  51  73 108 143 173 210 261 314
#
# _framework density 17.318293000000001
#
# number of rings (size 3 to 8) (size 9 to 14) (size 15 to 20)
#    0.000    2.500    1.250    2.250    0.000    6.000 
#    0.000    4.375    0.000    3.750    0.000    0.000 
#    0.000    0.000    0.000    0.000    0.000    0.000 
#
# Total GULP energy -178255.609078 kJ/mol
# GULP energy per Si atom -5570.487784 kJ/mol
# Density = 1.727888 g / cm^3
# Si number density = 17.318293 Si / 1000 Ang^3
#
#
#
# Elastic Constant Matrix: (Units=GPa)
#
#
# Indices 1 2 3 4 5 6 
#
# 1 146.2523 54.2572 72.1066 0.0000 0.2367 0.0000
# 2 54.2572 36.4766 34.3648 0.0000 3.9818 0.0000
# 3 72.1066 34.3648 57.3623 0.0000 -2.6869 0.0000
# 4 0.0000 0.0000 0.0000 7.3074 0.0000 -0.0279
# 5 0.2367 3.9818 -2.6869 0.0000 33.5858 0.0000
# 6 0.0000 0.0000 0.0000 -0.0279 0.0000 30.0020
#
#
#
# Elastic Compliance Matrix: (Units=1/GPa)
#
#
# Indices 1 2 3 4 5 6 
#
# 1 0.020872 -0.014592 -0.017486 0.000000 0.000184 0.000000
# 2 -0.014592 0.077070 -0.028358 0.000000 -0.011303 0.000000
# 3 -0.017486 -0.028358 0.056779 0.000000 0.008028 0.000000
# 4 0.000000 0.000000 0.000000 0.136847 0.000000 0.000127
# 5 0.000184 -0.011303 0.008028 0.000000 0.031755 0.000000
# 6 0.000000 0.000000 0.000000 0.000127 0.000000 0.033331
#
#
# Mechanical properties :
#
#
# Convention : Reuss Voigt Hill
#
# Bulk Modulus (GPa) = 29.54387 62.39425 45.96906
# Shear Modulus (GPa) = 10.22895 19.46989 14.84942
#
# Velocity S-wave (km/s) = 2.43295 3.35660 2.93139
# Velocity P-wave (km/s) = 4.99887 7.15042 6.16917
#
# Compressibility (1/GPa) = 0.03384797
#
# Stress axis : x y z
#
# Youngs Moduli (GPa) = 47.91150 12.97527 17.61228
#
# Poissons Ratio (x) = 0.18934 0.30797
# Poissons Ratio (y) = 0.69913 0.49944
# Poissons Ratio (z) = 0.83779 0.36795
#
# Static dielectric constant tensor:
#      x y z
#    x 1.640140 0.000000 -0.005640 
#    y 0.000000 1.584800 0.000000 
#    z -0.005640 0.000000 1.562960 
# 
# From -- ./inp_files/66546.got.cif
#   From: 2010.05.17/outbox.cif.g08.bks.cpg/sg10_34_cif.got.tgz:66546.got - 2010.06.03 11:33:40.
