data_PCOD9145137
_publ_section_title
;
Structure prediction by ZEFSAII (Michael W. Deem and Ramdas Pophale) SiO2 
 PCOD9145137
Probable space group: P 2/M
;
_chemical_formula_sum "Si O2"
_cell_formula_units_Z 30
_cell_length_a 11.903434
_cell_length_b 10.717270
_cell_length_c 25.983763
_cell_angle_alpha 90.000000
_cell_angle_beta 26.945751
_cell_angle_gamma 90.000000
_cell_volume 1502.094583
_symmetry_space_group_name_H-M "P 2/M"
_symmetry_group_IT_number 10
_symmetry_cell_setting 'monoclinic'
loop_
_space_group_symop_operation_xyz
x,y,z
-x,y,-z
-x,-y,-z
x,-y,z
loop_
_atom_site_type_symbol
_atom_site_label
_atom_site_fract_x
_atom_site_fract_y
_atom_site_fract_z
Si Si1 0.572905 0.150022 0.575670
Si Si2 0.750975 0.222070 0.921880
Si Si3 0.079489 0.150025 0.411740
Si Si4 0.359129 0.849253 0.854303
Si Si5 0.451679 0.356561 0.900185
Si Si6 0.500000 0.276438 0.500000
Si Si7 0.184745 0.856094 0.816925
Si Si8 0.963880 0.359736 0.738780
O O1 0.858238 0.190388 0.464874
O O2 0.479020 0.194265 0.559466
O O3 0.402215 0.199917 0.692144
O O4 0.561807 0.000000 0.582002
O O5 0.935372 0.149876 0.884972
O O6 0.909228 0.268648 0.808783
O O7 0.500000 0.162349 0.000000
O O8 0.651931 0.332094 0.999800
O O9 0.000000 0.199383 0.500000
O O10 0.359831 0.171619 0.281082
O O11 0.062188 0.000000 0.421432
O O12 0.345831 0.751311 0.906467
O O13 0.327283 0.000000 0.880368
O O14 0.811193 0.813159 0.125379
O O15 0.401646 0.500000 0.904919
O O16 0.748259 0.337812 0.784923
O O17 0.241007 0.349386 0.604376
O O18 0.254062 0.000000 0.795551
O O19 0.924250 0.500000 0.774431
#
# Coordination Sequence:
#
# PCOD9145137 Si02
#       8
#     4   4   4   4   4   2   4   4
#     4  10  19  31  50  81 120 153 187 229 284 351
#     4  10  21  40  61  81 110 156 204 242 285 350
#     4   9  15  28  52  80 110 154 196 228 275 347
#     4  10  20  36  61  90 121 155 198 245 293 350
#     4  10  22  41  63  85 117 157 201 249 293 345
#     4  12  20  32  56  86 116 146 184 242 296 352
#     4  10  20  36  57  84 119 155 189 241 300 346
#     4  10  21  38  59  84 113 152 197 241 296 356
#
# _framework density 19.972113
#
# number of rings (size 3 to 8) (size 9 to 14) (size 15 to 20)
#    0.000    2.000    2.667    1.600    0.000    2.933 
#    0.000    6.000    0.000    0.400    0.000    0.000 
#    0.000    0.000    0.000    0.000    0.000    0.000 
#
# Total GULP energy -167085.182640 kJ/mol
# GULP energy per Si atom -5569.506088 kJ/mol
# Density = 1.992666 g / cm^3
# Si number density = 19.972113 Si / 1000 Ang^3
#
#
#
# Elastic Constant Matrix: (Units=GPa)
#
#
# Indices 1 2 3 4 5 6 
#
# 1 119.5514 40.2172 30.2642 0.0000 -4.4564 0.0000
# 2 40.2172 52.9532 22.7018 0.0000 4.0923 0.0000
# 3 30.2642 22.7018 95.6975 0.0000 -12.0508 0.0000
# 4 0.0000 0.0000 0.0000 14.0419 0.0000 1.3673
# 5 -4.4564 4.0923 -12.0508 0.0000 36.5789 0.0000
# 6 0.0000 0.0000 0.0000 1.3673 0.0000 -11.2976
#
#
#
# Elastic Compliance Matrix: (Units=1/GPa)
#
#
# Indices 1 2 3 4 5 6 
#
# 1 0.011607 -0.008334 -0.001459 0.000000 0.001866 0.000000
# 2 -0.008334 0.027634 -0.004629 0.000000 -0.005632 0.000000
# 3 -0.001459 -0.004629 0.012573 0.000000 0.004482 0.000000
# 4 0.000000 0.000000 0.000000 0.070386 0.000000 0.008518
# 5 0.001866 -0.005632 0.004482 0.000000 0.029672 0.000000
# 6 0.000000 0.000000 0.000000 0.008518 0.000000 -0.087483
#
#
# Mechanical properties :
#
#
# Convention : Reuss Voigt Hill
#
# Bulk Modulus (GPa) = 43.53352 50.50763 47.02057
# Shear Modulus (GPa) = 49.55853 19.53255 34.54554
#
# Velocity S-wave (km/s) = 4.98676 3.13068 4.16346
# Velocity P-wave (km/s) = 7.41630 6.19775 6.83424
#
# Compressibility (1/GPa) = 0.02297081
#
# Stress axis : x y z
#
# Youngs Moduli (GPa) = 86.15438 36.18708 79.53253
#
# Poissons Ratio (x) = 0.30159 0.11601
# Poissons Ratio (y) = 0.71803 0.36816
# Poissons Ratio (z) = 0.12567 0.16751
#
# Static dielectric constant tensor:
#      x y z
#    x 1.742100 0.000000 -0.023920 
#    y 0.000000 1.675060 0.000000 
#    z -0.023920 0.000000 1.758070 
# 
# From -- ./inp_files/70489.got.cif
#   From: 2010.05.17/outbox.cif.g08.bks.cpg/sg10_36_cif.got.tgz:70489.got - 2010.06.03 11:33:40.
