data_PCOD9145318
_publ_section_title
;
Structure prediction by ZEFSAII (Michael W. Deem and Ramdas Pophale) SiO2 
 PCOD9145318
Probable space group: P 2/M
;
_chemical_formula_sum "Si O2"
_cell_formula_units_Z 28
_cell_length_a 23.357176
_cell_length_b 12.507754
_cell_length_c 12.367705
_cell_angle_alpha 90.000000
_cell_angle_beta 152.911343
_cell_angle_gamma 90.000000
_cell_volume 1645.325847
_symmetry_space_group_name_H-M "P 2/M"
_symmetry_group_IT_number 10
_symmetry_cell_setting 'monoclinic'
loop_
_space_group_symop_operation_xyz
x,y,z
-x,y,-z
-x,-y,-z
x,-y,z
loop_
_atom_site_type_symbol
_atom_site_label
_atom_site_fract_x
_atom_site_fract_y
_atom_site_fract_z
Si Si1 0.151583 0.379734 0.740980
Si Si2 0.132742 0.500000 0.351942
Si Si3 0.602807 0.872180 0.579493
Si Si4 0.295806 0.128097 0.674008
Si Si5 0.172524 0.500000 0.171847
Si Si6 0.474931 0.870739 0.788342
Si Si7 0.113676 0.711376 0.454369
Si Si8 0.187840 0.695699 0.040033
O O1 0.193283 0.500000 0.783148
O O2 0.167671 0.301791 0.666510
O O3 0.207019 0.346602 0.949618
O O4 0.000000 0.384458 0.500000
O O5 0.197492 0.500000 0.342659
O O6 0.158297 0.607091 0.462775
O O7 0.980180 0.500000 0.086946
O O8 0.500000 0.854666 0.500000
O O9 0.540026 0.839822 0.360093
O O10 0.631853 0.000000 0.625992
O O11 0.726266 0.799832 0.801162
O O12 0.355247 0.161375 0.659320
O O13 0.167888 0.185607 0.486971
O O14 0.284337 0.000000 0.656727
O O15 0.399475 0.162013 0.937735
O O16 0.216024 0.604166 0.177075
O O17 0.477370 0.000000 0.795708
O O18 0.962313 0.715595 0.203480
#
# Coordination Sequence:
#
# PCOD9145318 Si02
#       8
#     4   2   4   4   2   4   4   4
#     4   9  16  31  51  73 102 136 173 207 247 302
#     4   9  18  31  49  79 108 143 172 196 259 321
#     4  10  22  38  55  74 103 142 179 212 255 315
#     4   9  18  33  56  80 103 132 171 217 259 307
#     4   9  18  33  52  74 109 141 171 209 250 317
#     4   8  17  36  55  72  97 139 183 208 243 306
#     4  10  19  31  54  83 107 132 169 217 265 307
#     4  10  20  34  54  79 105 137 173 215 261 307
#
# _framework density 17.017904999999999
#
# number of rings (size 3 to 8) (size 9 to 14) (size 15 to 20)
#    0.000    2.714    1.429    0.857    4.000    0.571 
#    0.000    0.357    0.000    7.714    0.000    0.000 
#    0.000    0.000    0.000    0.000    0.000    0.000 
#
# Total GULP energy -155883.391159 kJ/mol
# GULP energy per Si atom -5567.263970 kJ/mol
# Density = 1.697917 g / cm^3
# Si number density = 17.017905 Si / 1000 Ang^3
#
#
#
# Elastic Constant Matrix: (Units=GPa)
#
#
# Indices 1 2 3 4 5 6 
#
# 1 127.6302 47.1355 41.2812 0.0000 -17.1639 0.0000
# 2 47.1355 65.2444 23.0897 0.0000 6.5744 0.0000
# 3 41.2812 23.0897 30.9775 0.0000 -5.4472 0.0000
# 4 0.0000 0.0000 0.0000 5.4664 0.0000 -15.0550
# 5 -17.1639 6.5744 -5.4472 0.0000 24.3580 0.0000
# 6 0.0000 0.0000 0.0000 -15.0550 0.0000 -3.8524
#
#
#
# Elastic Compliance Matrix: (Units=1/GPa)
#
#
# Indices 1 2 3 4 5 6 
#
# 1 0.017139 -0.008279 -0.014732 0.000000 0.011017 0.000000
# 2 -0.008279 0.027146 -0.011987 0.000000 -0.015841 0.000000
# 3 -0.014732 -0.011987 0.062032 0.000000 0.006727 0.000000
# 4 0.000000 0.000000 0.000000 0.015552 0.000000 -0.060776
# 5 0.011017 -0.015841 0.006727 0.000000 0.054597 0.000000
# 6 0.000000 0.000000 0.000000 -0.060776 0.000000 -0.022067
#
#
# Mechanical properties :
#
#
# Convention : Reuss Voigt Hill
#
# Bulk Modulus (GPa) = 27.53230 49.65165 38.59197
# Shear Modulus (GPa) = 21.14146 12.68411 16.91279
#
# Velocity S-wave (km/s) = 3.52846 2.73305 3.15592
# Velocity P-wave (km/s) = 5.72832 6.26090 6.00052
#
# Compressibility (1/GPa) = 0.03632098
#
# Stress axis : x y z
#
# Youngs Moduli (GPa) = 58.34612 36.83732 16.12082
#
# Poissons Ratio (x) = 0.30496 0.23749
# Poissons Ratio (y) = 0.48303 0.19325
# Poissons Ratio (z) = 0.85956 0.44158
#
# Static dielectric constant tensor:
#      x y z
#    x 1.589260 0.000000 -0.020480 
#    y 0.000000 1.567040 0.000000 
#    z -0.020480 0.000000 1.568030 
# 
# From -- ./inp_files/55882.got.cif
#   From: 2010.05.17/outbox.cif.g08.bks.cpg/sg10_28_cif.got.tgz:55882.got - 2010.06.03 11:33:40.
