data_PCOD9145076
_publ_section_title
;
Structure prediction by ZEFSAII (Michael W. Deem and Ramdas Pophale) SiO2 
 PCOD9145076
Probable space group: P 2/M
;
_chemical_formula_sum "Si O2"
_cell_formula_units_Z 32
_cell_length_a 28.174196
_cell_length_b 9.097494
_cell_length_c 22.970656
_cell_angle_alpha 90.000000
_cell_angle_beta 161.509729
_cell_angle_gamma 90.000000
_cell_volume 1867.250960
_symmetry_space_group_name_H-M "P 2/M"
_symmetry_group_IT_number 10
_symmetry_cell_setting 'monoclinic'
loop_
_space_group_symop_operation_xyz
x,y,z
-x,y,-z
-x,-y,-z
x,-y,z
loop_
_atom_site_type_symbol
_atom_site_label
_atom_site_fract_x
_atom_site_fract_y
_atom_site_fract_z
Si Si1 0.171694 0.826333 0.630795
Si Si2 0.141701 0.332265 0.209069
Si Si3 0.650875 0.823369 0.046560
Si Si4 0.941515 0.824697 0.065811
Si Si5 0.977292 0.674913 0.720190
Si Si6 0.670454 0.677299 0.680284
Si Si7 0.112590 0.674287 0.751798
Si Si8 0.693149 0.173905 0.338833
O O1 0.263505 0.780417 0.794334
O O2 0.269870 0.807617 0.686607
O O3 0.019662 0.739305 0.442295
O O4 0.135965 0.000000 0.594721
O O5 0.163859 0.500000 0.255790
O O6 0.281531 0.288017 0.330816
O O7 0.085171 0.229445 0.195102
O O8 0.000000 0.334776 0.000000
O O9 0.735474 0.748834 0.091846
O O10 0.660954 0.000000 0.053996
O O11 0.477243 0.784176 0.847940
O O12 0.958627 0.759014 0.149910
O O13 0.934256 0.000000 0.057499
O O14 0.792748 0.757639 0.862685
O O15 0.978483 0.500000 0.731450
O O16 0.810982 0.732309 0.512386
O O17 0.069722 0.707106 0.768666
O O18 0.500000 0.713100 0.500000
O O19 0.689547 0.500000 0.708522
O O20 0.119068 0.500000 0.752373
O O21 0.713391 0.000000 0.375361
#
# Coordination Sequence:
#
# PCOD9145076 Si02
#       8
#     4   4   4   4   4   4   4   4
#     4   9  17  31  51  73  98 130 165 201 249 309
#     4   8  15  30  52  77 105 137 169 199 236 284
#     4  10  19  31  50  75 101 129 160 201 257 313
#     4  11  21  33  54  80 104 134 172 211 249 291
#     4  10  21  38  55  70  94 132 176 212 249 300
#     4   9  18  34  56  82 112 142 169 200 242 290
#     4  10  21  34  49  71  99 132 169 211 253 297
#     4   9  18  33  52  74  99 126 163 210 253 297
#
# _framework density 17.137492000000002
#
# number of rings (size 3 to 8) (size 9 to 14) (size 15 to 20)
#    0.000    2.500    0.000    3.375    0.000    8.000 
#    0.000    1.250    0.000    5.250    0.000    0.000 
#    0.000    0.000    0.000    0.000    0.000    0.000 
#
# Total GULP energy -178481.690931 kJ/mol
# GULP energy per Si atom -5577.552842 kJ/mol
# Density = 1.709849 g / cm^3
# Si number density = 17.137492 Si / 1000 Ang^3
#
#
#
# Elastic Constant Matrix: (Units=GPa)
#
#
# Indices 1 2 3 4 5 6 
#
# 1 89.3584 55.7356 71.4671 0.0000 15.2123 0.0000
# 2 55.7356 58.1181 45.9545 0.0000 -0.4102 0.0000
# 3 71.4671 45.9545 71.4055 0.0000 12.5135 0.0000
# 4 0.0000 0.0000 0.0000 43.4725 0.0000 1.2194
# 5 15.2123 -0.4102 12.5135 0.0000 35.0935 0.0000
# 6 0.0000 0.0000 0.0000 1.2194 0.0000 25.8513
#
#
#
# Elastic Compliance Matrix: (Units=1/GPa)
#
#
# Indices 1 2 3 4 5 6 
#
# 1 0.074175 -0.029351 -0.052964 0.000000 -0.013610 0.000000
# 2 -0.029351 0.049542 -0.005161 0.000000 0.015142 0.000000
# 3 -0.052964 -0.005161 0.070744 0.000000 -0.002327 0.000000
# 4 0.000000 0.000000 0.000000 0.023034 0.000000 -0.001087
# 5 -0.013610 0.015142 -0.002327 0.000000 0.035402 0.000000
# 6 0.000000 0.000000 0.000000 -0.001087 0.000000 0.038734
#
#
# Mechanical properties :
#
#
# Convention : Reuss Voigt Hill
#
# Bulk Modulus (GPa) = 51.26119 62.79960 57.03039
# Shear Modulus (GPa) = 10.56895 23.93178 17.25036
#
# Velocity S-wave (km/s) = 2.48607 3.74097 3.17612
# Velocity P-wave (km/s) = 6.18202 7.44204 6.84110
#
# Compressibility (1/GPa) = 0.01950794
#
# Stress axis : x y z
#
# Youngs Moduli (GPa) = 13.48172 20.18504 14.13552
#
# Poissons Ratio (x) = 0.59244 0.74868
# Poissons Ratio (y) = 0.39570 0.07296
# Poissons Ratio (z) = 0.71405 0.10418
#
# Static dielectric constant tensor:
#      x y z
#    x 1.596470 0.000000 0.013740 
#    y 0.000000 1.570070 0.000000 
#    z 0.013740 0.000000 1.552970 
# 
# From -- ./inp_files/87032.got.cif
#   From: 2010.05.17/outbox.cif.g08.bks.cpg/sg10_44_cif.got.tgz:87032.got - 2010.06.03 11:33:40.
