data_PCOD9145909
_publ_section_title
;
Structure prediction by ZEFSAII (Michael W. Deem and Ramdas Pophale) SiO2 
 PCOD9145909
Probable space group: P 2/M
;
_chemical_formula_sum "Si O2"
_cell_formula_units_Z 32
_cell_length_a 15.009226
_cell_length_b 7.631260
_cell_length_c 20.644501
_cell_angle_alpha 90.000000
_cell_angle_beta 30.728726
_cell_angle_gamma 90.000000
_cell_volume 1208.252491
_symmetry_space_group_name_H-M "P 2/M"
_symmetry_group_IT_number 10
_symmetry_cell_setting 'monoclinic'
loop_
_space_group_symop_operation_xyz
x,y,z
-x,y,-z
-x,-y,-z
x,-y,z
loop_
_atom_site_type_symbol
_atom_site_label
_atom_site_fract_x
_atom_site_fract_y
_atom_site_fract_z
Si Si1 0.151487 0.203971 0.713222
Si Si2 0.098968 0.298779 0.244449
Si Si3 0.578079 0.295424 0.556129
Si Si4 0.311773 0.786633 0.882430
Si Si5 0.389473 0.790139 0.974311
Si Si6 0.209972 0.289917 0.309283
Si Si7 0.286080 0.704625 0.399458
Si Si8 0.187661 0.200349 0.827070
O O1 0.324202 0.281566 0.572693
O O2 0.108343 0.281025 0.811057
O O3 0.006738 0.215767 0.748223
O O4 0.185198 0.000000 0.702881
O O5 0.040607 0.500000 0.283815
O O6 0.097465 0.224782 0.318440
O O7 0.297081 0.291023 0.094082
O O8 0.543712 0.500000 0.590585
O O9 0.712529 0.227638 0.527834
O O10 0.394634 0.200915 0.679280
O O11 0.285796 0.737942 0.973310
O O12 0.507124 0.720980 0.745326
O O13 0.189256 0.726648 0.899562
O O14 0.314029 0.000000 0.878551
O O15 0.589148 0.741280 0.836478
O O16 0.380667 0.000000 0.986753
O O17 0.183338 0.500000 0.328697
O O18 0.193697 0.220288 0.393011
O O19 0.237264 0.500000 0.432129
O O20 0.125172 0.000000 0.870340
#
# Coordination Sequence:
#
# PCOD9145909 Si02
#       8
#     4   4   4   4   4   4   4   4
#     4  11  23  37  52  71 100 137 173 210 250 294
#     4  11  23  37  52  71 100 137 173 210 250 294
#     4  10  19  32  54  81 105 130 162 204 252 300
#     4   8  15  29  50  76 102 127 160 202 246 293
#     4  10  19  32  54  81 105 130 162 204 252 300
#     4   9  18  34  55  77 101 132 169 206 246 294
#     4   8  15  29  50  76 102 127 160 202 246 293
#     4   9  18  34  55  77 101 132 169 206 246 294
#
# _framework density 26.484531
#
# number of rings (size 3 to 8) (size 9 to 14) (size 15 to 20)
#    0.000    2.500    0.000    2.250    0.000    6.000 
#    0.000    1.250    0.000    7.500    0.000    0.000 
#    0.000    0.000    0.000    0.000    0.000    0.000 
#
# Total GULP energy -178871.074942 kJ/mol
# GULP energy per Si atom -5589.721092 kJ/mol
# Density = 2.642425 g / cm^3
# Si number density = 26.484531 Si / 1000 Ang^3
#
#
#
# Elastic Constant Matrix: (Units=GPa)
#
#
# Indices 1 2 3 4 5 6 
#
# 1 230.5918 18.6271 47.8080 0.0000 32.0171 0.0000
# 2 18.6271 68.6043 4.1608 0.0000 3.8601 0.0000
# 3 47.8080 4.1608 103.2905 0.0000 23.7600 0.0000
# 4 0.0000 0.0000 0.0000 11.3441 0.0000 0.8850
# 5 32.0171 3.8601 23.7600 0.0000 64.4057 0.0000
# 6 0.0000 0.0000 0.0000 0.8850 0.0000 20.1190
#
#
#
# Elastic Compliance Matrix: (Units=1/GPa)
#
#
# Indices 1 2 3 4 5 6 
#
# 1 0.005067 -0.001162 -0.001896 0.000000 -0.001750 0.000000
# 2 -0.001162 0.014909 0.000011 0.000000 -0.000320 0.000000
# 3 -0.001896 0.000011 0.011301 0.000000 -0.003227 0.000000
# 4 0.000000 0.000000 0.000000 0.088455 0.000000 -0.003891
# 5 -0.001750 -0.000320 -0.003227 0.000000 0.017606 0.000000
# 6 0.000000 0.000000 0.000000 -0.003891 0.000000 0.049875
#
#
# Mechanical properties :
#
#
# Convention : Reuss Voigt Hill
#
# Bulk Modulus (GPa) = 39.71018 60.40873 50.05946
# Shear Modulus (GPa) = 24.78912 41.29981 33.04447
#
# Velocity S-wave (km/s) = 3.06271 3.95320 3.53610
# Velocity P-wave (km/s) = 5.24721 6.61027 5.96778
#
# Compressibility (1/GPa) = 0.02518246
#
# Stress axis : x y z
#
# Youngs Moduli (GPa) = 197.37390 67.07251 88.48929
#
# Poissons Ratio (x) = 0.07795 0.16775
# Poissons Ratio (y) = 0.22939 -0.00097
# Poissons Ratio (z) = 0.37417 -0.00073
#
# Static dielectric constant tensor:
#      x y z
#    x 2.182010 0.000000 -0.011460 
#    y 0.000000 2.042100 0.000000 
#    z -0.011460 0.000000 2.074020 
# 
# From -- ./inp_files/84710.got.cif
#   From: 2010.05.17/outbox.cif.g08.bks.cpg/sg10_43_cif.got.tgz:84710.got - 2010.06.03 11:33:40.
