data_PCOD9145124
_publ_section_title
;
Structure prediction by ZEFSAII (Michael W. Deem and Ramdas Pophale) SiO2 
 PCOD9145124
Probable space group: P 2/M
;
_chemical_formula_sum "Si O2"
_cell_formula_units_Z 32
_cell_length_a 19.694822
_cell_length_b 7.799572
_cell_length_c 12.787888
_cell_angle_alpha 90.000000
_cell_angle_beta 50.159926
_cell_angle_gamma 90.000000
_cell_volume 1508.307586
_symmetry_space_group_name_H-M "P 2/M"
_symmetry_group_IT_number 10
_symmetry_cell_setting 'monoclinic'
loop_
_space_group_symop_operation_xyz
x,y,z
-x,y,-z
-x,-y,-z
x,-y,z
loop_
_atom_site_type_symbol
_atom_site_label
_atom_site_fract_x
_atom_site_fract_y
_atom_site_fract_z
Si Si1 0.972109 0.209989 0.909258
Si Si2 0.148782 0.791255 0.637999
Si Si3 0.671628 0.300268 0.940931
Si Si4 0.225077 0.794517 0.953100
Si Si5 0.484935 0.695910 0.176771
Si Si6 0.282920 0.791700 0.677458
Si Si7 0.714237 0.201073 0.672219
Si Si8 0.465753 0.206349 0.417933
O O1 0.875086 0.267750 0.968153
O O2 0.047627 0.263231 0.751755
O O3 0.970825 0.000000 0.912741
O O4 0.000000 0.262070 0.000000
O O5 0.194872 0.746643 0.702695
O O6 0.213016 0.728971 0.481631
O O7 0.149250 0.000000 0.631644
O O8 0.656475 0.500000 0.973201
O O9 0.730050 0.240512 0.980628
O O10 0.718833 0.274885 0.783990
O O11 0.571322 0.224917 0.035833
O O12 0.221544 0.000000 0.946960
O O13 0.281994 0.731182 0.797378
O O14 0.471555 0.500000 0.155138
O O15 0.388243 0.778565 0.261668
O O16 0.509086 0.706381 0.275908
O O17 0.364380 0.735763 0.526586
O O18 0.289948 0.000000 0.672741
O O19 0.731393 0.000000 0.663224
O O20 0.500000 0.242518 0.500000
O O21 0.472839 0.000000 0.395112
#
# Coordination Sequence:
#
# PCOD9145124 Si02
#       8
#     4   4   4   4   4   4   4   4
#     4   9  15  27  53  89 121 144 172 220 280 334
#     4   9  16  29  52  85 118 140 169 224 283 324
#     4  11  25  42  56  75 112 153 188 233 286 330
#     4  10  19  33  59  89 113 145 189 229 273 332
#     4  11  23  38  56  79 110 148 188 231 282 337
#     4   9  15  27  49  80 115 143 173 221 275 322
#     4  11  22  38  62  85 109 144 191 237 275 325
#     4  10  19  31  50  78 113 150 186 228 274 321
#
# _framework density 21.215831999999999
#
# number of rings (size 3 to 8) (size 9 to 14) (size 15 to 20)
#    0.000    2.000    2.500    2.250    0.000    4.750 
#    0.000    1.250    0.000    5.625    0.000    0.000 
#    0.000    0.000    0.000    0.000    0.000    0.000 
#
# Total GULP energy -178540.590610 kJ/mol
# GULP energy per Si atom -5579.393457 kJ/mol
# Density = 2.116754 g / cm^3
# Si number density = 21.215832 Si / 1000 Ang^3
#
#
#
# Elastic Constant Matrix: (Units=GPa)
#
#
# Indices 1 2 3 4 5 6 
#
# 1 71.6910 -0.3310 49.4047 0.0000 2.4741 0.0000
# 2 -0.3310 20.1833 -0.1205 0.0000 -3.0972 0.0000
# 3 49.4047 -0.1205 151.6720 0.0000 5.6207 0.0000
# 4 0.0000 0.0000 0.0000 37.2157 0.0000 -72.3200
# 5 2.4741 -3.0972 5.6207 0.0000 33.2660 0.0000
# 6 0.0000 0.0000 0.0000 -72.3200 0.0000 -82.0053
#
#
#
# Elastic Compliance Matrix: (Units=1/GPa)
#
#
# Indices 1 2 3 4 5 6 
#
# 1 0.017991 0.000209 -0.005848 0.000000 -0.000330 0.000000
# 2 0.000209 0.050269 -0.000202 0.000000 0.004699 0.000000
# 3 -0.005848 -0.000202 0.008536 0.000000 -0.001026 0.000000
# 4 0.000000 0.000000 0.000000 0.009902 0.000000 -0.008732
# 5 -0.000330 0.004699 -0.001026 0.000000 0.030696 0.000000
# 6 0.000000 0.000000 0.000000 -0.008732 0.000000 -0.004494
#
#
# Mechanical properties :
#
#
# Convention : Reuss Voigt Hill
#
# Bulk Modulus (GPa) = 15.35756 37.93918 26.64837
# Shear Modulus (GPa) = 34.17937 10.66814 22.42376
#
# Velocity S-wave (km/s) = 4.01812 2.24484 3.25458
# Velocity P-wave (km/s) = 5.36484 4.96391 5.16826
#
# Compressibility (1/GPa) = 0.06511449
#
# Stress axis : x y z
#
# Youngs Moduli (GPa) = 55.58296 19.89289 117.15218
#
# Poissons Ratio (x) = -0.00417 0.68510
# Poissons Ratio (y) = -0.01164 0.02371
# Poissons Ratio (z) = 0.32504 0.00403
#
# Static dielectric constant tensor:
#      x y z
#    x 1.791190 0.000000 -0.037380 
#    y 0.000000 1.791560 0.000000 
#    z -0.037380 0.000000 1.790920 
# 
# From -- ./inp_files/55273.got.cif
#   From: 2010.05.17/outbox.cif.g08.bks.cpg/sg10_28_cif.got.tgz:55273.got - 2010.06.03 11:33:40.
