data_PCOD9145630
_publ_section_title
;
Structure prediction by ZEFSAII (Michael W. Deem and Ramdas Pophale) SiO2 
 PCOD9145630
Probable space group: P 2/M
;
_chemical_formula_sum "Si O2"
_cell_formula_units_Z 32
_cell_length_a 17.426630
_cell_length_b 14.597975
_cell_length_c 20.758073
_cell_angle_alpha 90.000000
_cell_angle_beta 20.766205
_cell_angle_gamma 90.000000
_cell_volume 1872.308023
_symmetry_space_group_name_H-M "P 2/M"
_symmetry_group_IT_number 10
_symmetry_cell_setting 'monoclinic'
loop_
_space_group_symop_operation_xyz
x,y,z
-x,y,-z
-x,-y,-z
x,-y,z
loop_
_atom_site_type_symbol
_atom_site_label
_atom_site_fract_x
_atom_site_fract_y
_atom_site_fract_z
Si Si1 0.423848 0.391504 0.892427
Si Si2 0.799601 0.389837 0.067768
Si Si3 0.658251 0.607038 0.529622
Si Si4 0.719337 0.297171 0.868938
Si Si5 0.260353 0.607987 0.680344
Si Si6 0.175980 0.293004 0.475567
Si Si7 0.385504 0.900688 0.020213
Si Si8 0.806565 0.103822 0.600437
O O1 0.455379 0.500000 0.866298
O O2 0.290159 0.365821 0.932950
O O3 0.653914 0.340554 0.705770
O O4 0.304623 0.361848 0.050736
O O5 0.822390 0.500000 0.051925
O O6 0.598983 0.368964 0.272476
O O7 0.043958 0.353747 0.883612
O O8 0.668537 0.500000 0.543159
O O9 0.772294 0.611365 0.371273
O O10 0.760358 0.671212 0.503501
O O11 0.926079 0.319696 0.663370
O O12 0.500000 0.300843 0.000000
O O13 0.746830 0.193129 0.874113
O O14 0.500000 0.649002 0.500000
O O15 0.278293 0.500000 0.685602
O O16 0.192916 0.184503 0.451386
O O17 0.579759 0.892290 0.816582
O O18 0.275890 0.000000 0.096514
O O19 0.500000 0.904444 0.000000
O O20 0.000000 0.120593 0.500000
O O21 0.836705 0.000000 0.552232
#
# Coordination Sequence:
#
# PCOD9145630 Si02
#       8
#     4   4   4   4   4   4   4   4
#     4  10  21  36  49  64  90 128 171 204 236 278
#     4   8  15  28  44  60  85 120 154 189 226 271
#     4   9  18  32  47  65  91 129 167 192 229 279
#     4  11  22  33  48  66  88 118 159 207 251 290
#     4   9  16  26  44  70  96 122 156 195 231 271
#     4  11  21  33  53  69  93 127 165 201 245 297
#     4   9  17  31  48  68  92 114 142 187 247 307
#     4  10  19  32  52  74  96 120 152 202 258 305
#
# _framework density 17.091204999999999
#
# number of rings (size 3 to 8) (size 9 to 14) (size 15 to 20)
#    0.000    2.375    1.250    3.375    0.000    4.250 
#    0.000    3.125    0.000    0.000    0.000    0.000 
#    0.000    0.500    0.000    5.750    0.000    5.250 
#
# Total GULP energy -178321.761615 kJ/mol
# GULP energy per Si atom -5572.555050 kJ/mol
# Density = 1.705230 g / cm^3
# Si number density = 17.091205 Si / 1000 Ang^3
#
#
#
# Elastic Constant Matrix: (Units=GPa)
#
#
# Indices 1 2 3 4 5 6 
#
# 1 24.2950 18.4029 6.5614 0.0000 -0.4313 0.0000
# 2 18.4029 64.9073 10.7334 0.0000 -3.8849 0.0000
# 3 6.5614 10.7334 104.7900 0.0000 -10.2323 0.0000
# 4 0.0000 0.0000 0.0000 18.7776 0.0000 6.6641
# 5 -0.4313 -3.8849 -10.2323 0.0000 23.6406 0.0000
# 6 0.0000 0.0000 0.0000 6.6641 0.0000 3.0011
#
#
#
# Elastic Compliance Matrix: (Units=1/GPa)
#
#
# Indices 1 2 3 4 5 6 
#
# 1 0.052874 -0.014797 -0.002024 0.000000 -0.002343 0.000000
# 2 -0.014797 0.019901 -0.000855 0.000000 0.002630 0.000000
# 3 -0.002024 -0.000855 0.010170 0.000000 0.004224 0.000000
# 4 0.000000 0.000000 0.000000 0.251281 0.000000 -0.557979
# 5 -0.002343 0.002630 0.004224 0.000000 0.044518 0.000000
# 6 0.000000 0.000000 0.000000 -0.557979 0.000000 1.572226
#
#
# Mechanical properties :
#
#
# Convention : Reuss Voigt Hill
#
# Bulk Modulus (GPa) = 21.01147 29.48752 25.24950
# Shear Modulus (GPa) = 2.49727 19.63683 11.06705
#
# Velocity S-wave (km/s) = 1.21009 3.39328 2.54742
# Velocity P-wave (km/s) = 3.77794 5.71341 4.84334
#
# Compressibility (1/GPa) = 0.04759306
#
# Stress axis : x y z
#
# Youngs Moduli (GPa) = 18.91292 50.24962 98.33143
#
# Poissons Ratio (x) = 0.74353 0.19901
# Poissons Ratio (y) = 0.27985 0.08408
# Poissons Ratio (z) = 0.03828 0.04297
#
# Static dielectric constant tensor:
#      x y z
#    x 1.591610 0.000000 -0.011570 
#    y 0.000000 1.573170 0.000000 
#    z -0.011570 0.000000 1.659630 
# 
# From -- ./inp_files/85955.got.cif
#   From: 2010.05.17/outbox.cif.g08.bks.cpg/sg10_43_cif.got.tgz:85955.got - 2010.06.03 11:33:40.
