data_PCOD9145168
_publ_section_title
;
Structure prediction by ZEFSAII (Michael W. Deem and Ramdas Pophale) SiO2 
 PCOD9145168
Probable space group: P 2/M
;
_chemical_formula_sum "Si O2"
_cell_formula_units_Z 32
_cell_length_a 32.433865
_cell_length_b 7.604745
_cell_length_c 25.123911
_cell_angle_alpha 90.000000
_cell_angle_beta 164.910162
_cell_angle_gamma 90.000000
_cell_volume 1613.244812
_symmetry_space_group_name_H-M "P 2/M"
_symmetry_group_IT_number 10
_symmetry_cell_setting 'monoclinic'
loop_
_space_group_symop_operation_xyz
x,y,z
-x,y,-z
-x,-y,-z
x,-y,z
loop_
_atom_site_type_symbol
_atom_site_label
_atom_site_fract_x
_atom_site_fract_y
_atom_site_fract_z
Si Si1 0.906437 0.716369 0.254866
Si Si2 0.185709 0.705874 0.975618
Si Si3 0.850615 0.214608 0.850566
Si Si4 0.639610 0.289644 0.005718
Si Si5 0.142990 0.295591 0.634749
Si Si6 0.451615 0.213022 0.592509
Si Si7 0.018691 0.206084 0.875815
Si Si8 0.661551 0.211458 0.432392
O O1 0.906545 0.500000 0.255112
O O2 0.754501 0.772174 0.100877
O O3 0.062968 0.777478 0.481646
O O4 0.886637 0.777054 0.169842
O O5 0.149863 0.500000 0.932258
O O6 0.374186 0.729842 0.207190
O O7 0.112671 0.780958 0.938210
O O8 0.686996 0.273593 0.619985
O O9 0.843470 0.000000 0.841368
O O10 0.000000 0.263557 0.000000
O O11 0.886064 0.277390 0.954528
O O12 0.660803 0.500000 0.034375
O O13 0.708880 0.219201 0.147972
O O14 0.460058 0.255128 0.766103
O O15 0.178951 0.500000 0.667770
O O16 0.000000 0.293093 0.500000
O O17 0.409705 0.274178 0.600033
O O18 0.450763 0.000000 0.591948
O O19 0.840448 0.278953 0.648913
O O20 0.997769 0.000000 0.861922
O O21 0.666533 0.000000 0.441263
#
# Coordination Sequence:
#
# PCOD9145168 Si02
#       8
#     4   4   4   4   4   4   4   4
#     4   8  14  26  45  70  99 131 165 203 245 287
#     4  11  22  35  51  75 108 139 166 201 249 306
#     4   9  16  32  58  80  96 123 171 219 249 284
#     4   9  15  26  48  75 100 127 163 207 251 295
#     4   7  11  21  41  69  96 124 163 206 244 281
#     4  10  19  33  56  80  99 127 168 212 254 294
#     4  10  21  37  55  75 100 132 171 212 251 294
#     4  10  19  31  51  77 103 129 162 209 257 299
#
# _framework density 19.835799000000002
#
# number of rings (size 3 to 8) (size 9 to 14) (size 15 to 20)
#    0.000    2.750    2.500    1.875    0.000    1.000 
#    0.000    3.125    0.000    6.375    0.000    5.250 
#    0.000    0.000    0.000    0.000    0.000    0.000 
#
# Total GULP energy -178404.876711 kJ/mol
# GULP energy per Si atom -5575.152397 kJ/mol
# Density = 1.979065 g / cm^3
# Si number density = 19.835799 Si / 1000 Ang^3
#
#
#
# Elastic Constant Matrix: (Units=GPa)
#
#
# Indices 1 2 3 4 5 6 
#
# 1 97.0055 -7.8394 74.4839 0.0000 -22.6496 0.0000
# 2 -7.8394 37.3271 -5.7403 0.0000 -4.3639 0.0000
# 3 74.4839 -5.7403 162.5745 0.0000 -38.1999 0.0000
# 4 0.0000 0.0000 0.0000 14.6791 0.0000 -9.2781
# 5 -22.6496 -4.3639 -38.1999 0.0000 37.5924 0.0000
# 6 0.0000 0.0000 0.0000 -9.2781 0.0000 -12.5811
#
#
#
# Elastic Compliance Matrix: (Units=1/GPa)
#
#
# Indices 1 2 3 4 5 6 
#
# 1 0.016428 0.002847 -0.006598 0.000000 0.003524 0.000000
# 2 0.002847 0.028284 0.001141 0.000000 0.006158 0.000000
# 3 -0.006598 0.001141 0.010918 0.000000 0.007252 0.000000
# 4 0.000000 0.000000 0.000000 0.046466 0.000000 -0.034267
# 5 0.003524 0.006158 0.007252 0.000000 0.036808 0.000000
# 6 0.000000 0.000000 0.000000 -0.034267 0.000000 -0.054214
#
#
# Mechanical properties :
#
#
# Convention : Reuss Voigt Hill
#
# Bulk Modulus (GPa) = 19.83702 46.52396 33.18049
# Shear Modulus (GPa) = 46.85547 23.67159 35.26353
#
# Velocity S-wave (km/s) = 4.86549 3.45828 4.22094
# Velocity P-wave (km/s) = 6.44874 6.28106 6.36545
#
# Compressibility (1/GPa) = 0.05041079
#
# Stress axis : x y z
#
# Youngs Moduli (GPa) = 60.87320 35.35612 91.59139
#
# Poissons Ratio (x) = -0.10067 0.60430
# Poissons Ratio (y) = -0.17333 -0.10452
# Poissons Ratio (z) = 0.40163 -0.04035
#
# Static dielectric constant tensor:
#      x y z
#    x 1.675990 0.000000 -0.046130 
#    y 0.000000 1.768840 0.000000 
#    z -0.046130 0.000000 1.716030 
# 
# From -- ./inp_files/86108.got.cif
#   From: 2010.05.17/outbox.cif.g08.bks.cpg/sg10_44_cif.got.tgz:86108.got - 2010.06.03 11:33:40.
