data_PCOD9145635
_publ_section_title
;
Structure prediction by ZEFSAII (Michael W. Deem and Ramdas Pophale) SiO2 
 PCOD9145635
Probable space group: P 2/M
;
_chemical_formula_sum "Si O2"
_cell_formula_units_Z 24
_cell_length_a 17.212918
_cell_length_b 7.610595
_cell_length_c 24.094643
_cell_angle_alpha 90.000000
_cell_angle_beta 157.376048
_cell_angle_gamma 90.000000
_cell_volume 1214.212228
_symmetry_space_group_name_H-M "P 2/M"
_symmetry_group_IT_number 10
_symmetry_cell_setting 'monoclinic'
loop_
_space_group_symop_operation_xyz
x,y,z
-x,y,-z
-x,-y,-z
x,-y,z
loop_
_atom_site_type_symbol
_atom_site_label
_atom_site_fract_x
_atom_site_fract_y
_atom_site_fract_z
Si Si1 0.779069 0.215407 0.833547
Si Si2 0.772049 0.212894 0.339203
Si Si3 0.442215 0.203893 0.207194
Si Si4 0.474652 0.709128 0.045498
Si Si5 0.148781 0.708427 0.918078
Si Si6 0.711923 0.788203 0.663764
O O1 0.617456 0.278237 0.772561
O O2 0.741144 0.274518 0.746107
O O3 0.775631 0.000000 0.831614
O O4 0.000000 0.268633 0.000000
O O5 0.622769 0.280366 0.289301
O O6 0.669370 0.262064 0.213069
O O7 0.000000 0.272689 0.500000
O O8 0.771166 0.000000 0.340311
O O9 0.493710 0.000000 0.250247
O O10 0.245508 0.211627 0.037730
O O11 0.444713 0.500000 0.020342
O O12 0.500000 0.781038 0.000000
O O13 0.282347 0.776115 0.954370
O O14 0.181500 0.500000 0.943645
O O15 0.911086 0.742105 0.760092
O O16 0.500000 0.723683 0.500000
O O17 0.703414 0.000000 0.659835
#
# Coordination Sequence:
#
# PCOD9145635 Si02
#       6
#     4   4   4   4   4   4
#     4   9  15  27  50  72  91 123 164 197 229 282
#     4   9  18  32  50  77 107 129 157 207 262 299
#     4   9  16  30  52  71  95 131 166 197 239 294
#     4   9  19  36  55  73  96 134 177 208 243 302
#     4  10  19  32  52  74  98 127 164 207 250 288
#     4  10  20  34  50  72 100 131 166 199 239 295
#
# _framework density 19.765902000000001
#
# number of rings (size 3 to 8) (size 9 to 14) (size 15 to 20)
#    0.000    2.667    1.667    0.500    0.000    1.667 
#    3.000    1.667    0.000    0.000    0.000    0.000 
#    0.000    0.000    0.000    0.000    0.000    0.000 
#
# Total GULP energy -133849.719421 kJ/mol
# GULP energy per Si atom -5577.071643 kJ/mol
# Density = 1.972091 g / cm^3
# Si number density = 19.765902 Si / 1000 Ang^3
#
#
#
# Elastic Constant Matrix: (Units=GPa)
#
#
# Indices 1 2 3 4 5 6 
#
# 1 163.6542 3.6586 87.5020 0.0000 -6.2595 0.0000
# 2 3.6586 40.3178 -9.6234 0.0000 -3.1696 0.0000
# 3 87.5020 -9.6234 139.7648 0.0000 9.5356 0.0000
# 4 0.0000 0.0000 0.0000 20.5983 0.0000 -0.9912
# 5 -6.2595 -3.1696 9.5356 0.0000 26.8751 0.0000
# 6 0.0000 0.0000 0.0000 -0.9912 0.0000 8.7183
#
#
#
# Elastic Compliance Matrix: (Units=1/GPa)
#
#
# Indices 1 2 3 4 5 6 
#
# 1 0.009869 -0.002131 -0.006625 0.000000 0.004398 0.000000
# 2 -0.002131 0.025832 0.003012 0.000000 0.001482 0.000000
# 3 -0.006625 0.003012 0.011879 0.000000 -0.005403 0.000000
# 4 0.000000 0.000000 0.000000 0.048815 0.000000 0.005550
# 5 0.004398 0.001482 -0.005403 0.000000 0.040325 0.000000
# 6 0.000000 0.000000 0.000000 0.005550 0.000000 0.115333
#
#
# Mechanical properties :
#
#
# Convention : Reuss Voigt Hill
#
# Bulk Modulus (GPa) = 27.70864 56.31234 42.01049
# Shear Modulus (GPa) = 18.14416 28.71831 23.43123
#
# Velocity S-wave (km/s) = 3.03306 3.81586 3.44675
# Velocity P-wave (km/s) = 5.12979 6.92574 6.09428
#
# Compressibility (1/GPa) = 0.03608982
#
# Stress axis : x y z
#
# Youngs Moduli (GPa) = 101.33108 38.71218 84.18456
#
# Poissons Ratio (x) = 0.08250 0.55774
# Poissons Ratio (y) = 0.21595 -0.25354
# Poissons Ratio (z) = 0.67134 -0.11659
#
# Static dielectric constant tensor:
#      x y z
#    x 1.721890 0.000000 0.021240 
#    y 0.000000 1.732030 0.000000 
#    z 0.021240 0.000000 1.660620 
# 
# From -- ./inp_files/55048.got.cif
#   From: 2010.05.17/outbox.cif.g08.bks.cpg/sg10_28_cif.got.tgz:55048.got - 2010.06.03 11:33:40.
