data_PCOD9145086
_publ_section_title
;
Structure prediction by ZEFSAII (Michael W. Deem and Ramdas Pophale) SiO2 
 PCOD9145086
Probable space group: P 2/M
;
_chemical_formula_sum "Si O2"
_cell_formula_units_Z 28
_cell_length_a 9.277716
_cell_length_b 7.662741
_cell_length_c 30.937925
_cell_angle_alpha 90.000000
_cell_angle_beta 138.564724
_cell_angle_gamma 90.000000
_cell_volume 1455.545619
_symmetry_space_group_name_H-M "P 2/M"
_symmetry_group_IT_number 10
_symmetry_cell_setting 'monoclinic'
loop_
_space_group_symop_operation_xyz
x,y,z
-x,y,-z
-x,-y,-z
x,-y,z
loop_
_atom_site_type_symbol
_atom_site_label
_atom_site_fract_x
_atom_site_fract_y
_atom_site_fract_z
Si Si1 0.096478 0.711669 0.805101
Si Si2 0.429029 0.288331 0.805101
Si Si3 0.989530 0.500000 0.425682
Si Si4 0.398061 0.800689 0.327065
Si Si5 0.746444 0.713404 0.064979
Si Si6 0.078449 0.286596 0.064979
Si Si7 0.638878 0.500000 0.425682
Si Si8 0.262738 0.800689 0.672935
O O1 0.091710 0.500000 0.804306
O O2 0.270405 0.766931 0.808162
O O3 0.170567 0.769419 0.869341
O O4 0.855683 0.773893 0.739182
O O5 0.429821 0.500000 0.804306
O O6 0.676136 0.230581 0.869341
O O7 0.340230 0.226106 0.739182
O O8 0.821653 0.500000 0.428661
O O9 0.926030 0.668084 0.383267
O O10 0.228388 0.500000 0.500000
O O11 0.490304 0.668084 0.383267
O O12 0.532860 0.765121 0.313144
O O13 0.440275 0.000000 0.349005
O O14 0.745682 0.500000 0.064870
O O15 0.910863 0.769330 0.064345
O O16 0.500000 0.769348 0.000000
O O17 0.078668 0.500000 0.064870
O O18 0.000000 0.230652 0.000000
O O19 0.195251 0.000000 0.650995
#
# Coordination Sequence:
#
# PCOD9145086 Si02
#       8
#     4   4   2   4   4   4   2   4
#     4  10  19  31  50  75 105 144 188 232 279 329
#     4  10  19  31  50  75 105 144 188 232 279 329
#     4   9  18  34  57  85 116 145 176 221 273 325
#     4  10  20  34  55  82 111 145 184 225 273 328
#     4   9  16  26  43  70 105 143 185 233 281 330
#     4   9  16  26  43  70 105 143 185 233 281 330
#     4   9  18  34  57  85 116 145 176 221 273 325
#     4  10  20  34  55  82 111 145 184 225 273 328
#
# _framework density 19.236772999999999
#
# number of rings (size 3 to 8) (size 9 to 14) (size 15 to 20)
#    0.000    2.429    1.429    1.714    0.000    5.714 
#    0.000    2.857    0.000    2.571    0.000    2.000 
#    0.000    0.000    0.000    0.000    0.000    0.000 
#
# Total GULP energy -156369.013149 kJ/mol
# GULP energy per Si atom -5584.607612 kJ/mol
# Density = 1.919299 g / cm^3
# Si number density = 19.236773 Si / 1000 Ang^3
#
#
#
# Elastic Constant Matrix: (Units=GPa)
#
#
# Indices 1 2 3 4 5 6 
#
# 1 123.6390 43.7702 91.3234 0.0000 0.8688 0.0000
# 2 43.7702 65.9379 58.4898 0.0000 0.7205 0.0000
# 3 91.3234 58.4898 206.2406 0.0000 3.1740 0.0000
# 4 0.0000 0.0000 0.0000 -11.5412 0.0000 -1.0028
# 5 0.8688 0.7205 3.1740 0.0000 25.1447 0.0000
# 6 0.0000 0.0000 0.0000 -1.0028 0.0000 8.9503
#
#
#
# Elastic Compliance Matrix: (Units=1/GPa)
#
#
# Indices 1 2 3 4 5 6 
#
# 1 0.013034 -0.004719 -0.004437 0.000000 0.000245 0.000000
# 2 -0.004719 0.021972 -0.004143 0.000000 0.000056 0.000000
# 3 -0.004437 -0.004143 0.008000 0.000000 -0.000738 0.000000
# 4 0.000000 0.000000 0.000000 -0.085811 0.000000 -0.009615
# 5 0.000245 0.000056 -0.000738 0.000000 0.039853 0.000000
# 6 0.000000 0.000000 0.000000 -0.009615 0.000000 0.110651
#
#
# Mechanical properties :
#
#
# Convention : Reuss Voigt Hill
#
# Bulk Modulus (GPa) = 60.94279 86.99827 73.97053
# Shear Modulus (GPa) = 35.77387 17.99303 26.88345
#
# Velocity S-wave (km/s) = 4.31706 3.06166 3.74237
# Velocity P-wave (km/s) = 7.52319 7.60405 7.56373
#
# Compressibility (1/GPa) = 0.01640883
#
# Stress axis : x y z
#
# Youngs Moduli (GPa) = 76.72062 45.51151 125.00592
#
# Poissons Ratio (x) = 0.21478 0.55465
# Poissons Ratio (y) = 0.36206 0.51785
# Poissons Ratio (z) = 0.34041 0.18854
#
# Static dielectric constant tensor:
#      x y z
#    x 1.649780 0.000000 -0.001550 
#    y 0.000000 1.707890 0.000000 
#    z -0.001550 0.000000 1.618160 
# 
# From -- ./inp_files/92156.got.cif
#   From: 2010.05.17/outbox.cif.g08.bks.cpg/sg10_47_cif.got.tgz:92156.got - 2010.06.03 11:33:40.
