data_PCOD9145023
_publ_section_title
;
Structure prediction by ZEFSAII (Michael W. Deem and Ramdas Pophale) SiO2 
 PCOD9145023
Probable space group: P 2/M
;
_chemical_formula_sum "Si O2"
_cell_formula_units_Z 32
_cell_length_a 23.012772
_cell_length_b 8.873930
_cell_length_c 15.578658
_cell_angle_alpha 90.000000
_cell_angle_beta 148.362762
_cell_angle_gamma 90.000000
_cell_volume 1668.756822
_symmetry_space_group_name_H-M "P 2/M"
_symmetry_group_IT_number 10
_symmetry_cell_setting 'monoclinic'
loop_
_space_group_symop_operation_xyz
x,y,z
-x,y,-z
-x,-y,-z
x,-y,z
loop_
_atom_site_type_symbol
_atom_site_label
_atom_site_fract_x
_atom_site_fract_y
_atom_site_fract_z
Si Si1 0.097459 0.176979 0.921171
Si Si2 0.296475 0.180266 0.484541
Si Si3 0.194883 0.319991 0.684727
Si Si4 0.854906 0.821119 0.550693
Si Si5 0.873422 0.320399 0.863988
Si Si6 0.212900 0.680587 0.903377
Si Si7 0.573124 0.831812 0.008765
Si Si8 0.472323 0.324451 0.214046
O O1 0.150281 0.232771 0.898964
O O2 0.965342 0.199371 0.746094
O O3 0.118042 0.000000 0.959548
O O4 0.143988 0.268206 0.060264
O O5 0.248523 0.226974 0.518818
O O6 0.211400 0.242105 0.307206
O O7 0.419822 0.237433 0.617585
O O8 0.295643 0.000000 0.483922
O O9 0.212093 0.500000 0.702252
O O10 0.127581 0.267374 0.516652
O O11 0.164990 0.287602 0.747076
O O12 0.306837 0.225329 0.814564
O O13 0.843298 0.000000 0.517207
O O14 0.862364 0.500000 0.842418
O O15 0.000000 0.278442 0.000000
O O16 0.204467 0.500000 0.904865
O O17 0.344707 0.720150 0.074262
O O18 0.524373 0.710145 0.882926
O O19 0.577206 0.000000 0.973767
O O20 0.500000 0.841169 0.000000
O O21 0.483745 0.500000 0.248155
#
# Coordination Sequence:
#
# PCOD9145023 Si02
#       8
#     4   4   4   4   4   4   4   4
#     4  11  23  40  63  88 116 154 196 242 293 351
#     4  11  22  38  61  89 124 156 190 241 296 350
#     4  10  21  35  54  80 113 155 199 244 289 339
#     4  10  22  37  55  85 122 155 191 241 297 347
#     4  11  23  40  64  92 120 152 190 234 292 355
#     4   9  21  41  59  81 117 158 199 245 291 339
#     4  10  19  31  49  75 110 151 194 240 293 346
#     4  10  21  37  57  83 116 153 196 242 290 344
#
# _framework density 19.175951999999999
#
# number of rings (size 3 to 8) (size 9 to 14) (size 15 to 20)
#    0.000    1.750    1.250    3.750    0.000   10.000 
#    0.000    3.125    0.000    3.750    0.000    0.000 
#    0.000    0.000    0.000    0.000    0.000    0.000 
#
# Total GULP energy -178497.166676 kJ/mol
# GULP energy per Si atom -5578.036459 kJ/mol
# Density = 1.913231 g / cm^3
# Si number density = 19.175952 Si / 1000 Ang^3
#
#
#
# Elastic Constant Matrix: (Units=GPa)
#
#
# Indices 1 2 3 4 5 6 
#
# 1 57.3895 15.0376 3.8804 0.0000 -13.2262 0.0000
# 2 15.0376 26.8888 13.6262 0.0000 -0.0969 0.0000
# 3 3.8804 13.6262 66.1961 0.0000 -11.4858 0.0000
# 4 0.0000 0.0000 0.0000 42.4451 0.0000 1.8227
# 5 -13.2262 -0.0969 -11.4858 0.0000 18.7378 0.0000
# 6 0.0000 0.0000 0.0000 1.8227 0.0000 20.9361
#
#
#
# Elastic Compliance Matrix: (Units=1/GPa)
#
#
# Indices 1 2 3 4 5 6 
#
# 1 0.026978 -0.018084 0.006075 0.000000 0.022673 0.000000
# 2 -0.018084 0.054180 -0.013718 0.000000 -0.020893 0.000000
# 3 0.006075 -0.013718 0.020485 0.000000 0.016774 0.000000
# 4 0.000000 0.000000 0.000000 0.023648 0.000000 -0.002059
# 5 0.022673 -0.020893 0.016774 0.000000 0.079546 0.000000
# 6 0.000000 0.000000 0.000000 -0.002059 0.000000 0.047944
#
#
# Mechanical properties :
#
#
# Convention : Reuss Voigt Hill
#
# Bulk Modulus (GPa) = 19.92484 23.95144 21.93814
# Shear Modulus (GPa) = 15.57805 24.28581 19.93193
#
# Velocity S-wave (km/s) = 2.85331 3.56261 3.22751
# Velocity P-wave (km/s) = 4.61175 5.42590 5.03531
#
# Compressibility (1/GPa) = 0.05018862
#
# Stress axis : x y z
#
# Youngs Moduli (GPa) = 37.06740 18.45687 48.81686
#
# Poissons Ratio (x) = 0.33378 -0.29657
# Poissons Ratio (y) = 0.67034 0.66967
# Poissons Ratio (z) = -0.22519 0.25319
#
# Static dielectric constant tensor:
#      x y z
#    x 1.672230 0.000000 0.019890 
#    y 0.000000 1.654200 0.000000 
#    z 0.019890 0.000000 1.824510 
# 
# From -- ./inp_files/71333.got.cif
#   From: 2010.05.17/outbox.cif.g08.bks.cpg/sg10_36_cif.got.tgz:71333.got - 2010.06.03 11:33:40.
