data_PCOD9145943
_publ_section_title
;
Structure prediction by ZEFSAII (Michael W. Deem and Ramdas Pophale) SiO2 
 PCOD9145943
Probable space group: P 2/M
;
_chemical_formula_sum "Si O2"
_cell_formula_units_Z 32
_cell_length_a 22.078606
_cell_length_b 9.207071
_cell_length_c 28.325592
_cell_angle_alpha 90.000000
_cell_angle_beta 161.152007
_cell_angle_gamma 90.000000
_cell_volume 1860.173053
_symmetry_space_group_name_H-M "P 2/M"
_symmetry_group_IT_number 10
_symmetry_cell_setting 'monoclinic'
loop_
_space_group_symop_operation_xyz
x,y,z
-x,y,-z
-x,-y,-z
x,-y,z
loop_
_atom_site_type_symbol
_atom_site_label
_atom_site_fract_x
_atom_site_fract_y
_atom_site_fract_z
Si Si1 0.559320 0.328148 0.597968
Si Si2 0.718384 0.328248 0.173882
Si Si3 0.842608 0.328104 0.658900
Si Si4 0.206763 0.173800 0.671974
Si Si5 0.119813 0.828187 0.796390
Si Si6 0.414634 0.827651 0.098221
Si Si7 0.866323 0.672601 0.041594
Si Si8 0.945393 0.827138 0.905655
O O1 0.500000 0.303900 0.500000
O O2 0.604751 0.500000 0.636036
O O3 0.374726 0.296259 0.492531
O O4 0.738200 0.234548 0.743273
O O5 0.754545 0.500000 0.201875
O O6 0.759259 0.256479 0.254270
O O7 0.837147 0.252957 0.220266
O O8 0.500000 0.305860 0.000000
O O9 0.863084 0.500000 0.663856
O O10 0.938239 0.235003 0.688676
O O11 0.960850 0.301173 0.794275
O O12 0.372321 0.212036 0.757305
O O13 0.000000 0.204332 0.500000
O O14 0.222710 0.000000 0.691997
O O15 0.104769 0.000000 0.777710
O O16 0.290942 0.802524 0.959585
O O17 0.404305 0.000000 0.101102
O O18 0.315339 0.738700 0.066520
O O19 0.848486 0.500000 0.022292
O O20 0.917416 0.749581 0.030451
O O21 0.950667 0.000000 0.901957
O O22 0.000000 0.796726 0.000000
#
# Coordination Sequence:
#
# PCOD9145943 Si02
#       8
#     4   4   4   4   4   4   4   4
#     4  10  19  36  59  84 111 142 181 226 278 330
#     4  11  22  35  55  82 112 146 185 230 279 327
#     4   9  18  33  54  82 115 142 176 230 282 332
#     4  10  21  38  59  83 113 150 188 228 280 335
#     4  10  19  32  54  82 112 145 184 231 280 330
#     4   9  18  33  54  82 112 142 181 229 277 331
#     4  10  19  34  57  82 109 144 185 229 278 333
#     4  11  24  39  55  81 116 151 188 231 275 325
#
# _framework density 17.202701000000001
#
# number of rings (size 3 to 8) (size 9 to 14) (size 15 to 20)
#    0.000    2.000    2.500    1.500    0.000    4.000 
#    0.000    1.250    0.000    1.500    0.000    0.000 
#    0.000    0.000    0.000    0.000    0.000    0.000 
#
# Total GULP energy -178647.140100 kJ/mol
# GULP energy per Si atom -5582.723128 kJ/mol
# Density = 1.716355 g / cm^3
# Si number density = 17.202701 Si / 1000 Ang^3
#
#
#
# Elastic Constant Matrix: (Units=GPa)
#
#
# Indices 1 2 3 4 5 6 
#
# 1 159.9581 96.5113 74.6432 0.0000 16.4652 0.0000
# 2 96.5113 82.1630 64.7919 0.0000 3.8813 0.0000
# 3 74.6432 64.7919 89.6560 0.0000 15.7916 0.0000
# 4 0.0000 0.0000 0.0000 17.5334 0.0000 16.4699
# 5 16.4652 3.8813 15.7916 0.0000 22.4312 0.0000
# 6 0.0000 0.0000 0.0000 16.4699 0.0000 2.4102
#
#
#
# Elastic Compliance Matrix: (Units=1/GPa)
#
#
# Indices 1 2 3 4 5 6 
#
# 1 0.026294 -0.035520 0.006958 0.000000 -0.018053 0.000000
# 2 -0.035520 0.078796 -0.033747 0.000000 0.036197 0.000000
# 3 0.006958 -0.033747 0.033813 0.000000 -0.023072 0.000000
# 4 0.000000 0.000000 0.000000 -0.010525 0.000000 0.071921
# 5 -0.018053 0.036197 -0.023072 0.000000 0.067812 0.000000
# 6 0.000000 0.000000 0.000000 0.071921 0.000000 -0.076565
#
#
# Mechanical properties :
#
#
# Convention : Reuss Voigt Hill
#
# Bulk Modulus (GPa) = 70.00456 89.29665 79.65060
# Shear Modulus (GPa) = 20.07992 14.86368 17.47180
#
# Velocity S-wave (km/s) = 3.42022 2.94263 3.19037
# Velocity P-wave (km/s) = 7.50862 7.97287 7.74423
#
# Compressibility (1/GPa) = 0.01428478
#
# Stress axis : x y z
#
# Youngs Moduli (GPa) = 38.03112 12.69098 29.57451
#
# Poissons Ratio (x) = 0.45078 -0.20577
# Poissons Ratio (y) = 1.35087 0.99805
# Poissons Ratio (z) = -0.26461 0.42828
#
# Static dielectric constant tensor:
#      x y z
#    x 1.563580 0.000000 0.012420 
#    y 0.000000 1.569040 0.000000 
#    z 0.012420 0.000000 1.567960 
# 
# From -- ./inp_files/86914.got.cif
#   From: 2010.05.17/outbox.cif.g08.bks.cpg/sg10_44_cif.got.tgz:86914.got - 2010.06.03 11:33:40.
