data_PCOD9145484
_publ_section_title
;
Structure prediction by ZEFSAII (Michael W. Deem and Ramdas Pophale) SiO2 
 PCOD9145484
Probable space group: P 2/M
;
_chemical_formula_sum "Si O2"
_cell_formula_units_Z 28
_cell_length_a 20.092803
_cell_length_b 7.494787
_cell_length_c 17.331295
_cell_angle_alpha 90.000000
_cell_angle_beta 28.617069
_cell_angle_gamma 90.000000
_cell_volume 1250.040527
_symmetry_space_group_name_H-M "P 2/M"
_symmetry_group_IT_number 10
_symmetry_cell_setting 'monoclinic'
loop_
_space_group_symop_operation_xyz
x,y,z
-x,y,-z
-x,-y,-z
x,-y,z
loop_
_atom_site_type_symbol
_atom_site_label
_atom_site_fract_x
_atom_site_fract_y
_atom_site_fract_z
Si Si1 0.092138 0.289208 0.145272
Si Si2 0.416271 0.785267 0.835734
Si Si3 0.828385 0.204852 0.495538
Si Si4 0.423782 0.782942 0.999292
Si Si5 0.047250 0.290818 0.870110
Si Si6 0.155868 0.781929 0.352655
Si Si7 0.314769 0.215999 0.514462
O O1 0.065506 0.500000 0.176100
O O2 0.994177 0.207656 0.311433
O O3 0.032707 0.217292 0.123905
O O4 0.255918 0.260685 0.985791
O O5 0.525776 0.726414 0.658833
O O6 0.423137 0.000000 0.830378
O O7 0.463632 0.722569 0.873087
O O8 0.794965 0.280880 0.612987
O O9 0.759465 0.281347 0.489054
O O10 0.780059 0.000000 0.547249
O O11 0.263342 0.732977 0.177252
O O12 0.436035 0.000000 0.986547
O O13 0.500000 0.723016 0.000000
O O14 0.011053 0.500000 0.908276
O O15 0.212128 0.275294 0.686656
O O16 0.000000 0.213712 0.000000
O O17 0.000000 0.719838 0.500000
O O18 0.153817 0.000000 0.357183
O O19 0.310997 0.000000 0.520726
#
# Coordination Sequence:
#
# PCOD9145484 Si02
#       7
#     4   4   4   4   4   4   4
#     4  10  20  33  51  74  98 128 165 202 244 296
#     4  10  19  32  50  74 105 135 164 202 246 291
#     4   9  16  29  48  69  95 126 163 207 248 287
#     4   9  16  26  43  68  96 127 165 207 244 278
#     4   9  19  37  58  77  97 124 161 202 242 289
#     4   9  15  22  37  63  90 118 156 199 240 278
#     4   9  18  31  50  76 101 127 159 195 241 294
#
# _framework density 22.399272
#
# number of rings (size 3 to 8) (size 9 to 14) (size 15 to 20)
#    0.000    2.714    0.000    2.143    0.000    7.143 
#    0.000    0.714    0.000    8.571    0.000    0.000 
#    0.000    0.000    0.000    0.000    0.000    0.000 
#
# Total GULP energy -156243.009632 kJ/mol
# GULP energy per Si atom -5580.107487 kJ/mol
# Density = 2.234829 g / cm^3
# Si number density = 22.399272 Si / 1000 Ang^3
#
#
#
# Elastic Constant Matrix: (Units=GPa)
#
#
# Indices 1 2 3 4 5 6 
#
# 1 40.2242 -0.2578 29.2877 0.0000 9.6776 0.0000
# 2 -0.2578 62.2159 -11.7906 0.0000 4.6661 0.0000
# 3 29.2877 -11.7906 135.3226 0.0000 12.4775 0.0000
# 4 0.0000 0.0000 0.0000 29.2250 0.0000 -0.0565
# 5 9.6776 4.6661 12.4775 0.0000 42.7571 0.0000
# 6 0.0000 0.0000 0.0000 -0.0565 0.0000 0.2880
#
#
#
# Elastic Compliance Matrix: (Units=1/GPa)
#
#
# Indices 1 2 3 4 5 6 
#
# 1 0.030594 -0.000673 -0.006216 0.000000 -0.005037 0.000000
# 2 -0.000673 0.016573 0.001791 0.000000 -0.002179 0.000000
# 3 -0.006216 0.001791 0.009022 0.000000 -0.001421 0.000000
# 4 0.000000 0.000000 0.000000 0.034230 0.000000 0.006716
# 5 -0.005037 -0.002179 -0.001421 0.000000 0.025181 0.000000
# 6 0.000000 0.000000 0.000000 0.006716 0.000000 3.473192
#
#
# Mechanical properties :
#
#
# Convention : Reuss Voigt Hill
#
# Bulk Modulus (GPa) = 21.74280 30.24906 25.99593
# Shear Modulus (GPa) = 1.38339 29.15560 15.26950
#
# Velocity S-wave (km/s) = 0.78673 3.61173 2.61376
# Velocity P-wave (km/s) = 3.24858 5.56117 4.55411
#
# Compressibility (1/GPa) = 0.04599224
#
# Stress axis : x y z
#
# Youngs Moduli (GPa) = 32.68626 60.33909 110.83946
#
# Poissons Ratio (x) = 0.04063 0.68893
# Poissons Ratio (y) = 0.02201 -0.19847
# Poissons Ratio (z) = 0.20316 -0.10804
#
# Static dielectric constant tensor:
#      x y z
#    x 1.836110 0.000000 -0.016090 
#    y 0.000000 1.883140 0.000000 
#    z -0.016090 0.000000 1.850300 
# 
# From -- ./inp_files/79223.got.cif
#   From: 2010.05.17/outbox.cif.g08.bks.cpg/sg10_40_cif.got.tgz:79223.got - 2010.06.03 11:33:40.
