data_PCOD9145388
_publ_section_title
;
Structure prediction by ZEFSAII (Michael W. Deem and Ramdas Pophale) SiO2 
 PCOD9145388
Probable space group: P 2/M
;
_chemical_formula_sum "Si O2"
_cell_formula_units_Z 30
_cell_length_a 5.400487
_cell_length_b 19.153249
_cell_length_c 18.619932
_cell_angle_alpha 90.000000
_cell_angle_beta 108.540414
_cell_angle_gamma 90.000000
_cell_volume 1826.028016
_symmetry_space_group_name_H-M "P 2/M"
_symmetry_group_IT_number 10
_symmetry_cell_setting 'monoclinic'
loop_
_space_group_symop_operation_xyz
x,y,z
-x,y,-z
-x,-y,-z
x,-y,z
loop_
_atom_site_type_symbol
_atom_site_label
_atom_site_fract_x
_atom_site_fract_y
_atom_site_fract_z
Si Si1 0.521675 0.580872 0.404326
Si Si2 0.196028 0.580263 0.950630
Si Si3 0.872266 0.296205 0.641645
Si Si4 0.410650 0.839311 0.408437
Si Si5 0.529117 0.578798 0.760311
Si Si6 0.000000 0.667928 0.500000
Si Si7 0.084889 0.651928 0.802309
Si Si8 0.092109 0.919478 0.591939
O O1 0.474365 0.500000 0.418335
O O2 0.264009 0.628270 0.379184
O O3 0.615004 0.581566 0.329938
O O4 0.745639 0.618575 0.470364
O O5 0.159989 0.500000 0.916140
O O6 0.131732 0.645935 0.892365
O O7 0.500000 0.584244 0.000000
O O8 0.000000 0.583576 0.000000
O O9 0.649660 0.237657 0.625421
O O10 0.033672 0.293430 0.731194
O O11 0.999857 0.287052 0.573825
O O12 0.500000 0.833965 0.500000
O O13 0.635513 0.878201 0.384895
O O14 0.138526 0.882056 0.385458
O O15 0.558902 0.500000 0.786024
O O16 0.812981 0.610064 0.775090
O O17 0.349272 0.616790 0.799665
O O18 0.000000 0.920270 0.500000
O O19 0.124879 0.000000 0.617107
#
# Coordination Sequence:
#
# PCOD9145388 Si02
#       8
#     4   4   4   4   4   2   4   4
#     4  10  22  35  46  61  87 124 174 224 261 293
#     4  10  20  34  54  76  93 114 151 204 266 323
#     4  11  25  35  50  69  97 134 176 211 263 304
#     4  10  20  32  52  72 101 132 169 210 253 298
#     4  10  19  32  49  67  86 117 153 197 252 299
#     4  12  21  36  48  62  91 126 184 222 257 300
#     4  11  21  36  51  71  96 121 155 200 251 314
#     4   9  18  32  52  76  99 126 165 213 258 296
#
# _framework density 16.429102
#
# number of rings (size 3 to 8) (size 9 to 14) (size 15 to 20)
#    0.000    1.733    1.333    3.800    4.667    5.333 
#    0.000    0.000    0.000    0.000    0.000    0.000 
#    0.000    0.000    0.000    0.000    0.000   13.333 
#
# Total GULP energy -167005.638608 kJ/mol
# GULP energy per Si atom -5566.854620 kJ/mol
# Density = 1.639171 g / cm^3
# Si number density = 16.429102 Si / 1000 Ang^3
#
#
#
# Elastic Constant Matrix: (Units=GPa)
#
#
# Indices 1 2 3 4 5 6 
#
# 1 96.2257 14.9439 19.5424 0.0000 -1.1490 0.0000
# 2 14.9439 43.8911 13.6743 0.0000 3.2862 0.0000
# 3 19.5424 13.6743 69.4766 0.0000 -0.6532 0.0000
# 4 0.0000 0.0000 0.0000 1.5196 0.0000 3.5791
# 5 -1.1490 3.2862 -0.6532 0.0000 23.9909 0.0000
# 6 0.0000 0.0000 0.0000 3.5791 0.0000 22.2650
#
#
#
# Elastic Compliance Matrix: (Units=1/GPa)
#
#
# Indices 1 2 3 4 5 6 
#
# 1 0.011417 -0.003151 -0.002583 0.000000 0.000908 0.000000
# 2 -0.003151 0.025431 -0.004154 0.000000 -0.003748 0.000000
# 3 -0.002583 -0.004154 0.015946 0.000000 0.000880 0.000000
# 4 0.000000 0.000000 0.000000 1.059002 0.000000 -0.170233
# 5 0.000908 -0.003748 0.000880 0.000000 0.042263 0.000000
# 6 0.000000 0.000000 0.000000 -0.170233 0.000000 0.072278
#
#
# Mechanical properties :
#
#
# Convention : Reuss Voigt Hill
#
# Bulk Modulus (GPa) = 30.28598 33.99051 32.13825
# Shear Modulus (GPa) = 3.97735 20.31729 12.14732
#
# Velocity S-wave (km/s) = 1.55762 3.52044 2.72210
# Velocity P-wave (km/s) = 4.65932 6.10400 5.42992
#
# Compressibility (1/GPa) = 0.03301858
#
# Stress axis : x y z
#
# Youngs Moduli (GPa) = 87.58962 39.32169 62.71268
#
# Poissons Ratio (x) = 0.12388 0.16197
# Poissons Ratio (y) = 0.27595 0.26053
# Poissons Ratio (z) = 0.22622 0.16336
#
# Static dielectric constant tensor:
#      x y z
#    x 1.586800 0.000000 -0.023420 
#    y 0.000000 1.562440 0.000000 
#    z -0.023420 0.000000 1.642540 
# 
# From -- ./inp_files/73685.got.cif
#   From: 2010.05.17/outbox.cif.g08.bks.cpg/sg10_37_cif.got.tgz:73685.got - 2010.06.03 11:33:40.
