data_PCOD9145237
_publ_section_title
;
Structure prediction by ZEFSAII (Michael W. Deem and Ramdas Pophale) SiO2 
 PCOD9145237
Probable space group: P 2/M
;
_chemical_formula_sum "Si O2"
_cell_formula_units_Z 26
_cell_length_a 8.881766
_cell_length_b 12.730505
_cell_length_c 26.588517
_cell_angle_alpha 90.000000
_cell_angle_beta 28.531188
_cell_angle_gamma 90.000000
_cell_volume 1435.942631
_symmetry_space_group_name_H-M "P 2/M"
_symmetry_group_IT_number 10
_symmetry_cell_setting 'monoclinic'
loop_
_space_group_symop_operation_xyz
x,y,z
-x,y,-z
-x,-y,-z
x,-y,z
loop_
_atom_site_type_symbol
_atom_site_label
_atom_site_fract_x
_atom_site_fract_y
_atom_site_fract_z
Si Si1 0.375399 0.270834 0.898137
Si Si2 0.386003 0.500000 0.286237
Si Si3 0.632867 0.877472 0.907612
Si Si4 0.383393 0.877227 0.695121
Si Si5 0.630167 0.500000 0.518197
Si Si6 0.622851 0.500000 0.103087
Si Si7 0.382543 0.267945 0.286194
Si Si8 0.764285 0.291676 0.522971
O O1 0.489253 0.185354 0.903712
O O2 0.456156 0.387015 0.896356
O O3 0.532471 0.258470 0.797116
O O4 0.000000 0.265102 0.000000
O O5 0.462176 0.500000 0.204860
O O6 0.499060 0.384700 0.270581
O O7 0.011575 0.500000 0.404412
O O8 0.010292 0.870087 0.796571
O O9 0.544064 0.000000 0.929630
O O10 0.500000 0.838192 0.000000
O O11 0.467599 0.822100 0.723434
O O12 0.567598 0.807770 0.599738
O O13 0.475644 0.000000 0.667247
O O14 0.500000 0.500000 0.500000
O O15 0.554686 0.391846 0.569169
O O16 0.000000 0.500000 0.000000
O O17 0.006482 0.265413 0.406795
O O18 0.000000 0.320489 0.500000
#
# Coordination Sequence:
#
# PCOD9145237 Si02
#       8
#     4   2   4   4   2   2   4   4
#     4  10  19  34  57  81 105 137 175 214 258 312
#     4   8  16  31  48  74 106 135 168 211 258 296
#     4  10  22  39  55  74 104 137 172 219 267 307
#     4  10  21  36  53  76 107 139 171 214 267 313
#     4  10  19  31  52  78 104 136 178 222 255 297
#     4   8  16  30  49  76 107 131 156 203 261 305
#     4   9  18  33  55  78 104 137 177 216 251 306
#     4   9  19  34  53  77 108 142 175 212 259 312
#
# _framework density 18.106573999999998
#
# number of rings (size 3 to 8) (size 9 to 14) (size 15 to 20)
#    0.000    2.615    0.000    1.154    0.000    9.231 
#    0.000    1.154    0.000    2.308    0.000    0.000 
#    0.000    0.000    0.000    0.000    0.000    0.000 
#
# Total GULP energy -144847.725350 kJ/mol
# GULP energy per Si atom -5571.066360 kJ/mol
# Density = 1.806536 g / cm^3
# Si number density = 18.106574 Si / 1000 Ang^3
#
#
#
# Elastic Constant Matrix: (Units=GPa)
#
#
# Indices 1 2 3 4 5 6 
#
# 1 64.0546 74.9615 34.0599 0.0000 13.1739 0.0000
# 2 74.9615 164.4991 43.8265 0.0000 8.9633 0.0000
# 3 34.0599 43.8265 82.7055 0.0000 29.7192 0.0000
# 4 0.0000 0.0000 0.0000 26.5344 0.0000 5.2328
# 5 13.1739 8.9633 29.7192 0.0000 21.4321 0.0000
# 6 0.0000 0.0000 0.0000 5.2328 0.0000 18.6175
#
#
#
# Elastic Compliance Matrix: (Units=1/GPa)
#
#
# Indices 1 2 3 4 5 6 
#
# 1 0.038745 -0.016263 -0.002440 0.000000 -0.013631 0.000000
# 2 -0.016263 0.014126 -0.004499 0.000000 0.010328 0.000000
# 3 -0.002440 -0.004499 0.028432 0.000000 -0.036045 0.000000
# 4 0.000000 0.000000 0.000000 0.039899 0.000000 -0.011214
# 5 -0.013631 0.010328 -0.036045 0.000000 0.100700 0.000000
# 6 0.000000 0.000000 0.000000 -0.011214 0.000000 0.056865
#
#
# Mechanical properties :
#
#
# Convention : Reuss Voigt Hill
#
# Bulk Modulus (GPa) = 28.65426 68.55055 48.60241
# Shear Modulus (GPa) = 14.84546 23.87756 19.36151
#
# Velocity S-wave (km/s) = 2.86648 3.63536 3.27358
# Velocity P-wave (km/s) = 5.17835 7.45405 6.41787
#
# Compressibility (1/GPa) = 0.03489882
#
# Stress axis : x y z
#
# Youngs Moduli (GPa) = 25.81010 70.79160 35.17131
#
# Poissons Ratio (x) = 1.15128 0.08581
# Poissons Ratio (y) = 0.41975 0.15824
# Poissons Ratio (z) = 0.06297 0.31851
#
# Static dielectric constant tensor:
#      x y z
#    x 1.581270 0.000000 0.007280 
#    y 0.000000 1.668310 0.000000 
#    z 0.007280 0.000000 1.635500 
# 
# From -- ./inp_files/92285.got.cif
#   From: 2010.05.17/outbox.cif.g08.bks.cpg/sg10_47_cif.got.tgz:92285.got - 2010.06.03 11:33:40.
