data_PCOD9145045
_publ_section_title
;
Structure prediction by ZEFSAII (Michael W. Deem and Ramdas Pophale) SiO2 
 PCOD9145045
Probable space group: P 2/M
;
_chemical_formula_sum "Si O2"
_cell_formula_units_Z 32
_cell_length_a 11.951781
_cell_length_b 9.177957
_cell_length_c 21.895803
_cell_angle_alpha 90.000000
_cell_angle_beta 128.752244
_cell_angle_gamma 90.000000
_cell_volume 1873.079238
_symmetry_space_group_name_H-M "P 2/M"
_symmetry_group_IT_number 10
_symmetry_cell_setting 'monoclinic'
loop_
_space_group_symop_operation_xyz
x,y,z
-x,y,-z
-x,-y,-z
x,-y,z
loop_
_atom_site_type_symbol
_atom_site_label
_atom_site_fract_x
_atom_site_fract_y
_atom_site_fract_z
Si Si1 0.690945 0.673423 0.911734
Si Si2 0.138304 0.175611 0.276856
Si Si3 0.212335 0.832677 0.170735
Si Si4 0.368955 0.672677 0.752224
Si Si5 0.661095 0.677278 0.037904
Si Si6 0.142631 0.675019 0.780039
Si Si7 0.541456 0.167677 0.333339
Si Si8 0.564591 0.672125 0.589234
O O1 0.713571 0.500000 0.917973
O O2 0.787099 0.744358 0.891788
O O3 0.523263 0.699563 0.837276
O O4 0.709859 0.727469 0.987474
O O5 0.125409 0.220322 0.200472
O O6 0.284860 0.244350 0.352184
O O7 0.004853 0.238357 0.268089
O O8 0.146580 0.000000 0.281136
O O9 0.377401 0.828961 0.251556
O O10 0.174262 0.000000 0.145433
O O11 0.364679 0.500000 0.737304
O O12 0.242591 0.707309 0.756101
O O13 0.365433 0.762523 0.688665
O O14 0.655254 0.500000 0.033088
O O15 0.767639 0.715372 0.128734
O O16 0.500000 0.726034 0.000000
O O17 0.117739 0.500000 0.772686
O O18 0.538021 0.261090 0.393745
O O19 0.578136 0.000000 0.357718
O O20 0.500000 0.691782 0.500000
O O21 0.585616 0.500000 0.607624
#
# Coordination Sequence:
#
# PCOD9145045 Si02
#       8
#     4   4   4   4   4   4   4   4
#     4   9  15  25  46  71  92 121 165 216 260 296
#     4  10  21  36  52  72 102 137 169 202 246 305
#     4   8  16  30  45  63  91 127 164 204 248 294
#     4   9  16  27  46  72  99 131 172 214 254 293
#     4   9  15  27  46  70  99 128 167 218 263 299
#     4  10  19  31  50  73 100 136 174 216 259 299
#     4   9  17  29  48  75 105 134 164 200 242 292
#     4  10  20  35  58  85 107 127 157 200 246 293
#
# _framework density 17.084167999999998
#
# number of rings (size 3 to 8) (size 9 to 14) (size 15 to 20)
#    0.000    2.750    1.250    1.875    0.000    5.000 
#    0.000    1.250    0.000    5.250    0.000    5.250 
#    0.000    0.000    0.000    0.000    0.000    0.000 
#
# Total GULP energy -178336.781082 kJ/mol
# GULP energy per Si atom -5573.024409 kJ/mol
# Density = 1.704528 g / cm^3
# Si number density = 17.084168 Si / 1000 Ang^3
#
#
#
# Elastic Constant Matrix: (Units=GPa)
#
#
# Indices 1 2 3 4 5 6 
#
# 1 96.2711 56.0262 38.2859 0.0000 -18.8658 0.0000
# 2 56.0262 59.0100 42.7918 0.0000 -16.0589 0.0000
# 3 38.2859 42.7918 59.1565 0.0000 -20.4142 0.0000
# 4 0.0000 0.0000 0.0000 -0.7980 0.0000 2.8220
# 5 -18.8658 -16.0589 -20.4142 0.0000 25.3430 0.0000
# 6 0.0000 0.0000 0.0000 2.8220 0.0000 14.3960
#
#
#
# Elastic Compliance Matrix: (Units=1/GPa)
#
#
# Indices 1 2 3 4 5 6 
#
# 1 0.023897 -0.023870 0.003767 0.000000 0.005699 0.000000
# 2 -0.023870 0.059602 -0.028758 0.000000 -0.003167 0.000000
# 3 0.003767 -0.028758 0.041478 0.000000 0.017992 0.000000
# 4 0.000000 0.000000 0.000000 -0.740076 0.000000 0.145073
# 5 0.005699 -0.003167 0.017992 0.000000 0.056187 0.000000
# 6 0.000000 0.000000 0.000000 0.145073 0.000000 0.041026
#
#
# Mechanical properties :
#
#
# Convention : Reuss Voigt Hill
#
# Bulk Modulus (GPa) = 36.69104 54.29394 45.49249
# Shear Modulus (GPa) = -12.16313 12.94377 0.39032
#
# Velocity S-wave (km/s) = -2.67114 2.75553 0.47850
# Velocity P-wave (km/s) = 3.46554 6.47867 5.19534
#
# Compressibility (1/GPa) = 0.02725461
#
# Stress axis : x y z
#
# Youngs Moduli (GPa) = 41.84561 16.77806 24.10902
#
# Poissons Ratio (x) = 0.40049 -0.09081
# Poissons Ratio (y) = 0.99884 0.69334
# Poissons Ratio (z) = -0.15762 0.48251
#
# Static dielectric constant tensor:
#      x y z
#    x 1.584940 0.000000 -0.010140 
#    y 0.000000 1.572620 0.000000 
#    z -0.010140 0.000000 1.567430 
# 
# From -- ./inp_files/83353.got.cif
#   From: 2010.05.17/outbox.cif.g08.bks.cpg/sg10_42_cif.got.tgz:83353.got - 2010.06.03 11:33:40.
