data_PCOD9145123
_publ_section_title
;
Structure prediction by ZEFSAII (Michael W. Deem and Ramdas Pophale) SiO2 
 PCOD9145123
Probable space group: P 2/M
;
_chemical_formula_sum "Si O2"
_cell_formula_units_Z 28
_cell_length_a 21.963403
_cell_length_b 8.981745
_cell_length_c 15.501260
_cell_angle_alpha 90.000000
_cell_angle_beta 24.404165
_cell_angle_gamma 90.000000
_cell_volume 1263.446316
_symmetry_space_group_name_H-M "P 2/M"
_symmetry_group_IT_number 10
_symmetry_cell_setting 'monoclinic'
loop_
_space_group_symop_operation_xyz
x,y,z
-x,y,-z
-x,-y,-z
x,-y,z
loop_
_atom_site_type_symbol
_atom_site_label
_atom_site_fract_x
_atom_site_fract_y
_atom_site_fract_z
Si Si1 0.673691 0.323050 0.444257
Si Si2 0.700666 0.172798 0.680418
Si Si3 0.918441 0.826144 0.233406
Si Si4 0.464209 0.177935 0.856410
Si Si5 0.233584 0.320436 0.859512
Si Si6 0.763532 0.672444 0.955325
Si Si7 0.921593 0.673266 0.515995
O O1 0.656170 0.500000 0.479285
O O2 0.833939 0.270188 0.270687
O O3 0.562279 0.236494 0.649805
O O4 0.664714 0.289971 0.354266
O O5 0.816620 0.181723 0.450829
O O6 0.547824 0.229693 0.835544
O O7 0.779755 0.252992 0.657202
O O8 0.680972 0.000000 0.728995
O O9 0.924926 0.000000 0.200125
O O10 0.078983 0.761566 0.044001
O O11 0.465245 0.000000 0.857185
O O12 0.305367 0.238736 0.035237
O O13 0.209903 0.500000 0.892354
O O14 0.290784 0.277522 0.880461
O O15 0.722486 0.500000 0.995872
O O16 0.940667 0.680109 0.727988
O O17 0.887882 0.500000 0.577382
O O18 0.000000 0.737733 0.500000
#
# Coordination Sequence:
#
# PCOD9145123 Si02
#       7
#     4   4   4   4   4   4   4
#     4  10  20  33  51  76 109 150 194 235 278 325
#     4   9  19  36  57  82 111 147 186 225 273 336
#     4  10  19  31  50  78 112 147 190 235 280 328
#     4  10  22  39  57  81 114 151 194 231 273 332
#     4  10  20  33  51  77 109 149 194 235 278 332
#     4  10  21  38  58  82 113 148 186 230 283 335
#     4  10  21  38  63  92 115 138 178 230 280 335
#
# _framework density 22.161605000000002
#
# number of rings (size 3 to 8) (size 9 to 14) (size 15 to 20)
#    0.000    2.143    1.429    2.571    0.000    7.714 
#    0.000    3.571    0.000    4.286    0.000    0.000 
#    0.000    0.000    0.000    0.000    0.000    0.000 
#
# Total GULP energy -156433.108392 kJ/mol
# GULP energy per Si atom -5586.896728 kJ/mol
# Density = 2.211116 g / cm^3
# Si number density = 22.161605 Si / 1000 Ang^3
#
#
#
# Elastic Constant Matrix: (Units=GPa)
#
#
# Indices 1 2 3 4 5 6 
#
# 1 170.6523 47.6718 35.6593 0.0000 -9.0574 0.0000
# 2 47.6718 36.6264 12.1368 0.0000 -8.6908 0.0000
# 3 35.6593 12.1368 62.0417 0.0000 -10.2076 0.0000
# 4 0.0000 0.0000 0.0000 38.6420 0.0000 29.9008
# 5 -9.0574 -8.6908 -10.2076 0.0000 42.0250 0.0000
# 6 0.0000 0.0000 0.0000 29.9008 0.0000 82.7441
#
#
#
# Elastic Compliance Matrix: (Units=1/GPa)
#
#
# Indices 1 2 3 4 5 6 
#
# 1 0.009879 -0.011973 -0.003534 0.000000 -0.001205 0.000000
# 2 -0.011973 0.044685 -0.000796 0.000000 0.006467 0.000000
# 3 -0.003534 -0.000796 0.018908 0.000000 0.003666 0.000000
# 4 0.000000 0.000000 0.000000 0.035924 0.000000 -0.012982
# 5 -0.001205 0.006467 0.003666 0.000000 0.025764 0.000000
# 6 0.000000 0.000000 0.000000 -0.012982 0.000000 0.016777
#
#
# Mechanical properties :
#
#
# Convention : Reuss Voigt Hill
#
# Bulk Modulus (GPa) = 24.47010 51.13960 37.80485
# Shear Modulus (GPa) = 25.23159 44.27237 34.75198
#
# Velocity S-wave (km/s) = 3.37787 4.47442 3.96424
# Velocity P-wave (km/s) = 5.12630 7.05831 6.16842
#
# Compressibility (1/GPa) = 0.04086620
#
# Stress axis : x y z
#
# Youngs Moduli (GPa) = 101.22343 22.37895 52.88654
#
# Poissons Ratio (x) = 0.26795 0.18691
# Poissons Ratio (y) = 1.21197 0.04208
# Poissons Ratio (z) = 0.35775 0.01781
#
# Static dielectric constant tensor:
#      x y z
#    x 1.835640 0.000000 0.019680 
#    y 0.000000 1.750750 0.000000 
#    z 0.019680 0.000000 1.892450 
# 
# From -- ./inp_files/70200.got.cif
#   From: 2010.05.17/outbox.cif.g08.bks.cpg/sg10_36_cif.got.tgz:70200.got - 2010.06.03 11:33:40.
