data_PCOD9145467
_publ_section_title
;
Structure prediction by ZEFSAII (Michael W. Deem and Ramdas Pophale) SiO2 
 PCOD9145467
Probable space group: P 2/M
;
_chemical_formula_sum "Si O2"
_cell_formula_units_Z 32
_cell_length_a 18.986181
_cell_length_b 21.973645
_cell_length_c 12.234034
_cell_angle_alpha 90.000000
_cell_angle_beta 160.220081
_cell_angle_gamma 90.000000
_cell_volume 1727.230128
_symmetry_space_group_name_H-M "P 2/M"
_symmetry_group_IT_number 10
_symmetry_cell_setting 'monoclinic'
loop_
_space_group_symop_operation_xyz
x,y,z
-x,y,-z
-x,-y,-z
x,-y,z
loop_
_atom_site_type_symbol
_atom_site_label
_atom_site_fract_x
_atom_site_fract_y
_atom_site_fract_z
Si Si1 0.738198 0.862686 0.322143
Si Si2 0.594804 0.432483 0.758780
Si Si3 0.798046 0.793250 0.632455
Si Si4 0.102455 0.933430 0.769655
Si Si5 0.404666 0.676377 0.747064
Si Si6 0.210467 0.569343 0.368497
Si Si7 0.342430 0.819243 0.041279
Si Si8 0.223950 0.315855 0.880709
O O1 0.807139 0.822839 0.525802
O O2 0.906298 0.916088 0.558082
O O3 0.500000 0.881657 0.000000
O O4 0.736369 0.828209 0.200927
O O5 0.500000 0.431030 0.500000
O O6 0.693898 0.500000 0.919954
O O7 0.399406 0.429304 0.556985
O O8 0.737584 0.372794 0.982715
O O9 0.751449 0.723073 0.538028
O O10 0.591322 0.817402 0.392215
O O11 0.000000 0.802627 0.000000
O O12 0.000000 0.937155 0.500000
O O13 0.191866 0.000000 0.926753
O O14 0.259288 0.876511 0.988821
O O15 0.284958 0.612619 0.575011
O O16 0.500000 0.698371 0.000000
O O17 0.603756 0.673355 0.960329
O O18 0.176840 0.500000 0.355242
O O19 0.000000 0.589751 0.000000
O O20 0.263682 0.754512 0.973853
O O21 0.000000 0.319174 0.500000
#
# Coordination Sequence:
#
# PCOD9145467 Si02
#       8
#     4   4   4   4   4   4   4   4
#     4   9  17  31  53  77 103 133 167 210 253 294
#     4   9  19  35  51  70  99 132 167 207 249 294
#     4  10  19  33  52  73  98 131 171 210 251 303
#     4   9  17  31  54  81 107 136 170 210 255 302
#     4  10  20  33  50  73 100 129 163 208 260 303
#     4   9  18  33  51  71  98 131 167 207 249 299
#     4   9  18  34  52  76 106 133 166 211 259 301
#     4  10  19  32  50  73 100 131 166 206 250 298
#
# _framework density 18.526772999999999
#
# number of rings (size 3 to 8) (size 9 to 14) (size 15 to 20)
#    0.000    2.625    0.000    3.375    0.000    1.750 
#    0.000   10.000    0.000    2.250    0.000    0.000 
#    0.000    0.000    0.000    0.000    0.000    0.000 
#
# Total GULP energy -178198.296150 kJ/mol
# GULP energy per Si atom -5568.696755 kJ/mol
# Density = 1.848461 g / cm^3
# Si number density = 18.526773 Si / 1000 Ang^3
#
#
#
# Elastic Constant Matrix: (Units=GPa)
#
#
# Indices 1 2 3 4 5 6 
#
# 1 33.9568 29.6067 14.0604 0.0000 0.2201 0.0000
# 2 29.6067 137.7743 64.2955 0.0000 11.7458 0.0000
# 3 14.0604 64.2955 100.8986 0.0000 -9.3313 0.0000
# 4 0.0000 0.0000 0.0000 42.5357 0.0000 0.7009
# 5 0.2201 11.7458 -9.3313 0.0000 9.4002 0.0000
# 6 0.0000 0.0000 0.0000 0.7009 0.0000 4.0667
#
#
#
# Elastic Compliance Matrix: (Units=1/GPa)
#
#
# Indices 1 2 3 4 5 6 
#
# 1 0.037542 -0.010922 0.003203 0.000000 0.015948 0.000000
# 2 -0.010922 0.019806 -0.014715 0.000000 -0.039099 0.000000
# 3 0.003203 -0.014715 0.022610 0.000000 0.040756 0.000000
# 4 0.000000 0.000000 0.000000 0.023577 0.000000 -0.004064
# 5 0.015948 -0.039099 0.040756 0.000000 0.195320 0.000000
# 6 0.000000 0.000000 0.000000 -0.004064 0.000000 0.246602
#
#
# Mechanical properties :
#
#
# Convention : Reuss Voigt Hill
#
# Bulk Modulus (GPa) = 28.49713 54.28389 41.39051
# Shear Modulus (GPa) = 8.30535 22.17829 15.24182
#
# Velocity S-wave (km/s) = 2.11958 3.46366 2.87137
# Velocity P-wave (km/s) = 4.62657 6.73497 5.77776
#
# Compressibility (1/GPa) = 0.03509125
#
# Stress axis : x y z
#
# Youngs Moduli (GPa) = 26.63662 50.49099 44.22757
#
# Poissons Ratio (x) = 0.55146 -0.14167
# Poissons Ratio (y) = 0.29093 0.65079
# Poissons Ratio (z) = -0.08532 0.74295
#
# Static dielectric constant tensor:
#      x y z
#    x 1.643790 0.000000 0.019010 
#    y 0.000000 1.705690 0.000000 
#    z 0.019010 0.000000 1.608910 
# 
# From -- ./inp_files/54272.got.cif
#   From: 2010.05.17/outbox.cif.g08.bks.cpg/sg10_28_cif.got.tgz:54272.got - 2010.06.03 11:33:40.
