data_PCOD9145085
_publ_section_title
;
Structure prediction by ZEFSAII (Michael W. Deem and Ramdas Pophale) SiO2 
 PCOD9145085
Probable space group: P 2/M
;
_chemical_formula_sum "Si O2"
_cell_formula_units_Z 32
_cell_length_a 24.846612
_cell_length_b 9.642863
_cell_length_c 10.240712
_cell_angle_alpha 90.000000
_cell_angle_beta 140.419970
_cell_angle_gamma 90.000000
_cell_volume 1563.322908
_symmetry_space_group_name_H-M "P 2/M"
_symmetry_group_IT_number 10
_symmetry_cell_setting 'monoclinic'
loop_
_space_group_symop_operation_xyz
x,y,z
-x,y,-z
-x,-y,-z
x,-y,z
loop_
_atom_site_type_symbol
_atom_site_label
_atom_site_fract_x
_atom_site_fract_y
_atom_site_fract_z
Si Si1 0.922578 0.336301 0.450917
Si Si2 0.689889 0.341900 0.406886
Si Si3 0.454970 0.348099 0.653677
Si Si4 0.599271 0.846067 0.655486
Si Si5 0.425727 0.840882 0.973640
Si Si6 0.191731 0.164002 0.178930
Si Si7 0.027121 0.341225 0.900195
Si Si8 0.772339 0.158685 0.062262
O O1 0.910484 0.500000 0.405571
O O2 0.837119 0.257613 0.255802
O O3 0.000000 0.291429 0.500000
O O4 0.952773 0.316987 0.656498
O O5 0.718773 0.500000 0.427792
O O6 0.604761 0.359214 0.332733
O O7 0.655918 0.244416 0.227177
O O8 0.754061 0.256177 0.618110
O O9 0.486635 0.500000 0.676463
O O10 0.396684 0.280998 0.435385
O O11 0.529243 0.243414 0.827483
O O12 0.500000 0.849911 0.500000
O O13 0.617950 0.000000 0.631825
O O14 0.671967 0.825440 0.898580
O O15 0.406319 0.000000 0.969807
O O16 0.500000 0.846101 0.000000
O O17 0.196157 0.000000 0.219662
O O18 0.098346 0.227379 0.010630
O O19 0.219123 0.179149 0.078776
O O20 0.058481 0.500000 0.932869
O O21 0.000000 0.335760 0.000000
O O22 0.795816 0.000000 0.135460
#
# Coordination Sequence:
#
# PCOD9145085 Si02
#       8
#     4   4   4   4   4   4   4   4
#     4  10  20  36  62  93 121 154 201 249 299 363
#     4  10  19  31  50  78 110 143 185 237 291 349
#     4  10  19  31  50  75 105 141 185 240 297 352
#     4  10  21  38  57  78 111 155 199 245 304 366
#     4   9  17  29  47  71 102 139 180 229 283 340
#     4  11  21  34  57  87 118 152 197 248 302 361
#     4  10  22  41  62  87 124 164 198 238 302 373
#     4  10  21  36  58  89 119 151 198 254 306 359
#
# _framework density 20.469218999999999
#
# number of rings (size 3 to 8) (size 9 to 14) (size 15 to 20)
#    0.000    2.000    2.500    1.500    0.000    4.750 
#    0.000    1.250    0.000    3.000    0.000    0.000 
#    0.000    0.000    0.000    0.000    0.000    0.000 
#
# Total GULP energy -178446.824804 kJ/mol
# GULP energy per Si atom -5576.463275 kJ/mol
# Density = 2.042263 g / cm^3
# Si number density = 20.469219 Si / 1000 Ang^3
#
#
#
# Elastic Constant Matrix: (Units=GPa)
#
#
# Indices 1 2 3 4 5 6 
#
# 1 36.0257 22.3560 21.7055 0.0000 5.0854 0.0000
# 2 22.3560 161.1241 98.1681 0.0000 1.3077 0.0000
# 3 21.7055 98.1681 161.2841 0.0000 1.5954 0.0000
# 4 0.0000 0.0000 0.0000 60.8588 0.0000 20.7611
# 5 5.0854 1.3077 1.5954 0.0000 25.0613 0.0000
# 6 0.0000 0.0000 0.0000 20.7611 0.0000 23.1822
#
#
#
# Elastic Compliance Matrix: (Units=1/GPa)
#
#
# Indices 1 2 3 4 5 6 
#
# 1 0.031904 -0.002857 -0.002493 0.000000 -0.006166 0.000000
# 2 -0.002857 0.010121 -0.005780 0.000000 0.000420 0.000000
# 3 -0.002493 -0.005780 0.010052 0.000000 0.000168 0.000000
# 4 0.000000 0.000000 0.000000 0.023660 0.000000 -0.021189
# 5 -0.006166 0.000420 0.000168 0.000000 0.041121 0.000000
# 6 0.000000 0.000000 0.000000 -0.021189 0.000000 0.062112
#
#
# Mechanical properties :
#
#
# Convention : Reuss Voigt Hill
#
# Bulk Modulus (GPa) = 33.53959 71.43256 52.48608
# Shear Modulus (GPa) = 23.67764 36.23410 29.95587
#
# Velocity S-wave (km/s) = 3.40478 4.21191 3.82967
# Velocity P-wave (km/s) = 5.64603 7.65682 6.72698
#
# Compressibility (1/GPa) = 0.02981551
#
# Stress axis : x y z
#
# Youngs Moduli (GPa) = 31.34420 98.80478 99.48126
#
# Poissons Ratio (x) = 0.28233 0.24804
# Poissons Ratio (y) = 0.08957 0.57499
# Poissons Ratio (z) = 0.07815 0.57108
#
# Static dielectric constant tensor:
#      x y z
#    x 1.803930 0.000000 -0.006750 
#    y 0.000000 1.727830 0.000000 
#    z -0.006750 0.000000 1.717260 
# 
# From -- ./inp_files/58306.got.cif
#   From: 2010.05.17/outbox.cif.g08.bks.cpg/sg10_30_cif.got.tgz:58306.got - 2010.06.03 11:33:40.
