data_PCOD9145526
_publ_section_title
;
Structure prediction by ZEFSAII (Michael W. Deem and Ramdas Pophale) SiO2 
 PCOD9145526
Probable space group: P 2/M
;
_chemical_formula_sum "Si O2"
_cell_formula_units_Z 28
_cell_length_a 23.205837
_cell_length_b 9.943664
_cell_length_c 19.333091
_cell_angle_alpha 90.000000
_cell_angle_beta 163.107220
_cell_angle_gamma 90.000000
_cell_volume 1296.322667
_symmetry_space_group_name_H-M "P 2/M"
_symmetry_group_IT_number 10
_symmetry_cell_setting 'monoclinic'
loop_
_space_group_symop_operation_xyz
x,y,z
-x,y,-z
-x,-y,-z
x,-y,z
loop_
_atom_site_type_symbol
_atom_site_label
_atom_site_fract_x
_atom_site_fract_y
_atom_site_fract_z
Si Si1 0.150889 0.152929 0.489476
Si Si2 0.654636 0.640388 0.616429
Si Si3 0.272421 0.150734 0.075954
Si Si4 0.840992 0.148385 0.753242
Si Si5 0.078824 0.350162 0.950675
Si Si6 0.438012 0.157905 0.118185
Si Si7 0.936123 0.342755 0.346903
O O1 0.948850 0.149414 0.212492
O O2 0.099627 0.263743 0.488566
O O3 0.175224 0.000000 0.545766
O O4 0.347778 0.183010 0.670543
O O5 0.500000 0.639573 0.500000
O O6 0.639493 0.500000 0.558256
O O7 0.659362 0.775844 0.579768
O O8 0.851121 0.634828 0.889409
O O9 0.246158 0.275286 0.098074
O O10 0.420345 0.170111 0.181298
O O11 0.301596 0.000000 0.140655
O O12 0.908307 0.242067 0.767556
O O13 0.802489 0.000000 0.683739
O O14 0.000000 0.136232 0.000000
O O15 0.034207 0.500000 0.873127
O O16 0.269269 0.259698 0.897191
O O17 0.386824 0.000000 0.045018
O O18 0.915379 0.500000 0.301481
O O19 0.000000 0.340397 0.500000
#
# Coordination Sequence:
#
# PCOD9145526 Si02
#       7
#     4   4   4   4   4   4   4
#     4   9  19  37  59  80 106 143 186 227 270 317
#     4   9  18  33  50  69  99 131 161 204 256 311
#     4   9  18  34  54  76 106 137 173 222 269 314
#     4   9  17  30  49  70  92 121 160 202 247 300
#     4  10  19  32  51  72  97 131 167 205 255 313
#     4   9  19  37  59  80 106 143 184 227 270 314
#     4  10  21  35  53  82 118 150 180 219 268 318
#
# _framework density 21.599561000000001
#
# number of rings (size 3 to 8) (size 9 to 14) (size 15 to 20)
#    0.000    2.714    0.000    2.143    0.000    7.143 
#    2.571    2.857    0.000    0.000    0.000    0.000 
#    0.000    0.000    0.000    0.000    0.000    0.000 
#
# Total GULP energy -156038.762232 kJ/mol
# GULP energy per Si atom -5572.812937 kJ/mol
# Density = 2.155040 g / cm^3
# Si number density = 21.599561 Si / 1000 Ang^3
#
#
#
# Elastic Constant Matrix: (Units=GPa)
#
#
# Indices 1 2 3 4 5 6 
#
# 1 98.4256 80.0803 43.6317 0.0000 33.4582 0.0000
# 2 80.0803 209.0870 51.2051 0.0000 26.4081 0.0000
# 3 43.6317 51.2051 71.1193 0.0000 27.1101 0.0000
# 4 0.0000 0.0000 0.0000 27.1911 0.0000 48.4577
# 5 33.4582 26.4081 27.1101 0.0000 46.1521 0.0000
# 6 0.0000 0.0000 0.0000 48.4577 0.0000 179.3869
#
#
#
# Elastic Compliance Matrix: (Units=1/GPa)
#
#
# Indices 1 2 3 4 5 6 
#
# 1 0.019351 -0.005144 -0.005080 0.000000 -0.008101 0.000000
# 2 -0.005144 0.007219 -0.002434 0.000000 0.001028 0.000000
# 3 -0.005080 -0.002434 0.021898 0.000000 -0.007788 0.000000
# 4 0.000000 0.000000 0.000000 0.070916 0.000000 -0.019156
# 5 -0.008101 0.001028 -0.007788 0.000000 0.031527 0.000000
# 6 0.000000 0.000000 0.000000 -0.019156 0.000000 0.010749
#
#
# Mechanical properties :
#
#
# Convention : Reuss Voigt Hill
#
# Bulk Modulus (GPa) = 43.19122 80.94069 62.06595
# Shear Modulus (GPa) = 25.68132 64.12699 44.90416
#
# Velocity S-wave (km/s) = 3.45189 5.45467 4.56448
# Velocity P-wave (km/s) = 5.99393 8.78783 7.52174
#
# Compressibility (1/GPa) = 0.02315285
#
# Stress axis : x y z
#
# Youngs Moduli (GPa) = 51.67638 138.52215 45.66551
#
# Poissons Ratio (x) = 0.71259 0.23199
# Poissons Ratio (y) = 0.26583 0.11113
# Poissons Ratio (z) = 0.26252 0.33710
#
# Static dielectric constant tensor:
#      x y z
#    x 1.773250 0.000000 -0.004390 
#    y 0.000000 1.851750 0.000000 
#    z -0.004390 0.000000 1.909110 
# 
# From -- ./inp_files/86467.got.cif
#   From: 2010.05.17/outbox.cif.g08.bks.cpg/sg10_44_cif.got.tgz:86467.got - 2010.06.03 11:33:40.
