data_PCOD9145935
_publ_section_title
;
Structure prediction by ZEFSAII (Michael W. Deem and Ramdas Pophale) SiO2 
 PCOD9145935
Probable space group: P 2/M
;
_chemical_formula_sum "Si O2"
_cell_formula_units_Z 32
_cell_length_a 21.019138
_cell_length_b 8.807816
_cell_length_c 25.820798
_cell_angle_alpha 90.000000
_cell_angle_beta 157.450936
_cell_angle_gamma 90.000000
_cell_volume 1833.112896
_symmetry_space_group_name_H-M "P 2/M"
_symmetry_group_IT_number 10
_symmetry_cell_setting 'monoclinic'
loop_
_space_group_symop_operation_xyz
x,y,z
-x,y,-z
-x,-y,-z
x,-y,z
loop_
_atom_site_type_symbol
_atom_site_label
_atom_site_fract_x
_atom_site_fract_y
_atom_site_fract_z
Si Si1 0.815006 0.817502 0.617004
Si Si2 0.387051 0.317882 0.068028
Si Si3 0.504751 0.681400 0.334031
Si Si4 0.350428 0.181998 0.662781
Si Si5 0.342926 0.317111 0.915385
Si Si6 0.008285 0.181906 0.358258
Si Si7 0.122003 0.317185 0.045651
Si Si8 0.080011 0.182004 0.901266
O O1 0.637939 0.738943 0.476016
O O2 0.925922 0.775596 0.649913
O O3 0.917838 0.777219 0.745441
O O4 0.792800 0.000000 0.598587
O O5 0.383169 0.500000 0.068324
O O6 0.558406 0.256746 0.220388
O O7 0.362963 0.270776 0.990421
O O8 0.238891 0.251081 0.991375
O O9 0.518652 0.500000 0.338456
O O10 0.556060 0.760217 0.318616
O O11 0.314020 0.719285 0.202437
O O12 0.157697 0.223154 0.509366
O O13 0.363328 0.000000 0.674863
O O14 0.339683 0.500000 0.911502
O O15 0.167596 0.256417 0.763506
O O16 0.500000 0.264726 0.000000
O O17 0.990611 0.000000 0.345550
O O18 0.110736 0.500000 0.031695
O O19 0.075500 0.243192 0.956012
O O20 0.000000 0.269686 0.000000
O O21 0.095213 0.000000 0.912601
#
# Coordination Sequence:
#
# PCOD9145935 Si02
#       8
#     4   4   4   4   4   4   4   4
#     4   9  19  34  53  80 112 141 177 227 276 322
#     4  11  21  34  55  83 110 141 184 228 273 326
#     4  10  19  32  54  82 108 142 184 222 271 325
#     4  10  20  34  54  81 112 141 176 228 277 322
#     4  10  22  38  55  79 112 147 183 225 274 327
#     4   9  18  34  54  79 108 142 181 220 270 326
#     4  10  22  39  56  79 114 149 183 227 275 329
#     4  11  21  35  57  83 110 142 184 230 275 323
#
# _framework density 17.456644000000001
#
# number of rings (size 3 to 8) (size 9 to 14) (size 15 to 20)
#    0.000    2.000    2.500    2.250    0.000    5.000 
#    0.000    1.250    0.000    7.500    0.000    0.000 
#    0.000    0.000    0.000    0.000    0.000    0.000 
#
# Total GULP energy -178609.424120 kJ/mol
# GULP energy per Si atom -5581.544504 kJ/mol
# Density = 1.741691 g / cm^3
# Si number density = 17.456644 Si / 1000 Ang^3
#
#
#
# Elastic Constant Matrix: (Units=GPa)
#
#
# Indices 1 2 3 4 5 6 
#
# 1 46.2035 13.1480 26.0029 0.0000 1.8271 0.0000
# 2 13.1480 22.7500 28.1822 0.0000 -1.6887 0.0000
# 3 26.0029 28.1822 124.3973 0.0000 -2.9090 0.0000
# 4 0.0000 0.0000 0.0000 35.5123 0.0000 6.1376
# 5 1.8271 -1.6887 -2.9090 0.0000 25.4663 0.0000
# 6 0.0000 0.0000 0.0000 6.1376 0.0000 48.5828
#
#
#
# Elastic Compliance Matrix: (Units=1/GPa)
#
#
# Indices 1 2 3 4 5 6 
#
# 1 0.026867 -0.012107 -0.002945 0.000000 -0.003067 0.000000
# 2 -0.012107 0.066717 -0.012494 0.000000 0.003866 0.000000
# 3 -0.002945 -0.012494 0.011501 0.000000 0.000697 0.000000
# 4 0.000000 0.000000 0.000000 0.028788 0.000000 -0.003637
# 5 -0.003067 0.003866 0.000697 0.000000 0.039824 0.000000
# 6 0.000000 0.000000 0.000000 -0.003637 0.000000 0.021043
#
#
# Mechanical properties :
#
#
# Convention : Reuss Voigt Hill
#
# Bulk Modulus (GPa) = 20.00240 36.44635 28.22437
# Shear Modulus (GPa) = 18.76208 30.31344 24.53776
#
# Velocity S-wave (km/s) = 3.28194 4.17165 3.75325
# Velocity P-wave (km/s) = 5.08377 6.64282 5.91489
#
# Compressibility (1/GPa) = 0.04999400
#
# Stress axis : x y z
#
# Youngs Moduli (GPa) = 37.21992 14.98877 86.94855
#
# Poissons Ratio (x) = 0.18147 0.25606
# Poissons Ratio (y) = 0.45062 1.08629
# Poissons Ratio (z) = 0.10961 0.18726
#
# Static dielectric constant tensor:
#      x y z
#    x 1.567660 0.000000 -0.009260 
#    y 0.000000 1.585960 0.000000 
#    z -0.009260 0.000000 1.601380 
# 
# From -- ./inp_files/93809.got.cif
#   From: 2010.05.17/outbox.cif.g08.bks.cpg/sg10_47_cif.got.tgz:93809.got - 2010.06.03 11:33:40.
