data_PCOD9145382
_publ_section_title
;
Structure prediction by ZEFSAII (Michael W. Deem and Ramdas Pophale) SiO2 
 PCOD9145382
Probable space group: P 2/M
;
_chemical_formula_sum "Si O2"
_cell_formula_units_Z 32
_cell_length_a 20.650819
_cell_length_b 14.186395
_cell_length_c 19.243042
_cell_angle_alpha 90.000000
_cell_angle_beta 158.721736
_cell_angle_gamma 90.000000
_cell_volume 2045.819603
_symmetry_space_group_name_H-M "P 2/M"
_symmetry_group_IT_number 10
_symmetry_cell_setting 'monoclinic'
loop_
_space_group_symop_operation_xyz
x,y,z
-x,y,-z
-x,-y,-z
x,-y,z
loop_
_atom_site_type_symbol
_atom_site_label
_atom_site_fract_x
_atom_site_fract_y
_atom_site_fract_z
Si Si1 0.999981 0.611389 0.922551
Si Si2 0.000006 0.386283 0.578458
Si Si3 0.288447 0.610893 0.980203
Si Si4 0.286560 0.286366 0.120702
Si Si5 0.283319 0.892743 0.362552
Si Si6 0.713403 0.286376 0.547558
Si Si7 0.283314 0.892744 0.204077
Si Si8 0.711583 0.610894 0.403347
O O1 0.000009 0.500000 0.925139
O O2 0.824550 0.645051 0.707570
O O3 0.175371 0.645068 0.058369
O O4 0.000000 0.650844 0.000000
O O5 0.999984 0.500000 0.573256
O O6 0.000000 0.348421 0.500000
O O7 0.827502 0.362556 0.452275
O O8 0.172537 0.362568 0.797298
O O9 0.248524 0.500000 0.958139
O O10 0.245805 0.680116 0.001672
O O11 0.500016 0.616049 0.178298
O O12 0.499979 0.296031 0.343003
O O13 0.232977 0.182567 0.094878
O O14 0.232989 0.817422 0.371080
O O15 0.228409 0.866466 0.228407
O O16 0.500002 0.894074 0.578481
O O17 0.223585 0.000000 0.315963
O O18 0.754197 0.319892 0.510079
O O19 0.223577 0.000000 0.131198
O O20 0.751507 0.500000 0.461124
#
# Coordination Sequence:
#
# PCOD9145382 Si02
#       8
#     4   4   4   4   4   4   4   4
#     4  11  23  33  42  61  86 114 155 199 228 260
#     4   9  17  29  45  64  88 117 142 169 211 258
#     4   9  17  28  43  64  88 115 147 179 212 257
#     4  10  19  32  49  65  87 120 152 185 230 275
#     4   8  14  26  45  67  89 115 149 189 232 274
#     4  10  19  32  49  65  87 120 152 185 230 275
#     4   8  14  26  45  67  89 115 149 189 232 274
#     4   9  17  28  43  64  88 115 147 179 212 257
#
# _framework density 15.641653
#
# number of rings (size 3 to 8) (size 9 to 14) (size 15 to 20)
#    0.000    2.750    0.000    3.000    0.000    4.500 
#    0.000    4.375    0.000    2.250    0.000    0.000 
#    0.000    2.000    0.000    9.750    0.000    0.250 
#
# Total GULP energy -178238.299284 kJ/mol
# GULP energy per Si atom -5569.946853 kJ/mol
# Density = 1.560605 g / cm^3
# Si number density = 15.641653 Si / 1000 Ang^3
#
#
#
# Elastic Constant Matrix: (Units=GPa)
#
#
# Indices 1 2 3 4 5 6 
#
# 1 142.6347 57.3272 55.8750 0.0000 -17.9469 0.0000
# 2 57.3272 84.7606 25.7358 0.0000 -9.3361 0.0000
# 3 55.8750 25.7358 53.7050 0.0000 -8.3561 0.0000
# 4 0.0000 0.0000 0.0000 11.4451 0.0000 -3.0239
# 5 -17.9469 -9.3361 -8.3561 0.0000 15.8773 0.0000
# 6 0.0000 0.0000 0.0000 -3.0239 0.0000 21.7028
#
#
#
# Elastic Compliance Matrix: (Units=1/GPa)
#
#
# Indices 1 2 3 4 5 6 
#
# 1 0.014672 -0.005656 -0.011428 0.000000 0.007245 0.000000
# 2 -0.005656 0.016369 -0.001587 0.000000 0.002397 0.000000
# 3 -0.011428 -0.001587 0.031712 0.000000 0.002839 0.000000
# 4 0.000000 0.000000 0.000000 0.090713 0.000000 0.012639
# 5 0.007245 0.002397 0.002839 0.000000 0.074076 0.000000
# 6 0.000000 0.000000 0.000000 0.012639 0.000000 0.047838
#
#
# Mechanical properties :
#
#
# Convention : Reuss Voigt Hill
#
# Bulk Modulus (GPa) = 39.35055 62.10847 50.72951
# Shear Modulus (GPa) = 15.56707 19.28255 17.42481
#
# Velocity S-wave (km/s) = 3.15815 3.51489 3.34129
# Velocity P-wave (km/s) = 6.20570 7.50106 6.88392
#
# Compressibility (1/GPa) = 0.02541260
#
# Stress axis : x y z
#
# Youngs Moduli (GPa) = 68.15628 61.09120 31.53407
#
# Poissons Ratio (x) = 0.34551 0.36036
# Poissons Ratio (y) = 0.38547 0.05004
# Poissons Ratio (z) = 0.77886 0.09695
#
# Static dielectric constant tensor:
#      x y z
#    x 1.519520 0.000000 0.032090 
#    y 0.000000 1.524730 0.000000 
#    z 0.032090 0.000000 1.628130 
# 
# From -- ./inp_files/86282.got.cif
#   From: 2010.05.17/outbox.cif.g08.bks.cpg/sg10_44_cif.got.tgz:86282.got - 2010.06.03 11:33:40.
