data_PCOD9145009
_publ_section_title
;
Structure prediction by ZEFSAII (Michael W. Deem and Ramdas Pophale) SiO2 
 PCOD9145009
Probable space group: P 2/M
;
_chemical_formula_sum "Si O2"
_cell_formula_units_Z 32
_cell_length_a 13.131142
_cell_length_b 8.258799
_cell_length_c 31.051745
_cell_angle_alpha 90.000000
_cell_angle_beta 152.160780
_cell_angle_gamma 90.000000
_cell_volume 1572.587741
_symmetry_space_group_name_H-M "P 2/M"
_symmetry_group_IT_number 10
_symmetry_cell_setting 'monoclinic'
loop_
_space_group_symop_operation_xyz
x,y,z
-x,y,-z
-x,-y,-z
x,-y,z
loop_
_atom_site_type_symbol
_atom_site_label
_atom_site_fract_x
_atom_site_fract_y
_atom_site_fract_z
Si Si1 0.631428 0.193422 0.748230
Si Si2 0.893974 0.806348 0.177709
Si Si3 0.632250 0.307674 0.651100
Si Si4 0.569342 0.198647 0.131716
Si Si5 0.112930 0.197571 0.924603
Si Si6 0.836607 0.691205 0.401164
Si Si7 0.866855 0.188322 0.318361
Si Si8 0.303695 0.692450 0.459713
O O1 0.613465 0.262098 0.693494
O O2 0.410530 0.243377 0.688965
O O3 0.875062 0.246874 0.853607
O O4 0.636142 0.000000 0.748198
O O5 0.722632 0.746849 0.149145
O O6 0.862908 0.748638 0.116522
O O7 0.142811 0.764961 0.282447
O O8 0.870699 0.000000 0.167473
O O9 0.645998 0.500000 0.650506
O O10 0.415600 0.253197 0.545956
O O11 0.669877 0.251187 0.214933
O O12 0.575818 0.000000 0.134414
O O13 0.322552 0.249937 0.029933
O O14 0.115984 0.000000 0.924931
O O15 0.824360 0.500000 0.403578
O O16 0.910221 0.725350 0.379912
O O17 0.000000 0.756062 0.500000
O O18 0.083219 0.211205 0.370550
O O19 0.829586 0.000000 0.313822
O O20 0.500000 0.716430 0.500000
O O21 0.252735 0.500000 0.441213
#
# Coordination Sequence:
#
# PCOD9145009 Si02
#       8
#     4   4   4   4   4   4   4   4
#     4  10  20  35  58  84 105 130 171 222 268 309
#     4   9  16  28  51  80 108 143 185 223 256 298
#     4  10  19  31  49  74 106 142 176 215 266 319
#     4   9  17  31  51  78 111 143 178 220 265 311
#     4   8  15  29  52  81 110 141 177 217 261 308
#     4  11  24  42  62  80 103 138 174 213 268 329
#     4  11  23  36  55  83 110 138 176 224 270 311
#     4  10  21  36  52  72 105 149 185 211 253 316
#
# _framework density 20.348624999999998
#
# number of rings (size 3 to 8) (size 9 to 14) (size 15 to 20)
#    0.000    2.250    0.000    4.125    0.000    6.750 
#    0.000    1.250    0.000   18.000    0.000    0.000 
#    0.000    0.000    0.000    0.000    0.000    0.000 
#
# Total GULP energy -178496.595154 kJ/mol
# GULP energy per Si atom -5578.018599 kJ/mol
# Density = 2.030231 g / cm^3
# Si number density = 20.348625 Si / 1000 Ang^3
#
#
#
# Elastic Constant Matrix: (Units=GPa)
#
#
# Indices 1 2 3 4 5 6 
#
# 1 65.7977 12.6289 42.1682 0.0000 15.1296 0.0000
# 2 12.6289 22.4567 12.8998 0.0000 5.1292 0.0000
# 3 42.1682 12.8998 142.6338 0.0000 2.8920 0.0000
# 4 0.0000 0.0000 0.0000 4.7048 0.0000 3.7491
# 5 15.1296 5.1292 2.8920 0.0000 29.8592 0.0000
# 6 0.0000 0.0000 0.0000 3.7491 0.0000 22.7983
#
#
#
# Elastic Compliance Matrix: (Units=1/GPa)
#
#
# Indices 1 2 3 4 5 6 
#
# 1 0.022501 -0.007118 -0.005813 0.000000 -0.009615 0.000000
# 2 -0.007118 0.051044 -0.002412 0.000000 -0.004928 0.000000
# 3 -0.005813 -0.002412 0.008897 0.000000 0.002498 0.000000
# 4 0.000000 0.000000 0.000000 0.244604 0.000000 -0.040225
# 5 -0.009615 -0.004928 0.002498 0.000000 0.038967 0.000000
# 6 0.000000 0.000000 0.000000 -0.040225 0.000000 0.050478
#
#
# Mechanical properties :
#
#
# Convention : Reuss Voigt Hill
#
# Bulk Modulus (GPa) = 19.32180 40.69799 30.00990
# Shear Modulus (GPa) = 10.76588 22.35189 16.55889
#
# Velocity S-wave (km/s) = 2.30265 3.31788 2.85574
# Velocity P-wave (km/s) = 4.07254 5.89250 5.06494
#
# Compressibility (1/GPa) = 0.05175500
#
# Stress axis : x y z
#
# Youngs Moduli (GPa) = 44.44249 19.59082 112.39556
#
# Poissons Ratio (x) = 0.13945 0.65341
# Poissons Ratio (y) = 0.31635 0.27111
# Poissons Ratio (z) = 0.25836 0.04726
#
# Static dielectric constant tensor:
#      x y z
#    x 1.756140 0.000000 -0.001480 
#    y 0.000000 1.712510 0.000000 
#    z -0.001480 0.000000 1.752310 
# 
# From -- ./inp_files/95017.got.cif
#   From: 2010.05.17/outbox.cif.g08.bks.cpg/sg10_48_cif.got.tgz:95017.got - 2010.06.03 11:33:40.
