data_PCOD9145505
_publ_section_title
;
Structure prediction by ZEFSAII (Michael W. Deem and Ramdas Pophale) SiO2 
 PCOD9145505
Probable space group: P 2/M
;
_chemical_formula_sum "Si O2"
_cell_formula_units_Z 24
_cell_length_a 16.900073
_cell_length_b 7.456926
_cell_length_c 24.087284
_cell_angle_alpha 90.000000
_cell_angle_beta 156.859959
_cell_angle_gamma 90.000000
_cell_volume 1192.906798
_symmetry_space_group_name_H-M "P 2/M"
_symmetry_group_IT_number 10
_symmetry_cell_setting 'monoclinic'
loop_
_space_group_symop_operation_xyz
x,y,z
-x,y,-z
-x,-y,-z
x,-y,z
loop_
_atom_site_type_symbol
_atom_site_label
_atom_site_fract_x
_atom_site_fract_y
_atom_site_fract_z
Si Si1 0.587496 0.716180 0.814888
Si Si2 0.490286 0.281148 0.057449
Si Si3 0.225251 0.718773 0.659343
Si Si4 0.305183 0.789462 0.344290
Si Si5 0.799393 0.790474 0.843044
Si Si6 0.870266 0.716088 0.096316
O O1 0.588508 0.500000 0.815124
O O2 0.382178 0.772963 0.712494
O O3 0.627495 0.778229 0.778625
O O4 0.768995 0.775574 0.972765
O O5 0.492354 0.500000 0.058263
O O6 0.282992 0.226239 0.954232
O O7 0.500000 0.221183 0.000000
O O8 0.673497 0.226430 0.216624
O O9 0.222268 0.500000 0.658207
O O10 0.000000 0.779234 0.500000
O O11 0.500000 0.711327 0.500000
O O12 0.260198 0.710740 0.254466
O O13 0.100099 0.774915 0.247003
O O14 0.348358 0.000000 0.363447
O O15 0.844080 0.000000 0.861751
O O16 0.000000 0.709523 0.000000
O O17 0.869062 0.500000 0.095525
#
# Coordination Sequence:
#
# PCOD9145505 Si02
#       6
#     4   4   4   4   4   4
#     4   9  17  29  48  74  98 122 153 192 235 270
#     4   8  14  26  44  65  90 121 153 184 222 270
#     4   8  14  26  43  64  93 123 149 181 225 275
#     4  10  21  36  50  66  93 127 157 190 237 282
#     4  10  19  32  51  71  89 119 163 195 222 278
#     4   9  17  30  49  72  97 123 154 193 233 273
#
# _framework density 20.118922000000001
#
# number of rings (size 3 to 8) (size 9 to 14) (size 15 to 20)
#    0.000    3.000    1.667    2.000    0.000    1.333 
#    3.000    0.000    0.000    1.000    0.000    0.000 
#    0.000    0.000    0.000    0.000    0.000    0.000 
#
# Total GULP energy -133848.467402 kJ/mol
# GULP energy per Si atom -5577.019475 kJ/mol
# Density = 2.007313 g / cm^3
# Si number density = 20.118922 Si / 1000 Ang^3
#
#
#
# Elastic Constant Matrix: (Units=GPa)
#
#
# Indices 1 2 3 4 5 6 
#
# 1 146.0802 -4.2523 96.7066 0.0000 -15.2566 0.0000
# 2 -4.2523 57.6117 5.7764 0.0000 -7.8212 0.0000
# 3 96.7066 5.7764 192.7378 0.0000 3.8363 0.0000
# 4 0.0000 0.0000 0.0000 -4.5103 0.0000 10.9007
# 5 -15.2566 -7.8212 3.8363 0.0000 26.5462 0.0000
# 6 0.0000 0.0000 0.0000 10.9007 0.0000 21.4928
#
#
#
# Elastic Compliance Matrix: (Units=1/GPa)
#
#
# Indices 1 2 3 4 5 6 
#
# 1 0.011954 0.002671 -0.006248 0.000000 0.008560 0.000000
# 2 0.002671 0.018759 -0.002049 0.000000 0.007358 0.000000
# 3 -0.006248 -0.002049 0.008493 0.000000 -0.005422 0.000000
# 4 0.000000 0.000000 0.000000 -0.099613 0.000000 0.050521
# 5 0.008560 0.007358 -0.005422 0.000000 0.045541 0.000000
# 6 0.000000 0.000000 0.000000 0.050521 0.000000 0.020904
#
#
# Mechanical properties :
#
#
# Convention : Reuss Voigt Hill
#
# Bulk Modulus (GPa) = 35.77411 65.87679 50.82545
# Shear Modulus (GPa) = 187.91766 28.58568 108.25167
#
# Velocity S-wave (km/s) = 9.67503 3.77349 7.34321
# Velocity P-wave (km/s) = 11.94271 7.19725 9.85973
#
# Compressibility (1/GPa) = 0.02795317
#
# Stress axis : x y z
#
# Youngs Moduli (GPa) = 83.65637 53.30769 117.74727
#
# Poissons Ratio (x) = -0.14238 0.73571
# Poissons Ratio (y) = -0.22343 0.24124
# Poissons Ratio (z) = 0.52270 0.10921
#
# Static dielectric constant tensor:
#      x y z
#    x 1.702320 0.000000 -0.007170 
#    y 0.000000 1.750610 0.000000 
#    z -0.007170 0.000000 1.713930 
# 
# From -- ./inp_files/27780.got.cif
#   From: 2010.05.17/outbox.cif.g08.bks.cpg/sg10_14_cif.got.tgz:27780.got - 2010.06.03 11:33:40.
