data_PCOD9145821
_publ_section_title
;
Structure prediction by ZEFSAII (Michael W. Deem and Ramdas Pophale) SiO2 
 PCOD9145821
Probable space group: P 2/M
;
_chemical_formula_sum "Si O2"
_cell_formula_units_Z 24
_cell_length_a 24.847541
_cell_length_b 7.732025
_cell_length_c 9.842279
_cell_angle_alpha 90.000000
_cell_angle_beta 136.741616
_cell_angle_gamma 90.000000
_cell_volume 1295.825302
_symmetry_space_group_name_H-M "P 2/M"
_symmetry_group_IT_number 10
_symmetry_cell_setting 'monoclinic'
loop_
_space_group_symop_operation_xyz
x,y,z
-x,y,-z
-x,-y,-z
x,-y,z
loop_
_atom_site_type_symbol
_atom_site_label
_atom_site_fract_x
_atom_site_fract_y
_atom_site_fract_z
Si Si1 0.280978 0.198867 0.475027
Si Si2 0.302241 0.712451 0.916804
Si Si3 0.844238 0.201243 0.543221
Si Si4 0.420797 0.301073 0.913450
Si Si5 0.945899 0.500000 0.613281
Si Si6 0.115576 0.500000 0.809573
Si Si7 0.265634 0.696021 0.143988
O O1 0.200085 0.255473 0.398835
O O2 0.353790 0.297919 0.674832
O O3 0.277687 0.211766 0.307814
O O4 0.291727 0.000000 0.536526
O O5 0.298232 0.500000 0.907908
O O6 0.224662 0.776912 0.696271
O O7 0.377192 0.770479 0.966690
O O8 0.301589 0.769246 0.071807
O O9 0.913075 0.331336 0.629489
O O10 0.867868 0.000000 0.593824
O O11 0.440041 0.500000 0.983784
O O12 0.500000 0.219041 0.000000
O O13 0.909186 0.500000 0.393316
O O14 0.038885 0.500000 0.761067
O O15 0.173104 0.661894 0.944582
O O16 0.297830 0.500000 0.221047
#
# Coordination Sequence:
#
# PCOD9145821 Si02
#       7
#     4   4   4   4   2   2   4
#     4  10  21  33  51  77 106 138 176 218 260 314
#     4   9  15  31  54  75 103 138 177 220 261 312
#     4  10  19  32  53  80 102 140 185 217 262 314
#     4   9  18  32  54  81 103 132 175 221 265 311
#     4  11  18  37  57  79 112 135 172 232 270 312
#     4   9  20  33  57  83 102 138 176 214 278 315
#     4   9  17  33  51  77  98 137 178 210 260 319
#
# _framework density 18.521014000000001
#
# number of rings (size 3 to 8) (size 9 to 14) (size 15 to 20)
#    0.500    2.000    2.500    0.500    2.333    1.000 
#    0.000    5.000    0.000    7.000    0.000    0.000 
#    0.000    0.000    0.000    0.000    0.000    0.000 
#
# Total GULP energy -133662.116351 kJ/mol
# GULP energy per Si atom -5569.254848 kJ/mol
# Density = 1.847886 g / cm^3
# Si number density = 18.521014 Si / 1000 Ang^3
#
#
#
# Elastic Constant Matrix: (Units=GPa)
#
#
# Indices 1 2 3 4 5 6 
#
# 1 183.0145 31.7823 54.1840 0.0000 -9.1221 0.0000
# 2 31.7823 50.8226 5.4884 0.0000 2.0560 0.0000
# 3 54.1840 5.4884 45.7036 0.0000 -21.6919 0.0000
# 4 0.0000 0.0000 0.0000 -38.8755 0.0000 15.9250
# 5 -9.1221 2.0560 -21.6919 0.0000 34.1511 0.0000
# 6 0.0000 0.0000 0.0000 15.9250 0.0000 -0.1764
#
#
#
# Elastic Compliance Matrix: (Units=1/GPa)
#
#
# Indices 1 2 3 4 5 6 
#
# 1 0.010269 -0.004594 -0.014588 0.000000 -0.006246 0.000000
# 2 -0.004594 0.022359 0.002205 0.000000 -0.001173 0.000000
# 3 -0.014588 0.002205 0.052965 0.000000 0.029612 0.000000
# 4 0.000000 0.000000 0.000000 0.000715 0.000000 0.064540
# 5 -0.006246 -0.001173 0.029612 0.000000 0.046493 0.000000
# 6 0.000000 0.000000 0.000000 0.064540 0.000000 0.157552
#
#
# Mechanical properties :
#
#
# Convention : Reuss Voigt Hill
#
# Bulk Modulus (GPa) = 19.36534 51.38336 35.37435
# Shear Modulus (GPa) = 14.64047 11.55888 13.09968
#
# Velocity S-wave (km/s) = 2.81460 2.50090 2.66237
# Velocity P-wave (km/s) = 4.58707 6.01189 5.34715
#
# Compressibility (1/GPa) = 0.05163864
#
# Stress axis : x y z
#
# Youngs Moduli (GPa) = 97.37632 44.72562 18.88055
#
# Poissons Ratio (x) = 0.20547 0.27543
# Poissons Ratio (y) = 0.44735 -0.04163
# Poissons Ratio (z) = 1.42051 -0.09861
#
# Static dielectric constant tensor:
#      x y z
#    x 1.673730 0.000000 -0.009560 
#    y 0.000000 1.679180 0.000000 
#    z -0.009560 0.000000 1.606860 
# 
# From -- ./inp_files/33527.got.cif
#   From: 2010.05.17/outbox.cif.g08.bks.cpg/sg10_17_cif.got.tgz:33527.got - 2010.06.03 11:33:40.
