data_PCOD9145957
_publ_section_title
;
Structure prediction by ZEFSAII (Michael W. Deem and Ramdas Pophale) SiO2 
 PCOD9145957
Probable space group: P 2/M
;
_chemical_formula_sum "Si O2"
_cell_formula_units_Z 32
_cell_length_a 13.940141
_cell_length_b 11.109051
_cell_length_c 14.462148
_cell_angle_alpha 90.000000
_cell_angle_beta 133.908756
_cell_angle_gamma 90.000000
_cell_volume 1613.532966
_symmetry_space_group_name_H-M "P 2/M"
_symmetry_group_IT_number 10
_symmetry_cell_setting 'monoclinic'
loop_
_space_group_symop_operation_xyz
x,y,z
-x,y,-z
-x,-y,-z
x,-y,z
loop_
_atom_site_type_symbol
_atom_site_label
_atom_site_fract_x
_atom_site_fract_y
_atom_site_fract_z
Si Si1 0.554469 0.775253 0.631375
Si Si2 0.796470 0.364333 0.722551
Si Si3 0.018087 0.134733 0.648641
Si Si4 0.791408 0.221872 0.368675
Si Si5 0.495171 0.144266 0.892258
Si Si6 0.719547 0.861227 0.906614
Si Si7 0.988385 0.857015 0.850041
Si Si8 0.315629 0.368339 0.551431
O O1 0.500000 0.832790 0.500000
O O2 0.648334 0.664515 0.661600
O O3 0.646444 0.852625 0.759805
O O4 0.428558 0.729273 0.605127
O O5 0.838610 0.500000 0.778881
O O6 0.782920 0.363754 0.602017
O O7 0.883958 0.247357 0.805752
O O8 0.118043 0.224266 0.662498
O O9 0.004418 0.147849 0.749017
O O10 0.877603 0.146976 0.501603
O O11 0.072323 0.000000 0.667712
O O12 0.648691 0.168822 0.247132
O O13 0.759492 0.342412 0.403733
O O14 0.617014 0.194162 0.912332
O O15 0.510692 0.000000 0.905838
O O16 0.500000 0.190916 0.000000
O O17 0.735994 0.000000 0.943690
O O18 0.870550 0.817662 0.011881
O O19 0.957084 0.000000 0.852326
O O20 0.378215 0.500000 0.594430
#
# Coordination Sequence:
#
# PCOD9145957 Si02
#       8
#     4   4   4   4   4   4   4   4
#     4  10  21  39  60  86 114 150 201 254 299 351
#     4  10  21  40  64  87 114 154 204 248 296 360
#     4  10  20  33  54  87 120 151 190 238 292 354
#     4  11  18  32  55  84 113 148 192 240 291 354
#     4  10  19  32  54  83 115 153 193 236 287 352
#     4  10  21  36  56  86 122 157 194 243 302 360
#     4  10  21  39  60  85 124 162 196 244 305 355
#     4  10  20  37  59  85 114 149 195 250 305 353
#
# _framework density 19.832257999999999
#
# number of rings (size 3 to 8) (size 9 to 14) (size 15 to 20)
#    0.000    1.875    2.500    2.625    0.000    4.750 
#    0.000    6.875    0.000    0.375    0.000    0.000 
#    0.000    0.000    0.000    0.000    0.000    0.000 
#
# Total GULP energy -178316.886551 kJ/mol
# GULP energy per Si atom -5572.402705 kJ/mol
# Density = 1.978712 g / cm^3
# Si number density = 19.832258 Si / 1000 Ang^3
#
#
#
# Elastic Constant Matrix: (Units=GPa)
#
#
# Indices 1 2 3 4 5 6 
#
# 1 76.7240 26.3898 36.2923 0.0000 1.7746 0.0000
# 2 26.3898 46.2411 19.8955 0.0000 9.7157 0.0000
# 3 36.2923 19.8955 94.8255 0.0000 6.4384 0.0000
# 4 0.0000 0.0000 0.0000 7.8198 0.0000 2.3942
# 5 1.7746 9.7157 6.4384 0.0000 31.8517 0.0000
# 6 0.0000 0.0000 0.0000 2.3942 0.0000 16.8203
#
#
#
# Elastic Compliance Matrix: (Units=1/GPa)
#
#
# Indices 1 2 3 4 5 6 
#
# 1 0.018589 -0.008846 -0.005446 0.000000 0.002763 0.000000
# 2 -0.008846 0.029310 -0.002221 0.000000 -0.007999 0.000000
# 3 -0.005446 -0.002221 0.013211 0.000000 -0.001689 0.000000
# 4 0.000000 0.000000 0.000000 0.133707 0.000000 -0.019032
# 5 0.002763 -0.007999 -0.001689 0.000000 0.034023 0.000000
# 6 0.000000 0.000000 0.000000 -0.019032 0.000000 0.062161
#
#
# Mechanical properties :
#
#
# Convention : Reuss Voigt Hill
#
# Bulk Modulus (GPa) = 35.60774 42.54955 39.07865
# Shear Modulus (GPa) = 14.99756 20.31257 17.65506
#
# Velocity S-wave (km/s) = 2.75293 3.20381 2.98689
# Velocity P-wave (km/s) = 5.30078 5.93188 5.62519
#
# Compressibility (1/GPa) = 0.02808378
#
# Stress axis : x y z
#
# Youngs Moduli (GPa) = 53.79666 34.11765 75.69609
#
# Poissons Ratio (x) = 0.30180 0.41224
# Poissons Ratio (y) = 0.47588 0.16812
# Poissons Ratio (z) = 0.29298 0.07577
#
# Static dielectric constant tensor:
#      x y z
#    x 1.739860 0.000000 -0.007350 
#    y 0.000000 1.676020 0.000000 
#    z -0.007350 0.000000 1.706390 
# 
# From -- ./inp_files/67375.got.cif
#   From: 2010.05.17/outbox.cif.g08.bks.cpg/sg10_34_cif.got.tgz:67375.got - 2010.06.03 11:33:40.
