data_PCOD9145561
_publ_section_title
;
Structure prediction by ZEFSAII (Michael W. Deem and Ramdas Pophale) SiO2 
 PCOD9145561
Probable space group: P 2/M
;
_chemical_formula_sum "Si O2"
_cell_formula_units_Z 32
_cell_length_a 27.694134
_cell_length_b 7.352522
_cell_length_c 21.427771
_cell_angle_alpha 90.000000
_cell_angle_beta 18.764192
_cell_angle_gamma 90.000000
_cell_volume 1403.515094
_symmetry_space_group_name_H-M "P 2/M"
_symmetry_group_IT_number 10
_symmetry_cell_setting 'monoclinic'
loop_
_space_group_symop_operation_xyz
x,y,z
-x,y,-z
-x,-y,-z
x,-y,z
loop_
_atom_site_type_symbol
_atom_site_label
_atom_site_fract_x
_atom_site_fract_y
_atom_site_fract_z
Si Si1 0.277744 0.721882 0.669853
Si Si2 0.143942 0.277725 0.965739
Si Si3 0.386109 0.718015 0.768644
Si Si4 0.432947 0.210821 0.242442
Si Si5 0.966315 0.778190 0.469797
Si Si6 0.337787 0.778649 0.226092
Si Si7 0.716628 0.783902 0.965008
Si Si8 0.186236 0.719583 0.645691
O O1 0.275936 0.500000 0.673134
O O2 0.200431 0.780140 0.828315
O O3 0.450054 0.782264 0.452789
O O4 0.198508 0.777225 0.702646
O O5 0.144900 0.500000 0.964541
O O6 0.257429 0.215101 0.879899
O O7 0.973407 0.220847 0.185533
O O8 0.390882 0.500000 0.757062
O O9 0.347122 0.757405 0.887763
O O10 0.346900 0.283281 0.287079
O O11 0.593724 0.290144 0.066250
O O12 0.324677 0.218697 0.434560
O O13 0.462546 0.000000 0.191013
O O14 0.000000 0.724888 0.500000
O O15 0.808454 0.715900 0.633337
O O16 0.960428 0.000000 0.476435
O O17 0.113471 0.717881 0.251116
O O18 0.329703 0.000000 0.233935
O O19 0.500000 0.727141 0.000000
O O20 0.276315 0.000000 0.054444
O O21 0.191736 0.500000 0.638577
#
# Coordination Sequence:
#
# PCOD9145561 Si02
#       8
#     4   4   4   4   4   4   4   4
#     4   9  16  30  51  73  96 127 168 210 251 293
#     4   9  18  30  49  75 100 125 164 216 255 289
#     4  10  19  32  51  75 100 130 167 207 251 297
#     4  10  20  33  50  73 103 135 165 203 249 295
#     4   9  17  30  50  75 101 130 166 205 243 286
#     4   9  17  30  50  75 101 130 166 205 243 286
#     4  10  20  33  50  73 103 135 165 203 249 295
#     4  10  19  32  51  75 100 130 167 207 251 297
#
# _framework density 22.799897999999999
#
# number of rings (size 3 to 8) (size 9 to 14) (size 15 to 20)
#    0.000    2.500    1.250    1.500    1.750    6.000 
#    0.000    0.000    0.000    5.250    0.000    0.000 
#    0.000    0.000    0.000    0.000    0.000    0.000 
#
# Total GULP energy -178783.820132 kJ/mol
# GULP energy per Si atom -5586.994379 kJ/mol
# Density = 2.274800 g / cm^3
# Si number density = 22.799898 Si / 1000 Ang^3
#
#
#
# Elastic Constant Matrix: (Units=GPa)
#
#
# Indices 1 2 3 4 5 6 
#
# 1 132.7985 -1.7690 31.5033 0.0000 -22.0390 0.0000
# 2 -1.7690 83.2359 -6.6323 0.0000 -6.3595 0.0000
# 3 31.5033 -6.6323 99.3797 0.0000 -21.5148 0.0000
# 4 0.0000 0.0000 0.0000 3.9551 0.0000 10.5107
# 5 -22.0390 -6.3595 -21.5148 0.0000 41.5337 0.0000
# 6 0.0000 0.0000 0.0000 10.5107 0.0000 1.5214
#
#
#
# Elastic Compliance Matrix: (Units=1/GPa)
#
#
# Indices 1 2 3 4 5 6 
#
# 1 0.008589 0.000305 -0.001921 0.000000 0.003609 0.000000
# 2 0.000305 0.012334 0.001318 0.000000 0.002733 0.000000
# 3 -0.001921 0.001318 0.011919 0.000000 0.005357 0.000000
# 4 0.000000 0.000000 0.000000 -0.014565 0.000000 0.100622
# 5 0.003609 0.002733 0.005357 0.000000 0.029185 0.000000
# 6 0.000000 0.000000 0.000000 0.100622 0.000000 -0.037863
#
#
# Mechanical properties :
#
#
# Convention : Reuss Voigt Hill
#
# Bulk Modulus (GPa) = 31.01044 40.17980 35.59512
# Shear Modulus (GPa) = 238.73125 28.88950 133.81038
#
# Velocity S-wave (km/s) = 10.24375 3.56348 7.66919
# Velocity P-wave (km/s) = 12.39126 5.88152 9.69885
#
# Compressibility (1/GPa) = 0.03224720
#
# Stress axis : x y z
#
# Youngs Moduli (GPa) = 116.42860 81.07408 83.89966
#
# Poissons Ratio (x) = -0.02475 0.16117
# Poissons Ratio (y) = -0.03554 -0.11059
# Poissons Ratio (z) = 0.22366 -0.10687
#
# Static dielectric constant tensor:
#      x y z
#    x 1.817670 0.000000 -0.018380 
#    y 0.000000 1.903870 0.000000 
#    z -0.018380 0.000000 1.804880 
# 
# From -- ./inp_files/34615.got.cif
#   From: 2010.05.17/outbox.cif.g08.bks.cpg/sg10_18_cif.got.tgz:34615.got - 2010.06.03 11:33:40.
