data_PCOD9145666
_publ_section_title
;
Structure prediction by ZEFSAII (Michael W. Deem and Ramdas Pophale) SiO2 
 PCOD9145666
Probable space group: P 2/M
;
_chemical_formula_sum "Si O2"
_cell_formula_units_Z 24
_cell_length_a 15.988120
_cell_length_b 13.725849
_cell_length_c 10.505245
_cell_angle_alpha 90.000000
_cell_angle_beta 32.786209
_cell_angle_gamma 90.000000
_cell_volume 1248.377612
_symmetry_space_group_name_H-M "P 2/M"
_symmetry_group_IT_number 10
_symmetry_cell_setting 'monoclinic'
loop_
_space_group_symop_operation_xyz
x,y,z
-x,y,-z
-x,-y,-z
x,-y,z
loop_
_atom_site_type_symbol
_atom_site_label
_atom_site_fract_x
_atom_site_fract_y
_atom_site_fract_z
Si Si1 0.186099 0.893942 0.756982
Si Si2 0.203686 0.205211 0.991026
Si Si3 0.429762 0.694269 0.215644
Si Si4 0.411303 0.611784 0.746683
Si Si5 0.638890 0.111622 0.976492
Si Si6 0.162845 0.817569 0.511523
O O1 0.215008 0.873495 0.572767
O O2 0.247093 0.000000 0.714314
O O3 0.237550 0.819408 0.799751
O O4 0.000000 0.895174 0.000000
O O5 0.288678 0.130598 0.977313
O O6 0.021025 0.194381 0.250793
O O7 0.271673 0.311401 0.933462
O O8 0.471924 0.637669 0.288398
O O9 0.251246 0.715245 0.416505
O O10 0.500000 0.646070 0.000000
O O11 0.515014 0.801050 0.117043
O O12 0.500000 0.624907 0.500000
O O13 0.360471 0.500000 0.821234
O O14 0.769622 0.132057 0.701307
O O15 0.583592 0.000000 0.035260
#
# Coordination Sequence:
#
# PCOD9145666 Si02
#       6
#     4   4   4   4   4   4
#     4   9  17  28  45  72 104 137 169 203 249 301
#     4  10  20  34  53  77 107 137 174 221 265 308
#     4   9  20  36  54  77 106 139 176 214 260 311
#     4  10  21  39  60  78 100 134 174 218 272 327
#     4  10  20  33  51  78 112 148 181 210 248 305
#     4  10  19  32  52  76 108 142 174 215 257 302
#
# _framework density 19.224954
#
# number of rings (size 3 to 8) (size 9 to 14) (size 15 to 20)
#    0.000    2.333    0.000    2.500    0.000    6.667 
#    0.000    0.833    0.000   25.000    0.000    0.000 
#    0.000    0.000    0.000    0.000    0.000    0.000 
#
# Total GULP energy -133828.008397 kJ/mol
# GULP energy per Si atom -5576.167017 kJ/mol
# Density = 1.918120 g / cm^3
# Si number density = 19.224954 Si / 1000 Ang^3
#
#
#
# Elastic Constant Matrix: (Units=GPa)
#
#
# Indices 1 2 3 4 5 6 
#
# 1 86.3593 13.1081 5.0786 0.0000 18.9324 0.0000
# 2 13.1081 75.6610 14.1172 0.0000 9.8512 0.0000
# 3 5.0786 14.1172 39.8767 0.0000 10.0752 0.0000
# 4 0.0000 0.0000 0.0000 11.0235 0.0000 5.8383
# 5 18.9324 9.8512 10.0752 0.0000 33.3477 0.0000
# 6 0.0000 0.0000 0.0000 5.8383 0.0000 5.5958
#
#
#
# Elastic Compliance Matrix: (Units=1/GPa)
#
#
# Indices 1 2 3 4 5 6 
#
# 1 0.013379 -0.001487 0.000683 0.000000 -0.007363 0.000000
# 2 -0.001487 0.014578 -0.004435 0.000000 -0.002123 0.000000
# 3 0.000683 -0.004435 0.028503 0.000000 -0.007689 0.000000
# 4 0.000000 0.000000 0.000000 0.202750 0.000000 -0.211537
# 5 -0.007363 -0.002123 -0.007689 0.000000 0.037117 0.000000
# 6 0.000000 0.000000 0.000000 -0.211537 0.000000 0.399411
#
#
# Mechanical properties :
#
#
# Convention : Reuss Voigt Hill
#
# Bulk Modulus (GPa) = 21.74767 29.61164 25.67966
# Shear Modulus (GPa) = 6.92958 21.29961 14.11459
#
# Velocity S-wave (km/s) = 1.90060 3.33215 2.71252
# Velocity P-wave (km/s) = 4.01910 5.49913 4.81630
#
# Compressibility (1/GPa) = 0.04598194
#
# Stress axis : x y z
#
# Youngs Moduli (GPa) = 74.74307 68.59488 35.08368
#
# Poissons Ratio (x) = 0.10197 -0.02395
# Poissons Ratio (y) = 0.11111 0.15561
# Poissons Ratio (z) = -0.05102 0.30425
#
# Static dielectric constant tensor:
#      x y z
#    x 1.669690 0.000000 0.012320 
#    y 0.000000 1.661990 0.000000 
#    z 0.012320 0.000000 1.716050 
# 
# From -- ./inp_files/29300.got.cif
#   From: 2010.05.17/outbox.cif.g08.bks.cpg/sg10_15_cif.got.tgz:29300.got - 2010.06.03 11:33:40.
