data_PCOD9145180
_publ_section_title
;
Structure prediction by ZEFSAII (Michael W. Deem and Ramdas Pophale) SiO2 
 PCOD9145180
Probable space group: P 2/M
;
_chemical_formula_sum "Si O2"
_cell_formula_units_Z 28
_cell_length_a 7.983027
_cell_length_b 31.586910
_cell_length_c 5.368108
_cell_angle_alpha 90.000000
_cell_angle_beta 118.447782
_cell_angle_gamma 90.000000
_cell_volume 1190.170448
_symmetry_space_group_name_H-M "P 2/M"
_symmetry_group_IT_number 10
_symmetry_cell_setting 'monoclinic'
loop_
_space_group_symop_operation_xyz
x,y,z
-x,y,-z
-x,-y,-z
x,-y,z
loop_
_atom_site_type_symbol
_atom_site_label
_atom_site_fract_x
_atom_site_fract_y
_atom_site_fract_z
Si Si1 0.723027 0.409734 0.639045
Si Si2 0.877313 0.679734 0.666095
Si Si3 0.728453 0.226587 0.658803
Si Si4 0.771956 0.048357 0.792429
Si Si5 0.266982 0.451653 0.852724
Si Si6 0.784729 0.916812 0.300664
Si Si7 0.268182 0.820268 0.835761
O O1 0.500000 0.419842 0.500000
O O2 0.742775 0.361167 0.567816
O O3 0.802895 0.437698 0.469436
O O4 0.796890 0.421031 0.967454
O O5 0.780065 0.724898 0.643859
O O6 0.000000 0.681263 0.500000
O O7 0.000000 0.672617 0.000000
O O8 0.500000 0.223609 0.500000
O O9 0.796389 0.199723 0.470579
O O10 0.794102 0.207340 0.969678
O O11 0.702358 0.078425 0.519888
O O12 0.738762 0.000000 0.692695
O O13 0.692102 0.057581 0.009653
O O14 0.000000 0.054301 0.000000
O O15 0.216759 0.500000 0.875614
O O16 0.500000 0.449623 0.000000
O O17 0.793447 0.868912 0.208074
O O18 0.000000 0.932960 0.500000
O O19 0.500000 0.820409 0.000000
#
# Coordination Sequence:
#
# PCOD9145180 Si02
#       7
#     4   4   4   4   4   4   4
#     4  10  20  36  59  84 114 152 189 229 278 333
#     4  12  25  40  59  85 116 147 183 232 283 327
#     4  10  22  41  61  81 107 145 188 223 270 336
#     4   9  17  30  49  74 104 139 180 221 261 310
#     4   9  17  31  56  88 114 142 190 242 276 312
#     4  10  19  31  51  78 105 137 176 221 269 317
#     4  10  21  37  58  81 108 141 177 223 274 329
#
# _framework density 23.526042
#
# number of rings (size 3 to 8) (size 9 to 14) (size 15 to 20)
#    0.000    2.000    0.000    3.857    0.000    5.143 
#    0.000    5.714    0.000   11.143    0.000    0.000 
#    0.000    0.000    0.000    0.000    0.000    0.000 
#
# Total GULP energy -156572.723400 kJ/mol
# GULP energy per Si atom -5591.882979 kJ/mol
# Density = 2.347250 g / cm^3
# Si number density = 23.526042 Si / 1000 Ang^3
#
#
#
# Elastic Constant Matrix: (Units=GPa)
#
#
# Indices 1 2 3 4 5 6 
#
# 1 97.3807 5.6690 46.0675 0.0000 -26.8573 0.0000
# 2 5.6690 104.7598 25.6971 0.0000 -36.6696 0.0000
# 3 46.0675 25.6971 136.6759 0.0000 -48.2076 0.0000
# 4 0.0000 0.0000 0.0000 41.9475 0.0000 -11.1687
# 5 -26.8573 -36.6696 -48.2076 0.0000 47.1100 0.0000
# 6 0.0000 0.0000 0.0000 -11.1687 0.0000 28.0579
#
#
#
# Elastic Compliance Matrix: (Units=1/GPa)
#
#
# Indices 1 2 3 4 5 6 
#
# 1 0.013167 0.002245 -0.002498 0.000000 0.006698 0.000000
# 2 0.002245 0.013785 0.001389 0.000000 0.013431 0.000000
# 3 -0.002498 0.001389 0.012168 0.000000 0.012109 0.000000
# 4 0.000000 0.000000 0.000000 0.026665 0.000000 0.010614
# 5 0.006698 0.013431 0.012109 0.000000 0.047891 0.000000
# 6 0.000000 0.000000 0.000000 0.010614 0.000000 0.039866
#
#
# Mechanical properties :
#
#
# Convention : Reuss Voigt Hill
#
# Bulk Modulus (GPa) = 24.15932 54.85372 39.50652
# Shear Modulus (GPa) = 30.29064 40.84861 35.56963
#
# Velocity S-wave (km/s) = 3.59212 4.17143 3.89257
# Velocity P-wave (km/s) = 5.24365 6.82407 6.08538
#
# Compressibility (1/GPa) = 0.04139190
#
# Stress axis : x y z
#
# Youngs Moduli (GPa) = 75.94686 72.54427 82.18064
#
# Poissons Ratio (x) = -0.16283 0.20526
# Poissons Ratio (y) = -0.17047 -0.11414
# Poissons Ratio (z) = 0.18969 -0.10076
#
# Static dielectric constant tensor:
#      x y z
#    x 1.941450 0.000000 0.030480 
#    y 0.000000 1.869220 0.000000 
#    z 0.030480 0.000000 1.877660 
# 
# From -- ./inp_files/5548.got.cif
#   From: 2010.05.17/outbox.cif.g08.bks.cpg/sg10_3_cif.got.tgz:5548.got - 2010.06.03 11:33:40.
