data_PCOD9145746
_publ_section_title
;
Structure prediction by ZEFSAII (Michael W. Deem and Ramdas Pophale) SiO2 
 PCOD9145746
Probable space group: P 2/M
;
_chemical_formula_sum "Si O2"
_cell_formula_units_Z 24
_cell_length_a 16.694040
_cell_length_b 13.337673
_cell_length_c 7.580507
_cell_angle_alpha 90.000000
_cell_angle_beta 53.294550
_cell_angle_gamma 90.000000
_cell_volume 1353.199514
_symmetry_space_group_name_H-M "P 2/M"
_symmetry_group_IT_number 10
_symmetry_cell_setting 'monoclinic'
loop_
_space_group_symop_operation_xyz
x,y,z
-x,y,-z
-x,-y,-z
x,-y,z
loop_
_atom_site_type_symbol
_atom_site_label
_atom_site_fract_x
_atom_site_fract_y
_atom_site_fract_z
Si Si1 0.957205 0.884818 0.755509
Si Si2 0.390372 0.382577 0.180981
Si Si3 0.383218 0.385699 0.610292
Si Si4 0.182524 0.381339 0.296627
Si Si5 0.796383 0.258672 0.059356
Si Si6 0.922096 0.705088 0.229598
O O1 0.842467 0.846511 0.930991
O O2 0.000000 0.877844 0.500000
O O3 0.023549 0.807200 0.780245
O O4 0.966315 0.000000 0.799825
O O5 0.396553 0.500000 0.118986
O O6 0.371973 0.380172 0.414127
O O7 0.293615 0.342651 0.206335
O O8 0.500000 0.337746 0.000000
O O9 0.500000 0.376474 0.500000
O O10 0.351719 0.500000 0.706542
O O11 0.317096 0.298727 0.784995
O O12 0.184426 0.500000 0.279570
O O13 0.152786 0.333152 0.150306
O O14 0.112458 0.350782 0.550841
O O15 0.832793 0.271735 0.212187
O O16 0.000000 0.648106 0.000000
#
# Coordination Sequence:
#
# PCOD9145746 Si02
#       6
#     4   4   4   4   4   4
#     4  10  21  41  65  84 106 138 182 237 293 345
#     4   9  17  30  48  72 105 148 192 228 261 303
#     4  10  19  32  52  81 115 153 193 226 262 320
#     4  11  21  34  51  76 115 153 185 225 270 319
#     4  11  21  35  58  83 112 143 189 232 280 330
#     4  10  22  37  55  80 108 142 186 230 273 335
#
# _framework density 17.735742999999999
#
# number of rings (size 3 to 8) (size 9 to 14) (size 15 to 20)
#    0.000    1.833    3.333    1.500    0.000    6.667 
#    0.000    8.333    0.000    0.500    0.000    0.000 
#    0.000    6.000    0.000    0.000    0.000    0.000 
#
# Total GULP energy -133665.214617 kJ/mol
# GULP energy per Si atom -5569.383942 kJ/mol
# Density = 1.769538 g / cm^3
# Si number density = 17.735743 Si / 1000 Ang^3
#
#
#
# Elastic Constant Matrix: (Units=GPa)
#
#
# Indices 1 2 3 4 5 6 
#
# 1 68.2894 32.0204 19.9499 0.0000 4.1995 0.0000
# 2 32.0204 54.2171 29.5791 0.0000 3.1354 0.0000
# 3 19.9499 29.5791 89.4437 0.0000 1.0477 0.0000
# 4 0.0000 0.0000 0.0000 20.0062 0.0000 -1.4356
# 5 4.1995 3.1354 1.0477 0.0000 34.6690 0.0000
# 6 0.0000 0.0000 0.0000 -1.4356 0.0000 -3.2235
#
#
#
# Elastic Compliance Matrix: (Units=1/GPa)
#
#
# Indices 1 2 3 4 5 6 
#
# 1 0.020354 -0.011557 -0.000701 0.000000 -0.001399 0.000000
# 2 -0.011557 0.029181 -0.007060 0.000000 -0.001026 0.000000
# 3 -0.000701 -0.007060 0.013668 0.000000 0.000310 0.000000
# 4 0.000000 0.000000 0.000000 0.048437 0.000000 -0.021572
# 5 -0.001399 -0.001026 0.000310 0.000000 0.029097 0.000000
# 6 0.000000 0.000000 0.000000 -0.021572 0.000000 -0.300613
#
#
# Mechanical properties :
#
#
# Convention : Reuss Voigt Hill
#
# Bulk Modulus (GPa) = 40.70886 41.67209 41.19047
# Shear Modulus (GPa) = -44.22804 18.98371 -12.62216
#
# Velocity S-wave (km/s) = -4.99914 3.27519 -2.67063
# Velocity P-wave (km/s) = 3.21232 6.15221 3.71016
#
# Compressibility (1/GPa) = 0.02456468
#
# Stress axis : x y z
#
# Youngs Moduli (GPa) = 49.13144 34.26855 73.16390
#
# Poissons Ratio (x) = 0.39605 0.05132
# Poissons Ratio (y) = 0.56782 0.51657
# Poissons Ratio (z) = 0.03446 0.24195
#
# Static dielectric constant tensor:
#      x y z
#    x 1.665350 0.000000 -0.023130 
#    y 0.000000 1.570430 0.000000 
#    z -0.023130 0.000000 1.665350 
# 
# From -- ./inp_files/34483.got.cif
#   From: 2010.05.17/outbox.cif.g08.bks.cpg/sg10_18_cif.got.tgz:34483.got - 2010.06.03 11:33:40.
