data_PCOD9145963
_publ_section_title
;
Structure prediction by ZEFSAII (Michael W. Deem and Ramdas Pophale) SiO2 
 PCOD9145963
Probable space group: P 2/M
;
_chemical_formula_sum "Si O2"
_cell_formula_units_Z 32
_cell_length_a 12.158758
_cell_length_b 7.523857
_cell_length_c 29.521692
_cell_angle_alpha 90.000000
_cell_angle_beta 31.076377
_cell_angle_gamma 90.000000
_cell_volume 1394.030813
_symmetry_space_group_name_H-M "P 2/M"
_symmetry_group_IT_number 10
_symmetry_cell_setting 'monoclinic'
loop_
_space_group_symop_operation_xyz
x,y,z
-x,y,-z
-x,-y,-z
x,-y,z
loop_
_atom_site_type_symbol
_atom_site_label
_atom_site_fract_x
_atom_site_fract_y
_atom_site_fract_z
Si Si1 0.641295 0.206258 0.410100
Si Si2 0.177741 0.284222 0.322909
Si Si3 0.263661 0.715175 0.480744
Si Si4 0.603208 0.283599 0.661499
Si Si5 0.911129 0.295612 0.984790
Si Si6 0.883429 0.714653 0.179945
Si Si7 0.431870 0.204881 0.143372
Si Si8 0.060343 0.788075 0.216323
O O1 0.500000 0.289391 0.500000
O O2 0.484868 0.215938 0.422476
O O3 0.867188 0.284952 0.315628
O O4 0.679070 0.000000 0.409053
O O5 0.181208 0.500000 0.319473
O O6 0.311926 0.226887 0.319704
O O7 0.282393 0.215122 0.240336
O O8 0.935207 0.227615 0.418526
O O9 0.269195 0.500000 0.480172
O O10 0.251333 0.768182 0.432553
O O11 0.604510 0.500000 0.662175
O O12 0.362003 0.226132 0.736544
O O13 0.989468 0.500000 0.957235
O O14 0.656219 0.295221 0.073993
O O15 0.997377 0.219408 0.907180
O O16 0.000000 0.213774 0.000000
O O17 0.880950 0.500000 0.180735
O O18 0.998658 0.763510 0.185979
O O19 0.288066 0.279985 0.153187
O O20 0.485212 0.000000 0.114989
O O21 0.066541 0.000000 0.222010
#
# Coordination Sequence:
#
# PCOD9145963 Si02
#       8
#     4   4   4   4   4   4   4   4
#     4  10  20  35  54  75 109 158 202 240 285 338
#     4  10  20  35  57  84 116 154 192 238 295 348
#     4  10  19  32  54  84 113 146 192 241 289 343
#     4   9  17  33  56  84 116 148 186 234 290 348
#     4  10  22  42  67  93 119 149 186 232 292 354
#     4  10  20  36  62  89 114 148 191 241 288 343
#     4  11  24  41  60  84 116 154 195 239 285 339
#     4  10  22  39  57  80 115 157 196 238 291 342
#
# _framework density 22.955015
#
# number of rings (size 3 to 8) (size 9 to 14) (size 15 to 20)
#    0.000    2.000    1.250    2.250    0.000    7.500 
#    0.000    5.000    0.000    1.500    0.000    0.000 
#    0.000    0.000    0.000    0.000    0.000    0.000 
#
# Total GULP energy -178837.605934 kJ/mol
# GULP energy per Si atom -5588.675185 kJ/mol
# Density = 2.290277 g / cm^3
# Si number density = 22.955015 Si / 1000 Ang^3
#
#
#
# Elastic Constant Matrix: (Units=GPa)
#
#
# Indices 1 2 3 4 5 6 
#
# 1 86.3675 -2.0930 27.0001 0.0000 -10.1252 0.0000
# 2 -2.0930 62.2258 -2.3370 0.0000 0.8563 0.0000
# 3 27.0001 -2.3370 107.2045 0.0000 0.8301 0.0000
# 4 0.0000 0.0000 0.0000 -2.9012 0.0000 6.5029
# 5 -10.1252 0.8563 0.8301 0.0000 38.9023 0.0000
# 6 0.0000 0.0000 0.0000 6.5029 0.0000 21.8669
#
#
#
# Elastic Compliance Matrix: (Units=1/GPa)
#
#
# Indices 1 2 3 4 5 6 
#
# 1 0.013022 0.000267 -0.003300 0.000000 0.003454 0.000000
# 2 0.000267 0.016094 0.000286 0.000000 -0.000291 0.000000
# 3 -0.003300 0.000286 0.010174 0.000000 -0.001082 0.000000
# 4 0.000000 0.000000 0.000000 -0.206821 0.000000 0.061505
# 5 0.003454 -0.000291 -0.001082 0.000000 0.026634 0.000000
# 6 0.000000 0.000000 0.000000 0.061505 0.000000 0.027440
#
#
# Mechanical properties :
#
#
# Convention : Reuss Voigt Hill
#
# Bulk Modulus (GPa) = 29.59140 33.43754 31.51447
# Shear Modulus (GPa) = -51.70816 27.12210 -12.29303
#
# Velocity S-wave (km/s) = -4.75129 3.44107 -2.31666
# Velocity P-wave (km/s) = 4.14496 5.51236 2.56958
#
# Compressibility (1/GPa) = 0.03379360
#
# Stress axis : x y z
#
# Youngs Moduli (GPa) = 76.79555 62.13411 98.29134
#
# Poissons Ratio (x) = -0.01656 0.32441
# Poissons Ratio (y) = -0.02047 -0.02811
# Poissons Ratio (z) = 0.25346 -0.01777
#
# Static dielectric constant tensor:
#      x y z
#    x 1.853820 0.000000 0.006860 
#    y 0.000000 1.891770 0.000000 
#    z 0.006860 0.000000 1.836150 
# 
# From -- ./inp_files/94917.got.cif
#   From: 2010.05.17/outbox.cif.g08.bks.cpg/sg10_48_cif.got.tgz:94917.got - 2010.06.03 11:33:40.
