data_PCOD9145535
_publ_section_title
;
Structure prediction by ZEFSAII (Michael W. Deem and Ramdas Pophale) SiO2 
 PCOD9145535
Probable space group: P 2/M
;
_chemical_formula_sum "Si O2"
_cell_formula_units_Z 32
_cell_length_a 14.751080
_cell_length_b 8.761522
_cell_length_c 26.797463
_cell_angle_alpha 90.000000
_cell_angle_beta 145.032981
_cell_angle_gamma 90.000000
_cell_volume 1984.865630
_symmetry_space_group_name_H-M "P 2/M"
_symmetry_group_IT_number 10
_symmetry_cell_setting 'monoclinic'
loop_
_space_group_symop_operation_xyz
x,y,z
-x,y,-z
-x,-y,-z
x,-y,z
loop_
_atom_site_type_symbol
_atom_site_label
_atom_site_fract_x
_atom_site_fract_y
_atom_site_fract_z
Si Si1 0.433579 0.678111 0.240933
Si Si2 0.529904 0.172933 0.845657
Si Si3 0.913098 0.184684 0.908800
Si Si4 0.046450 0.681880 0.596347
Si Si5 0.239551 0.182119 0.591721
Si Si6 0.315302 0.317960 0.912737
Si Si7 0.206241 0.178492 0.760720
Si Si8 0.172026 0.821873 0.946396
O O1 0.438769 0.500000 0.254959
O O2 0.461057 0.707154 0.194425
O O3 0.261339 0.747095 0.173770
O O4 0.580514 0.763921 0.332802
O O5 0.376295 0.191745 0.810180
O O6 0.526449 0.000000 0.822144
O O7 0.682722 0.184290 0.949257
O O8 0.020386 0.229287 0.909842
O O9 0.903938 0.000000 0.905761
O O10 0.000000 0.230452 0.000000
O O11 0.055919 0.500000 0.595037
O O12 0.171807 0.759317 0.614616
O O13 0.087297 0.732611 0.670717
O O14 0.877202 0.742668 0.501314
O O15 0.226500 0.000000 0.584354
O O16 0.317459 0.500000 0.907924
O O17 0.231571 0.244402 0.827067
O O18 0.222429 0.271394 0.920726
O O19 0.500000 0.265859 0.000000
O O20 0.164015 0.000000 0.743538
O O21 0.150986 0.000000 0.922766
#
# Coordination Sequence:
#
# PCOD9145535 Si02
#       8
#     4   4   4   4   4   4   4   4
#     4  12  23  33  50  77 108 141 177 220 267 313
#     4  10  19  32  51  73 102 140 180 220 257 308
#     4  10  20  36  55  75 102 139 182 222 261 315
#     4  11  21  34  52  78 109 136 170 218 270 313
#     4  11  21  35  53  74 104 142 180 213 256 316
#     4  11  23  35  50  75 108 140 175 222 269 311
#     4  11  21  34  54  76 103 143 184 214 256 317
#     4  10  20  36  55  73  99 139 183 224 261 306
#
# _framework density 16.121998000000001
#
# number of rings (size 3 to 8) (size 9 to 14) (size 15 to 20)
#    0.000    1.250    3.750    4.875    0.000    2.250 
#    0.000    0.000    0.000    0.000    0.000    0.875 
#    0.000    7.000    0.000    0.000    0.000    0.000 
#
# Total GULP energy -178727.210497 kJ/mol
# GULP energy per Si atom -5585.225328 kJ/mol
# Density = 1.608530 g / cm^3
# Si number density = 16.121998 Si / 1000 Ang^3
#
#
#
# Elastic Constant Matrix: (Units=GPa)
#
#
# Indices 1 2 3 4 5 6 
#
# 1 75.7407 32.7599 42.2613 0.0000 4.4089 0.0000
# 2 32.7599 83.0978 35.4806 0.0000 3.4425 0.0000
# 3 42.2613 35.4806 102.1767 0.0000 8.5121 0.0000
# 4 0.0000 0.0000 0.0000 25.8724 0.0000 4.8073
# 5 4.4089 3.4425 8.5121 0.0000 23.8640 0.0000
# 6 0.0000 0.0000 0.0000 4.8073 0.0000 61.5893
#
#
#
# Elastic Compliance Matrix: (Units=1/GPa)
#
#
# Indices 1 2 3 4 5 6 
#
# 1 0.018652 -0.004762 -0.006010 0.000000 -0.000615 0.000000
# 2 -0.004762 0.015346 -0.003348 0.000000 -0.000140 0.000000
# 3 -0.006010 -0.003348 0.013710 0.000000 -0.003297 0.000000
# 4 0.000000 0.000000 0.000000 0.039220 0.000000 -0.003061
# 5 -0.000615 -0.000140 -0.003297 0.000000 0.043214 0.000000
# 6 0.000000 0.000000 0.000000 -0.003061 0.000000 0.016476
#
#
# Mechanical properties :
#
#
# Convention : Reuss Voigt Hill
#
# Bulk Modulus (GPa) = 51.36267 53.55764 52.46015
# Shear Modulus (GPa) = 27.57166 32.29939 29.93552
#
# Velocity S-wave (km/s) = 4.13993 4.48083 4.31375
# Velocity P-wave (km/s) = 7.40135 7.75002 7.57769
#
# Compressibility (1/GPa) = 0.01946939
#
# Stress axis : x y z
#
# Youngs Moduli (GPa) = 53.61484 65.16170 72.94008
#
# Poissons Ratio (x) = 0.31027 0.43835
# Poissons Ratio (y) = 0.25529 0.24420
# Poissons Ratio (z) = 0.32221 0.21816
#
# Static dielectric constant tensor:
#      x y z
#    x 1.521310 0.000000 0.006150 
#    y 0.000000 1.550760 0.000000 
#    z 0.006150 0.000000 1.543960 
# 
# From -- ./inp_files/93129.got.cif
#   From: 2010.05.17/outbox.cif.g08.bks.cpg/sg10_47_cif.got.tgz:93129.got - 2010.06.03 11:33:40.
