data_PCOD9145892
_publ_section_title
;
Structure prediction by ZEFSAII (Michael W. Deem and Ramdas Pophale) SiO2 
 PCOD9145892
Probable space group: P 2/M
;
_chemical_formula_sum "Si O2"
_cell_formula_units_Z 24
_cell_length_a 24.110502
_cell_length_b 7.887648
_cell_length_c 18.402284
_cell_angle_alpha 90.000000
_cell_angle_beta 23.214760
_cell_angle_gamma 90.000000
_cell_volume 1379.490229
_symmetry_space_group_name_H-M "P 2/M"
_symmetry_group_IT_number 10
_symmetry_cell_setting 'monoclinic'
loop_
_space_group_symop_operation_xyz
x,y,z
-x,y,-z
-x,-y,-z
x,-y,z
loop_
_atom_site_type_symbol
_atom_site_label
_atom_site_fract_x
_atom_site_fract_y
_atom_site_fract_z
Si Si1 0.352104 0.795173 0.642122
Si Si2 0.391817 0.000000 0.064778
Si Si3 0.086396 0.310889 0.245052
Si Si4 0.208011 0.804864 0.953437
Si Si5 0.604403 0.302803 0.052918
Si Si6 0.069425 0.000000 0.496164
Si Si7 0.501008 0.699363 0.330052
O O1 0.500000 0.736038 0.500000
O O2 0.365859 0.737099 0.542496
O O3 0.350543 0.000000 0.645276
O O4 0.230190 0.738656 0.844502
O O5 0.234991 0.000000 0.285557
O O6 0.500000 0.000000 0.000000
O O7 0.409596 0.166335 0.993147
O O8 0.035396 0.500000 0.323082
O O9 0.115692 0.292011 0.123682
O O10 0.238412 0.288613 0.101521
O O11 0.985628 0.165183 0.395327
O O12 0.161085 0.000000 0.007693
O O13 0.366711 0.800025 0.795583
O O14 0.585960 0.500000 0.053199
O O15 0.499029 0.263667 0.246939
O O16 0.000000 0.000000 0.500000
O O17 0.536074 0.500000 0.294134
#
# Coordination Sequence:
#
# PCOD9145892 Si02
#       7
#     4   2   4   4   4   2   4
#     4   8  14  21  32  56  91 136 171 198 238 291
#     4  12  26  40  58  79 101 137 171 210 274 320
#     4  10  19  32  54  80 103 136 175 211 259 309
#     4   9  15  24  38  61 100 136 167 205 248 291
#     4   9  19  34  52  77 105 134 174 218 256 308
#     4  12  22  38  58  79 103 131 167 226 258 306
#     4   9  16  23  37  62  93 133 174 206 243 296
#
# _framework density 17.397731
#
# number of rings (size 3 to 8) (size 9 to 14) (size 15 to 20)
#    0.000    2.500    2.500    3.000    4.667    5.000 
#    0.000    0.000    0.000    0.000    0.000    0.000 
#    0.000    2.667    0.000    5.167    0.000    1.333 
#
# Total GULP energy -133652.039946 kJ/mol
# GULP energy per Si atom -5568.834998 kJ/mol
# Density = 1.735813 g / cm^3
# Si number density = 17.397731 Si / 1000 Ang^3
#
#
#
# Elastic Constant Matrix: (Units=GPa)
#
#
# Indices 1 2 3 4 5 6 
#
# 1 69.3750 54.7621 64.1564 0.0000 28.9829 0.0000
# 2 54.7621 98.9758 50.5029 0.0000 27.8443 0.0000
# 3 64.1564 50.5029 84.0841 0.0000 35.8163 0.0000
# 4 0.0000 0.0000 0.0000 -24.3768 0.0000 -30.2585
# 5 28.9829 27.8443 35.8163 0.0000 29.6580 0.0000
# 6 0.0000 0.0000 0.0000 -30.2585 0.0000 -30.9791
#
#
#
# Elastic Compliance Matrix: (Units=1/GPa)
#
#
# Indices 1 2 3 4 5 6 
#
# 1 0.060295 -0.014191 -0.037188 0.000000 -0.000690 0.000000
# 2 -0.014191 0.018524 0.002476 0.000000 -0.006514 0.000000
# 3 -0.037188 0.002476 0.050022 0.000000 -0.026392 0.000000
# 4 0.000000 0.000000 0.000000 0.193131 0.000000 -0.188638
# 5 -0.000690 -0.006514 -0.026392 0.000000 0.072379 0.000000
# 6 0.000000 0.000000 0.000000 -0.188638 0.000000 0.151970
#
#
# Mechanical properties :
#
#
# Convention : Reuss Voigt Hill
#
# Bulk Modulus (GPa) = 32.22114 65.69753 48.95933
# Shear Modulus (GPa) = 7.63974 0.39466 4.01720
#
# Velocity S-wave (km/s) = 2.09780 0.47680 1.52120
# Velocity P-wave (km/s) = 4.94249 6.17634 5.59354
#
# Compressibility (1/GPa) = 0.03103552
#
# Stress axis : x y z
#
# Youngs Moduli (GPa) = 16.58505 53.98358 19.99126
#
# Poissons Ratio (x) = 0.76609 0.74344
# Poissons Ratio (y) = 0.23536 -0.04951
# Poissons Ratio (z) = 0.61677 -0.13369
#
# Static dielectric constant tensor:
#      x y z
#    x 1.589960 0.000000 0.062580 
#    y 0.000000 1.614470 0.000000 
#    z 0.062580 0.000000 1.607100 
# 
# From -- ./inp_files/80086.got.cif
#   From: 2010.05.17/outbox.cif.g08.bks.cpg/sg10_41_cif.got.tgz:80086.got - 2010.06.03 11:33:40.
