data_PCOD9145874
_publ_section_title
;
Structure prediction by ZEFSAII (Michael W. Deem and Ramdas Pophale) SiO2 
 PCOD9145874
Probable space group: P 2/M
;
_chemical_formula_sum "Si O2"
_cell_formula_units_Z 26
_cell_length_a 19.739965
_cell_length_b 7.660275
_cell_length_c 8.368954
_cell_angle_alpha 90.000000
_cell_angle_beta 58.060978
_cell_angle_gamma 90.000000
_cell_volume 1073.917401
_symmetry_space_group_name_H-M "P 2/M"
_symmetry_group_IT_number 10
_symmetry_cell_setting 'monoclinic'
loop_
_space_group_symop_operation_xyz
x,y,z
-x,y,-z
-x,-y,-z
x,-y,z
loop_
_atom_site_type_symbol
_atom_site_label
_atom_site_fract_x
_atom_site_fract_y
_atom_site_fract_z
Si Si1 0.732679 0.288544 0.980247
Si Si2 0.334469 0.703789 0.279606
Si Si3 0.500000 0.760482 0.000000
Si Si4 0.955097 0.799532 0.406346
Si Si5 0.816936 0.210161 0.369946
Si Si6 0.891925 0.296291 0.941749
Si Si7 0.562400 0.297090 0.289709
O O1 0.734735 0.500000 0.998220
O O2 0.715393 0.254704 0.816779
O O3 0.819383 0.223637 0.923973
O O4 0.652967 0.222654 0.171591
O O5 0.361551 0.500000 0.240359
O O6 0.273750 0.729552 0.498717
O O7 0.413874 0.816525 0.172593
O O8 0.467879 0.701723 0.858846
O O9 0.000000 0.715360 0.500000
O O10 0.873749 0.721716 0.441838
O O11 0.936911 0.000000 0.472532
O O12 0.023685 0.795881 0.186638
O O13 0.857490 0.277537 0.160486
O O14 0.818522 0.000000 0.368415
O O15 0.904907 0.500000 0.889740
O O16 0.500000 0.223498 0.500000
O O17 0.571866 0.500000 0.322948
#
# Coordination Sequence:
#
# PCOD9145874 Si02
#       7
#     4   4   2   4   4   4   4
#     4   8  17  32  49  80 114 141 178 229 282 333
#     4  10  19  35  59  85 114 145 188 239 288 338
#     4  10  19  32  53  86 117 148 189 242 297 348
#     4  10  22  41  62  82 110 150 191 230 280 343
#     4  11  24  39  56  82 114 150 190 230 280 344
#     4  11  22  36  58  86 117 148 185 235 287 334
#     4   9  16  26  45  73 111 149 182 224 282 346
#
# _framework density 24.210428
#
# number of rings (size 3 to 8) (size 9 to 14) (size 15 to 20)
#    0.000    2.154    0.000    4.615    2.154    3.385 
#    0.000    1.154    0.000    0.000    0.000    2.154 
#    0.000    0.000    0.000    0.000    0.000    0.000 
#
# Total GULP energy -144896.846612 kJ/mol
# GULP energy per Si atom -5572.955639 kJ/mol
# Density = 2.415532 g / cm^3
# Si number density = 24.210428 Si / 1000 Ang^3
#
#
#
# Elastic Constant Matrix: (Units=GPa)
#
#
# Indices 1 2 3 4 5 6 
#
# 1 90.4561 10.9278 8.4777 0.0000 -25.3775 0.0000
# 2 10.9278 68.3979 -0.5950 0.0000 -1.9539 0.0000
# 3 8.4777 -0.5950 137.0639 0.0000 -29.1088 0.0000
# 4 0.0000 0.0000 0.0000 29.9470 0.0000 -10.4260
# 5 -25.3775 -1.9539 -29.1088 0.0000 42.0170 0.0000
# 6 0.0000 0.0000 0.0000 -10.4260 0.0000 -3.1160
#
#
#
# Elastic Compliance Matrix: (Units=1/GPa)
#
#
# Indices 1 2 3 4 5 6 
#
# 1 0.013685 -0.001923 0.001034 0.000000 0.008892 0.000000
# 2 -0.001923 0.014917 0.000099 0.000000 -0.000400 0.000000
# 3 0.001034 0.000099 0.008637 0.000000 0.006612 0.000000
# 4 0.000000 0.000000 0.000000 0.015425 0.000000 -0.051609
# 5 0.008892 -0.000400 0.006612 0.000000 0.033733 0.000000
# 6 0.000000 0.000000 0.000000 -0.051609 0.000000 -0.148240
#
#
# Mechanical properties :
#
#
# Convention : Reuss Voigt Hill
#
# Bulk Modulus (GPa) = 28.04480 37.05990 32.55235
# Shear Modulus (GPa) = -103.35699 32.24340 -35.55679
#
# Velocity S-wave (km/s) = -6.54093 3.65334 -3.83646
# Velocity P-wave (km/s) = 6.74063 5.75643 2.47988
#
# Compressibility (1/GPa) = 0.03565723
#
# Stress axis : x y z
#
# Youngs Moduli (GPa) = 73.07092 67.03726 115.78587
#
# Poissons Ratio (x) = 0.12894 -0.11969
# Poissons Ratio (y) = 0.14055 -0.01145
# Poissons Ratio (z) = -0.07553 -0.00663
#
# Static dielectric constant tensor:
#      x y z
#    x 1.932280 0.000000 0.029920 
#    y 0.000000 0.203690 0.000000 
#    z 0.029920 0.000000 1.965270 
# 
# From -- ./inp_files/34188.got.cif
#   From: 2010.05.17/outbox.cif.g08.bks.cpg/sg10_18_cif.got.tgz:34188.got - 2010.06.03 11:33:40.
