data_PCOD9145401
_publ_section_title
;
Structure prediction by ZEFSAII (Michael W. Deem and Ramdas Pophale) SiO2 
 PCOD9145401
Probable space group: P 2/M
;
_chemical_formula_sum "Si O2"
_cell_formula_units_Z 28
_cell_length_a 18.113817
_cell_length_b 9.034911
_cell_length_c 19.523595
_cell_angle_alpha 90.000000
_cell_angle_beta 149.262896
_cell_angle_gamma 90.000000
_cell_volume 1633.049014
_symmetry_space_group_name_H-M "P 2/M"
_symmetry_group_IT_number 10
_symmetry_cell_setting 'monoclinic'
loop_
_space_group_symop_operation_xyz
x,y,z
-x,y,-z
-x,-y,-z
x,-y,z
loop_
_atom_site_type_symbol
_atom_site_label
_atom_site_fract_x
_atom_site_fract_y
_atom_site_fract_z
Si Si1 0.593228 0.673549 0.644033
Si Si2 0.834585 0.169644 0.339246
Si Si3 0.732629 0.669875 0.387072
Si Si4 0.103884 0.826562 0.147977
Si Si5 0.936643 0.669664 0.292415
Si Si6 0.365479 0.823033 0.558690
Si Si7 0.925148 0.321374 0.734838
O O1 0.500000 0.682812 0.500000
O O2 0.610087 0.500000 0.674416
O O3 0.745445 0.749419 0.750481
O O4 0.505520 0.758491 0.632840
O O5 0.741324 0.265926 0.317655
O O6 0.843848 0.232245 0.269916
O O7 0.000000 0.174384 0.500000
O O8 0.787855 0.000000 0.303230
O O9 0.683495 0.500000 0.349437
O O10 0.645720 0.768947 0.371730
O O11 0.898651 0.671133 0.547088
O O12 0.040688 0.743357 0.163819
O O13 0.126586 0.000000 0.182342
O O14 0.000000 0.815836 0.000000
O O15 0.886367 0.500000 0.255138
O O16 0.957592 0.716091 0.230365
O O17 0.226762 0.750492 0.409970
O O18 0.358758 0.000000 0.548750
O O19 0.909246 0.500000 0.723344
#
# Coordination Sequence:
#
# PCOD9145401 Si02
#       7
#     4   4   4   4   4   4   4
#     4  11  22  36  56  78 101 132 173 213 252 307
#     4   9  15  22  34  55  84 119 159 197 241 293
#     4   9  16  26  39  57  88 125 161 199 243 295
#     4  11  24  39  55  77 104 134 169 212 262 309
#     4   8  15  25  38  57  84 120 160 199 240 290
#     4  11  20  30  48  72  99 128 164 210 256 298
#     4  10  19  32  49  70  96 129 169 208 250 303
#
# _framework density 17.145841000000001
#
# number of rings (size 3 to 8) (size 9 to 14) (size 15 to 20)
#    0.000    2.143    1.429    4.286    0.000    7.429 
#    0.000    0.000    0.000    0.000    0.000    0.000 
#    0.000    1.143    0.000   12.000    0.000    9.286 
#
# Total GULP energy -156159.698142 kJ/mol
# GULP energy per Si atom -5577.132077 kJ/mol
# Density = 1.710682 g / cm^3
# Si number density = 17.145841 Si / 1000 Ang^3
#
#
#
# Elastic Constant Matrix: (Units=GPa)
#
#
# Indices 1 2 3 4 5 6 
#
# 1 147.2348 76.5462 17.0444 0.0000 -17.1903 0.0000
# 2 76.5462 133.9359 23.5687 0.0000 -7.8487 0.0000
# 3 17.0444 23.5687 21.2939 0.0000 -4.8008 0.0000
# 4 0.0000 0.0000 0.0000 0.3023 0.0000 5.6485
# 5 -17.1903 -7.8487 -4.8008 0.0000 9.9937 0.0000
# 6 0.0000 0.0000 0.0000 5.6485 0.0000 25.4512
#
#
#
# Elastic Compliance Matrix: (Units=1/GPa)
#
#
# Indices 1 2 3 4 5 6 
#
# 1 0.011561 -0.005815 0.000713 0.000000 0.015662 0.000000
# 2 -0.005815 0.012260 -0.010092 0.000000 -0.005222 0.000000
# 3 0.000713 -0.010092 0.062858 0.000000 0.023497 0.000000
# 4 0.000000 0.000000 0.000000 -1.051159 0.000000 0.233289
# 5 0.015662 -0.005222 0.023497 0.000000 0.134190 0.000000
# 6 0.000000 0.000000 0.000000 0.233289 0.000000 -0.012484
#
#
# Mechanical properties :
#
#
# Convention : Reuss Voigt Hill
#
# Bulk Modulus (GPa) = 17.76457 59.64259 38.70358
# Shear Modulus (GPa) = -6.30022 19.50312 6.60145
#
# Velocity S-wave (km/s) = -1.91898 3.37632 1.96432
# Velocity P-wave (km/s) = 2.33953 7.07533 5.26943
#
# Compressibility (1/GPa) = 0.05629181
#
# Stress axis : x y z
#
# Youngs Moduli (GPa) = 86.49688 81.56935 15.90876
#
# Poissons Ratio (x) = 0.47433 -0.01135
# Poissons Ratio (y) = 0.50299 0.16055
# Poissons Ratio (z) = -0.06171 0.82320
#
# Static dielectric constant tensor:
#      x y z
#    x 1.599280 0.000000 -0.014270 
#    y 0.000000 1.574550 0.000000 
#    z -0.014270 0.000000 1.552270 
# 
# From -- ./inp_files/79215.got.cif
#   From: 2010.05.17/outbox.cif.g08.bks.cpg/sg10_40_cif.got.tgz:79215.got - 2010.06.03 11:33:40.
