data_PCOD9145945
_publ_section_title
;
Structure prediction by ZEFSAII (Michael W. Deem and Ramdas Pophale) SiO2 
 PCOD9145945
Probable space group: P 2/M
;
_chemical_formula_sum "Si O2"
_cell_formula_units_Z 20
_cell_length_a 11.436363
_cell_length_b 13.195058
_cell_length_c 9.310041
_cell_angle_alpha 90.000000
_cell_angle_beta 140.452778
_cell_angle_gamma 90.000000
_cell_volume 894.530600
_symmetry_space_group_name_H-M "P 2/M"
_symmetry_group_IT_number 10
_symmetry_cell_setting 'monoclinic'
loop_
_space_group_symop_operation_xyz
x,y,z
-x,y,-z
-x,-y,-z
x,-y,z
loop_
_atom_site_type_symbol
_atom_site_label
_atom_site_fract_x
_atom_site_fract_y
_atom_site_fract_z
Si Si1 0.029776 0.111224 0.788678
Si Si2 0.570831 0.618338 0.223497
Si Si3 0.281077 0.828885 0.286808
Si Si4 0.966271 0.677106 0.625244
Si Si5 0.233321 0.612182 0.121594
O O1 0.839539 0.126215 0.697705
O O2 0.045657 0.209090 0.703853
O O3 0.034572 0.000000 0.727213
O O4 0.192107 0.121999 0.059857
O O5 0.623266 0.500000 0.259583
O O6 0.748968 0.678997 0.436552
O O7 0.412931 0.624326 0.192117
O O8 0.500000 0.651564 0.000000
O O9 0.500000 0.843094 0.500000
O O10 0.234286 0.708934 0.225156
O O11 0.000000 0.630694 0.500000
O O12 0.066631 0.620277 0.850260
O O13 0.235840 0.500000 0.191570
#
# Coordination Sequence:
#
# PCOD9145945 Si02
#       5
#     4   4   4   4   4
#     4  10  23  40  58  83 108 140 190 237 283 331
#     4  10  19  32  54  82 113 149 183 214 258 323
#     4  10  20  38  61  81 109 145 182 230 279 328
#     4  11  21  36  58  81 114 151 184 227 272 324
#     4  10  21  35  55  86 117 148 183 218 268 330
#
# _framework density 22.358094999999999
#
# number of rings (size 3 to 8) (size 9 to 14) (size 15 to 20)
#    0.000    1.800    2.000    3.000    0.000    3.200 
#    0.000    9.000    0.000    0.600    0.000    0.000 
#    0.000    0.000    0.000    0.000    0.000    0.000 
#
# Total GULP energy -111899.254984 kJ/mol
# GULP energy per Si atom -5594.962749 kJ/mol
# Density = 2.230721 g / cm^3
# Si number density = 22.358095 Si / 1000 Ang^3
#
#
#
# Elastic Constant Matrix: (Units=GPa)
#
#
# Indices 1 2 3 4 5 6 
#
# 1 50.6721 -3.4785 25.9474 0.0000 9.1120 0.0000
# 2 -3.4785 120.5881 7.6041 0.0000 4.9700 0.0000
# 3 25.9474 7.6041 124.7980 0.0000 29.0674 0.0000
# 4 0.0000 0.0000 0.0000 2.8143 0.0000 4.3144
# 5 9.1120 4.9700 29.0674 0.0000 34.1985 0.0000
# 6 0.0000 0.0000 0.0000 4.3144 0.0000 17.4371
#
#
#
# Elastic Compliance Matrix: (Units=1/GPa)
#
#
# Indices 1 2 3 4 5 6 
#
# 1 0.022377 0.001012 -0.004104 0.000000 -0.002621 0.000000
# 2 0.001012 0.008396 -0.000468 0.000000 -0.001093 0.000000
# 3 -0.004104 -0.000468 0.010753 0.000000 -0.007978 0.000000
# 4 0.000000 0.000000 0.000000 0.572464 0.000000 -0.141643
# 5 -0.002621 -0.001093 -0.007978 0.000000 0.036879 0.000000
# 6 0.000000 0.000000 0.000000 -0.141643 0.000000 0.092395
#
#
# Mechanical properties :
#
#
# Convention : Reuss Voigt Hill
#
# Bulk Modulus (GPa) = 29.06272 39.57824 34.32048
# Shear Modulus (GPa) = 6.56295 28.62234 17.59265
#
# Velocity S-wave (km/s) = 1.71515 3.58184 2.80814
# Velocity P-wave (km/s) = 4.11695 5.90309 5.08900
#
# Compressibility (1/GPa) = 0.03440834
#
# Stress axis : x y z
#
# Youngs Moduli (GPa) = 44.68891 119.09858 92.99813
#
# Poissons Ratio (x) = -0.12056 0.38163
# Poissons Ratio (y) = -0.04524 0.04349
# Poissons Ratio (z) = 0.18339 0.05569
#
# Static dielectric constant tensor:
#      x y z
#    x 1.825970 0.000000 -0.011350 
#    y 0.000000 1.825190 0.000000 
#    z -0.011350 0.000000 1.811490 
# 
# From -- ./inp_files/50874.got.cif
#   From: 2010.05.17/outbox.cif.g08.bks.cpg/sg10_26_cif.got.tgz:50874.got - 2010.06.03 11:33:40.
