data_PCOD9145711
_publ_section_title
;
Structure prediction by ZEFSAII (Michael W. Deem and Ramdas Pophale) SiO2 
 PCOD9145711
Probable space group: P 2/M
;
_chemical_formula_sum "Si O2"
_cell_formula_units_Z 20
_cell_length_a 17.012549
_cell_length_b 13.561820
_cell_length_c 11.192726
_cell_angle_alpha 90.000000
_cell_angle_beta 21.910712
_cell_angle_gamma 90.000000
_cell_volume 963.650985
_symmetry_space_group_name_H-M "P 2/M"
_symmetry_group_IT_number 10
_symmetry_cell_setting 'monoclinic'
loop_
_space_group_symop_operation_xyz
x,y,z
-x,y,-z
-x,-y,-z
x,-y,z
loop_
_atom_site_type_symbol
_atom_site_label
_atom_site_fract_x
_atom_site_fract_y
_atom_site_fract_z
Si Si1 0.977996 0.796906 0.157963
Si Si2 0.799759 0.611291 0.845773
Si Si3 0.255051 0.610564 0.808528
Si Si4 0.126007 0.114108 0.447400
Si Si5 0.498509 0.266829 0.128359
O O1 0.005090 0.848219 0.250560
O O2 0.735565 0.764133 0.510815
O O3 0.000000 0.854016 0.000000
O O4 0.138017 0.704060 0.917936
O O5 0.772494 0.500000 0.839183
O O6 0.000000 0.658337 0.500000
O O7 0.851072 0.606264 0.911544
O O8 0.594850 0.671113 0.100134
O O9 0.500000 0.624885 0.500000
O O10 0.238025 0.500000 0.776191
O O11 0.000000 0.118914 0.500000
O O12 0.180002 0.000000 0.393852
O O13 0.338026 0.177953 0.128958
O O14 0.500000 0.325075 0.000000
#
# Coordination Sequence:
#
# PCOD9145711 Si02
#       5
#     4   4   4   4   4
#     4  11  23  36  58  90 118 146 186 242 290 328
#     4  10  19  32  52  78 110 149 193 236 272 320
#     4  10  21  37  56  78 113 160 196 225 273 338
#     4  10  22  42  65  84 109 151 194 230 282 355
#     4  10  20  34  55  82 114 151 187 231 289 344
#
# _framework density 20.754403
#
# number of rings (size 3 to 8) (size 9 to 14) (size 15 to 20)
#    0.000    1.800    0.000    5.400    0.000    5.600 
#    0.000    0.000    0.000    3.000    0.000    0.000 
#    0.000    0.000    0.000    0.000    0.000    0.000 
#
# Total GULP energy -111438.052505 kJ/mol
# GULP energy per Si atom -5571.902625 kJ/mol
# Density = 2.070716 g / cm^3
# Si number density = 20.754403 Si / 1000 Ang^3
#
#
#
# Elastic Constant Matrix: (Units=GPa)
#
#
# Indices 1 2 3 4 5 6 
#
# 1 99.9794 16.1381 8.4774 0.0000 18.6365 0.0000
# 2 16.1381 96.9412 5.6274 0.0000 -6.7709 0.0000
# 3 8.4774 5.6274 72.7201 0.0000 6.5981 0.0000
# 4 0.0000 0.0000 0.0000 -3.8106 0.0000 21.7025
# 5 18.6365 -6.7709 6.5981 0.0000 39.8483 0.0000
# 6 0.0000 0.0000 0.0000 21.7025 0.0000 -25.0466
#
#
#
# Elastic Compliance Matrix: (Units=1/GPa)
#
#
# Indices 1 2 3 4 5 6 
#
# 1 0.011475 -0.002267 -0.000650 0.000000 -0.005644 0.000000
# 2 -0.002267 0.010957 -0.000862 0.000000 0.003065 0.000000
# 3 -0.000650 -0.000862 0.014091 0.000000 -0.002176 0.000000
# 4 0.000000 0.000000 0.000000 0.066692 0.000000 0.057788
# 5 -0.005644 0.003065 -0.002176 0.000000 0.028616 0.000000
# 6 0.000000 0.000000 0.000000 0.057788 0.000000 0.010147
#
#
# Mechanical properties :
#
#
# Convention : Reuss Voigt Hill
#
# Bulk Modulus (GPa) = 34.52324 36.68073 35.60198
# Shear Modulus (GPa) = 31.40884 18.15808 24.78346
#
# Velocity S-wave (km/s) = 3.89441 2.96108 3.45937
# Velocity P-wave (km/s) = 6.07390 5.42243 5.75739
#
# Compressibility (1/GPa) = 0.02896599
#
# Stress axis : x y z
#
# Youngs Moduli (GPa) = 87.14447 91.26614 70.96613
#
# Poissons Ratio (x) = 0.20688 0.04614
# Poissons Ratio (y) = 0.19754 0.06115
# Poissons Ratio (z) = 0.05666 0.07865
#
# Static dielectric constant tensor:
#      x y z
#    x 1.813340 0.000000 0.033260 
#    y 0.000000 1.784400 0.000000 
#    z 0.033260 0.000000 1.839810 
# 
# From -- ./inp_files/18605.got.cif
#   From: 2010.05.17/outbox.cif.g08.bks.cpg/sg10_10_cif.got.tgz:18605.got - 2010.06.03 11:33:40.
