data_PCOD9145032
_publ_section_title
;
Structure prediction by ZEFSAII (Michael W. Deem and Ramdas Pophale) SiO2 
 PCOD9145032
Probable space group: P 2/M
;
_chemical_formula_sum "Si O2"
_cell_formula_units_Z 28
_cell_length_a 15.686752
_cell_length_b 8.843176
_cell_length_c 21.478598
_cell_angle_alpha 90.000000
_cell_angle_beta 27.816083
_cell_angle_gamma 90.000000
_cell_volume 1390.351050
_symmetry_space_group_name_H-M "P 2/M"
_symmetry_group_IT_number 10
_symmetry_cell_setting 'monoclinic'
loop_
_space_group_symop_operation_xyz
x,y,z
-x,y,-z
-x,-y,-z
x,-y,z
loop_
_atom_site_type_symbol
_atom_site_label
_atom_site_fract_x
_atom_site_fract_y
_atom_site_fract_z
Si Si1 0.189768 0.178241 0.071011
Si Si2 0.537920 0.679964 0.192777
Si Si3 0.079490 0.819086 0.643752
Si Si4 0.372703 0.669337 0.530825
Si Si5 0.863025 0.182341 0.533037
Si Si6 0.221095 0.821453 0.852342
Si Si7 0.895940 0.666633 0.184959
O O1 0.085912 0.224594 0.202089
O O2 0.049386 0.212418 0.104587
O O3 0.227323 0.000000 0.049474
O O4 0.368324 0.266796 0.932711
O O5 0.543703 0.500000 0.193434
O O6 0.332904 0.740843 0.331304
O O7 0.657705 0.750918 0.171737
O O8 0.279053 0.755446 0.534861
O O9 0.053852 0.777735 0.588347
O O10 0.090393 0.000000 0.642541
O O11 0.500000 0.749938 0.500000
O O12 0.444401 0.500000 0.468800
O O13 0.199693 0.646022 0.687560
O O14 0.000000 0.223287 0.500000
O O15 0.837617 0.000000 0.550318
O O16 0.250152 0.731300 0.769417
O O17 0.256464 0.000000 0.824803
O O18 0.000000 0.799769 0.000000
O O19 0.965623 0.500000 0.119426
#
# Coordination Sequence:
#
# PCOD9145032 Si02
#       7
#     4   4   4   4   4   4   4
#     4  10  19  36  59  86 121 158 200 247 297 358
#     4  12  25  39  61  91 124 162 208 257 310 371
#     4   9  20  38  62  90 117 156 204 250 306 366
#     4   9  19  33  49  76 116 160 202 243 295 359
#     4  10  23  46  71  94 123 159 204 261 320 376
#     4  11  22  35  54  81 118 163 208 253 304 360
#     4  10  19  31  49  76 115 159 203 247 295 352
#
# _framework density 20.138798000000001
#
# number of rings (size 3 to 8) (size 9 to 14) (size 15 to 20)
#    0.000    1.857    1.429    2.571    2.000    2.857 
#    0.000    0.714    0.000    4.286    0.000    0.000 
#    0.000    0.000    0.000    0.000    0.000    0.000 
#
# Total GULP energy -155997.811194 kJ/mol
# GULP energy per Si atom -5571.350400 kJ/mol
# Density = 2.009296 g / cm^3
# Si number density = 20.138798 Si / 1000 Ang^3
#
#
#
# Elastic Constant Matrix: (Units=GPa)
#
#
# Indices 1 2 3 4 5 6 
#
# 1 140.6179 46.4438 60.2099 0.0000 12.5255 0.0000
# 2 46.4438 78.7102 38.5733 0.0000 0.3480 0.0000
# 3 60.2099 38.5733 90.5837 0.0000 5.3074 0.0000
# 4 0.0000 0.0000 0.0000 27.6080 0.0000 -19.8106
# 5 12.5255 0.3480 5.3074 0.0000 22.4540 0.0000
# 6 0.0000 0.0000 0.0000 -19.8106 0.0000 54.1206
#
#
#
# Elastic Compliance Matrix: (Units=1/GPa)
#
#
# Indices 1 2 3 4 5 6 
#
# 1 0.011180 -0.003884 -0.005492 0.000000 -0.004878 0.000000
# 2 -0.003884 0.017447 -0.005029 0.000000 0.003085 0.000000
# 3 -0.005492 -0.005029 0.016881 0.000000 -0.000849 0.000000
# 4 0.000000 0.000000 0.000000 0.049124 0.000000 0.017982
# 5 -0.004878 0.003085 -0.000849 0.000000 0.047410 0.000000
# 6 0.000000 0.000000 0.000000 0.017982 0.000000 0.025059
#
#
# Mechanical properties :
#
#
# Convention : Reuss Voigt Hill
#
# Bulk Modulus (GPa) = 59.88122 66.70731 63.29426
# Shear Modulus (GPa) = 24.81668 31.81551 28.31610
#
# Velocity S-wave (km/s) = 3.51420 3.97900 3.75380
# Velocity P-wave (km/s) = 6.80183 7.36923 7.09121
#
# Compressibility (1/GPa) = 0.01669973
#
# Stress axis : x y z
#
# Youngs Moduli (GPa) = 89.44306 57.31483 59.23912
#
# Poissons Ratio (x) = 0.22263 0.32531
# Poissons Ratio (y) = 0.34742 0.29789
# Poissons Ratio (z) = 0.49118 0.28821
#
# Static dielectric constant tensor:
#      x y z
#    x 1.707940 0.000000 0.055380 
#    y 0.000000 1.732640 0.000000 
#    z 0.055380 0.000000 1.867410 
# 
# From -- ./inp_files/84901.got.cif
#   From: 2010.05.17/outbox.cif.g08.bks.cpg/sg10_43_cif.got.tgz:84901.got - 2010.06.03 11:33:40.
