data_PCOD9145717
_publ_section_title
;
Structure prediction by ZEFSAII (Michael W. Deem and Ramdas Pophale) SiO2 
 PCOD9145717
Probable space group: P 2/M
;
_chemical_formula_sum "Si O2"
_cell_formula_units_Z 28
_cell_length_a 22.412405
_cell_length_b 7.685575
_cell_length_c 15.187361
_cell_angle_alpha 90.000000
_cell_angle_beta 148.810757
_cell_angle_gamma 90.000000
_cell_volume 1354.767861
_symmetry_space_group_name_H-M "P 2/M"
_symmetry_group_IT_number 10
_symmetry_cell_setting 'monoclinic'
loop_
_space_group_symop_operation_xyz
x,y,z
-x,y,-z
-x,-y,-z
x,-y,z
loop_
_atom_site_type_symbol
_atom_site_label
_atom_site_fract_x
_atom_site_fract_y
_atom_site_fract_z
Si Si1 0.802977 0.792280 0.544825
Si Si2 0.025456 0.211754 0.930296
Si Si3 0.883388 0.291183 0.460284
Si Si4 0.717208 0.795151 0.750481
Si Si5 0.856644 0.287052 0.227602
Si Si6 0.643900 0.295016 0.844246
Si Si7 0.391595 0.789311 0.569060
O O1 0.806184 0.758580 0.445334
O O2 0.692484 0.727487 0.459336
O O3 0.921516 0.723319 0.738095
O O4 0.804390 0.000000 0.559176
O O5 0.025059 0.000000 0.923142
O O6 0.153798 0.275294 0.069507
O O7 0.000000 0.253990 0.000000
O O8 0.887528 0.500000 0.461974
O O9 0.844014 0.232556 0.313720
O O10 0.015717 0.230791 0.641306
O O11 0.641908 0.776102 0.742652
O O12 0.659790 0.724464 0.589262
O O13 0.732383 0.000000 0.752732
O O14 0.855050 0.500000 0.224324
O O15 0.753650 0.223581 0.036130
O O16 0.660393 0.500000 0.856235
O O17 0.524180 0.262900 0.742012
O O18 0.390070 0.000000 0.566331
#
# Coordination Sequence:
#
# PCOD9145717 Si02
#       7
#     4   4   4   4   4   4   4
#     4  10  19  32  52  79 107 132 165 210 254 295
#     4   9  15  28  51  76 100 130 166 201 241 295
#     4   9  17  34  59  79  99 130 165 203 255 314
#     4  10  19  33  54  76 100 135 174 207 247 302
#     4   8  17  35  56  77 101 131 166 205 253 308
#     4  11  22  35  52  74 101 132 172 217 253 289
#     4  10  21  36  51  70 103 143 175 202 242 302
#
# _framework density 20.667746999999999
#
# number of rings (size 3 to 8) (size 9 to 14) (size 15 to 20)
#    0.000    2.429    1.429    2.571    0.000    2.857 
#    0.000    4.286    0.000    5.143    0.000    0.000 
#    0.000    0.000    0.000    0.000    0.000    0.000 
#
# Total GULP energy -156321.473413 kJ/mol
# GULP energy per Si atom -5582.909765 kJ/mol
# Density = 2.062071 g / cm^3
# Si number density = 20.667747 Si / 1000 Ang^3
#
#
#
# Elastic Constant Matrix: (Units=GPa)
#
#
# Indices 1 2 3 4 5 6 
#
# 1 121.3055 -13.7276 44.5589 0.0000 -3.1553 0.0000
# 2 -13.7276 28.7570 0.7903 0.0000 -1.0239 0.0000
# 3 44.5589 0.7903 67.6287 0.0000 3.1510 0.0000
# 4 0.0000 0.0000 0.0000 13.1030 0.0000 2.2877
# 5 -3.1553 -1.0239 3.1510 0.0000 22.7567 0.0000
# 6 0.0000 0.0000 0.0000 2.2877 0.0000 22.5636
#
#
#
# Elastic Compliance Matrix: (Units=1/GPa)
#
#
# Indices 1 2 3 4 5 6 
#
# 1 0.011988 0.006054 -0.008112 0.000000 0.003058 0.000000
# 2 0.006054 0.037903 -0.004580 0.000000 0.003179 0.000000
# 3 -0.008112 -0.004580 0.020378 0.000000 -0.004153 0.000000
# 4 0.000000 0.000000 0.000000 0.077694 0.000000 -0.007877
# 5 0.003058 0.003179 -0.004153 0.000000 0.045085 0.000000
# 6 0.000000 0.000000 0.000000 -0.007877 0.000000 0.045118
#
#
# Mechanical properties :
#
#
# Convention : Reuss Voigt Hill
#
# Bulk Modulus (GPa) = 17.54550 31.21493 24.38021
# Shear Modulus (GPa) = 18.48839 24.08930 21.28884
#
# Velocity S-wave (km/s) = 2.99415 3.41772 3.21292
# Velocity P-wave (km/s) = 4.52338 5.54170 5.05823
#
# Compressibility (1/GPa) = 0.05699468
#
# Stress axis : x y z
#
# Youngs Moduli (GPa) = 83.41639 26.38282 49.07173
#
# Poissons Ratio (x) = -0.15973 0.39806
# Poissons Ratio (y) = -0.50504 0.22476
# Poissons Ratio (z) = 0.67666 0.12084
#
# Static dielectric constant tensor:
#      x y z
#    x 1.723180 0.000000 -0.001040 
#    y 0.000000 1.783350 0.000000 
#    z -0.001040 0.000000 1.735250 
# 
# From -- ./inp_files/46130.got.cif
#   From: 2010.05.17/outbox.cif.g08.bks.cpg/sg10_24_cif.got.tgz:46130.got - 2010.06.03 11:33:40.
