data_PCOD9145244
_publ_section_title
;
Structure prediction by ZEFSAII (Michael W. Deem and Ramdas Pophale) SiO2 
 PCOD9145244
Probable space group: P 2/M
;
_chemical_formula_sum "Si O2"
_cell_formula_units_Z 32
_cell_length_a 29.869833
_cell_length_b 8.942467
_cell_length_c 12.573542
_cell_angle_alpha 90.000000
_cell_angle_beta 146.080861
_cell_angle_gamma 90.000000
_cell_volume 1874.128473
_symmetry_space_group_name_H-M "P 2/M"
_symmetry_group_IT_number 10
_symmetry_cell_setting 'monoclinic'
loop_
_space_group_symop_operation_xyz
x,y,z
-x,y,-z
-x,-y,-z
x,-y,z
loop_
_atom_site_type_symbol
_atom_site_label
_atom_site_fract_x
_atom_site_fract_y
_atom_site_fract_z
Si Si1 0.029998 0.821283 0.177498
Si Si2 0.731710 0.321351 0.549257
Si Si3 0.294371 0.319859 0.943701
Si Si4 0.239912 0.319997 0.067117
Si Si5 0.795796 0.319149 0.448274
Si Si6 0.531980 0.179938 0.680417
Si Si7 0.116977 0.678355 0.999123
Si Si8 0.627718 0.178885 0.518111
O O1 0.115868 0.748968 0.369261
O O2 0.036157 0.000000 0.192907
O O3 0.000000 0.777096 0.000000
O O4 0.962887 0.764228 0.127104
O O5 0.719238 0.500000 0.530180
O O6 0.746181 0.276661 0.456261
O O7 0.813689 0.289674 0.776569
O O8 0.660179 0.241273 0.470674
O O9 0.300345 0.500000 0.953147
O O10 0.246271 0.279020 0.956364
O O11 0.383107 0.253275 0.127810
O O12 0.249015 0.272014 0.747515
O O13 0.248904 0.500000 0.094783
O O14 0.158098 0.281217 0.967808
O O15 0.312623 0.244818 0.274778
O O16 0.802601 0.500000 0.462130
O O17 0.500000 0.223125 0.500000
O O18 0.462583 0.221013 0.627577
O O19 0.540913 0.000000 0.698105
O O20 0.101855 0.500000 0.971343
O O21 0.633591 0.000000 0.531250
#
# Coordination Sequence:
#
# PCOD9145244 Si02
#       8
#     4   4   4   4   4   4   4   4
#     4  11  22  34  52  81 109 135 177 225 262 308
#     4   9  18  33  53  77 106 138 175 218 266 314
#     4  10  21  36  57  82 107 139 181 223 263 313
#     4   9  18  33  52  79 109 136 172 218 267 312
#     4  10  21  38  57  78 107 144 179 215 268 323
#     4  10  20  35  53  78 110 143 179 217 264 319
#     4   9  17  31  53  77 103 138 172 214 268 315
#     4  10  19  31  52  79 106 138 177 218 262 313
#
# _framework density 17.074601999999999
#
# number of rings (size 3 to 8) (size 9 to 14) (size 15 to 20)
#    0.000    2.250    2.500    1.500    0.000    4.750 
#    0.000    1.250    0.000    7.500    0.000    0.000 
#    0.000    0.000    0.000    0.000    0.000    0.000 
#
# Total GULP energy -178514.637985 kJ/mol
# GULP energy per Si atom -5578.582437 kJ/mol
# Density = 1.703574 g / cm^3
# Si number density = 17.074602 Si / 1000 Ang^3
#
#
#
# Elastic Constant Matrix: (Units=GPa)
#
#
# Indices 1 2 3 4 5 6 
#
# 1 190.4424 45.5375 89.7522 0.0000 -1.5638 0.0000
# 2 45.5375 16.9985 32.8598 0.0000 0.4081 0.0000
# 3 89.7522 32.8598 115.2941 0.0000 -4.2400 0.0000
# 4 0.0000 0.0000 0.0000 35.7522 0.0000 24.9642
# 5 -1.5638 0.4081 -4.2400 0.0000 24.3808 0.0000
# 6 0.0000 0.0000 0.0000 24.9642 0.0000 46.4831
#
#
#
# Elastic Compliance Matrix: (Units=1/GPa)
#
#
# Indices 1 2 3 4 5 6 
#
# 1 0.014677 -0.038697 -0.000340 0.000000 0.001530 0.000000
# 2 -0.038697 0.234916 -0.037303 0.000000 -0.012902 0.000000
# 3 -0.000340 -0.037303 0.019718 0.000000 0.004032 0.000000
# 4 0.000000 0.000000 0.000000 0.044753 0.000000 -0.024035
# 5 0.001530 -0.012902 0.004032 0.000000 0.042031 0.000000
# 6 0.000000 0.000000 0.000000 -0.024035 0.000000 0.034421
#
#
# Mechanical properties :
#
#
# Convention : Reuss Voigt Hill
#
# Bulk Modulus (GPa) = 8.57413 73.22602 40.90008
# Shear Modulus (GPa) = 8.58997 31.62891 20.10944
#
# Velocity S-wave (km/s) = 2.24539 4.30862 3.43554
# Velocity P-wave (km/s) = 3.42853 8.22990 6.30421
#
# Compressibility (1/GPa) = 0.11662989
#
# Stress axis : x y z
#
# Youngs Moduli (GPa) = 68.13454 4.25684 50.71476
#
# Poissons Ratio (x) = 0.16473 0.01724
# Poissons Ratio (y) = 2.63663 1.89181
# Poissons Ratio (z) = 0.02317 0.15879
#
# Static dielectric constant tensor:
#      x y z
#    x 1.596930 0.000000 -0.014100 
#    y 0.000000 1.570230 0.000000 
#    z -0.014100 0.000000 1.539640 
# 
# From -- ./inp_files/49871.got.cif
#   From: 2010.05.17/outbox.cif.g08.bks.cpg/sg10_25_cif.got.tgz:49871.got - 2010.06.03 11:33:40.
