data_PCOD9145403
_publ_section_title
;
Structure prediction by ZEFSAII (Michael W. Deem and Ramdas Pophale) SiO2 
 PCOD9145403
Probable space group: P 2/M
;
_chemical_formula_sum "Si O2"
_cell_formula_units_Z 32
_cell_length_a 19.928851
_cell_length_b 7.621092
_cell_length_c 11.200842
_cell_angle_alpha 90.000000
_cell_angle_beta 118.634143
_cell_angle_gamma 90.000000
_cell_volume 1493.121085
_symmetry_space_group_name_H-M "P 2/M"
_symmetry_group_IT_number 10
_symmetry_cell_setting 'monoclinic'
loop_
_space_group_symop_operation_xyz
x,y,z
-x,y,-z
-x,-y,-z
x,-y,z
loop_
_atom_site_type_symbol
_atom_site_label
_atom_site_fract_x
_atom_site_fract_y
_atom_site_fract_z
Si Si1 0.620244 0.283825 0.797154
Si Si2 0.085525 0.214691 0.430460
Si Si3 0.389693 0.702986 0.474133
Si Si4 0.325765 0.795378 0.796659
Si Si5 0.469789 0.287424 0.784336
Si Si6 0.083284 0.793120 0.701405
Si Si7 0.244234 0.212262 0.478713
Si Si8 0.238020 0.697171 0.953267
O O1 0.621891 0.500000 0.797027
O O2 0.595145 0.224433 0.644100
O O3 0.557427 0.233156 0.842302
O O4 0.704576 0.218687 0.902326
O O5 0.098895 0.272302 0.579728
O O6 0.156536 0.271515 0.410205
O O7 0.999519 0.273195 0.325848
O O8 0.088415 0.000000 0.430383
O O9 0.413841 0.500000 0.491461
O O10 0.430113 0.776916 0.626575
O O11 0.299354 0.714174 0.424249
O O12 0.223347 0.500000 0.980614
O O13 0.415479 0.773654 0.844802
O O14 0.282682 0.737956 0.638601
O O15 0.290048 0.697783 0.878042
O O16 0.467385 0.500000 0.786704
O O17 0.155958 0.769859 0.847202
O O18 0.072695 0.000000 0.677237
O O19 0.247382 0.000000 0.473408
O O20 0.307993 0.000000 0.800148
#
# Coordination Sequence:
#
# PCOD9145403 Si02
#       8
#     4   4   4   4   4   4   4   4
#     4   9  19  34  50  68  94 130 163 194 240 289
#     4   8  14  27  50  73  95 125 157 187 235 291
#     4   9  17  31  52  74  92 118 161 206 240 277
#     4  10  19  32  49  70  99 129 156 192 241 289
#     4   9  17  32  54  74  91 117 160 208 244 280
#     4   9  16  30  50  71  95 127 160 191 232 283
#     4   9  16  29  49  73  98 123 150 191 243 287
#     4  11  21  32  47  68  99 133 162 192 230 284
#
# _framework density 21.431616000000002
#
# number of rings (size 3 to 8) (size 9 to 14) (size 15 to 20)
#    0.000    2.750    1.250    1.875    0.000    2.500 
#    0.000    7.500    0.000    3.750    0.000    5.250 
#    0.000    0.000    0.000    0.000    0.000    0.000 
#
# Total GULP energy -178466.311934 kJ/mol
# GULP energy per Si atom -5577.072248 kJ/mol
# Density = 2.138284 g / cm^3
# Si number density = 21.431616 Si / 1000 Ang^3
#
#
#
# Elastic Constant Matrix: (Units=GPa)
#
#
# Indices 1 2 3 4 5 6 
#
# 1 95.6972 -4.1399 10.8071 0.0000 26.6527 0.0000
# 2 -4.1399 39.1761 -3.7900 0.0000 0.1441 0.0000
# 3 10.8071 -3.7900 54.8463 0.0000 16.9550 0.0000
# 4 0.0000 0.0000 0.0000 5.9827 0.0000 16.5413
# 5 26.6527 0.1441 16.9550 0.0000 37.7168 0.0000
# 6 0.0000 0.0000 0.0000 16.5413 0.0000 -14.1571
#
#
#
# Elastic Compliance Matrix: (Units=1/GPa)
#
#
# Indices 1 2 3 4 5 6 
#
# 1 0.013098 0.001462 0.000445 0.000000 -0.009461 0.000000
# 2 0.001462 0.025896 0.002150 0.000000 -0.002099 0.000000
# 3 0.000445 0.002150 0.021362 0.000000 -0.009926 0.000000
# 4 0.000000 0.000000 0.000000 0.039510 0.000000 0.046164
# 5 -0.009461 -0.002099 -0.009926 0.000000 0.037669 0.000000
# 6 0.000000 0.000000 0.000000 0.046164 0.000000 -0.016697
#
#
# Mechanical properties :
#
#
# Convention : Reuss Voigt Hill
#
# Bulk Modulus (GPa) = 14.60501 21.71936 18.16219
# Shear Modulus (GPa) = 36.88747 18.36464 27.62605
#
# Velocity S-wave (km/s) = 4.15320 2.93045 3.59421
# Velocity P-wave (km/s) = 5.46153 4.64826 5.07122
#
# Compressibility (1/GPa) = 0.06846966
#
# Stress axis : x y z
#
# Youngs Moduli (GPa) = 76.34968 38.61601 46.81205
#
# Poissons Ratio (x) = -0.05645 -0.02083
# Poissons Ratio (y) = -0.11162 -0.10065
# Poissons Ratio (z) = -0.03397 -0.08303
#
# Static dielectric constant tensor:
#      x y z
#    x 1.786720 0.000000 0.033420 
#    y 0.000000 1.810760 0.000000 
#    z 0.033420 0.000000 1.800020 
# 
# From -- ./inp_files/55187.got.cif
#   From: 2010.05.17/outbox.cif.g08.bks.cpg/sg10_28_cif.got.tgz:55187.got - 2010.06.03 11:33:40.
