data_PCOD9145163
_publ_section_title
;
Structure prediction by ZEFSAII (Michael W. Deem and Ramdas Pophale) SiO2 
 PCOD9145163
Probable space group: P 2/M
;
_chemical_formula_sum "Si O2"
_cell_formula_units_Z 28
_cell_length_a 21.446775
_cell_length_b 14.005050
_cell_length_c 5.131417
_cell_angle_alpha 90.000000
_cell_angle_beta 82.268112
_cell_angle_gamma 90.000000
_cell_volume 1527.275944
_symmetry_space_group_name_H-M "P 2/M"
_symmetry_group_IT_number 10
_symmetry_cell_setting 'monoclinic'
loop_
_space_group_symop_operation_xyz
x,y,z
-x,y,-z
-x,-y,-z
x,-y,z
loop_
_atom_site_type_symbol
_atom_site_label
_atom_site_fract_x
_atom_site_fract_y
_atom_site_fract_z
Si Si1 0.455420 0.389535 0.272170
Si Si2 0.955057 0.810925 0.775840
Si Si3 0.178252 0.888754 0.232989
Si Si4 0.250623 0.117182 0.693864
Si Si5 0.620452 0.796709 0.582103
Si Si6 0.045207 0.399540 0.224404
Si Si7 0.433735 0.887659 0.891715
O O1 0.500000 0.386424 0.500000
O O2 0.433744 0.500000 0.251049
O O3 0.400380 0.311772 0.342443
O O4 0.500000 0.365182 0.000000
O O5 0.894616 0.876774 0.794383
O O6 0.924573 0.704155 0.795600
O O7 0.000000 0.820638 0.500000
O O8 0.000000 0.823809 0.000000
O O9 0.196733 0.858730 0.512281
O O10 0.192156 0.000000 0.218808
O O11 0.224289 0.848845 0.986084
O O12 0.312195 0.174663 0.573136
O O13 0.262034 0.000000 0.687388
O O14 0.574088 0.834044 0.377583
O O15 0.614308 0.852909 0.858993
O O16 0.081992 0.500000 0.204880
O O17 0.000000 0.399920 0.500000
O O18 0.000000 0.400563 0.000000
O O19 0.426163 0.000000 0.844050
O O20 0.500000 0.872183 0.000000
#
# Coordination Sequence:
#
# PCOD9145163 Si02
#       7
#     4   4   4   4   4   4   4
#     4  10  21  37  57  82 110 140 179 226 273 319
#     4  10  19  31  51  76  99 127 164 208 259 314
#     4  10  21  36  51  71 102 134 169 213 256 304
#     4  10  21  36  53  72  98 138 179 212 251 309
#     4  12  21  35  57  77 103 143 184 218 259 314
#     4   8  14  25  42  66  94 120 147 182 229 289
#     4  11  22  33  49  79 114 139 165 212 268 316
#
# _framework density 18.333296000000001
#
# number of rings (size 3 to 8) (size 9 to 14) (size 15 to 20)
#    0.000    1.857    0.000    5.571    0.000    2.857 
#    0.000    0.000    0.000    1.714    0.000    0.000 
#    0.000    0.000    0.000    0.000    0.000    0.000 
#
# Total GULP energy -156028.390609 kJ/mol
# GULP energy per Si atom -5572.442522 kJ/mol
# Density = 1.829157 g / cm^3
# Si number density = 18.333296 Si / 1000 Ang^3
#
#
#
# Elastic Constant Matrix: (Units=GPa)
#
#
# Indices 1 2 3 4 5 6 
#
# 1 48.7238 5.7291 6.7388 0.0000 -0.1764 0.0000
# 2 5.7291 54.3576 18.2000 0.0000 2.7844 0.0000
# 3 6.7388 18.2000 96.5815 0.0000 10.4261 0.0000
# 4 0.0000 0.0000 0.0000 13.3902 0.0000 -1.5233
# 5 -0.1764 2.7844 10.4261 0.0000 27.1409 0.0000
# 6 0.0000 0.0000 0.0000 -1.5233 0.0000 11.5471
#
#
#
# Elastic Compliance Matrix: (Units=1/GPa)
#
#
# Indices 1 2 3 4 5 6 
#
# 1 0.020909 -0.001843 -0.001196 0.000000 0.000784 0.000000
# 2 -0.001843 0.019808 -0.003530 0.000000 -0.000688 0.000000
# 3 -0.001196 -0.003530 0.011543 0.000000 -0.004080 0.000000
# 4 0.000000 0.000000 0.000000 0.075819 0.000000 0.010002
# 5 0.000784 -0.000688 -0.004080 0.000000 0.038488 0.000000
# 6 0.000000 0.000000 0.000000 0.010002 0.000000 0.087921
#
#
# Mechanical properties :
#
#
# Convention : Reuss Voigt Hill
#
# Bulk Modulus (GPa) = 25.56158 28.99986 27.28072
# Shear Modulus (GPa) = 17.81468 21.68197 19.74832
#
# Velocity S-wave (km/s) = 3.12061 3.44271 3.28561
# Velocity P-wave (km/s) = 5.19204 5.62632 5.41353
#
# Compressibility (1/GPa) = 0.03912122
#
# Stress axis : x y z
#
# Youngs Moduli (GPa) = 47.82657 50.48449 86.63265
#
# Poissons Ratio (x) = 0.09306 0.10363
# Poissons Ratio (y) = 0.08816 0.30579
# Poissons Ratio (z) = 0.05721 0.17820
#
# Static dielectric constant tensor:
#      x y z
#    x 1.611720 0.000000 0.013750 
#    y 0.000000 1.692940 0.000000 
#    z 0.013750 0.000000 1.659330 
# 
# From -- ./inp_files/12585.got.cif
#   From: 2010.05.17/outbox.cif.g08.bks.cpg/sg10_7_cif.got.tgz:12585.got - 2010.06.03 11:33:40.
