data_PCOD9145771
_publ_section_title
;
Structure prediction by ZEFSAII (Michael W. Deem and Ramdas Pophale) SiO2 
 PCOD9145771
Probable space group: P 2/M
;
_chemical_formula_sum "Si O2"
_cell_formula_units_Z 32
_cell_length_a 12.692876
_cell_length_b 14.177259
_cell_length_c 9.405949
_cell_angle_alpha 90.000000
_cell_angle_beta 94.438822
_cell_angle_gamma 90.000000
_cell_volume 1687.525423
_symmetry_space_group_name_H-M "P 2/M"
_symmetry_group_IT_number 10
_symmetry_cell_setting 'monoclinic'
loop_
_space_group_symop_operation_xyz
x,y,z
-x,y,-z
-x,-y,-z
x,-y,z
loop_
_atom_site_type_symbol
_atom_site_label
_atom_site_fract_x
_atom_site_fract_y
_atom_site_fract_z
Si Si1 0.223488 0.392762 0.373390
Si Si2 0.008757 0.285840 0.330050
Si Si3 0.258790 0.891567 0.994862
Si Si4 0.794690 0.394048 0.284725
Si Si5 0.065328 0.108855 0.153622
Si Si6 0.458193 0.891711 0.208086
Si Si7 0.619288 0.232941 0.558338
Si Si8 0.330211 0.220994 0.751438
O O1 0.240750 0.500000 0.323309
O O2 0.113103 0.348373 0.309875
O O3 0.213385 0.398933 0.544332
O O4 0.318084 0.318023 0.359901
O O5 0.021780 0.184208 0.259535
O O6 0.000000 0.276601 0.500000
O O7 0.903944 0.339664 0.266135
O O8 0.181465 0.860242 0.112525
O O9 0.376574 0.888037 0.070355
O O10 0.231071 0.000000 0.963008
O O11 0.253541 0.835502 0.848204
O O12 0.794797 0.500000 0.228600
O O13 0.696494 0.330118 0.225495
O O14 0.067453 0.000000 0.205007
O O15 0.000000 0.110936 0.000000
O O16 0.396659 0.856703 0.342173
O O17 0.553899 0.818785 0.203662
O O18 0.496140 0.000000 0.226524
O O19 0.500000 0.263133 0.500000
O O20 0.680899 0.206469 0.419528
#
# Coordination Sequence:
#
# PCOD9145771 Si02
#       8
#     4   4   4   4   4   4   4   4
#     4   9  17  31  52  78 106 135 172 215 257 306
#     4  10  19  33  57  82 103 133 175 217 257 304
#     4  10  20  34  53  75 102 139 176 209 251 304
#     4   9  18  33  53  78 105 133 168 214 265 309
#     4  10  21  36  53  76 109 144 172 206 257 310
#     4  10  20  34  52  76 107 139 171 212 260 306
#     4   9  19  32  49  77 108 136 169 212 264 304
#     4  10  19  32  53  76  99 132 174 213 251 303
#
# _framework density 18.962678
#
# number of rings (size 3 to 8) (size 9 to 14) (size 15 to 20)
#    0.000    2.375    0.000    2.625    0.000    5.750 
#    0.000    2.500    0.000   24.750    0.000    0.000 
#    0.000    0.000    0.000    0.000    0.000    0.000 
#
# Total GULP energy -178347.215390 kJ/mol
# GULP energy per Si atom -5573.350481 kJ/mol
# Density = 1.891952 g / cm^3
# Si number density = 18.962678 Si / 1000 Ang^3
#
#
#
# Elastic Constant Matrix: (Units=GPa)
#
#
# Indices 1 2 3 4 5 6 
#
# 1 79.1275 57.7136 13.0206 0.0000 5.4599 0.0000
# 2 57.7136 134.5569 44.6656 0.0000 -7.9567 0.0000
# 3 13.0206 44.6656 41.0534 0.0000 -9.5431 0.0000
# 4 0.0000 0.0000 0.0000 -0.6245 0.0000 7.4804
# 5 5.4599 -7.9567 -9.5431 0.0000 18.2111 0.0000
# 6 0.0000 0.0000 0.0000 7.4804 0.0000 26.7031
#
#
#
# Elastic Compliance Matrix: (Units=1/GPa)
#
#
# Indices 1 2 3 4 5 6 
#
# 1 0.020149 -0.009948 0.002298 0.000000 -0.009183 0.000000
# 2 -0.009948 0.016595 -0.014258 0.000000 0.002762 0.000000
# 3 0.002298 -0.014258 0.042740 0.000000 0.015478 0.000000
# 4 0.000000 0.000000 0.000000 -0.367638 0.000000 0.102988
# 5 -0.009183 0.002762 0.015478 0.000000 0.066982 0.000000
# 6 0.000000 0.000000 0.000000 0.102988 0.000000 0.008599
#
#
# Mechanical properties :
#
#
# Convention : Reuss Voigt Hill
#
# Bulk Modulus (GPa) = 28.03589 53.94858 40.99223
# Shear Modulus (GPa) = -31.87402 18.14713 -6.86344
#
# Velocity S-wave (km/s) = -4.10430 3.09688 -1.90455
# Velocity P-wave (km/s) = 2.76470 6.42645 4.10218
#
# Compressibility (1/GPa) = 0.03566857
#
# Stress axis : x y z
#
# Youngs Moduli (GPa) = 49.62937 60.25924 23.39727
#
# Poissons Ratio (x) = 0.59948 -0.05378
# Poissons Ratio (y) = 0.49373 0.33360
# Poissons Ratio (z) = -0.11407 0.85917
#
# Static dielectric constant tensor:
#      x y z
#    x 1.726870 0.000000 -0.020990 
#    y 0.000000 1.650290 0.000000 
#    z -0.020990 0.000000 1.668090 
# 
# From -- ./inp_files/28611.got.cif
#   From: 2010.05.17/outbox.cif.g08.bks.cpg/sg10_15_cif.got.tgz:28611.got - 2010.06.03 11:33:40.
