data_PCOD9145527
_publ_section_title
;
Structure prediction by ZEFSAII (Michael W. Deem and Ramdas Pophale) SiO2 
 PCOD9145527
Probable space group: P 2/M
;
_chemical_formula_sum "Si O2"
_cell_formula_units_Z 28
_cell_length_a 7.012728
_cell_length_b 16.410467
_cell_length_c 17.932445
_cell_angle_alpha 90.000000
_cell_angle_beta 47.744596
_cell_angle_gamma 90.000000
_cell_volume 1527.460359
_symmetry_space_group_name_H-M "P 2/M"
_symmetry_group_IT_number 10
_symmetry_cell_setting 'monoclinic'
loop_
_space_group_symop_operation_xyz
x,y,z
-x,y,-z
-x,-y,-z
x,-y,z
loop_
_atom_site_type_symbol
_atom_site_label
_atom_site_fract_x
_atom_site_fract_y
_atom_site_fract_z
Si Si1 0.699288 0.631733 0.749762
Si Si2 0.296816 0.903397 0.406937
Si Si3 0.720728 0.591010 0.577497
Si Si4 0.000000 0.263373 0.000000
Si Si5 0.686792 0.589691 0.020823
Si Si6 0.231771 0.694955 0.665452
Si Si7 0.384061 0.782740 0.776933
Si Si8 0.500000 0.821679 0.500000
O O1 0.685242 0.586052 0.675319
O O2 0.497717 0.592801 0.859140
O O3 0.593931 0.720699 0.755209
O O4 0.979163 0.642503 0.713444
O O5 0.453922 0.857262 0.300369
O O6 0.430100 0.877026 0.448690
O O7 0.000000 0.878290 0.500000
O O8 0.302623 0.000000 0.393018
O O9 0.738181 0.500000 0.540281
O O10 0.488375 0.639507 0.601900
O O11 0.000000 0.633370 0.500000
O O12 0.858990 0.329616 0.983159
O O13 0.816961 0.209903 0.101690
O O14 0.817318 0.500000 0.981536
O O15 0.500000 0.596913 0.000000
O O16 0.238929 0.740273 0.744153
O O17 0.275971 0.761759 0.589268
#
# Coordination Sequence:
#
# PCOD9145527 Si02
#       8
#     4   4   4   2   4   4   4   2
#     4  10  19  33  50  70  96 131 172 217 262 306
#     4  10  20  35  56  83 111 134 161 205 259 312
#     4  10  21  33  44  65  98 135 176 218 260 309
#     4  10  19  36  53  70 104 142 174 214 261 302
#     4  10  20  32  49  73  98 128 173 223 265 304
#     4  10  19  32  51  72  97 134 177 218 263 307
#     4   9  20  34  53  78 103 134 173 210 253 314
#     4  10  19  32  53  78 102 132 168 208 253 308
#
# _framework density 18.331081999999999
#
# number of rings (size 3 to 8) (size 9 to 14) (size 15 to 20)
#    0.000    2.143    0.000    3.429    0.000    5.143 
#    0.000    5.714    0.000    0.000    0.000    0.000 
#    0.000   14.286    0.000    0.000    0.000    0.000 
#
# Total GULP energy -156025.423537 kJ/mol
# GULP energy per Si atom -5572.336555 kJ/mol
# Density = 1.828936 g / cm^3
# Si number density = 18.331082 Si / 1000 Ang^3
#
#
#
# Elastic Constant Matrix: (Units=GPa)
#
#
# Indices 1 2 3 4 5 6 
#
# 1 69.9532 23.0019 13.5825 0.0000 -3.4148 0.0000
# 2 23.0019 65.4289 41.4295 0.0000 -3.5824 0.0000
# 3 13.5825 41.4295 107.5323 0.0000 -2.4547 0.0000
# 4 0.0000 0.0000 0.0000 1.5327 0.0000 40.9451
# 5 -3.4148 -3.5824 -2.4547 0.0000 26.6211 0.0000
# 6 0.0000 0.0000 0.0000 40.9451 0.0000 20.4443
#
#
#
# Elastic Compliance Matrix: (Units=1/GPa)
#
#
# Indices 1 2 3 4 5 6 
#
# 1 0.016213 -0.005753 0.000199 0.000000 0.001324 0.000000
# 2 -0.005753 0.022365 -0.007854 0.000000 0.001547 0.000000
# 3 0.000199 -0.007854 0.012303 0.000000 0.000103 0.000000
# 4 0.000000 0.000000 0.000000 -0.012427 0.000000 0.024888
# 5 0.001324 0.001547 0.000103 0.000000 0.037952 0.000000
# 6 0.000000 0.000000 0.000000 0.024888 0.000000 -0.000932
#
#
# Mechanical properties :
#
#
# Convention : Reuss Voigt Hill
#
# Bulk Modulus (GPa) = 41.55785 44.32689 42.94237
# Shear Modulus (GPa) = 45.32590 20.71298 33.01944
#
# Velocity S-wave (km/s) = 4.97794 3.36510 4.24876
# Velocity P-wave (km/s) = 7.46725 6.27155 6.89537
#
# Compressibility (1/GPa) = 0.02406284
#
# Stress axis : x y z
#
# Youngs Moduli (GPa) = 61.67874 44.71369 81.28177
#
# Poissons Ratio (x) = 0.25725 -0.01617
# Poissons Ratio (y) = 0.35485 0.63842
# Poissons Ratio (z) = -0.01227 0.35120
#
# Static dielectric constant tensor:
#      x y z
#    x 1.642730 0.000000 -0.021850 
#    y 0.000000 1.648990 0.000000 
#    z -0.021850 0.000000 1.579420 
# 
# From -- ./inp_files/59391.got.cif
#   From: 2010.05.17/outbox.cif.g08.bks.cpg/sg10_30_cif.got.tgz:59391.got - 2010.06.03 11:33:40.
