data_PCOD9145979
_publ_section_title
;
Structure prediction by ZEFSAII (Michael W. Deem and Ramdas Pophale) SiO2 
 PCOD9145979
Probable space group: P 2/M
;
_chemical_formula_sum "Si O2"
_cell_formula_units_Z 18
_cell_length_a 6.813453
_cell_length_b 19.071403
_cell_length_c 5.841096
_cell_angle_alpha 90.000000
_cell_angle_beta 104.913997
_cell_angle_gamma 90.000000
_cell_volume 733.435926
_symmetry_space_group_name_H-M "P 2/M"
_symmetry_group_IT_number 10
_symmetry_cell_setting 'monoclinic'
loop_
_space_group_symop_operation_xyz
x,y,z
-x,y,-z
-x,-y,-z
x,-y,z
loop_
_atom_site_type_symbol
_atom_site_label
_atom_site_fract_x
_atom_site_fract_y
_atom_site_fract_z
Si Si1 0.292113 0.130712 0.701245
Si Si2 0.249384 0.081603 0.188534
Si Si3 0.226223 0.575635 0.461720
Si Si4 0.781278 0.285851 0.316567
Si Si5 0.000000 0.366082 0.000000
O O1 0.195846 0.115803 0.420774
O O2 0.505376 0.090081 0.753726
O O3 0.337489 0.213936 0.723174
O O4 0.188221 0.110995 0.915754
O O5 0.197534 0.000000 0.186555
O O6 0.315594 0.500000 0.545945
O O7 0.318968 0.646881 0.589608
O O8 0.162649 0.586162 0.181536
O O9 0.000000 0.576101 0.500000
O O10 0.000000 0.270060 0.500000
O O11 0.854260 0.314979 0.097410
#
# Coordination Sequence:
#
# PCOD9145979 Si02
#       5
#     4   4   4   4   2
#     4  10  19  32  55  77 102 123 160 207 253 290
#     4  10  20  36  58  78  92 121 165 217 254 279
#     4   8  14  25  41  64  94 128 167 203 233 275
#     4   9  19  29  45  72 104 134 160 193 247 300
#     4   8  15  26  42  64  99 132 170 188 239 284
#
# _framework density 24.542020999999998
#
# number of rings (size 3 to 8) (size 9 to 14) (size 15 to 20)
#    0.000    3.333    0.000    3.667    6.222    0.889 
#    0.000    0.000    0.000    7.333    0.000    6.222 
#    0.000    0.000    0.000    0.000    0.000    0.000 
#
# Total GULP energy -100291.499879 kJ/mol
# GULP energy per Si atom -5571.749993 kJ/mol
# Density = 2.448616 g / cm^3
# Si number density = 24.542021 Si / 1000 Ang^3
#
#
#
# Elastic Constant Matrix: (Units=GPa)
#
#
# Indices 1 2 3 4 5 6 
#
# 1 64.5614 -0.4336 27.3213 0.0000 -14.8359 0.0000
# 2 -0.4336 227.4566 56.1592 0.0000 -15.3123 0.0000
# 3 27.3213 56.1592 181.6060 0.0000 -24.4650 0.0000
# 4 0.0000 0.0000 0.0000 -291.7327 0.0000 -293.1981
# 5 -14.8359 -15.3123 -24.4650 0.0000 41.6713 0.0000
# 6 0.0000 0.0000 0.0000 -293.1981 0.0000 -280.6182
#
#
#
# Elastic Compliance Matrix: (Units=1/GPa)
#
#
# Indices 1 2 3 4 5 6 
#
# 1 0.017663 0.000943 -0.002232 0.000000 0.005325 0.000000
# 2 0.000943 0.004846 -0.001472 0.000000 0.001252 0.000000
# 3 -0.002232 -0.001472 0.006643 0.000000 0.002565 0.000000
# 4 0.000000 0.000000 0.000000 0.068450 0.000000 -0.071518
# 5 0.005325 0.001252 0.002565 0.000000 0.027859 0.000000
# 6 0.000000 0.000000 0.000000 -0.071518 0.000000 0.071161
#
#
# Mechanical properties :
#
#
# Convention : Reuss Voigt Hill
#
# Bulk Modulus (GPa) = 42.31597 71.07977 56.69787
# Shear Modulus (GPa) = 23.80728 -80.09743 -28.14508
#
# Velocity S-wave (km/s) = 3.11796 -5.71906 -3.39013
# Velocity P-wave (km/s) = 5.49927 3.81902 2.79795
#
# Compressibility (1/GPa) = 0.02363174
#
# Stress axis : x y z
#
# Youngs Moduli (GPa) = 56.61392 206.35933 150.53983
#
# Poissons Ratio (x) = -0.19463 0.33595
# Poissons Ratio (y) = -0.05339 0.22155
# Poissons Ratio (z) = 0.12634 0.30370
#
# Static dielectric constant tensor:
#      x y z
#    x 1.997790 0.000000 -0.012430 
#    y 0.000000 1.900790 0.000000 
#    z -0.012430 0.000000 2.074960 
# 
# From -- ./inp_files/4181.got.cif
#   From: 2010.05.17/outbox.cif.g08.bks.cpg/sg10_3_cif.got.tgz:4181.got - 2010.06.03 11:33:40.
