data_PCOD9145391
_publ_section_title
;
Structure prediction by ZEFSAII (Michael W. Deem and Ramdas Pophale) SiO2 
 PCOD9145391
Probable space group: P 2/M
;
_chemical_formula_sum "Si O2"
_cell_formula_units_Z 28
_cell_length_a 15.287750
_cell_length_b 9.168857
_cell_length_c 19.163385
_cell_angle_alpha 90.000000
_cell_angle_beta 37.973248
_cell_angle_gamma 90.000000
_cell_volume 1652.773374
_symmetry_space_group_name_H-M "P 2/M"
_symmetry_group_IT_number 10
_symmetry_cell_setting 'monoclinic'
loop_
_space_group_symop_operation_xyz
x,y,z
-x,y,-z
-x,-y,-z
x,-y,z
loop_
_atom_site_type_symbol
_atom_site_label
_atom_site_fract_x
_atom_site_fract_y
_atom_site_fract_z
Si Si1 0.858380 0.172013 0.388561
Si Si2 0.425912 0.666592 0.447483
Si Si3 0.277763 0.173540 0.900546
Si Si4 0.125621 0.324028 0.473491
Si Si5 0.739835 0.675167 0.238875
Si Si6 0.559316 0.333113 0.731714
Si Si7 0.007968 0.172863 0.837535
O O1 0.707882 0.231929 0.453765
O O2 0.890979 0.252915 0.440201
O O3 0.974850 0.198356 0.255614
O O4 0.845672 0.000000 0.409270
O O5 0.397793 0.500000 0.488293
O O6 0.584800 0.712071 0.369520
O O7 0.435673 0.664822 0.356357
O O8 0.252427 0.252633 0.842467
O O9 0.427781 0.232660 0.834635
O O10 0.284903 0.000000 0.884976
O O11 0.146010 0.206109 0.034087
O O12 0.126564 0.500000 0.480994
O O13 0.282797 0.283938 0.346346
O O14 0.000000 0.283498 0.500000
O O15 0.743151 0.500000 0.230413
O O16 0.871104 0.734924 0.199975
O O17 0.535155 0.500000 0.769578
O O18 0.035599 0.000000 0.832520
#
# Coordination Sequence:
#
# PCOD9145391 Si02
#       7
#     4   4   4   4   4   4   4
#     4  10  20  33  49  71  98 126 159 195 233 283
#     4   8  16  31  47  66  95 126 156 196 244 285
#     4  10  19  32  49  67  94 131 166 199 237 277
#     4   9  18  34  56  79 101 122 145 183 238 292
#     4  10  20  32  48  70  93 122 166 212 243 273
#     4   8  15  29  49  73  97 120 152 193 232 275
#     4  10  22  35  45  64  97 133 164 199 240 277
#
# _framework density 16.941220999999999
#
# number of rings (size 3 to 8) (size 9 to 14) (size 15 to 20)
#    0.000    2.714    0.000    3.429    0.000   10.571 
#    0.000    2.857    0.000    0.857    0.000    6.000 
#    0.000    0.000    0.000    0.000    0.000    0.000 
#
# Total GULP energy -156131.499584 kJ/mol
# GULP energy per Si atom -5576.124985 kJ/mol
# Density = 1.690266 g / cm^3
# Si number density = 16.941221 Si / 1000 Ang^3
#
#
#
# Elastic Constant Matrix: (Units=GPa)
#
#
# Indices 1 2 3 4 5 6 
#
# 1 106.6335 43.4948 56.2233 0.0000 -22.1607 0.0000
# 2 43.4948 49.2508 54.2202 0.0000 -5.1729 0.0000
# 3 56.2233 54.2202 110.1511 0.0000 -10.0793 0.0000
# 4 0.0000 0.0000 0.0000 -18.4037 0.0000 -37.8655
# 5 -22.1607 -5.1729 -10.0793 0.0000 18.5616 0.0000
# 6 0.0000 0.0000 0.0000 -37.8655 0.0000 -11.7138
#
#
#
# Elastic Compliance Matrix: (Units=1/GPa)
#
#
# Indices 1 2 3 4 5 6 
#
# 1 0.019719 -0.013650 -0.001621 0.000000 0.018859 0.000000
# 2 -0.013650 0.053776 -0.020649 0.000000 -0.012522 0.000000
# 3 -0.001621 -0.020649 0.020379 0.000000 0.003377 0.000000
# 4 0.000000 0.000000 0.000000 0.009615 0.000000 -0.031083
# 5 0.018859 -0.012522 0.003377 0.000000 0.074734 0.000000
# 6 0.000000 0.000000 0.000000 -0.031083 0.000000 0.015107
#
#
# Mechanical properties :
#
#
# Convention : Reuss Voigt Hill
#
# Bulk Modulus (GPa) = 45.38206 63.76800 54.57503
# Shear Modulus (GPa) = 18.34763 5.16196 11.75479
#
# Velocity S-wave (km/s) = 3.29449 1.74745 2.63698
# Velocity P-wave (km/s) = 6.42788 6.46482 6.44638
#
# Compressibility (1/GPa) = 0.02203514
#
# Stress axis : x y z
#
# Youngs Moduli (GPa) = 50.71204 18.59558 49.07041
#
# Poissons Ratio (x) = 0.25382 0.07952
# Poissons Ratio (y) = 0.69221 1.01327
# Poissons Ratio (z) = 0.08218 0.38399
#
# Static dielectric constant tensor:
#      x y z
#    x 1.576030 0.000000 -0.009760 
#    y 0.000000 1.567280 0.000000 
#    z -0.009760 0.000000 1.584550 
# 
# From -- ./inp_files/77698.got.cif
#   From: 2010.05.17/outbox.cif.g08.bks.cpg/sg10_39_cif.got.tgz:77698.got - 2010.06.03 11:33:40.
