data_PCOD9145981
_publ_section_title
;
Structure prediction by ZEFSAII (Michael W. Deem and Ramdas Pophale) SiO2 
 PCOD9145981
Probable space group: P 2/M
;
_chemical_formula_sum "Si O2"
_cell_formula_units_Z 32
_cell_length_a 12.522769
_cell_length_b 18.962948
_cell_length_c 15.325698
_cell_angle_alpha 90.000000
_cell_angle_beta 28.125431
_cell_angle_gamma 90.000000
_cell_volume 1715.612377
_symmetry_space_group_name_H-M "P 2/M"
_symmetry_group_IT_number 10
_symmetry_cell_setting 'monoclinic'
loop_
_space_group_symop_operation_xyz
x,y,z
-x,y,-z
-x,-y,-z
x,-y,z
loop_
_atom_site_type_symbol
_atom_site_label
_atom_site_fract_x
_atom_site_fract_y
_atom_site_fract_z
Si Si1 0.137668 0.582935 0.992269
Si Si2 0.029602 0.697159 0.750517
Si Si3 0.503273 0.313573 0.693499
Si Si4 0.876151 0.809660 0.728897
Si Si5 0.730095 0.917673 0.975791
Si Si6 0.853237 0.075731 0.193209
Si Si7 0.647096 0.808907 0.706985
Si Si8 0.283270 0.227963 0.709463
O O1 0.127687 0.500000 0.017532
O O2 0.390768 0.611817 0.793578
O O3 0.000000 0.594725 0.000000
O O4 0.048997 0.628525 0.138963
O O5 0.262664 0.681578 0.529399
O O6 0.078090 0.751778 0.794872
O O7 0.877180 0.740803 0.791233
O O8 0.548070 0.265082 0.744946
O O9 0.312201 0.269439 0.777692
O O10 0.736855 0.800499 0.740598
O O11 0.136728 0.823149 0.511551
O O12 0.779711 0.876162 0.850849
O O13 0.535759 0.871766 0.163647
O O14 0.666081 0.000000 0.011492
O O15 0.964756 0.916195 0.860666
O O16 0.703295 0.144589 0.290991
O O17 0.736757 0.000000 0.285653
O O18 0.000000 0.074115 0.000000
O O19 0.500000 0.252810 0.500000
#
# Coordination Sequence:
#
# PCOD9145981 Si02
#       8
#     4   4   4   4   4   4   4   4
#     4  11  23  36  56  87 119 150 175 208 270 335
#     4  10  20  37  58  83 111 143 180 226 272 321
#     4  10  21  36  58  85 110 142 183 227 271 322
#     4  10  21  39  58  82 109 142 191 236 274 325
#     4  11  22  36  54  78 112 150 186 232 290 334
#     4  10  21  34  49  75 110 146 183 228 281 333
#     4  10  22  37  59  83 107 144 191 235 275 324
#     4  10  19  32  55  79 102 139 184 224 273 319
#
# _framework density 18.652231
#
# number of rings (size 3 to 8) (size 9 to 14) (size 15 to 20)
#    0.000    1.750    2.500    1.875    1.750    2.250 
#    0.000    2.500    0.000    1.500    0.000    3.500 
#    0.000    0.000    0.000    0.000    0.000    0.000 
#
# Total GULP energy -178421.187781 kJ/mol
# GULP energy per Si atom -5575.662118 kJ/mol
# Density = 1.860978 g / cm^3
# Si number density = 18.652231 Si / 1000 Ang^3
#
#
#
# Elastic Constant Matrix: (Units=GPa)
#
#
# Indices 1 2 3 4 5 6 
#
# 1 47.3084 15.9144 7.4879 0.0000 21.1912 0.0000
# 2 15.9144 112.7266 18.8528 0.0000 10.5189 0.0000
# 3 7.4879 18.8528 56.2363 0.0000 18.5844 0.0000
# 4 0.0000 0.0000 0.0000 -6.0367 0.0000 -4.8978
# 5 21.1912 10.5189 18.5844 0.0000 18.9486 0.0000
# 6 0.0000 0.0000 0.0000 -4.8978 0.0000 23.9207
#
#
#
# Elastic Compliance Matrix: (Units=1/GPa)
#
#
# Indices 1 2 3 4 5 6 
#
# 1 0.054134 -0.003680 0.019763 0.000000 -0.077881 0.000000
# 2 -0.003680 0.009777 -0.003483 0.000000 0.002105 0.000000
# 3 0.019763 -0.003483 0.034005 0.000000 -0.053520 0.000000
# 4 0.000000 0.000000 0.000000 -0.142055 0.000000 -0.029086
# 5 -0.077881 0.002105 -0.053520 0.000000 0.191196 0.000000
# 6 0.000000 0.000000 0.000000 -0.029086 0.000000 0.035849
#
#
# Mechanical properties :
#
#
# Convention : Reuss Voigt Hill
#
# Bulk Modulus (GPa) = 8.12251 33.42015 20.77133
# Shear Modulus (GPa) = 25.15795 18.96759 22.06277
#
# Velocity S-wave (km/s) = 3.67657 3.19236 3.44299
# Velocity P-wave (km/s) = 4.73150 5.61646 5.19286
#
# Compressibility (1/GPa) = 0.12311470
#
# Stress axis : x y z
#
# Youngs Moduli (GPa) = 18.47285 102.28368 29.40730
#
# Poissons Ratio (x) = 0.37644 -0.58118
# Poissons Ratio (y) = 0.06799 0.10243
# Poissons Ratio (z) = -0.36508 0.35626
#
# Static dielectric constant tensor:
#      x y z
#    x 1.699390 0.000000 -0.074440 
#    y 0.000000 1.624830 0.000000 
#    z -0.074440 0.000000 1.824750 
# 
# From -- ./inp_files/51941.got.cif
#   From: 2010.05.17/outbox.cif.g08.bks.cpg/sg10_26_cif.got.tgz:51941.got - 2010.06.03 11:33:40.
