data_PCOD9145873
_publ_section_title
;
Structure prediction by ZEFSAII (Michael W. Deem and Ramdas Pophale) SiO2 
 PCOD9145873
Probable space group: P 2/M
;
_chemical_formula_sum "Si O2"
_cell_formula_units_Z 24
_cell_length_a 11.511061
_cell_length_b 12.910319
_cell_length_c 17.266282
_cell_angle_alpha 90.000000
_cell_angle_beta 30.279938
_cell_angle_gamma 90.000000
_cell_volume 1293.825694
_symmetry_space_group_name_H-M "P 2/M"
_symmetry_group_IT_number 10
_symmetry_cell_setting 'monoclinic'
loop_
_space_group_symop_operation_xyz
x,y,z
-x,y,-z
-x,-y,-z
x,-y,z
loop_
_atom_site_type_symbol
_atom_site_label
_atom_site_fract_x
_atom_site_fract_y
_atom_site_fract_z
Si Si1 0.634724 0.257755 0.829520
Si Si2 0.329398 0.881218 0.338441
Si Si3 0.806826 0.619353 0.859423
Si Si4 0.002253 0.881548 0.669677
Si Si5 0.765158 0.264453 0.338830
Si Si6 0.214783 0.883100 0.818652
O O1 0.651589 0.211790 0.733899
O O2 0.796673 0.347856 0.774019
O O3 0.742623 0.161123 0.815482
O O4 0.383257 0.305245 0.991157
O O5 0.111447 0.871361 0.521011
O O6 0.552847 0.875934 0.265036
O O7 0.325994 0.000000 0.307051
O O8 0.743912 0.500000 0.904720
O O9 0.052830 0.643599 0.754884
O O10 0.157635 0.815038 0.638087
O O11 0.010221 0.000000 0.688273
O O12 0.500000 0.295101 0.500000
O O13 0.793678 0.202720 0.242483
O O14 0.207649 0.000000 0.788650
O O15 0.000000 0.872782 0.000000
#
# Coordination Sequence:
#
# PCOD9145873 Si02
#       6
#     4   4   4   4   4   4
#     4  10  19  35  58  81 108 149 194 231 288 353
#     4  10  19  32  53  85 126 160 183 220 277 344
#     4  10  23  42  62  80 104 146 198 259 314 337
#     4  10  20  33  55  88 125 159 189 225 273 340
#     4  11  21  37  62  88 112 157 201 240 280 348
#     4  10  20  33  53  86 126 163 191 222 272 341
#
# _framework density 18.54964
#
# number of rings (size 3 to 8) (size 9 to 14) (size 15 to 20)
#    0.000    1.833    1.667    3.500    0.000    2.333 
#    0.000   18.333    0.000   24.500    0.000    0.000 
#    0.000    0.000    0.000    0.000    0.000    0.000 
#
# Total GULP energy -133713.332729 kJ/mol
# GULP energy per Si atom -5571.388864 kJ/mol
# Density = 1.850742 g / cm^3
# Si number density = 18.549640 Si / 1000 Ang^3
#
#
#
# Elastic Constant Matrix: (Units=GPa)
#
#
# Indices 1 2 3 4 5 6 
#
# 1 82.2362 34.8230 39.2370 0.0000 -9.4250 0.0000
# 2 34.8230 88.7688 52.9694 0.0000 2.1621 0.0000
# 3 39.2370 52.9694 92.0726 0.0000 -18.8625 0.0000
# 4 0.0000 0.0000 0.0000 14.6516 0.0000 1.2034
# 5 -9.4250 2.1621 -18.8625 0.0000 32.0101 0.0000
# 6 0.0000 0.0000 0.0000 1.2034 0.0000 18.5560
#
#
#
# Elastic Compliance Matrix: (Units=1/GPa)
#
#
# Indices 1 2 3 4 5 6 
#
# 1 0.016060 -0.003960 -0.004028 0.000000 0.002622 0.000000
# 2 -0.003960 0.020105 -0.011823 0.000000 -0.009491 0.000000
# 3 -0.004028 -0.011823 0.021950 0.000000 0.012547 0.000000
# 4 0.000000 0.000000 0.000000 0.068617 0.000000 -0.004450
# 5 0.002622 -0.009491 0.012547 0.000000 0.040047 0.000000
# 6 0.000000 0.000000 0.000000 -0.004450 0.000000 0.054179
#
#
# Mechanical properties :
#
#
# Convention : Reuss Voigt Hill
#
# Bulk Modulus (GPa) = 54.07960 57.45960 55.76960
# Shear Modulus (GPa) = 18.74451 22.11343 20.42897
#
# Velocity S-wave (km/s) = 3.18229 3.45646 3.32220
# Velocity P-wave (km/s) = 6.53605 6.85367 6.69674
#
# Compressibility (1/GPa) = 0.01849126
#
# Stress axis : x y z
#
# Youngs Moduli (GPa) = 62.26818 49.73920 45.55814
#
# Poissons Ratio (x) = 0.19697 0.18353
# Poissons Ratio (y) = 0.24659 0.53864
# Poissons Ratio (z) = 0.25084 0.58807
#
# Static dielectric constant tensor:
#      x y z
#    x 1.673260 0.000000 -0.011410 
#    y 0.000000 1.626340 0.000000 
#    z -0.011410 0.000000 1.686800 
# 
# From -- ./inp_files/46508.got.cif
#   From: 2010.05.17/outbox.cif.g08.bks.cpg/sg10_24_cif.got.tgz:46508.got - 2010.06.03 11:33:40.
