data_PCOD9145031
_publ_section_title
;
Structure prediction by ZEFSAII (Michael W. Deem and Ramdas Pophale) SiO2 
 PCOD9145031
Probable space group: P 2/M
;
_chemical_formula_sum "Si O2"
_cell_formula_units_Z 32
_cell_length_a 14.548141
_cell_length_b 9.244602
_cell_length_c 21.483004
_cell_angle_alpha 90.000000
_cell_angle_beta 35.432803
_cell_angle_gamma 90.000000
_cell_volume 1675.057828
_symmetry_space_group_name_H-M "P 2/M"
_symmetry_group_IT_number 10
_symmetry_cell_setting 'monoclinic'
loop_
_space_group_symop_operation_xyz
x,y,z
-x,y,-z
-x,-y,-z
x,-y,z
loop_
_atom_site_type_symbol
_atom_site_label
_atom_site_fract_x
_atom_site_fract_y
_atom_site_fract_z
Si Si1 0.813314 0.829405 0.595887
Si Si2 0.444567 0.830795 0.155520
Si Si3 0.037624 0.836898 0.674541
Si Si4 0.244919 0.668410 0.013265
Si Si5 0.270766 0.667067 0.149368
Si Si6 0.692542 0.669798 0.542607
Si Si7 0.599518 0.670216 0.382801
Si Si8 0.070880 0.164121 0.804935
O O1 0.708188 0.813610 0.715851
O O2 0.729610 0.731764 0.590001
O O3 0.000000 0.792186 0.500000
O O4 0.807167 0.000000 0.581520
O O5 0.398791 0.762224 0.114561
O O6 0.480155 0.000000 0.129184
O O7 0.598821 0.749735 0.097014
O O8 0.197443 0.766623 0.562298
O O9 0.043401 0.844722 0.745703
O O10 0.896363 0.729833 0.735031
O O11 0.011752 0.000000 0.664347
O O12 0.242596 0.500000 0.997237
O O13 0.262487 0.676069 0.079177
O O14 0.080108 0.746307 0.086909
O O15 0.295733 0.500000 0.152364
O O16 0.734473 0.500000 0.515279
O O17 0.516258 0.684217 0.612499
O O18 0.500000 0.715237 0.500000
O O19 0.638203 0.500000 0.370945
O O20 0.760278 0.757326 0.282500
O O21 0.074261 0.000000 0.827504
#
# Coordination Sequence:
#
# PCOD9145031 Si02
#       8
#     4   4   4   4   4   4   4   4
#     4  10  23  42  60  80 111 151 191 235 285 330
#     4  11  22  36  56  80 108 144 188 236 284 333
#     4  10  19  31  49  76 112 148 182 225 275 329
#     4  10  21  36  55  79 112 150 185 228 284 339
#     4  10  20  33  52  79 110 145 186 229 279 335
#     4  11  22  35  56  83 111 150 193 232 277 333
#     4  10  20  35  55  82 120 154 183 226 283 342
#     4  10  20  33  53  82 113 147 186 225 273 334
#
# _framework density 19.103816999999999
#
# number of rings (size 3 to 8) (size 9 to 14) (size 15 to 20)
#    0.000    1.750    1.250    3.375    0.000    7.500 
#    0.000    0.000    0.000    0.750    0.000    5.250 
#    0.000    0.000    0.000    0.000    0.000    0.000 
#
# Total GULP energy -178613.560075 kJ/mol
# GULP energy per Si atom -5581.673752 kJ/mol
# Density = 1.906034 g / cm^3
# Si number density = 19.103817 Si / 1000 Ang^3
#
#
#
# Elastic Constant Matrix: (Units=GPa)
#
#
# Indices 1 2 3 4 5 6 
#
# 1 49.8630 32.2912 15.4037 0.0000 -13.0744 0.0000
# 2 32.2912 119.6738 60.0311 0.0000 -15.8764 0.0000
# 3 15.4037 60.0311 98.8305 0.0000 -29.4919 0.0000
# 4 0.0000 0.0000 0.0000 27.2072 0.0000 -12.6542
# 5 -13.0744 -15.8764 -29.4919 0.0000 25.9364 0.0000
# 6 0.0000 0.0000 0.0000 -12.6542 0.0000 16.1919
#
#
#
# Elastic Compliance Matrix: (Units=1/GPa)
#
#
# Indices 1 2 3 4 5 6 
#
# 1 0.027504 -0.007937 0.004876 0.000000 0.014551 0.000000
# 2 -0.007937 0.014343 -0.009156 0.000000 -0.005632 0.000000
# 3 0.004876 -0.009156 0.021161 0.000000 0.020916 0.000000
# 4 0.000000 0.000000 0.000000 0.057745 0.000000 0.045129
# 5 0.014551 -0.005632 0.020916 0.000000 0.066226 0.000000
# 6 0.000000 0.000000 0.000000 0.045129 0.000000 0.097028
#
#
# Mechanical properties :
#
#
# Convention : Reuss Voigt Hill
#
# Bulk Modulus (GPa) = 25.92330 53.75770 39.84050
# Shear Modulus (GPa) = 15.56183 24.57650 20.06916
#
# Velocity S-wave (km/s) = 2.85720 3.59063 3.24471
# Velocity P-wave (km/s) = 4.94813 6.73729 5.91080
#
# Compressibility (1/GPa) = 0.03857533
#
# Stress axis : x y z
#
# Youngs Moduli (GPa) = 36.35849 69.71873 47.25634
#
# Poissons Ratio (x) = 0.55336 -0.23045
# Poissons Ratio (y) = 0.28858 0.43268
# Poissons Ratio (z) = -0.17730 0.63834
#
# Static dielectric constant tensor:
#      x y z
#    x 1.673000 0.000000 0.007590 
#    y 0.000000 1.652050 0.000000 
#    z 0.007590 0.000000 1.675400 
# 
# From -- ./inp_files/71431.got.cif
#   From: 2010.05.17/outbox.cif.g08.bks.cpg/sg10_36_cif.got.tgz:71431.got - 2010.06.03 11:33:40.
