data_PCOD9145907
_publ_section_title
;
Structure prediction by ZEFSAII (Michael W. Deem and Ramdas Pophale) SiO2 
 PCOD9145907
Probable space group: P 2/M
;
_chemical_formula_sum "Si O2"
_cell_formula_units_Z 32
_cell_length_a 14.512897
_cell_length_b 7.534851
_cell_length_c 21.326834
_cell_angle_alpha 90.000000
_cell_angle_beta 34.617942
_cell_angle_gamma 90.000000
_cell_volume 1324.893870
_symmetry_space_group_name_H-M "P 2/M"
_symmetry_group_IT_number 10
_symmetry_cell_setting 'monoclinic'
loop_
_space_group_symop_operation_xyz
x,y,z
-x,y,-z
-x,-y,-z
x,-y,z
loop_
_atom_site_type_symbol
_atom_site_label
_atom_site_fract_x
_atom_site_fract_y
_atom_site_fract_z
Si Si1 0.152049 0.208319 0.710252
Si Si2 0.168241 0.288009 0.166310
Si Si3 0.718964 0.213092 0.494326
Si Si4 0.371456 0.797688 0.841363
Si Si5 0.461281 0.789614 0.921431
Si Si6 0.168569 0.298002 0.299831
Si Si7 0.253791 0.711634 0.383964
Si Si8 0.344727 0.217996 0.722363
O O1 0.214601 0.284353 0.608803
O O2 0.232982 0.279717 0.727907
O O3 0.959754 0.226762 0.813684
O O4 0.194719 0.000000 0.685790
O O5 0.163746 0.500000 0.173333
O O6 0.114591 0.212612 0.264376
O O7 0.346861 0.234270 0.044972
O O8 0.805532 0.260198 0.511793
O O9 0.530878 0.269966 0.604934
O O10 0.721394 0.000000 0.490484
O O11 0.361885 0.719971 0.916170
O O12 0.566761 0.796142 0.719734
O O13 0.299839 0.719067 0.817589
O O14 0.312228 0.000000 0.879001
O O15 0.635738 0.698903 0.822205
O O16 0.491744 0.000000 0.896254
O O17 0.107430 0.500000 0.337147
O O18 0.157442 0.222269 0.376408
O O19 0.271612 0.500000 0.365528
O O20 0.341685 0.000000 0.726497
#
# Coordination Sequence:
#
# PCOD9145907 Si02
#       8
#     4   4   4   4   4   4   4   4
#     4  10  20  34  52  73  98 130 169 208 241 282
#     4  11  23  37  50  67  99 138 169 201 244 293
#     4   9  17  31  52  77 102 127 158 200 250 296
#     4   8  15  29  50  76 102 125 154 197 246 291
#     4  10  19  32  54  81 102 123 159 206 249 290
#     4   9  19  35  53  73  98 131 167 200 241 293
#     4   9  16  28  49  75  99 124 159 201 241 287
#     4   8  14  29  54  78  98 125 161 199 242 291
#
# _framework density 24.152878999999999
#
# number of rings (size 3 to 8) (size 9 to 14) (size 15 to 20)
#    0.000    2.750    0.000    2.625    0.000    5.500 
#    0.000    3.750    0.000   11.250    0.000    0.000 
#    0.000    0.000    0.000    0.000    0.000    0.000 
#
# Total GULP energy -178615.034528 kJ/mol
# GULP energy per Si atom -5581.719829 kJ/mol
# Density = 2.409791 g / cm^3
# Si number density = 24.152879 Si / 1000 Ang^3
#
#
#
# Elastic Constant Matrix: (Units=GPa)
#
#
# Indices 1 2 3 4 5 6 
#
# 1 170.9989 2.9284 32.8595 0.0000 24.4730 0.0000
# 2 2.9284 80.9206 -8.3008 0.0000 6.0740 0.0000
# 3 32.8595 -8.3008 75.3003 0.0000 19.5701 0.0000
# 4 0.0000 0.0000 0.0000 16.0543 0.0000 0.9823
# 5 24.4730 6.0740 19.5701 0.0000 29.5926 0.0000
# 6 0.0000 0.0000 0.0000 0.9823 0.0000 23.1445
#
#
#
# Elastic Compliance Matrix: (Units=1/GPa)
#
#
# Indices 1 2 3 4 5 6 
#
# 1 0.006836 -0.000106 -0.001849 0.000000 -0.004409 0.000000
# 2 -0.000106 0.012948 0.002586 0.000000 -0.004280 0.000000
# 3 -0.001849 0.002586 0.017042 0.000000 -0.010272 0.000000
# 4 0.000000 0.000000 0.000000 0.062451 0.000000 -0.002650
# 5 -0.004409 -0.004280 -0.010272 0.000000 0.045110 0.000000
# 6 0.000000 0.000000 0.000000 -0.002650 0.000000 0.043319
#
#
# Mechanical properties :
#
#
# Convention : Reuss Voigt Hill
#
# Bulk Modulus (GPa) = 26.25513 42.46600 34.36057
# Shear Modulus (GPa) = 25.10799 33.74045 29.42422
#
# Velocity S-wave (km/s) = 3.22769 3.74164 3.49413
# Velocity P-wave (km/s) = 4.97842 6.02385 5.52592
#
# Compressibility (1/GPa) = 0.03808780
#
# Stress axis : x y z
#
# Youngs Moduli (GPa) = 146.28203 77.23093 58.67979
#
# Poissons Ratio (x) = 0.00820 0.10850
# Poissons Ratio (y) = 0.01552 -0.15175
# Poissons Ratio (z) = 0.27047 -0.19972
#
# Static dielectric constant tensor:
#      x y z
#    x 1.975930 0.000000 0.046030 
#    y 0.000000 1.959490 0.000000 
#    z 0.046030 0.000000 1.922320 
# 
# From -- ./inp_files/84708.got.cif
#   From: 2010.05.17/outbox.cif.g08.bks.cpg/sg10_43_cif.got.tgz:84708.got - 2010.06.03 11:33:40.
