data_PCOD9145607
_publ_section_title
;
Structure prediction by ZEFSAII (Michael W. Deem and Ramdas Pophale) SiO2 
 PCOD9145607
Probable space group: P 2/M
;
_chemical_formula_sum "Si O2"
_cell_formula_units_Z 21
_cell_length_a 25.022591
_cell_length_b 7.353373
_cell_length_c 5.180367
_cell_angle_alpha 90.000000
_cell_angle_beta 64.308115
_cell_angle_gamma 90.000000
_cell_volume 858.955993
_symmetry_space_group_name_H-M "P 2/M"
_symmetry_group_IT_number 10
_symmetry_cell_setting 'monoclinic'
loop_
_space_group_symop_operation_xyz
x,y,z
-x,y,-z
-x,-y,-z
x,-y,z
loop_
_atom_site_type_symbol
_atom_site_label
_atom_site_fract_x
_atom_site_fract_y
_atom_site_fract_z
Si Si1 0.261300 0.783899 0.353661
Si Si2 0.675626 0.221320 0.277228
Si Si3 0.870693 0.282996 0.171194
Si Si4 0.440063 0.791741 0.794840
Si Si5 0.935381 0.277857 0.537165
Si Si6 0.500000 0.500000 0.000000
O O1 0.306835 0.713682 0.475785
O O2 0.195412 0.753017 0.594020
O O3 0.269801 0.000000 0.321465
O O4 0.275618 0.717565 0.036430
O O5 0.613069 0.270192 0.280111
O O6 0.675530 0.000000 0.292287
O O7 0.877459 0.500000 0.146364
O O8 0.916124 0.215589 0.294736
O O9 0.887627 0.217497 0.851367
O O10 0.500000 0.786243 0.500000
O O11 0.453421 0.658497 0.999237
O O12 0.428674 0.000000 0.902894
O O13 0.935860 0.500000 0.526885
O O14 0.000000 0.222156 0.500000
#
# Coordination Sequence:
#
# PCOD9145607 Si02
#       6
#     4   4   4   4   4   1
#     4  10  20  37  58  80 110 150 191 234 288 353
#     4   9  20  38  60  83 110 151 201 238 285 361
#     4  10  19  32  51  78 108 136 181 232 280 334
#     4  10  23  43  66  90 126 169 209 263 322 383
#     4   9  17  30  51  76 105 142 182 225 275 335
#     4  12  24  40  64 100 128 156 216 260 324 392
#
# _framework density 24.448281999999999
#
# number of rings (size 3 to 8) (size 9 to 14) (size 15 to 20)
#    0.000    2.286    0.000    2.286    2.667    2.286 
#    3.429    0.000    0.000    3.429    0.000    0.000 
#    0.000    0.000    0.000    0.000    0.000    0.000 
#
# Total GULP energy -117229.497163 kJ/mol
# GULP energy per Si atom -5582.357008 kJ/mol
# Density = 2.439264 g / cm^3
# Si number density = 24.448282 Si / 1000 Ang^3
#
#
#
# Elastic Constant Matrix: (Units=GPa)
#
#
# Indices 1 2 3 4 5 6 
#
# 1 76.5499 2.5614 -23.9484 0.0000 6.5946 0.0000
# 2 2.5614 103.3874 -0.5498 0.0000 11.1265 0.0000
# 3 -23.9484 -0.5498 54.3716 0.0000 6.1018 0.0000
# 4 0.0000 0.0000 0.0000 -22.5333 0.0000 -48.9311
# 5 6.5946 11.1265 6.1018 0.0000 44.6156 0.0000
# 6 0.0000 0.0000 0.0000 -48.9311 0.0000 -49.5741
#
#
#
# Elastic Compliance Matrix: (Units=1/GPa)
#
#
# Indices 1 2 3 4 5 6 
#
# 1 0.015615 0.000007 0.007248 0.000000 -0.003301 0.000000
# 2 0.000007 0.009947 0.000388 0.000000 -0.002535 0.000000
# 3 0.007248 0.000388 0.022058 0.000000 -0.004185 0.000000
# 4 0.000000 0.000000 0.000000 0.038815 0.000000 -0.038312
# 5 -0.003301 -0.002535 -0.004185 0.000000 0.024106 0.000000
# 6 0.000000 0.000000 0.000000 -0.038312 0.000000 0.017643
#
#
# Mechanical properties :
#
#
# Convention : Reuss Voigt Hill
#
# Bulk Modulus (GPa) = 15.89646 21.15949 18.52798
# Shear Modulus (GPa) = 37.35061 11.58469 24.46765
#
# Velocity S-wave (km/s) = 3.91287 2.17916 3.16696
# Velocity P-wave (km/s) = 5.18944 3.87366 4.57906
#
# Compressibility (1/GPa) = 0.06290709
#
# Stress axis : x y z
#
# Youngs Moduli (GPa) = 64.04034 100.53244 45.33478
#
# Poissons Ratio (x) = -0.00070 -0.32860
# Poissons Ratio (y) = -0.00044 -0.01759
# Poissons Ratio (z) = -0.46419 -0.03902
#
# Static dielectric constant tensor:
#      x y z
#    x 1.889960 0.000000 -0.010780 
#    y 0.000000 1.955360 0.000000 
#    z -0.010780 0.000000 1.991350 
# 
# From -- ./inp_files/11992.got.cif
#   From: 2010.05.17/outbox.cif.g08.bks.cpg/sg10_6_cif.got.tgz:11992.got - 2010.06.03 11:33:40.
