data_PCOD9145616
_publ_section_title
;
Structure prediction by ZEFSAII (Michael W. Deem and Ramdas Pophale) SiO2 
 PCOD9145616
Probable space group: P 2/M
;
_chemical_formula_sum "Si O2"
_cell_formula_units_Z 22
_cell_length_a 15.323978
_cell_length_b 14.564980
_cell_length_c 6.702539
_cell_angle_alpha 90.000000
_cell_angle_beta 53.396587
_cell_angle_gamma 90.000000
_cell_volume 1200.931857
_symmetry_space_group_name_H-M "P 2/M"
_symmetry_group_IT_number 10
_symmetry_cell_setting 'monoclinic'
loop_
_space_group_symop_operation_xyz
x,y,z
-x,y,-z
-x,-y,-z
x,-y,z
loop_
_atom_site_type_symbol
_atom_site_label
_atom_site_fract_x
_atom_site_fract_y
_atom_site_fract_z
Si Si1 0.584067 0.401567 0.204613
Si Si2 0.115322 0.251266 0.234120
Si Si3 0.739478 0.241916 0.576958
Si Si4 0.872622 0.893450 0.118307
Si Si5 0.500000 0.259228 0.000000
Si Si6 0.200109 0.606664 0.829641
O O1 0.500000 0.402789 0.500000
O O2 0.580379 0.500000 0.102291
O O3 0.699409 0.393348 0.153574
O O4 0.548909 0.322430 0.106679
O O5 0.205728 0.259852 0.283275
O O6 0.000000 0.244416 0.500000
O O7 0.141141 0.160918 0.069717
O O8 0.112568 0.334154 0.074830
O O9 0.804256 0.161110 0.376957
O O10 0.611759 0.215034 0.765411
O O11 0.760647 0.333806 0.414423
O O12 0.842155 0.000000 0.146603
O O13 0.000000 0.887702 0.000000
O O14 0.172187 0.500000 0.823214
#
# Coordination Sequence:
#
# PCOD9145616 Si02
#       6
#     4   4   4   4   2   4
#     4  10  19  32  51  80 113 151 207 254 280 318
#     4  11  22  39  61  89 120 152 195 247 296 358
#     4  11  23  38  59  90 124 155 199 241 295 352
#     4  10  22  42  68  93 115 143 190 253 306 352
#     4  12  21  34  57  86 118 164 194 240 294 346
#     4  10  22  37  55  84 123 164 204 245 287 336
#
# _framework density 18.319108
#
# number of rings (size 3 to 8) (size 9 to 14) (size 15 to 20)
#    0.000    1.455    5.455    0.273    0.000    2.909 
#    0.000    1.364    0.000    1.091    0.000    0.000 
#    0.000    0.000    0.000    0.000    0.000    0.000 
#
# Total GULP energy -122657.440722 kJ/mol
# GULP energy per Si atom -5575.338215 kJ/mol
# Density = 1.827741 g / cm^3
# Si number density = 18.319108 Si / 1000 Ang^3
#
#
#
# Elastic Constant Matrix: (Units=GPa)
#
#
# Indices 1 2 3 4 5 6 
#
# 1 62.7898 27.4535 26.8382 0.0000 7.1741 0.0000
# 2 27.4535 130.3583 56.4325 0.0000 -1.5816 0.0000
# 3 26.8382 56.4325 101.1817 0.0000 -7.7699 0.0000
# 4 0.0000 0.0000 0.0000 132.7895 0.0000 105.2962
# 5 7.1741 -1.5816 -7.7699 0.0000 32.7560 0.0000
# 6 0.0000 0.0000 0.0000 105.2962 0.0000 111.2441
#
#
#
# Elastic Compliance Matrix: (Units=1/GPa)
#
#
# Indices 1 2 3 4 5 6 
#
# 1 0.019368 -0.002296 -0.004269 0.000000 -0.005365 0.000000
# 2 -0.002296 0.010409 -0.005214 0.000000 -0.000231 0.000000
# 3 -0.004269 -0.005214 0.014235 0.000000 0.004060 0.000000
# 4 0.000000 0.000000 0.000000 0.030190 0.000000 -0.028576
# 5 -0.005365 -0.000231 0.004060 0.000000 0.032656 0.000000
# 6 0.000000 0.000000 0.000000 -0.028576 0.000000 0.036038
#
#
# Mechanical properties :
#
#
# Convention : Reuss Voigt Hill
#
# Bulk Modulus (GPa) = 48.88955 57.30867 53.09911
# Shear Modulus (GPa) = 28.85636 67.59827 48.22732
#
# Velocity S-wave (km/s) = 3.97319 6.08116 5.13648
# Velocity P-wave (km/s) = 6.91332 8.98103 8.01414
#
# Compressibility (1/GPa) = 0.02045427
#
# Stress axis : x y z
#
# Youngs Moduli (GPa) = 51.63266 96.06886 70.24723
#
# Poissons Ratio (x) = 0.22057 0.29986
# Poissons Ratio (y) = 0.11855 0.36629
# Poissons Ratio (z) = 0.22040 0.50094
#
# Static dielectric constant tensor:
#      x y z
#    x 1.625510 0.000000 -0.034770 
#    y 0.000000 1.639030 0.000000 
#    z -0.034770 0.000000 1.645700 
# 
# From -- ./inp_files/9073.got.cif
#   From: 2010.05.17/outbox.cif.g08.bks.cpg/sg10_5_cif.got.tgz:9073.got - 2010.06.03 11:33:40.
