data_PCOD9145846
_publ_section_title
;
Structure prediction by ZEFSAII (Michael W. Deem and Ramdas Pophale) SiO2 
 PCOD9145846
Probable space group: P 2/M
;
_chemical_formula_sum "Si O2"
_cell_formula_units_Z 32
_cell_length_a 14.250763
_cell_length_b 7.602370
_cell_length_c 12.028697
_cell_angle_alpha 90.000000
_cell_angle_beta 78.851534
_cell_angle_gamma 90.000000
_cell_volume 1278.592115
_symmetry_space_group_name_H-M "P 2/M"
_symmetry_group_IT_number 10
_symmetry_cell_setting 'monoclinic'
loop_
_space_group_symop_operation_xyz
x,y,z
-x,y,-z
-x,-y,-z
x,-y,z
loop_
_atom_site_type_symbol
_atom_site_label
_atom_site_fract_x
_atom_site_fract_y
_atom_site_fract_z
Si Si1 0.726759 0.282723 0.199899
Si Si2 0.345882 0.698225 0.011819
Si Si3 0.928984 0.203494 0.421004
Si Si4 0.411779 0.714464 0.226231
Si Si5 0.440261 0.714353 0.620684
Si Si6 0.937544 0.302044 0.169063
Si Si7 0.852788 0.801016 0.854302
Si Si8 0.791177 0.289466 0.630899
O O1 0.730691 0.500000 0.197549
O O2 0.668247 0.232111 0.324075
O O3 0.835683 0.218319 0.161167
O O4 0.666866 0.222344 0.106278
O O5 0.383034 0.500000 0.985479
O O6 0.404957 0.777745 0.100653
O O7 0.235632 0.688467 0.080865
O O8 0.930697 0.302199 0.305086
O O9 0.828447 0.213026 0.507603
O O10 0.000000 0.274556 0.500000
O O11 0.954024 0.000000 0.392270
O O12 0.409741 0.500000 0.220589
O O13 0.497950 0.763039 0.285373
O O14 0.314456 0.768326 0.310434
O O15 0.500000 0.776579 0.500000
O O16 0.438176 0.500000 0.613151
O O17 0.937972 0.500000 0.126047
O O18 0.042070 0.225676 0.119388
O O19 0.856587 0.765472 0.720975
O O20 0.822916 0.000000 0.879280
O O21 0.792459 0.500000 0.621934
#
# Coordination Sequence:
#
# PCOD9145846 Si02
#       8
#     4   4   4   4   4   4   4   4
#     4   9  20  35  53  80 111 149 189 235 286 334
#     4   9  18  36  57  81 114 144 188 237 278 332
#     4  11  22  34  50  76 111 150 192 234 279 329
#     4   8  16  29  51  82 110 144 178 223 284 335
#     4   9  17  30  50  81 121 148 174 226 290 342
#     4  11  22  35  53  78 109 149 194 232 283 335
#     4  11  21  35  54  80 112 145 186 228 282 337
#     4  10  19  32  53  81 111 145 188 231 277 330
#
# _framework density 25.027526999999999
#
# number of rings (size 3 to 8) (size 9 to 14) (size 15 to 20)
#    0.000    2.250    1.250    3.000    1.750    1.500 
#    0.000    6.250    0.000    0.000    0.000   17.500 
#    0.000    0.000    0.000    0.000    0.000    0.000 
#
# Total GULP energy -178831.700106 kJ/mol
# GULP energy per Si atom -5588.490628 kJ/mol
# Density = 2.497056 g / cm^3
# Si number density = 25.027527 Si / 1000 Ang^3
#
#
#
# Elastic Constant Matrix: (Units=GPa)
#
#
# Indices 1 2 3 4 5 6 
#
# 1 108.0355 -2.1344 41.6963 0.0000 -5.9476 0.0000
# 2 -2.1344 69.1831 -4.8655 0.0000 -2.4155 0.0000
# 3 41.6963 -4.8655 105.7300 0.0000 -7.6421 0.0000
# 4 0.0000 0.0000 0.0000 63.4785 0.0000 53.2244
# 5 -5.9476 -2.4155 -7.6421 0.0000 41.8911 0.0000
# 6 0.0000 0.0000 0.0000 53.2244 0.0000 26.5907
#
#
#
# Elastic Compliance Matrix: (Units=1/GPa)
#
#
# Indices 1 2 3 4 5 6 
#
# 1 0.010943 0.000066 -0.004256 0.000000 0.000781 0.000000
# 2 0.000066 0.014541 0.000714 0.000000 0.000978 0.000000
# 3 -0.004256 0.000714 0.011277 0.000000 0.001494 0.000000
# 4 0.000000 0.000000 0.000000 -0.023226 0.000000 0.046489
# 5 0.000781 0.000978 0.001494 0.000000 0.024311 0.000000
# 6 0.000000 0.000000 0.000000 0.046489 0.000000 -0.055445
#
#
# Mechanical properties :
#
#
# Convention : Reuss Voigt Hill
#
# Bulk Modulus (GPa) = 33.54792 39.14905 36.34848
# Shear Modulus (GPa) = -7056.19156 42.94221 -3506.62467
#
# Velocity S-wave (km/s) = -53.15537 4.14671 -37.47197
# Velocity P-wave (km/s) = 61.26900 6.21316 43.10039
#
# Compressibility (1/GPa) = 0.02980811
#
# Stress axis : x y z
#
# Youngs Moduli (GPa) = 91.38120 68.77211 88.67304
#
# Poissons Ratio (x) = -0.00451 0.37741
# Poissons Ratio (y) = -0.00599 -0.06331
# Poissons Ratio (z) = 0.38893 -0.04910
#
# Static dielectric constant tensor:
#      x y z
#    x 2.033450 0.000000 -0.019600 
#    y 0.000000 1.943710 0.000000 
#    z -0.019600 0.000000 1.975300 
# 
# From -- ./inp_files/49976.got.cif
#   From: 2010.05.17/outbox.cif.g08.bks.cpg/sg10_25_cif.got.tgz:49976.got - 2010.06.03 11:33:40.
