data_PCOD9145833
_publ_section_title
;
Structure prediction by ZEFSAII (Michael W. Deem and Ramdas Pophale) SiO2 
 PCOD9145833
Probable space group: P 2/M
;
_chemical_formula_sum "Si O2"
_cell_formula_units_Z 32
_cell_length_a 15.070309
_cell_length_b 7.514212
_cell_length_c 24.058198
_cell_angle_alpha 90.000000
_cell_angle_beta 30.205991
_cell_angle_gamma 90.000000
_cell_volume 1370.666874
_symmetry_space_group_name_H-M "P 2/M"
_symmetry_group_IT_number 10
_symmetry_cell_setting 'monoclinic'
loop_
_space_group_symop_operation_xyz
x,y,z
-x,y,-z
-x,-y,-z
x,-y,z
loop_
_atom_site_type_symbol
_atom_site_label
_atom_site_fract_x
_atom_site_fract_y
_atom_site_fract_z
Si Si1 0.919798 0.716015 0.239882
Si Si2 0.912700 0.213854 0.670160
Si Si3 0.754915 0.791104 0.449743
Si Si4 0.428607 0.785333 0.095890
Si Si5 0.808275 0.701989 0.610001
Si Si6 0.422760 0.719548 0.787497
Si Si7 0.736000 0.293503 0.011878
Si Si8 0.634693 0.294003 0.305761
O O1 0.922056 0.500000 0.241046
O O2 0.850439 0.770773 0.338451
O O3 0.773701 0.780119 0.274385
O O4 0.108278 0.778187 0.112579
O O5 0.778968 0.253015 0.792008
O O6 0.807942 0.299519 0.676405
O O7 0.107751 0.278250 0.578102
O O8 0.918907 0.000000 0.659003
O O9 0.561408 0.712301 0.561955
O O10 0.732530 0.000000 0.471822
O O11 0.552410 0.718461 0.078206
O O12 0.445010 0.000000 0.089362
O O13 0.500000 0.714827 0.000000
O O14 0.821894 0.500000 0.580640
O O15 0.626334 0.778876 0.686463
O O16 0.000000 0.792574 0.500000
O O17 0.426990 0.500000 0.786649
O O18 0.303705 0.778692 0.904413
O O19 0.365898 0.778674 0.756798
O O20 0.782556 0.500000 0.995425
O O21 0.684435 0.500000 0.272187
#
# Coordination Sequence:
#
# PCOD9145833 Si02
#       8
#     4   4   4   4   4   4   4   4
#     4  10  22  38  59  86 113 147 191 238 288 339
#     4  10  21  35  52  78 109 144 183 220 269 327
#     4  11  23  39  59  84 115 149 189 238 289 342
#     4  10  20  35  54  77 109 149 187 224 272 329
#     4  10  19  32  53  80 110 145 182 222 272 327
#     4   9  18  34  56  83 116 150 186 231 281 335
#     4  10  20  36  57  84 116 148 189 235 279 334
#     4  10  21  39  61  84 113 149 189 236 289 342
#
# _framework density 23.346298999999998
#
# number of rings (size 3 to 8) (size 9 to 14) (size 15 to 20)
#    0.000    2.000    1.250    2.250    0.000    6.500 
#    0.000    3.750    0.000    0.000    0.000    2.625 
#    0.000    0.000    0.000    0.000    0.000    0.000 
#
# Total GULP energy -178543.158319 kJ/mol
# GULP energy per Si atom -5579.473697 kJ/mol
# Density = 2.329316 g / cm^3
# Si number density = 23.346299 Si / 1000 Ang^3
#
#
#
# Elastic Constant Matrix: (Units=GPa)
#
#
# Indices 1 2 3 4 5 6 
#
# 1 91.6743 -13.2616 6.3128 0.0000 0.4171 0.0000
# 2 -13.2616 56.3225 -12.2048 0.0000 -2.3073 0.0000
# 3 6.3128 -12.2048 97.9766 0.0000 3.9576 0.0000
# 4 0.0000 0.0000 0.0000 42.8925 0.0000 -80.4937
# 5 0.4171 -2.3073 3.9576 0.0000 40.2961 0.0000
# 6 0.0000 0.0000 0.0000 -80.4937 0.0000 204.7445
#
#
#
# Elastic Compliance Matrix: (Units=1/GPa)
#
#
# Indices 1 2 3 4 5 6 
#
# 1 0.011309 0.002577 -0.000411 0.000000 0.000071 0.000000
# 2 0.002577 0.018862 0.002150 0.000000 0.000842 0.000000
# 3 -0.000411 0.002150 0.010537 0.000000 -0.000908 0.000000
# 4 0.000000 0.000000 0.000000 0.088912 0.000000 0.034955
# 5 0.000071 0.000842 -0.000908 0.000000 0.024953 0.000000
# 6 0.000000 0.000000 0.000000 0.034955 0.000000 0.018626
#
#
# Mechanical properties :
#
#
# Convention : Reuss Voigt Hill
#
# Bulk Modulus (GPa) = 20.26770 23.07404 21.67087
# Shear Modulus (GPa) = 27.62204 75.26175 51.44190
#
# Velocity S-wave (km/s) = 3.44342 5.68393 4.69916
# Velocity P-wave (km/s) = 4.95073 7.27880 6.22457
#
# Compressibility (1/GPa) = 0.04933959
#
# Stress axis : x y z
#
# Youngs Moduli (GPa) = 88.42616 53.01697 94.90006
#
# Poissons Ratio (x) = -0.13661 0.03896
# Poissons Ratio (y) = -0.22785 -0.20399
# Poissons Ratio (z) = 0.03630 -0.11396
#
# Static dielectric constant tensor:
#      x y z
#    x 1.927500 0.000000 0.095150 
#    y 0.000000 1.897830 0.000000 
#    z 0.095150 0.000000 2.004990 
# 
# From -- ./inp_files/66454.got.cif
#   From: 2010.05.17/outbox.cif.g08.bks.cpg/sg10_34_cif.got.tgz:66454.got - 2010.06.03 11:33:40.
