data_PCOD9145950
_publ_section_title
;
Structure prediction by ZEFSAII (Michael W. Deem and Ramdas Pophale) SiO2 
 PCOD9145950
Probable space group: P 2/M
;
_chemical_formula_sum "Si O2"
_cell_formula_units_Z 28
_cell_length_a 13.803537
_cell_length_b 9.019211
_cell_length_c 14.513330
_cell_angle_alpha 90.000000
_cell_angle_beta 121.919242
_cell_angle_gamma 90.000000
_cell_volume 1533.657524
_symmetry_space_group_name_H-M "P 2/M"
_symmetry_group_IT_number 10
_symmetry_cell_setting 'monoclinic'
loop_
_space_group_symop_operation_xyz
x,y,z
-x,y,-z
-x,-y,-z
x,-y,z
loop_
_atom_site_type_symbol
_atom_site_label
_atom_site_fract_x
_atom_site_fract_y
_atom_site_fract_z
Si Si1 0.777617 0.321597 0.668262
Si Si2 0.323471 0.177565 0.768092
Si Si3 0.781406 0.176674 0.096712
Si Si4 0.003224 0.320941 0.894372
Si Si5 0.310063 0.823456 0.550408
Si Si6 0.566376 0.326980 0.892944
Si Si7 0.552178 0.673394 0.666862
O O1 0.777606 0.500000 0.661019
O O2 0.772862 0.250981 0.565084
O O3 0.661135 0.279019 0.662708
O O4 0.887109 0.277938 0.783437
O O5 0.232144 0.210649 0.801353
O O6 0.288082 0.217940 0.646209
O O7 0.441803 0.260062 0.850138
O O8 0.345141 0.000000 0.780208
O O9 0.888788 0.252879 0.103072
O O10 0.788456 0.000000 0.089262
O O11 0.666062 0.236793 0.991844
O O12 0.012033 0.500000 0.896726
O O13 0.000000 0.275868 0.000000
O O14 0.438260 0.766742 0.593464
O O15 0.304764 0.000000 0.539727
O O16 0.571387 0.500000 0.921486
O O17 0.581691 0.316904 0.790002
O O18 0.527280 0.500000 0.633784
#
# Coordination Sequence:
#
# PCOD9145950 Si02
#       7
#     4   4   4   4   4   4   4
#     4  10  20  35  55  77 104 139 175 215 264 313
#     4   9  20  37  53  75 110 146 177 215 265 316
#     4  11  22  36  55  78 107 143 180 219 265 316
#     4  10  22  41  61  80 105 137 175 219 264 313
#     4  10  20  34  53  78 108 140 175 216 260 309
#     4  10  19  32  54  83 111 141 178 219 265 317
#     4   9  18  33  53  78 109 142 173 209 261 320
#
# _framework density 18.257009
#
# number of rings (size 3 to 8) (size 9 to 14) (size 15 to 20)
#    0.000    2.143    0.000    3.000    0.000    9.429 
#    0.000    2.143    0.000    4.286    0.000    0.000 
#    0.000    0.000    0.000    0.000    0.000    0.000 
#
# Total GULP energy -156368.127882 kJ/mol
# GULP energy per Si atom -5584.575996 kJ/mol
# Density = 1.821546 g / cm^3
# Si number density = 18.257009 Si / 1000 Ang^3
#
#
#
# Elastic Constant Matrix: (Units=GPa)
#
#
# Indices 1 2 3 4 5 6 
#
# 1 124.1693 37.8622 74.5926 0.0000 -21.5863 0.0000
# 2 37.8622 26.4879 42.6938 0.0000 -5.8121 0.0000
# 3 74.5926 42.6938 145.9891 0.0000 -4.3852 0.0000
# 4 0.0000 0.0000 0.0000 21.6074 0.0000 -18.4994
# 5 -21.5863 -5.8121 -4.3852 0.0000 12.2942 0.0000
# 6 0.0000 0.0000 0.0000 -18.4994 0.0000 -8.8812
#
#
#
# Elastic Compliance Matrix: (Units=1/GPa)
#
#
# Indices 1 2 3 4 5 6 
#
# 1 0.020435 -0.014673 -0.005338 0.000000 0.027039 0.000000
# 2 -0.014673 0.091736 -0.019005 0.000000 0.010825 0.000000
# 3 -0.005338 -0.019005 0.014742 0.000000 -0.013099 0.000000
# 4 0.000000 0.000000 0.000000 0.016627 0.000000 -0.034635
# 5 0.027039 0.010825 -0.013099 0.000000 0.129260 0.000000
# 6 0.000000 0.000000 0.000000 -0.034635 0.000000 -0.040454
#
#
# Mechanical properties :
#
#
# Convention : Reuss Voigt Hill
#
# Bulk Modulus (GPa) = 20.45843 67.43815 43.94829
# Shear Modulus (GPa) = 15.30583 14.43727 14.87155
#
# Velocity S-wave (km/s) = 2.89857 2.81513 2.85716
# Velocity P-wave (km/s) = 4.73629 6.89819 5.91682
#
# Compressibility (1/GPa) = 0.04887961
#
# Stress axis : x y z
#
# Youngs Moduli (GPa) = 48.93529 10.90088 67.83490
#
# Poissons Ratio (x) = 0.15995 0.36209
# Poissons Ratio (y) = 0.71805 1.28921
# Poissons Ratio (z) = 0.26121 0.20717
#
# Static dielectric constant tensor:
#      x y z
#    x 1.607900 0.000000 -0.030350 
#    y 0.000000 1.609880 0.000000 
#    z -0.030350 0.000000 1.632490 
# 
# From -- ./inp_files/49463.got.cif
#   From: 2010.05.17/outbox.cif.g08.bks.cpg/sg10_25_cif.got.tgz:49463.got - 2010.06.03 11:33:40.
