data_PCOD9145190
_publ_section_title
;
Structure prediction by ZEFSAII (Michael W. Deem and Ramdas Pophale) SiO2 
 PCOD9145190
Probable space group: P 2/M
;
_chemical_formula_sum "Si O2"
_cell_formula_units_Z 22
_cell_length_a 12.293492
_cell_length_b 14.050409
_cell_length_c 15.839700
_cell_angle_alpha 90.000000
_cell_angle_beta 154.664329
_cell_angle_gamma 90.000000
_cell_volume 1170.777633
_symmetry_space_group_name_H-M "P 2/M"
_symmetry_group_IT_number 10
_symmetry_cell_setting 'monoclinic'
loop_
_space_group_symop_operation_xyz
x,y,z
-x,y,-z
-x,-y,-z
x,-y,z
loop_
_atom_site_type_symbol
_atom_site_label
_atom_site_fract_x
_atom_site_fract_y
_atom_site_fract_z
Si Si1 0.296119 0.894067 0.190517
Si Si2 0.957683 0.743357 0.712381
Si Si3 0.370090 0.236378 0.684894
Si Si4 0.581343 0.890288 0.960600
Si Si5 0.500000 0.189621 0.500000
Si Si6 0.584530 0.387524 0.962978
O O1 0.390384 0.807294 0.198980
O O2 0.422854 0.876904 0.369042
O O3 0.363563 0.000000 0.205976
O O4 0.000000 0.890099 0.000000
O O5 0.840166 0.750500 0.535114
O O6 0.734488 0.750773 0.625257
O O7 0.160947 0.828696 0.868354
O O8 0.126122 0.648953 0.840309
O O9 0.429812 0.329655 0.782538
O O10 0.354606 0.154082 0.744948
O O11 0.629066 0.000000 0.974991
O O12 0.500000 0.881849 0.000000
O O13 0.557561 0.500000 0.933071
O O14 0.500000 0.362729 0.000000
#
# Coordination Sequence:
#
# PCOD9145190 Si02
#       6
#     4   4   4   4   2   4
#     4  10  19  31  51  78 110 148 186 221 257 306
#     4  10  21  37  57  80 111 144 180 225 273 323
#     4  10  20  34  54  80 109 141 180 225 273 323
#     4  10  21  35  51  76 112 150 185 222 266 318
#     4  10  21  34  53  80 112 146 181 220 265 316
#     4  10  22  40  61  83 106 136 178 229 282 334
#
# _framework density 18.790929999999999
#
# number of rings (size 3 to 8) (size 9 to 14) (size 15 to 20)
#    0.000    2.000    0.000    5.182    0.000    9.455 
#    0.000    4.091    0.000   10.364    0.000    0.000 
#    0.000    0.000    0.000    0.000    0.000    0.000 
#
# Total GULP energy -122607.069712 kJ/mol
# GULP energy per Si atom -5573.048623 kJ/mol
# Density = 1.874816 g / cm^3
# Si number density = 18.790930 Si / 1000 Ang^3
#
#
#
# Elastic Constant Matrix: (Units=GPa)
#
#
# Indices 1 2 3 4 5 6 
#
# 1 98.2649 23.4371 16.7173 0.0000 -10.2100 0.0000
# 2 23.4371 106.3151 19.3815 0.0000 -6.4116 0.0000
# 3 16.7173 19.3815 67.2515 0.0000 -16.3660 0.0000
# 4 0.0000 0.0000 0.0000 27.6755 0.0000 -0.6930
# 5 -10.2100 -6.4116 -16.3660 0.0000 36.7139 0.0000
# 6 0.0000 0.0000 0.0000 -0.6930 0.0000 35.6787
#
#
#
# Elastic Compliance Matrix: (Units=1/GPa)
#
#
# Indices 1 2 3 4 5 6 
#
# 1 0.011157 -0.002029 -0.001705 0.000000 0.001988 0.000000
# 2 -0.002029 0.010305 -0.002428 0.000000 0.000153 0.000000
# 3 -0.001705 -0.002428 0.017694 0.000000 0.006989 0.000000
# 4 0.000000 0.000000 0.000000 0.036151 0.000000 0.000702
# 5 0.001988 0.000153 0.006989 0.000000 0.030933 0.000000
# 6 0.000000 0.000000 0.000000 0.000702 0.000000 0.028042
#
#
# Mechanical properties :
#
#
# Convention : Reuss Voigt Hill
#
# Bulk Modulus (GPa) = 37.26846 43.43369 40.35107
# Shear Modulus (GPa) = 32.14408 34.16667 33.15538
#
# Velocity S-wave (km/s) = 4.14045 4.26872 4.20507
# Velocity P-wave (km/s) = 6.53713 6.88915 6.71544
#
# Compressibility (1/GPa) = 0.02683234
#
# Stress axis : x y z
#
# Youngs Moduli (GPa) = 89.62889 97.03855 56.51608
#
# Poissons Ratio (x) = 0.19688 0.09635
# Poissons Ratio (y) = 0.18185 0.13724
# Poissons Ratio (z) = 0.15280 0.23564
#
# Static dielectric constant tensor:
#      x y z
#    x 1.695580 0.000000 -0.030120 
#    y 0.000000 1.636780 0.000000 
#    z -0.030120 0.000000 1.639070 
# 
# From -- ./inp_files/64877.got.cif
#   From: 2010.05.17/outbox.cif.g08.bks.cpg/sg10_33_cif.got.tgz:64877.got - 2010.06.03 11:33:40.
