data_PCOD9145949
_publ_section_title
;
Structure prediction by ZEFSAII (Michael W. Deem and Ramdas Pophale) SiO2 
 PCOD9145949
Probable space group: P 2/M
;
_chemical_formula_sum "Si O2"
_cell_formula_units_Z 32
_cell_length_a 11.931131
_cell_length_b 9.070444
_cell_length_c 33.985467
_cell_angle_alpha 90.000000
_cell_angle_beta 150.166861
_cell_angle_gamma 90.000000
_cell_volume 1829.680857
_symmetry_space_group_name_H-M "P 2/M"
_symmetry_group_IT_number 10
_symmetry_cell_setting 'monoclinic'
loop_
_space_group_symop_operation_xyz
x,y,z
-x,y,-z
-x,-y,-z
x,-y,z
loop_
_atom_site_type_symbol
_atom_site_label
_atom_site_fract_x
_atom_site_fract_y
_atom_site_fract_z
Si Si1 0.141181 0.823539 0.726097
Si Si2 0.987163 0.676711 0.821591
Si Si3 0.385597 0.826741 0.422406
Si Si4 0.656527 0.323700 0.137587
Si Si5 0.822633 0.176624 0.353940
Si Si6 0.737040 0.324318 0.474586
Si Si7 0.467164 0.323189 0.670173
Si Si8 0.685818 0.830717 0.021534
O O1 0.289844 0.741040 0.803502
O O2 0.191231 0.782401 0.696247
O O3 0.877817 0.791614 0.654318
O O4 0.171066 0.000000 0.739134
O O5 0.006245 0.500000 0.831653
O O6 0.724909 0.714672 0.738183
O O7 0.135357 0.717617 0.828387
O O8 0.099399 0.752938 0.893601
O O9 0.500000 0.808725 0.500000
O O10 0.517377 0.726167 0.431858
O O11 0.410046 0.000000 0.419033
O O12 0.641840 0.500000 0.133963
O O13 0.432517 0.255982 0.049910
O O14 0.619834 0.240574 0.317937
O O15 0.050509 0.242877 0.441895
O O16 0.831622 0.000000 0.359038
O O17 0.768103 0.500000 0.486904
O O18 0.692326 0.286674 0.415431
O O19 0.455114 0.500000 0.672369
O O20 0.731447 0.000000 0.024948
O O21 0.500000 0.829480 0.000000
#
# Coordination Sequence:
#
# PCOD9145949 Si02
#       8
#     4   4   4   4   4   4   4   4
#     4  10  21  36  53  74 106 141 175 219 265 310
#     4   9  18  34  54  78 111 141 169 211 262 313
#     4  10  19  35  54  74 105 140 173 213 265 316
#     4  10  19  32  54  83 111 140 174 208 256 318
#     4  11  23  39  55  73 101 141 185 224 267 315
#     4  11  22  36  55  79 106 136 177 225 270 316
#     4  10  22  38  54  76 106 138 176 225 270 309
#     4   9  17  30  51  80 112 141 171 207 254 310
#
# _framework density 17.489391000000001
#
# number of rings (size 3 to 8) (size 9 to 14) (size 15 to 20)
#    0.000    2.000    1.250    2.625    0.000    7.750 
#    0.000    0.000    0.000    0.750    0.000    5.250 
#    0.000    0.000    0.000    0.000    0.000    0.000 
#
# Total GULP energy -178666.107556 kJ/mol
# GULP energy per Si atom -5583.315861 kJ/mol
# Density = 1.744958 g / cm^3
# Si number density = 17.489391 Si / 1000 Ang^3
#
#
#
# Elastic Constant Matrix: (Units=GPa)
#
#
# Indices 1 2 3 4 5 6 
#
# 1 73.0727 31.5935 37.4855 0.0000 -12.8030 0.0000
# 2 31.5935 37.6518 45.4123 0.0000 -12.3396 0.0000
# 3 37.4855 45.4123 118.4040 0.0000 -27.5345 0.0000
# 4 0.0000 0.0000 0.0000 28.4599 0.0000 -5.9107
# 5 -12.8030 -12.3396 -27.5345 0.0000 16.8023 0.0000
# 6 0.0000 0.0000 0.0000 -5.9107 0.0000 23.3679
#
#
#
# Elastic Compliance Matrix: (Units=1/GPa)
#
#
# Indices 1 2 3 4 5 6 
#
# 1 0.021781 -0.018052 0.001300 0.000000 0.005470 0.000000
# 2 -0.018052 0.065136 -0.018325 0.000000 0.004051 0.000000
# 3 0.001300 -0.018325 0.019652 0.000000 0.019738 0.000000
# 4 0.000000 0.000000 0.000000 0.037085 0.000000 0.009380
# 5 0.005470 0.004051 0.019738 0.000000 0.099003 0.000000
# 6 0.000000 0.000000 0.000000 0.009380 0.000000 0.045166
#
#
# Mechanical properties :
#
#
# Convention : Reuss Voigt Hill
#
# Bulk Modulus (GPa) = 27.46075 50.90123 39.18099
# Shear Modulus (GPa) = 13.50923 21.36851 17.43887
#
# Velocity S-wave (km/s) = 2.78227 3.49922 3.16113
# Velocity P-wave (km/s) = 5.10459 6.74487 5.98122
#
# Compressibility (1/GPa) = 0.03641561
#
# Stress axis : x y z
#
# Youngs Moduli (GPa) = 45.91074 15.35253 50.88424
#
# Poissons Ratio (x) = 0.27714 -0.06613
# Poissons Ratio (y) = 0.82877 0.93245
# Poissons Ratio (z) = -0.05967 0.28134
#
# Static dielectric constant tensor:
#      x y z
#    x 1.585090 0.000000 0.003320 
#    y 0.000000 1.581910 0.000000 
#    z 0.003320 0.000000 1.579770 
# 
# From -- ./inp_files/95069.got.cif
#   From: 2010.05.17/outbox.cif.g08.bks.cpg/sg10_48_cif.got.tgz:95069.got - 2010.06.03 11:33:40.
