data_PCOD9145349
_publ_section_title
;
Structure prediction by ZEFSAII (Michael W. Deem and Ramdas Pophale) SiO2 
 PCOD9145349
Probable space group: P 2/M
;
_chemical_formula_sum "Si O2"
_cell_formula_units_Z 32
_cell_length_a 15.236122
_cell_length_b 17.127161
_cell_length_c 15.256980
_cell_angle_alpha 90.000000
_cell_angle_beta 148.819659
_cell_angle_gamma 90.000000
_cell_volume 2061.268936
_symmetry_space_group_name_H-M "P 2/M"
_symmetry_group_IT_number 10
_symmetry_cell_setting 'monoclinic'
loop_
_space_group_symop_operation_xyz
x,y,z
-x,y,-z
-x,-y,-z
x,-y,z
loop_
_atom_site_type_symbol
_atom_site_label
_atom_site_fract_x
_atom_site_fract_y
_atom_site_fract_z
Si Si1 0.621850 0.405462 0.525691
Si Si2 0.999492 0.636470 0.101914
Si Si3 0.438495 0.404564 0.723343
Si Si4 0.737922 0.091611 0.627390
Si Si5 0.624940 0.908319 0.735638
Si Si6 0.063232 0.404820 0.457433
Si Si7 0.791857 0.410366 0.085072
Si Si8 0.055940 0.818907 0.946963
O O1 0.500000 0.379316 0.500000
O O2 0.632823 0.500000 0.537686
O O3 0.552159 0.382842 0.371113
O O4 0.809781 0.373649 0.700765
O O5 0.875010 0.590132 0.059569
O O6 0.943445 0.726262 0.062171
O O7 0.000000 0.613014 0.000000
O O8 0.442375 0.500000 0.729411
O O9 0.255647 0.379382 0.603032
O O10 0.603949 0.375501 0.916302
O O11 0.572179 0.116208 0.430609
O O12 0.679710 0.096881 0.679779
O O13 0.907746 0.141750 0.763088
O O14 0.771418 0.000000 0.639309
O O15 0.636704 0.000000 0.769020
O O16 0.759994 0.857829 0.904686
O O17 0.067355 0.500000 0.455360
O O18 0.000000 0.383979 0.500000
O O19 0.929681 0.376173 0.270020
O O20 0.768526 0.500000 0.093677
O O21 0.000000 0.833896 0.000000
#
# Coordination Sequence:
#
# PCOD9145349 Si02
#       8
#     4   4   4   4   4   4   4   4
#     4  10  19  32  46  59  77 108 152 192 220 252
#     4  11  21  31  40  60  84 113 147 181 224 258
#     4   9  17  30  46  64  82 102 135 176 219 261
#     4   8  13  23  39  55  68  94 130 163 204 245
#     4   8  13  23  39  54  70  94 126 164 204 247
#     4   9  17  30  48  68  87 103 126 172 229 273
#     4  10  19  32  48  62  82 110 142 181 215 259
#     4   9  17  27  34  53  79 100 128 171 212 250
#
# _framework density 15.524417
#
# number of rings (size 3 to 8) (size 9 to 14) (size 15 to 20)
#    0.000    2.750    1.250    2.250    0.000    4.000 
#    9.000    2.500    0.000    0.000    0.000    0.000 
#    0.000    0.000    0.000    0.000    0.000    2.500 
#
# Total GULP energy -178168.252290 kJ/mol
# GULP energy per Si atom -5567.757884 kJ/mol
# Density = 1.548908 g / cm^3
# Si number density = 15.524417 Si / 1000 Ang^3
#
#
#
# Elastic Constant Matrix: (Units=GPa)
#
#
# Indices 1 2 3 4 5 6 
#
# 1 61.5469 2.0521 37.1903 0.0000 4.8561 0.0000
# 2 2.0521 11.9029 21.3640 0.0000 3.7476 0.0000
# 3 37.1903 21.3640 128.4522 0.0000 19.7832 0.0000
# 4 0.0000 0.0000 0.0000 1.7457 0.0000 -0.6990
# 5 4.8561 3.7476 19.7832 0.0000 16.8514 0.0000
# 6 0.0000 0.0000 0.0000 -0.6990 0.0000 -0.4857
#
#
#
# Elastic Compliance Matrix: (Units=1/GPa)
#
#
# Indices 1 2 3 4 5 6 
#
# 1 0.020533 0.010112 -0.007775 0.000000 0.000961 0.000000
# 2 0.010112 0.124963 -0.023172 0.000000 -0.003501 0.000000
# 3 -0.007775 -0.023172 0.015566 0.000000 -0.010880 0.000000
# 4 0.000000 0.000000 0.000000 0.363401 0.000000 -0.523048
# 5 0.000961 -0.003501 -0.010880 0.000000 0.072617 0.000000
# 6 0.000000 0.000000 0.000000 -0.523048 0.000000 -1.306247
#
#
# Mechanical properties :
#
#
# Convention : Reuss Voigt Hill
#
# Bulk Modulus (GPa) = 8.37582 35.90164 22.13873
# Shear Modulus (GPa) = -7.96558 13.04198 2.53820
#
# Velocity S-wave (km/s) = -2.26763 2.90158 1.28005
# Velocity P-wave (km/s) = 1.20383 5.86530 4.05909
#
# Compressibility (1/GPa) = 0.11939135
#
# Stress axis : x y z
#
# Youngs Moduli (GPa) = 48.70295 8.00236 64.24443
#
# Poissons Ratio (x) = -0.08092 0.49947
# Poissons Ratio (y) = -0.49247 1.48868
# Poissons Ratio (z) = 0.37865 0.18543
#
# Static dielectric constant tensor:
#      x y z
#    x 1.498240 0.000000 0.011370 
#    y 0.000000 1.510040 0.000000 
#    z 0.011370 0.000000 1.561770 
# 
# From -- ./inp_files/67728.got.cif
#   From: 2010.05.17/outbox.cif.g08.bks.cpg/sg10_34_cif.got.tgz:67728.got - 2010.06.03 11:33:40.
