data_PCOD9145097
_publ_section_title
;
Structure prediction by ZEFSAII (Michael W. Deem and Ramdas Pophale) SiO2 
 PCOD9145097
Probable space group: P 2/M
;
_chemical_formula_sum "Si O2"
_cell_formula_units_Z 32
_cell_length_a 26.090726
_cell_length_b 8.905332
_cell_length_c 19.302464
_cell_angle_alpha 90.000000
_cell_angle_beta 153.436276
_cell_angle_gamma 90.000000
_cell_volume 2005.598092
_symmetry_space_group_name_H-M "P 2/M"
_symmetry_group_IT_number 10
_symmetry_cell_setting 'monoclinic'
loop_
_space_group_symop_operation_xyz
x,y,z
-x,y,-z
-x,-y,-z
x,-y,z
loop_
_atom_site_type_symbol
_atom_site_label
_atom_site_fract_x
_atom_site_fract_y
_atom_site_fract_z
Si Si1 0.633482 0.819222 0.289673
Si Si2 0.374969 0.181776 0.011054
Si Si3 0.143724 0.675678 0.376210
Si Si4 0.978904 0.320147 0.554900
Si Si5 0.734955 0.819594 0.267929
Si Si6 0.992936 0.677066 0.070163
Si Si7 0.793889 0.319979 0.085020
Si Si8 0.908182 0.821846 0.098658
O O1 0.737522 0.745942 0.457452
O O2 0.651825 0.778845 0.231007
O O3 0.642664 0.000000 0.305711
O O4 0.508182 0.776065 0.164880
O O5 0.311443 0.230018 0.863062
O O6 0.312003 0.254167 0.000200
O O7 0.367790 0.000000 0.006579
O O8 0.138513 0.500000 0.388499
O O9 0.113586 0.689294 0.257780
O O10 0.033268 0.760121 0.274772
O O11 0.966732 0.500000 0.545583
O O12 0.860328 0.245680 0.433858
O O13 0.000000 0.281364 0.500000
O O14 0.091316 0.275901 0.733453
O O15 0.741845 0.000000 0.274400
O O16 0.962641 0.500000 0.033346
O O17 0.907498 0.765124 0.018145
O O18 0.000000 0.730113 0.000000
O O19 0.787980 0.500000 0.075042
O O20 0.813048 0.252276 0.032135
O O21 0.904738 0.000000 0.098533
#
# Coordination Sequence:
#
# PCOD9145097 Si02
#       8
#     4   4   4   4   4   4   4   4
#     4  10  20  34  50  69  95 129 167 211 255 295
#     4  10  21  35  49  66  92 128 172 216 255 294
#     4   9  18  32  50  75 102 131 163 194 238 291
#     4  10  20  33  47  65  91 122 159 206 257 302
#     4  10  20  33  50  69  90 123 167 211 256 303
#     4   8  16  32  52  77 109 137 159 188 231 286
#     4  11  21  34  49  67  95 129 166 206 251 300
#     4  10  19  31  50  76 104 130 159 195 239 289
#
# _framework density 15.95534
#
# number of rings (size 3 to 8) (size 9 to 14) (size 15 to 20)
#    0.750    1.500    1.250    2.625    0.000    6.000 
#    0.000    0.000    0.000    2.250    0.000    0.875 
#    0.000    7.000    0.000    0.000    0.000    0.000 
#
# Total GULP energy -178289.896025 kJ/mol
# GULP energy per Si atom -5571.559251 kJ/mol
# Density = 1.591902 g / cm^3
# Si number density = 15.955340 Si / 1000 Ang^3
#
#
#
# Elastic Constant Matrix: (Units=GPa)
#
#
# Indices 1 2 3 4 5 6 
#
# 1 148.0417 47.4057 45.6453 0.0000 10.6429 0.0000
# 2 47.4057 41.3557 19.8934 0.0000 6.4376 0.0000
# 3 45.6453 19.8934 34.5805 0.0000 11.9516 0.0000
# 4 0.0000 0.0000 0.0000 27.1065 0.0000 16.0239
# 5 10.6429 6.4376 11.9516 0.0000 27.6528 0.0000
# 6 0.0000 0.0000 0.0000 16.0239 0.0000 46.7208
#
#
#
# Elastic Compliance Matrix: (Units=1/GPa)
#
#
# Indices 1 2 3 4 5 6 
#
# 1 0.013918 -0.009798 -0.013721 0.000000 0.002855 0.000000
# 2 -0.009798 0.040339 -0.009794 0.000000 -0.001387 0.000000
# 3 -0.013721 -0.009794 0.058839 0.000000 -0.017870 0.000000
# 4 0.000000 0.000000 0.000000 0.046273 0.000000 -0.015870
# 5 0.002855 -0.001387 -0.017870 0.000000 0.043110 0.000000
# 6 0.000000 0.000000 0.000000 -0.015870 0.000000 0.026847
#
#
# Mechanical properties :
#
#
# Convention : Reuss Voigt Hill
#
# Bulk Modulus (GPa) = 21.51895 49.98518 35.75206
# Shear Modulus (GPa) = 16.05440 27.69828 21.87634
#
# Velocity S-wave (km/s) = 3.17552 4.17104 3.70685
# Velocity P-wave (km/s) = 5.19245 7.38870 6.38570
#
# Compressibility (1/GPa) = 0.04647068
#
# Stress axis : x y z
#
# Youngs Moduli (GPa) = 71.85138 24.79013 16.99539
#
# Poissons Ratio (x) = 0.24289 0.23319
# Poissons Ratio (y) = 0.70398 0.16645
# Poissons Ratio (z) = 0.98587 0.24279
#
# Static dielectric constant tensor:
#      x y z
#    x 1.549560 0.000000 -0.015800 
#    y 0.000000 1.531400 0.000000 
#    z -0.015800 0.000000 1.516890 
# 
# From -- ./inp_files/56432.got.cif
#   From: 2010.05.17/outbox.cif.g08.bks.cpg/sg10_29_cif.got.tgz:56432.got - 2010.06.03 11:33:40.
