data_PCOD9145466
_publ_section_title
;
Structure prediction by ZEFSAII (Michael W. Deem and Ramdas Pophale) SiO2 
 PCOD9145466
Probable space group: P 2/M
;
_chemical_formula_sum "Si O2"
_cell_formula_units_Z 32
_cell_length_a 32.890173
_cell_length_b 7.568559
_cell_length_c 12.551366
_cell_angle_alpha 90.000000
_cell_angle_beta 28.804470
_cell_angle_gamma 90.000000
_cell_volume 1505.417684
_symmetry_space_group_name_H-M "P 2/M"
_symmetry_group_IT_number 10
_symmetry_cell_setting 'monoclinic'
loop_
_space_group_symop_operation_xyz
x,y,z
-x,y,-z
-x,-y,-z
x,-y,z
loop_
_atom_site_type_symbol
_atom_site_label
_atom_site_fract_x
_atom_site_fract_y
_atom_site_fract_z
Si Si1 0.403500 0.785815 0.205730
Si Si2 0.232548 0.795831 0.188708
Si Si3 0.521140 0.714584 0.572801
Si Si4 0.754309 0.708204 0.295754
Si Si5 0.642285 0.794685 0.920277
Si Si6 0.290250 0.292093 0.824725
Si Si7 0.918569 0.713324 0.323911
Si Si8 0.889239 0.715765 0.154583
O O1 0.340694 0.730185 0.443345
O O2 0.405149 0.000000 0.198512
O O3 0.500000 0.726372 0.000000
O O4 0.364887 0.719288 0.182089
O O5 0.138502 0.779661 0.449237
O O6 0.256943 0.000000 0.122995
O O7 0.293428 0.714786 0.140481
O O8 0.246111 0.721835 0.040196
O O9 0.500000 0.765349 0.500000
O O10 0.518742 0.500000 0.582833
O O11 0.450092 0.783499 0.815281
O O12 0.614734 0.779381 0.384723
O O13 0.774658 0.500000 0.244973
O O14 0.757994 0.781480 0.167447
O O15 0.818305 0.782698 0.236971
O O16 0.666615 0.000000 0.851448
O O17 0.300682 0.500000 0.779359
O O18 0.916653 0.500000 0.330769
O O19 0.879778 0.772345 0.299229
O O20 0.016550 0.766334 0.098761
O O21 0.887339 0.500000 0.161767
#
# Coordination Sequence:
#
# PCOD9145466 Si02
#       8
#     4   4   4   4   4   4   4   4
#     4  10  21  36  52  74 107 141 171 206 252 307
#     4  11  22  34  50  76 106 134 171 214 254 299
#     4  10  19  32  50  72  99 132 174 217 253 294
#     4  10  20  35  56  79 103 132 173 216 253 300
#     4  10  21  34  50  74 103 136 172 210 255 305
#     4  10  21  36  52  73 102 137 174 213 256 301
#     4   9  17  33  58  81 105 132 162 204 257 311
#     4   8  16  33  57  84 105 129 165 206 255 310
#
# _framework density 21.256558999999999
#
# number of rings (size 3 to 8) (size 9 to 14) (size 15 to 20)
#    0.000    2.250    1.250    2.625    0.000    2.500 
#    0.000    2.500    0.000    3.750    0.000    0.000 
#    0.000    0.000    0.000    0.000    0.000    0.000 
#
# Total GULP energy -178722.729791 kJ/mol
# GULP energy per Si atom -5585.085306 kJ/mol
# Density = 2.120818 g / cm^3
# Si number density = 21.256559 Si / 1000 Ang^3
#
#
#
# Elastic Constant Matrix: (Units=GPa)
#
#
# Indices 1 2 3 4 5 6 
#
# 1 129.8226 4.6072 37.6143 0.0000 3.8678 0.0000
# 2 4.6072 46.9038 -17.7133 0.0000 -4.4204 0.0000
# 3 37.6143 -17.7133 84.9720 0.0000 8.9621 0.0000
# 4 0.0000 0.0000 0.0000 24.1767 0.0000 2.3957
# 5 3.8678 -4.4204 8.9621 0.0000 32.4324 0.0000
# 6 0.0000 0.0000 0.0000 2.3957 0.0000 -3.5780
#
#
#
# Elastic Compliance Matrix: (Units=1/GPa)
#
#
# Indices 1 2 3 4 5 6 
#
# 1 0.009126 -0.002640 -0.004571 0.000000 -0.000185 0.000000
# 2 -0.002640 0.024017 0.005971 0.000000 0.001938 0.000000
# 3 -0.004571 0.005971 0.015340 0.000000 -0.002880 0.000000
# 4 0.000000 0.000000 0.000000 0.038789 0.000000 0.025971
# 5 -0.000185 0.001938 -0.002880 0.000000 0.031916 0.000000
# 6 0.000000 0.000000 0.000000 0.025971 0.000000 -0.262094
#
#
# Mechanical properties :
#
#
# Convention : Reuss Voigt Hill
#
# Bulk Modulus (GPa) = 21.73724 34.52384 28.13054
# Shear Modulus (GPa) = -39.97071 26.41889 -6.77591
#
# Velocity S-wave (km/s) = -4.34106 3.52924 -1.78734
# Velocity P-wave (km/s) = 3.85720 5.73447 3.00051
#
# Compressibility (1/GPa) = 0.04600401
#
# Stress axis : x y z
#
# Youngs Moduli (GPa) = 109.57294 41.63689 65.18747
#
# Poissons Ratio (x) = 0.10992 0.29796
# Poissons Ratio (y) = 0.28928 -0.38923
# Poissons Ratio (z) = 0.50083 -0.24861
#
# Static dielectric constant tensor:
#      x y z
#    x 1.800840 0.000000 -0.012520 
#    y 0.000000 1.795440 0.000000 
#    z -0.012520 0.000000 1.716570 
# 
# From -- ./inp_files/58203.got.cif
#   From: 2010.05.17/outbox.cif.g08.bks.cpg/sg10_30_cif.got.tgz:58203.got - 2010.06.03 11:33:40.
