data_PCOD9145346
_publ_section_title
;
Structure prediction by ZEFSAII (Michael W. Deem and Ramdas Pophale) SiO2 
 PCOD9145346
Probable space group: P 2/M
;
_chemical_formula_sum "Si O2"
_cell_formula_units_Z 24
_cell_length_a 22.016631
_cell_length_b 13.941917
_cell_length_c 22.093385
_cell_angle_alpha 90.000000
_cell_angle_beta 166.610801
_cell_angle_gamma 90.000000
_cell_volume 1570.390403
_symmetry_space_group_name_H-M "P 2/M"
_symmetry_group_IT_number 10
_symmetry_cell_setting 'monoclinic'
loop_
_space_group_symop_operation_xyz
x,y,z
-x,y,-z
-x,-y,-z
x,-y,z
loop_
_atom_site_type_symbol
_atom_site_label
_atom_site_fract_x
_atom_site_fract_y
_atom_site_fract_z
Si Si1 0.723958 0.500000 0.267617
Si Si2 0.171210 0.115921 0.424441
Si Si3 0.709356 0.115909 0.886592
Si Si4 0.424895 0.707673 0.855829
Si Si5 0.225674 0.000000 0.768671
Si Si6 0.939550 0.190763 0.324261
Si Si7 0.726666 0.116956 0.765153
O O1 0.676901 0.599938 0.256053
O O2 0.000000 0.500000 0.500000
O O3 0.500000 0.500000 0.000000
O O4 0.462681 0.146262 0.687985
O O5 0.064113 0.166699 0.380307
O O6 0.167987 0.000000 0.431364
O O7 0.978546 0.137538 0.181705
O O8 0.698450 0.150597 0.806889
O O9 0.691952 0.000000 0.866626
O O10 0.179720 0.774623 0.599820
O O11 0.500000 0.716336 0.000000
O O12 0.696715 0.735099 0.086559
O O13 0.000000 0.000000 0.500000
O O14 0.188366 0.094233 0.772872
O O15 0.500000 0.000000 0.000000
O O16 0.500000 0.148352 0.500000
O O17 0.719603 0.000000 0.760244
O O18 0.000000 0.144532 0.000000
#
# Coordination Sequence:
#
# PCOD9145346 Si02
#       7
#     2   4   4   4   2   4   4
#     4  10  20  36  56  74  90 108 134 180 236 292
#     4  10  19  32  43  58  84 117 156 184 213 254
#     4   9  17  27  42  56  77 113 148 186 225 256
#     4  11  22  36  54  71  90 110 143 185 240 285
#     4  12  24  34  46  64  90 118 146 184 230 268
#     4  12  22  35  49  68  91 120 151 188 221 275
#     4   9  15  23  36  56  78  99 135 187 235 261
#
# _framework density 15.282824
#
# number of rings (size 3 to 8) (size 9 to 14) (size 15 to 20)
#    0.000    1.667    0.833    7.000    0.000    4.000 
#    0.000    0.000    0.000    0.000    0.000    0.000 
#    0.000    0.000    0.000    0.000    0.000    0.000 
#
# Total GULP energy -133887.702438 kJ/mol
# GULP energy per Si atom -5578.654268 kJ/mol
# Density = 1.524804 g / cm^3
# Si number density = 15.282824 Si / 1000 Ang^3
#
#
#
# Elastic Constant Matrix: (Units=GPa)
#
#
# Indices 1 2 3 4 5 6 
#
# 1 58.6072 18.3651 2.6816 0.0000 4.9455 0.0000
# 2 18.3651 47.1294 16.6446 0.0000 0.0974 0.0000
# 3 2.6816 16.6446 84.9311 0.0000 9.5351 0.0000
# 4 0.0000 0.0000 0.0000 14.1577 0.0000 5.8963
# 5 4.9455 0.0974 9.5351 0.0000 22.2414 0.0000
# 6 0.0000 0.0000 0.0000 5.8963 0.0000 6.3228
#
#
#
# Elastic Compliance Matrix: (Units=1/GPa)
#
#
# Indices 1 2 3 4 5 6 
#
# 1 0.020039 -0.008355 0.001577 0.000000 -0.005095 0.000000
# 2 -0.008355 0.026357 -0.005355 0.000000 0.004038 0.000000
# 3 0.001577 -0.005355 0.013458 0.000000 -0.006097 0.000000
# 4 0.000000 0.000000 0.000000 0.115484 0.000000 -0.107692
# 5 -0.005095 0.004038 -0.006097 0.000000 0.048690 0.000000
# 6 0.000000 0.000000 0.000000 -0.107692 0.000000 0.258584
#
#
# Mechanical properties :
#
#
# Convention : Reuss Voigt Hill
#
# Bulk Modulus (GPa) = 28.09966 29.56115 28.83040
# Shear Modulus (GPa) = 9.63874 18.74282 14.19078
#
# Velocity S-wave (km/s) = 2.51408 3.50579 3.05051
# Velocity P-wave (km/s) = 5.18207 5.98098 5.59580
#
# Compressibility (1/GPa) = 0.03558762
#
# Stress axis : x y z
#
# Youngs Moduli (GPa) = 49.90369 37.94110 74.30302
#
# Poissons Ratio (x) = 0.31699 -0.11715
# Poissons Ratio (y) = 0.41694 0.39788
# Poissons Ratio (z) = -0.07868 0.20317
#
# Static dielectric constant tensor:
#      x y z
#    x 1.502280 0.000000 0.000730 
#    y 0.000000 1.521410 0.000000 
#    z 0.000730 0.000000 1.513450 
# 
# From -- ./inp_files/81029.got.cif
#   From: 2010.05.17/outbox.cif.g08.bks.cpg/sg10_41_cif.got.tgz:81029.got - 2010.06.03 11:33:40.
