data_PCOD9145164
_publ_section_title
;
Structure prediction by ZEFSAII (Michael W. Deem and Ramdas Pophale) SiO2 
 PCOD9145164
Probable space group: P 2/M
;
_chemical_formula_sum "Si O2"
_cell_formula_units_Z 24
_cell_length_a 20.238273
_cell_length_b 7.875724
_cell_length_c 23.620884
_cell_angle_alpha 90.000000
_cell_angle_beta 16.210123
_cell_angle_gamma 90.000000
_cell_volume 1051.028436
_symmetry_space_group_name_H-M "P 2/M"
_symmetry_group_IT_number 10
_symmetry_cell_setting 'monoclinic'
loop_
_space_group_symop_operation_xyz
x,y,z
-x,y,-z
-x,-y,-z
x,-y,z
loop_
_atom_site_type_symbol
_atom_site_label
_atom_site_fract_x
_atom_site_fract_y
_atom_site_fract_z
Si Si1 0.982095 0.691252 0.712355
Si Si2 0.452671 0.688804 0.196653
Si Si3 0.295706 0.808749 0.898746
Si Si4 0.644636 0.811193 0.504693
Si Si5 0.130138 0.000000 0.268898
Si Si6 0.332391 0.000000 0.224333
Si Si7 0.033995 0.500000 0.066968
Si Si8 0.394519 0.500000 0.662206
O O1 0.062608 0.500000 0.631830
O O2 0.125191 0.756206 0.649186
O O3 0.996483 0.832336 0.651600
O O4 0.707755 0.681240 0.955397
O O5 0.348384 0.500000 0.280794
O O6 0.527695 0.743798 0.197925
O O7 0.310791 0.832889 0.280439
O O8 0.444882 0.818752 0.718281
O O9 0.215138 0.000000 0.979298
O O10 0.095856 0.667663 0.052226
O O11 0.554139 0.667114 0.537095
O O12 0.668325 0.000000 0.460855
O O13 0.168998 0.000000 0.303746
O O14 0.395811 0.000000 0.023210
O O15 0.778018 0.500000 0.249236
O O16 0.219727 0.500000 0.861250
#
# Coordination Sequence:
#
# PCOD9145164 Si02
#       8
#     4   4   4   4   2   2   2   2
#     4  10  19  31  51  76  99 129 166 203 244 292
#     4  10  19  31  51  76  99 129 166 203 244 292
#     4  10  19  31  51  76  99 129 166 203 244 292
#     4  10  19  31  51  76  99 129 166 203 244 292
#     4   9  18  32  49  73 104 131 160 204 251 291
#     4   9  18  32  49  73 104 131 160 204 251 291
#     4   9  18  32  49  73 104 131 160 204 251 291
#     4   9  18  32  49  73 104 131 160 204 251 291
#
# _framework density 22.834778
#
# number of rings (size 3 to 8) (size 9 to 14) (size 15 to 20)
#    0.000    2.333    3.333    0.000    0.000    1.333 
#    0.000    6.667    0.000    4.000    0.000    4.667 
#    0.000    0.000    0.000    0.000    0.000    0.000 
#
# Total GULP energy -134289.875676 kJ/mol
# GULP energy per Si atom -5595.411487 kJ/mol
# Density = 2.278280 g / cm^3
# Si number density = 22.834778 Si / 1000 Ang^3
#
#
#
# Elastic Constant Matrix: (Units=GPa)
#
#
# Indices 1 2 3 4 5 6 
#
# 1 120.9953 90.8383 35.7839 0.0000 -28.8503 0.0000
# 2 90.8383 267.5748 44.1254 0.0000 -40.2118 0.0000
# 3 35.7839 44.1254 73.8524 0.0000 -11.7212 0.0000
# 4 0.0000 0.0000 0.0000 18.7222 0.0000 -11.3021
# 5 -28.8503 -40.2118 -11.7212 0.0000 40.5855 0.0000
# 6 0.0000 0.0000 0.0000 -11.3021 0.0000 31.8478
#
#
#
# Elastic Compliance Matrix: (Units=1/GPa)
#
#
# Indices 1 2 3 4 5 6 
#
# 1 0.012782 -0.002980 -0.003605 0.000000 0.005093 0.000000
# 2 -0.002980 0.005395 -0.001329 0.000000 0.002844 0.000000
# 3 -0.003605 -0.001329 0.016208 0.000000 0.000802 0.000000
# 4 0.000000 0.000000 0.000000 0.067975 0.000000 0.024123
# 5 0.005093 0.002844 0.000802 0.000000 0.031309 0.000000
# 6 0.000000 0.000000 0.000000 0.024123 0.000000 0.039960
#
#
# Mechanical properties :
#
#
# Convention : Reuss Voigt Hill
#
# Bulk Modulus (GPa) = 53.87955 89.32420 71.60187
# Shear Modulus (GPa) = 25.55681 37.67607 31.61644
#
# Velocity S-wave (km/s) = 3.34908 4.06636 3.72502
# Velocity P-wave (km/s) = 6.21303 7.82621 7.06581
#
# Compressibility (1/GPa) = 0.01855992
#
# Stress axis : x y z
#
# Youngs Moduli (GPa) = 78.23368 185.34788 61.69685
#
# Poissons Ratio (x) = 0.55225 0.22241
# Poissons Ratio (y) = 0.23310 0.08197
# Poissons Ratio (z) = 0.28202 0.24624
#
# Static dielectric constant tensor:
#      x y z
#    x 1.806520 0.000000 0.084810 
#    y 0.000000 1.825960 0.000000 
#    z 0.084810 0.000000 1.905000 
# 
# From -- ./inp_files/31212.got.cif
#   From: 2010.05.17/outbox.cif.g08.bks.cpg/sg10_16_cif.got.tgz:31212.got - 2010.06.03 11:33:40.
