data_PCOD9145223
_publ_section_title
;
Structure prediction by ZEFSAII (Michael W. Deem and Ramdas Pophale) SiO2 
 PCOD9145223
Probable space group: P 2/M
;
_chemical_formula_sum "Si O2"
_cell_formula_units_Z 32
_cell_length_a 10.668681
_cell_length_b 9.300461
_cell_length_c 30.047651
_cell_angle_alpha 90.000000
_cell_angle_beta 27.761333
_cell_angle_gamma 90.000000
_cell_volume 1388.722533
_symmetry_space_group_name_H-M "P 2/M"
_symmetry_group_IT_number 10
_symmetry_cell_setting 'monoclinic'
loop_
_space_group_symop_operation_xyz
x,y,z
-x,y,-z
-x,-y,-z
x,-y,z
loop_
_atom_site_type_symbol
_atom_site_label
_atom_site_fract_x
_atom_site_fract_y
_atom_site_fract_z
Si Si1 0.515335 0.834301 0.366445
Si Si2 0.673495 0.669421 0.856599
Si Si3 0.278356 0.332992 0.517522
Si Si4 0.015417 0.165528 0.314209
Si Si5 0.446033 0.162496 0.795184
Si Si6 0.101711 0.161457 0.137613
Si Si7 0.853789 0.835753 0.983259
Si Si8 0.725353 0.663868 0.634972
O O1 0.494104 0.747451 0.419041
O O2 0.307472 0.766075 0.396735
O O3 0.801620 0.825303 0.251724
O O4 0.451597 0.000000 0.395354
O O5 0.696167 0.500000 0.845178
O O6 0.898804 0.749211 0.756495
O O7 0.721060 0.723586 0.891868
O O8 0.382837 0.725997 0.932115
O O9 0.343403 0.500000 0.504780
O O10 0.195102 0.249224 0.588383
O O11 0.006738 0.329161 0.572527
O O12 0.298024 0.161941 0.252982
O O13 0.935350 0.000000 0.330571
O O14 0.507475 0.281757 0.739158
O O15 0.153491 0.187474 0.908106
O O16 0.433664 0.000000 0.778980
O O17 0.103453 0.173302 0.083954
O O18 0.200327 0.000000 0.118246
O O19 0.768108 0.000000 0.020810
O O20 0.678883 0.500000 0.635192
#
# Coordination Sequence:
#
# PCOD9145223 Si02
#       8
#     4   4   4   4   4   4   4   4
#     4  11  21  35  57  86 116 152 198 242 285 342
#     4  12  26  41  59  85 117 154 197 243 293 351
#     4  10  21  36  55  85 122 157 191 234 290 346
#     4  10  21  40  64  86 115 156 201 242 284 340
#     4   9  18  35  60  89 117 151 194 239 287 343
#     4  10  22  41  63  86 116 152 195 246 292 339
#     4  10  20  39  64  89 118 150 190 241 295 348
#     4  10  19  31  51  82 123 160 188 228 289 349
#
# _framework density 23.042760000000001
#
# number of rings (size 3 to 8) (size 9 to 14) (size 15 to 20)
#    0.000    1.750    1.250    3.375    0.000    7.500 
#    0.000    3.125    0.000    3.750    0.000    0.000 
#    0.000    0.000    0.000    0.000    0.000    0.000 
#
# Total GULP energy -179142.895537 kJ/mol
# GULP energy per Si atom -5598.215486 kJ/mol
# Density = 2.299031 g / cm^3
# Si number density = 23.042760 Si / 1000 Ang^3
#
#
#
# Elastic Constant Matrix: (Units=GPa)
#
#
# Indices 1 2 3 4 5 6 
#
# 1 77.7390 33.8712 10.5680 0.0000 -0.9675 0.0000
# 2 33.8712 160.6759 63.1882 0.0000 5.3347 0.0000
# 3 10.5680 63.1882 119.8588 0.0000 7.1898 0.0000
# 4 0.0000 0.0000 0.0000 9.7538 0.0000 5.4951
# 5 -0.9675 5.3347 7.1898 0.0000 36.7159 0.0000
# 6 0.0000 0.0000 0.0000 5.4951 0.0000 3.1815
#
#
#
# Elastic Compliance Matrix: (Units=1/GPa)
#
#
# Indices 1 2 3 4 5 6 
#
# 1 0.014202 -0.003165 0.000371 0.000000 0.000761 0.000000
# 2 -0.003165 0.008561 -0.004204 0.000000 -0.000504 0.000000
# 3 0.000371 -0.004204 0.010614 0.000000 -0.001458 0.000000
# 4 0.000000 0.000000 0.000000 3.810036 0.000000 -6.580803
# 5 0.000761 -0.000504 -0.001458 0.000000 0.027615 0.000000
# 6 0.000000 0.000000 0.000000 -6.580803 0.000000 11.680870
#
#
# Mechanical properties :
#
#
# Convention : Reuss Voigt Hill
#
# Bulk Modulus (GPa) = 51.59851 63.72539 57.66195
# Shear Modulus (GPa) = 0.32108 26.63999 13.48053
#
# Velocity S-wave (km/s) = 0.37369 3.40385 2.42135
# Velocity P-wave (km/s) = 4.75682 6.56990 5.73546
#
# Compressibility (1/GPa) = 0.01938041
#
# Stress axis : x y z
#
# Youngs Moduli (GPa) = 70.41486 116.81098 94.21356
#
# Poissons Ratio (x) = 0.36968 -0.03491
# Poissons Ratio (y) = 0.22285 0.39606
# Poissons Ratio (z) = -0.02610 0.49106
#
# Static dielectric constant tensor:
#      x y z
#    x 1.919070 0.000000 -0.009100 
#    y 0.000000 1.782120 0.000000 
#    z -0.009100 0.000000 1.866420 
# 
# From -- ./inp_files/71591.got.cif
#   From: 2010.05.17/outbox.cif.g08.bks.cpg/sg10_36_cif.got.tgz:71591.got - 2010.06.03 11:33:40.
