data_PCOD9145631
_publ_section_title
;
Structure prediction by ZEFSAII (Michael W. Deem and Ramdas Pophale) SiO2 
 PCOD9145631
Probable space group: P 2/M
;
_chemical_formula_sum "Si O2"
_cell_formula_units_Z 32
_cell_length_a 7.318841
_cell_length_b 22.821085
_cell_length_c 11.209078
_cell_angle_alpha 90.000000
_cell_angle_beta 140.846852
_cell_angle_gamma 90.000000
_cell_volume 1182.088269
_symmetry_space_group_name_H-M "P 2/M"
_symmetry_group_IT_number 10
_symmetry_cell_setting 'monoclinic'
loop_
_space_group_symop_operation_xyz
x,y,z
-x,y,-z
-x,-y,-z
x,-y,z
loop_
_atom_site_type_symbol
_atom_site_label
_atom_site_fract_x
_atom_site_fract_y
_atom_site_fract_z
Si Si1 0.176598 0.564392 0.774475
Si Si2 0.157078 0.815421 0.817416
Si Si3 0.348426 0.314416 0.294328
Si Si4 0.656326 0.935964 0.816985
Si Si5 0.165799 0.690142 0.798612
Si Si6 0.257902 0.561626 0.224667
Si Si7 0.357005 0.810890 0.295429
Si Si8 0.861649 0.061915 0.297417
O O1 0.170477 0.500000 0.711036
O O2 0.131938 0.630940 0.705110
O O3 0.911833 0.562588 0.735873
O O4 0.500000 0.565997 0.000000
O O5 0.079356 0.754992 0.709166
O O6 0.050835 0.877210 0.714134
O O7 0.988757 0.810788 0.856666
O O8 0.500000 0.818223 0.000000
O O9 0.500000 0.313211 0.500000
O O10 0.420858 0.378096 0.280515
O O11 0.420553 0.252688 0.269188
O O12 0.011900 0.316809 0.166041
O O13 0.562211 0.873510 0.716279
O O14 0.483217 0.937270 0.853529
O O15 0.582761 0.000000 0.722424
O O16 0.000000 0.934719 0.000000
O O17 0.500000 0.694400 0.000000
O O18 0.422561 0.500000 0.300775
O O19 0.000000 0.559661 0.000000
O O20 0.500000 0.808827 0.500000
O O21 0.000000 0.060689 0.500000
O O22 0.940949 0.000000 0.277786
#
# Coordination Sequence:
#
# PCOD9145631 Si02
#       8
#     4   4   4   4   4   4   4   4
#     4   8  13  24  44  67  91 122 158 194 232 276
#     4  10  19  32  52  74  96 124 162 206 241 277
#     4   9  18  31  47  71 101 129 160 202 248 289
#     4  10  21  36  52  73 102 130 159 201 249 294
#     4   8  15  28  46  68  95 122 158 199 235 276
#     4   9  17  29  46  71 100 128 162 203 243 286
#     4  10  20  34  52  73  98 130 167 203 240 291
#     4  10  21  36  52  72 100 130 158 194 244 297
#
# _framework density 27.070736
#
# number of rings (size 3 to 8) (size 9 to 14) (size 15 to 20)
#    0.000    2.750    0.000    1.500    0.000    1.750 
#    0.000    3.750    0.000    0.000    0.000    6.125 
#    0.000   46.500    0.000    0.000    0.000    0.000 
#
# Total GULP energy -178563.127941 kJ/mol
# GULP energy per Si atom -5580.097748 kJ/mol
# Density = 2.700912 g / cm^3
# Si number density = 27.070736 Si / 1000 Ang^3
#
#
#
# Elastic Constant Matrix: (Units=GPa)
#
#
# Indices 1 2 3 4 5 6 
#
# 1 84.1401 23.2106 14.3187 0.0000 20.4962 0.0000
# 2 23.2106 424.9550 29.0551 0.0000 -21.5357 0.0000
# 3 14.3187 29.0551 65.7759 0.0000 12.9177 0.0000
# 4 0.0000 0.0000 0.0000 -0.1547 0.0000 13.8557
# 5 20.4962 -21.5357 12.9177 0.0000 34.3487 0.0000
# 6 0.0000 0.0000 0.0000 13.8557 0.0000 -22.8673
#
#
#
# Elastic Compliance Matrix: (Units=1/GPa)
#
#
# Indices 1 2 3 4 5 6 
#
# 1 0.014587 -0.001202 -0.000850 0.000000 -0.009138 0.000000
# 2 -0.001202 0.002671 -0.001499 0.000000 0.002955 0.000000
# 3 -0.000850 -0.001499 0.017422 0.000000 -0.006984 0.000000
# 4 0.000000 0.000000 0.000000 0.121347 0.000000 0.073527
# 5 -0.009138 0.002955 -0.006984 0.000000 0.039046 0.000000
# 6 0.000000 0.000000 0.000000 0.073527 0.000000 0.000821
#
#
# Mechanical properties :
#
#
# Convention : Reuss Voigt Hill
#
# Bulk Modulus (GPa) = 36.25922 78.67109 57.46516
# Shear Modulus (GPa) = 23.56405 36.15111 29.85758
#
# Velocity S-wave (km/s) = 2.95356 3.65832 3.32467
# Velocity P-wave (km/s) = 5.00547 6.85338 6.00098
#
# Compressibility (1/GPa) = 0.02757919
#
# Stress axis : x y z
#
# Youngs Moduli (GPa) = 68.55377 374.38209 57.39913
#
# Poissons Ratio (x) = 0.44990 0.04879
# Poissons Ratio (y) = 0.08238 0.08602
# Poissons Ratio (z) = 0.05827 0.56109
#
# Static dielectric constant tensor:
#      x y z
#    x 2.172430 0.000000 0.062900 
#    y 0.000000 2.192520 0.000000 
#    z 0.062900 0.000000 2.254200 
# 
# From -- ./inp_files/62503.got.cif
#   From: 2010.05.17/outbox.cif.g08.bks.cpg/sg10_32_cif.got.tgz:62503.got - 2010.06.03 11:33:40.
