data_PCOD9145937
_publ_section_title
;
Structure prediction by ZEFSAII (Michael W. Deem and Ramdas Pophale) SiO2 
 PCOD9145937
Probable space group: P 2/M
;
_chemical_formula_sum "Si O2"
_cell_formula_units_Z 32
_cell_length_a 9.337801
_cell_length_b 10.783654
_cell_length_c 23.079014
_cell_angle_alpha 90.000000
_cell_angle_beta 44.821832
_cell_angle_gamma 90.000000
_cell_volume 1638.166776
_symmetry_space_group_name_H-M "P 2/M"
_symmetry_group_IT_number 10
_symmetry_cell_setting 'monoclinic'
loop_
_space_group_symop_operation_xyz
x,y,z
-x,y,-z
-x,-y,-z
x,-y,z
loop_
_atom_site_type_symbol
_atom_site_label
_atom_site_fract_x
_atom_site_fract_y
_atom_site_fract_z
Si Si1 0.995309 0.135903 0.258975
Si Si2 0.337553 0.645777 0.374686
Si Si3 0.553595 0.134924 0.917727
Si Si4 0.091732 0.357842 0.914802
Si Si5 0.822224 0.354492 0.235854
Si Si6 0.325629 0.643338 0.508465
Si Si7 0.108674 0.715954 0.329089
Si Si8 0.512342 0.633615 0.852832
O O1 0.205308 0.135480 0.162754
O O2 0.056693 0.159962 0.308192
O O3 0.875548 0.255677 0.270060
O O4 0.897958 0.000000 0.279890
O O5 0.270840 0.500000 0.388995
O O6 0.579787 0.647988 0.296485
O O7 0.303286 0.694115 0.449800
O O8 0.217774 0.720706 0.359970
O O9 0.474144 0.252717 0.906125
O O10 0.477360 0.000000 0.918369
O O11 0.500000 0.145168 0.000000
O O12 0.012607 0.500000 0.936021
O O13 0.069421 0.312226 0.855479
O O14 0.332133 0.363485 0.858029
O O15 0.000000 0.299376 0.000000
O O16 0.875688 0.500000 0.232789
O O17 0.500000 0.698742 0.500000
O O18 0.387283 0.500000 0.480871
O O19 0.106446 0.649390 0.600822
O O20 0.272685 0.648446 0.240817
O O21 0.505646 0.500000 0.884734
#
# Coordination Sequence:
#
# PCOD9145937 Si02
#       8
#     4   4   4   4   4   4   4   4
#     4  10  23  40  57  80 113 152 191 237 288 338
#     4  10  19  33  56  88 120 148 185 234 283 334
#     4   9  20  37  53  71 104 146 187 233 282 331
#     4   9  18  32  51  79 116 147 178 230 290 337
#     4  10  20  36  59  85 113 149 191 235 285 342
#     4  10  20  32  52  86 122 151 184 229 281 336
#     4  11  20  35  57  78 113 154 189 227 281 338
#     4  10  19  32  54  82 109 142 185 232 279 330
#
# _framework density 19.534030999999999
#
# number of rings (size 3 to 8) (size 9 to 14) (size 15 to 20)
#    0.000    2.125    1.250    2.250    1.750    5.250 
#    0.000    1.250    0.000    5.625    0.000    0.000 
#    0.000    0.000    0.000    0.000    0.000    0.000 
#
# Total GULP energy -178257.839978 kJ/mol
# GULP energy per Si atom -5570.557499 kJ/mol
# Density = 1.948957 g / cm^3
# Si number density = 19.534031 Si / 1000 Ang^3
#
#
#
# Elastic Constant Matrix: (Units=GPa)
#
#
# Indices 1 2 3 4 5 6 
#
# 1 97.3854 50.6952 34.4135 0.0000 17.7088 0.0000
# 2 50.6952 101.4214 23.6645 0.0000 22.4552 0.0000
# 3 34.4135 23.6645 88.1858 0.0000 18.7587 0.0000
# 4 0.0000 0.0000 0.0000 -13.6467 0.0000 -23.4244
# 5 17.7088 22.4552 18.7587 0.0000 31.8184 0.0000
# 6 0.0000 0.0000 0.0000 -23.4244 0.0000 32.3740
#
#
#
# Elastic Compliance Matrix: (Units=1/GPa)
#
#
# Indices 1 2 3 4 5 6 
#
# 1 0.015253 -0.006335 -0.003885 0.000000 -0.001728 0.000000
# 2 -0.006335 0.014513 0.000007 0.000000 -0.006720 0.000000
# 3 -0.003885 0.000007 0.014172 0.000000 -0.006198 0.000000
# 4 0.000000 0.000000 0.000000 -0.032684 0.000000 -0.023649
# 5 -0.001728 -0.006720 -0.006198 0.000000 0.040787 0.000000
# 6 0.000000 0.000000 0.000000 -0.023649 0.000000 0.013778
#
#
# Mechanical properties :
#
#
# Convention : Reuss Voigt Hill
#
# Bulk Modulus (GPa) = 42.52983 56.05990 49.29486
# Shear Modulus (GPa) = 53.14507 21.99044 37.56776
#
# Velocity S-wave (km/s) = 5.22163 3.35886 4.39018
# Velocity P-wave (km/s) = 7.62715 6.61842 7.14062
#
# Compressibility (1/GPa) = 0.02351291
#
# Stress axis : x y z
#
# Youngs Moduli (GPa) = 65.55892 68.90477 70.56056
#
# Poissons Ratio (x) = 0.43654 0.27411
# Poissons Ratio (y) = 0.41534 -0.00052
# Poissons Ratio (z) = 0.25468 -0.00051
#
# Static dielectric constant tensor:
#      x y z
#    x 1.708620 0.000000 0.017120 
#    y 0.000000 1.693650 0.000000 
#    z 0.017120 0.000000 1.727010 
# 
# From -- ./inp_files/82603.got.cif
#   From: 2010.05.17/outbox.cif.g08.bks.cpg/sg10_42_cif.got.tgz:82603.got - 2010.06.03 11:33:40.
