data_PCOD9145886
_publ_section_title
;
Structure prediction by ZEFSAII (Michael W. Deem and Ramdas Pophale) SiO2 
 PCOD9145886
Probable space group: P 2/M
;
_chemical_formula_sum "Si O2"
_cell_formula_units_Z 28
_cell_length_a 9.967739
_cell_length_b 8.476175
_cell_length_c 29.082265
_cell_angle_alpha 90.000000
_cell_angle_beta 39.359885
_cell_angle_gamma 90.000000
_cell_volume 1558.273680
_symmetry_space_group_name_H-M "P 2/M"
_symmetry_group_IT_number 10
_symmetry_cell_setting 'monoclinic'
loop_
_space_group_symop_operation_xyz
x,y,z
-x,y,-z
-x,-y,-z
x,-y,z
loop_
_atom_site_type_symbol
_atom_site_label
_atom_site_fract_x
_atom_site_fract_y
_atom_site_fract_z
Si Si1 0.226090 0.309713 0.704434
Si Si2 0.159718 0.811939 0.311524
Si Si3 0.551618 0.688043 0.263598
Si Si4 0.294398 0.309572 0.582012
Si Si5 0.691983 0.191372 0.049996
Si Si6 0.230104 0.809391 0.186765
Si Si7 0.873070 0.190825 0.103195
O O1 0.228186 0.500000 0.703476
O O2 0.381543 0.254991 0.703469
O O3 0.289432 0.254410 0.636498
O O4 0.985807 0.255406 0.777119
O O5 0.336362 0.757872 0.300368
O O6 0.227481 0.763198 0.241598
O O7 0.926873 0.743396 0.381375
O O8 0.148447 0.000000 0.314575
O O9 0.530508 0.500000 0.270299
O O10 0.740558 0.734190 0.178995
O O11 0.500000 0.253516 0.500000
O O12 0.298608 0.500000 0.581379
O O13 0.452013 0.245677 0.106318
O O14 0.763396 0.229386 0.083257
O O15 0.689948 0.000000 0.048262
O O16 0.882229 0.242553 0.966339
O O17 0.224282 0.000000 0.186231
O O18 0.865928 0.000000 0.109707
#
# Coordination Sequence:
#
# PCOD9145886 Si02
#       7
#     4   4   4   4   4   4   4
#     4   9  20  35  50  72 102 134 164 200 249 299
#     4  10  19  32  54  79 102 130 167 207 245 292
#     4  11  21  33  48  71 105 137 167 203 246 300
#     4   9  18  36  60  81 101 128 164 204 246 294
#     4   8  14  27  48  72  96 125 166 215 257 290
#     4   9  16  30  51  74  95 124 169 213 250 291
#     4   9  16  29  49  70  97 131 167 212 255 291
#
# _framework density 17.968603000000002
#
# number of rings (size 3 to 8) (size 9 to 14) (size 15 to 20)
#    0.000    2.714    1.429    1.714    0.000    2.000 
#    0.000    3.571    0.000    8.571    0.000    0.000 
#    0.000    0.000    0.000    0.000    0.000    0.000 
#
# Total GULP energy -156082.134386 kJ/mol
# GULP energy per Si atom -5574.361942 kJ/mol
# Density = 1.792771 g / cm^3
# Si number density = 17.968603 Si / 1000 Ang^3
#
#
#
# Elastic Constant Matrix: (Units=GPa)
#
#
# Indices 1 2 3 4 5 6 
#
# 1 111.0416 9.8660 52.8025 0.0000 -18.6238 0.0000
# 2 9.8660 3.4207 10.6316 0.0000 -2.5870 0.0000
# 3 52.8025 10.6316 129.3060 0.0000 -25.0398 0.0000
# 4 0.0000 0.0000 0.0000 28.6720 0.0000 -1.9241
# 5 -18.6238 -2.5870 -25.0398 0.0000 19.6362 0.0000
# 6 0.0000 0.0000 0.0000 -1.9241 0.0000 24.3534
#
#
#
# Elastic Compliance Matrix: (Units=1/GPa)
#
#
# Indices 1 2 3 4 5 6 
#
# 1 0.013530 -0.027965 -0.001931 0.000000 0.006686 0.000000
# 2 -0.027965 0.453415 -0.025800 0.000000 0.000313 0.000000
# 3 -0.001931 -0.025800 0.012788 0.000000 0.011077 0.000000
# 4 0.000000 0.000000 0.000000 0.035063 0.000000 0.002770
# 5 0.006686 0.000313 0.011077 0.000000 0.071434 0.000000
# 6 0.000000 0.000000 0.000000 0.002770 0.000000 0.041281
#
#
# Mechanical properties :
#
#
# Convention : Reuss Voigt Hill
#
# Bulk Modulus (GPa) = 2.71487 43.37429 23.04458
# Shear Modulus (GPa) = 5.80259 25.89687 15.84973
#
# Velocity S-wave (km/s) = 1.79897 3.80047 2.97320
# Velocity P-wave (km/s) = 2.41438 6.59162 4.96380
#
# Compressibility (1/GPa) = 0.36834204
#
# Stress axis : x y z
#
# Youngs Moduli (GPa) = 73.91070 2.20548 78.19535
#
# Poissons Ratio (x) = 0.06168 0.15100
# Poissons Ratio (y) = 2.06690 2.01743
# Poissons Ratio (z) = 0.14272 0.05690
#
# Static dielectric constant tensor:
#      x y z
#    x 1.614300 0.000000 -0.001540 
#    y 0.000000 1.617070 0.000000 
#    z -0.001540 0.000000 1.619350 
# 
# From -- ./inp_files/37263.got.cif
#   From: 2010.05.17/outbox.cif.g08.bks.cpg/sg10_19_cif.got.tgz:37263.got - 2010.06.03 11:33:40.
