data_PCOD9145708
_publ_section_title
;
Structure prediction by ZEFSAII (Michael W. Deem and Ramdas Pophale) SiO2 
 PCOD9145708
Probable space group: P 2/M
;
_chemical_formula_sum "Si O2"
_cell_formula_units_Z 32
_cell_length_a 15.852051
_cell_length_b 7.480333
_cell_length_c 24.102043
_cell_angle_alpha 90.000000
_cell_angle_beta 30.127891
_cell_angle_gamma 90.000000
_cell_volume 1434.514631
_symmetry_space_group_name_H-M "P 2/M"
_symmetry_group_IT_number 10
_symmetry_cell_setting 'monoclinic'
loop_
_space_group_symop_operation_xyz
x,y,z
-x,y,-z
-x,-y,-z
x,-y,z
loop_
_atom_site_type_symbol
_atom_site_label
_atom_site_fract_x
_atom_site_fract_y
_atom_site_fract_z
Si Si1 0.784478 0.291115 0.979361
Si Si2 0.984065 0.215479 0.247448
Si Si3 0.884508 0.782157 0.513200
Si Si4 0.136767 0.215270 0.273335
Si Si5 0.391927 0.218374 0.508257
Si Si6 0.495656 0.709064 0.940860
Si Si7 0.817392 0.284512 0.083728
Si Si8 0.538731 0.786602 0.656828
O O1 0.743275 0.500000 0.010317
O O2 0.954129 0.278936 0.847258
O O3 0.641519 0.209512 0.021576
O O4 0.793216 0.213711 0.035232
O O5 0.798665 0.270257 0.370233
O O6 0.104761 0.278120 0.228700
O O7 0.988095 0.000000 0.244020
O O8 0.691371 0.722777 0.610805
O O9 0.000000 0.722775 0.500000
O O10 0.989013 0.731361 0.398714
O O11 0.880079 0.000000 0.519712
O O12 0.318568 0.276506 0.189434
O O13 0.136742 0.000000 0.272552
O O14 0.500000 0.276672 0.500000
O O15 0.441931 0.279434 0.417874
O O16 0.399827 0.000000 0.502757
O O17 0.452656 0.500000 0.971910
O O18 0.500000 0.789757 0.000000
O O19 0.829513 0.500000 0.075415
O O20 0.649316 0.245324 0.214149
O O21 0.000000 0.219377 0.000000
O O22 0.562297 0.000000 0.640653
#
# Coordination Sequence:
#
# PCOD9145708 Si02
#       8
#     4   4   4   4   4   4   4   4
#     4  10  22  39  56  75 107 149 187 224 274 329
#     4  10  19  33  55  83 112 140 178 225 271 324
#     4   9  18  33  53  79 112 146 175 215 273 326
#     4  10  19  32  52  78 110 143 176 217 268 323
#     4   9  18  33  55  83 113 140 166 216 283 325
#     4  10  20  34  51  74 106 142 177 216 264 319
#     4  10  24  44  60  76 109 153 189 232 286 330
#     4  10  20  37  61  87 112 141 186 231 269 330
#
# _framework density 22.307196000000001
#
# number of rings (size 3 to 8) (size 9 to 14) (size 15 to 20)
#    0.000    2.250    2.500    0.000    3.500    1.500 
#    0.000    1.250    0.000    1.500    0.000    0.000 
#    0.000    0.000    0.000    0.000    0.000    0.000 
#
# Total GULP energy -178630.220088 kJ/mol
# GULP energy per Si atom -5582.194378 kJ/mol
# Density = 2.225642 g / cm^3
# Si number density = 22.307196 Si / 1000 Ang^3
#
#
#
# Elastic Constant Matrix: (Units=GPa)
#
#
# Indices 1 2 3 4 5 6 
#
# 1 177.5579 11.3913 95.7762 0.0000 -10.9427 0.0000
# 2 11.3913 62.4138 -10.3797 0.0000 -4.7326 0.0000
# 3 95.7762 -10.3797 165.5795 0.0000 -12.1871 0.0000
# 4 0.0000 0.0000 0.0000 25.3744 0.0000 -3.7680
# 5 -10.9427 -4.7326 -12.1871 0.0000 27.7616 0.0000
# 6 0.0000 0.0000 0.0000 -3.7680 0.0000 -13.1560
#
#
#
# Elastic Compliance Matrix: (Units=1/GPa)
#
#
# Indices 1 2 3 4 5 6 
#
# 1 0.008543 -0.002339 -0.005032 0.000000 0.000760 0.000000
# 2 -0.002339 0.017131 0.002660 0.000000 0.003166 0.000000
# 3 -0.005032 0.002660 0.009305 0.000000 0.002555 0.000000
# 4 0.000000 0.000000 0.000000 0.037802 0.000000 -0.010827
# 5 0.000760 0.003166 0.002555 0.000000 0.037982 0.000000
# 6 0.000000 0.000000 0.000000 -0.010827 0.000000 -0.072910
#
#
# Mechanical properties :
#
#
# Convention : Reuss Voigt Hill
#
# Bulk Modulus (GPa) = 39.12819 66.56965 52.84892
# Shear Modulus (GPa) = 89.61340 28.58022 59.09681
#
# Velocity S-wave (km/s) = 6.34505 3.58328 5.15265
# Velocity P-wave (km/s) = 8.44146 6.85762 7.69042
#
# Compressibility (1/GPa) = 0.02555702
#
# Stress axis : x y z
#
# Youngs Moduli (GPa) = 117.05024 58.37268 107.46860
#
# Poissons Ratio (x) = 0.13651 0.54083
# Poissons Ratio (y) = 0.27373 -0.28583
# Poissons Ratio (z) = 0.58904 -0.15525
#
# Static dielectric constant tensor:
#      x y z
#    x 1.851500 0.000000 -0.018100 
#    y 0.000000 1.830100 0.000000 
#    z -0.018100 0.000000 1.794410 
# 
# From -- ./inp_files/89574.got.cif
#   From: 2010.05.17/outbox.cif.g08.bks.cpg/sg10_45_cif.got.tgz:89574.got - 2010.06.03 11:33:40.
