data_PCOD9145153
_publ_section_title
;
Structure prediction by ZEFSAII (Michael W. Deem and Ramdas Pophale) SiO2 
 PCOD9145153
Probable space group: P 2/M
;
_chemical_formula_sum "Si O2"
_cell_formula_units_Z 28
_cell_length_a 32.306132
_cell_length_b 8.189861
_cell_length_c 32.306124
_cell_angle_alpha 90.000000
_cell_angle_beta 9.464490
_cell_angle_gamma 90.000000
_cell_volume 1405.542771
_symmetry_space_group_name_H-M "P 2/M"
_symmetry_group_IT_number 10
_symmetry_cell_setting 'monoclinic'
loop_
_space_group_symop_operation_xyz
x,y,z
-x,y,-z
-x,-y,-z
x,-y,z
loop_
_atom_site_type_symbol
_atom_site_label
_atom_site_fract_x
_atom_site_fract_y
_atom_site_fract_z
Si Si1 0.047643 0.302565 0.548233
Si Si2 0.237907 0.199690 0.737906
Si Si3 0.618973 0.803446 0.118734
Si Si4 0.095755 0.197362 0.595512
Si Si5 0.476320 0.699595 0.975733
Si Si6 0.809956 0.804417 0.309706
Si Si7 0.333721 0.306498 0.833474
O O1 0.047299 0.500000 0.547897
O O2 0.071638 0.247475 0.571747
O O3 0.285693 0.246935 0.286257
O O4 0.785494 0.246937 0.786516
O O5 0.500000 0.251709 0.500000
O O6 0.213997 0.254489 0.714057
O O7 0.237783 0.000000 0.737766
O O8 0.000000 0.251703 0.000000
O O9 0.357182 0.742888 0.357492
O O10 0.642979 0.760275 0.143032
O O11 0.617405 0.000000 0.117147
O O12 0.857871 0.742893 0.856840
O O13 0.096742 0.000000 0.596468
O O14 0.476369 0.500000 0.975750
O O15 0.500000 0.751834 0.000000
O O16 0.571347 0.749719 0.571910
O O17 0.809484 0.000000 0.309289
O O18 0.072250 0.749747 0.070980
O O19 0.334693 0.500000 0.834514
#
# Coordination Sequence:
#
# PCOD9145153 Si02
#       7
#     4   4   4   4   4   4   4
#     4  10  19  31  51  76 101 133 172 215 263 316
#     4   9  17  31  55  87 115 143 192 249 285 321
#     4  10  21  38  58  79 105 144 189 225 271 338
#     4  10  21  36  55  78 106 139 176 223 273 327
#     4   9  17  30  49  74 102 133 172 215 257 307
#     4  11  22  39  64  89 118 159 200 239 289 352
#     4  12  25  40  60  89 123 154 191 246 300 343
#
# _framework density 19.921130999999999
#
# number of rings (size 3 to 8) (size 9 to 14) (size 15 to 20)
#    0.000    1.857    0.000    4.714    0.000    6.286 
#    0.000    0.000    0.000   11.143    0.000    0.000 
#    0.000    0.000    0.000    0.000    0.000    0.000 
#
# Total GULP energy -156515.373309 kJ/mol
# GULP energy per Si atom -5589.834761 kJ/mol
# Density = 1.987579 g / cm^3
# Si number density = 19.921131 Si / 1000 Ang^3
#
#
#
# Elastic Constant Matrix: (Units=GPa)
#
#
# Indices 1 2 3 4 5 6 
#
# 1 230.5349 -0.9813 149.2098 0.0000 -1.2544 0.0000
# 2 -0.9813 7.0044 15.7813 0.0000 -1.4793 0.0000
# 3 149.2098 15.7813 252.6952 0.0000 -0.6577 0.0000
# 4 0.0000 0.0000 0.0000 13.1018 0.0000 1.5721
# 5 -1.2544 -1.4793 -0.6577 0.0000 47.8469 0.0000
# 6 0.0000 0.0000 0.0000 1.5721 0.0000 31.3073
#
#
#
# Elastic Compliance Matrix: (Units=1/GPa)
#
#
# Indices 1 2 3 4 5 6 
#
# 1 0.008027 0.013871 -0.005605 0.000000 0.000562 0.000000
# 2 0.013871 0.191316 -0.020123 0.000000 0.006002 0.000000
# 3 -0.005605 -0.020123 0.008522 0.000000 -0.000652 0.000000
# 4 0.000000 0.000000 0.000000 0.076788 0.000000 -0.003856
# 5 0.000562 0.006002 -0.000652 0.000000 0.021091 0.000000
# 6 0.000000 0.000000 0.000000 -0.003856 0.000000 0.032135
#
#
# Mechanical properties :
#
#
# Convention : Reuss Voigt Hill
#
# Bulk Modulus (GPa) = 5.43029 90.91713 48.17371
# Shear Modulus (GPa) = 11.82097 40.19952 26.01025
#
# Velocity S-wave (km/s) = 2.43860 4.49702 3.61731
# Velocity P-wave (km/s) = 3.26509 8.52654 6.45611
#
# Compressibility (1/GPa) = 0.18415219
#
# Stress axis : x y z
#
# Youngs Moduli (GPa) = 124.57211 5.22695 117.34507
#
# Poissons Ratio (x) = -0.07250 0.65770
# Poissons Ratio (y) = -1.72798 2.36134
# Poissons Ratio (z) = 0.69821 0.10518
#
# Static dielectric constant tensor:
#      x y z
#    x 1.659070 0.000000 0.010090 
#    y 0.000000 1.700430 0.000000 
#    z 0.010090 0.000000 1.546630 
# 
# From -- ./inp_files/95985.got.cif
#   From: 2010.05.17/outbox.cif.g08.bks.cpg/sg10_48_cif.got.tgz:95985.got - 2010.06.03 11:33:40.
