data_PCOD9145985
_publ_section_title
;
Structure prediction by ZEFSAII (Michael W. Deem and Ramdas Pophale) SiO2 
 PCOD9145985
Probable space group: P 2/M
;
_chemical_formula_sum "Si O2"
_cell_formula_units_Z 28
_cell_length_a 12.722036
_cell_length_b 19.380516
_cell_length_c 19.223085
_cell_angle_alpha 90.000000
_cell_angle_beta 160.109319
_cell_angle_gamma 90.000000
_cell_volume 1612.550487
_symmetry_space_group_name_H-M "P 2/M"
_symmetry_group_IT_number 10
_symmetry_cell_setting 'monoclinic'
loop_
_space_group_symop_operation_xyz
x,y,z
-x,y,-z
-x,-y,-z
x,-y,z
loop_
_atom_site_type_symbol
_atom_site_label
_atom_site_fract_x
_atom_site_fract_y
_atom_site_fract_z
Si Si1 0.871183 0.421696 0.718635
Si Si2 0.176368 0.297178 0.404044
Si Si3 0.834406 0.077979 0.244959
Si Si4 0.091364 0.677845 0.133590
Si Si5 0.843695 0.215048 0.076242
Si Si6 0.856370 0.078506 0.708577
Si Si7 0.130147 0.219645 0.658107
O O1 0.500000 0.423857 0.500000
O O2 0.981797 0.500000 0.780589
O O3 0.934334 0.372524 0.691836
O O4 0.986373 0.381303 0.858567
O O5 0.545860 0.303439 0.638270
O O6 0.075432 0.245960 0.278799
O O7 0.029626 0.268008 0.383367
O O8 0.910039 0.139750 0.343835
O O9 0.073505 0.080274 0.329948
O O10 0.828486 0.000000 0.270538
O O11 0.500000 0.090032 0.000000
O O12 0.908432 0.745160 0.045355
O O13 0.000000 0.656425 0.000000
O O14 0.919324 0.134507 0.117744
O O15 0.498693 0.229970 0.886580
O O16 0.500000 0.095883 0.500000
O O17 0.913608 0.000000 0.768033
O O18 0.000000 0.231437 0.500000
#
# Coordination Sequence:
#
# PCOD9145985 Si02
#       7
#     4   4   4   4   4   4   4
#     4   8  16  32  56  82 106 138 180 218 253 307
#     4  10  19  35  56  77 104 141 182 216 256 315
#     4  10  19  35  55  74 100 138 184 225 265 319
#     4  10  20  33  53  83 113 139 168 217 274 315
#     4  11  20  35  54  75 103 142 184 223 259 320
#     4  10  19  32  55  80  99 130 181 229 263 305
#     4  12  23  34  51  78 109 140 175 227 282 315
#
# _framework density 17.363797999999999
#
# number of rings (size 3 to 8) (size 9 to 14) (size 15 to 20)
#    0.000    1.857    2.857    3.429    0.000    0.571 
#    0.000    0.000    0.000    7.714    0.000    0.000 
#    0.000    0.000    0.000    0.000    0.000    0.000 
#
# Total GULP energy -156135.380721 kJ/mol
# GULP energy per Si atom -5576.263597 kJ/mol
# Density = 1.732428 g / cm^3
# Si number density = 17.363798 Si / 1000 Ang^3
#
#
#
# Elastic Constant Matrix: (Units=GPa)
#
#
# Indices 1 2 3 4 5 6 
#
# 1 95.4565 49.6105 22.7315 0.0000 2.0813 0.0000
# 2 49.6105 121.3604 18.1094 0.0000 -2.9738 0.0000
# 3 22.7315 18.1094 44.4089 0.0000 10.8897 0.0000
# 4 0.0000 0.0000 0.0000 9.1723 0.0000 -1.2164
# 5 2.0813 -2.9738 10.8897 0.0000 31.5687 0.0000
# 6 0.0000 0.0000 0.0000 -1.2164 0.0000 19.0945
#
#
#
# Elastic Compliance Matrix: (Units=1/GPa)
#
#
# Indices 1 2 3 4 5 6 
#
# 1 0.014385 -0.005063 -0.005407 0.000000 0.000440 0.000000
# 2 -0.005063 0.010705 -0.002297 0.000000 0.002135 0.000000
# 3 -0.005407 -0.002297 0.028608 0.000000 -0.009728 0.000000
# 4 0.000000 0.000000 0.000000 0.109953 0.000000 0.007005
# 5 0.000440 0.002135 -0.009728 0.000000 0.035205 0.000000
# 6 0.000000 0.000000 0.000000 0.007005 0.000000 0.052817
#
#
# Mechanical properties :
#
#
# Convention : Reuss Voigt Hill
#
# Bulk Modulus (GPa) = 35.50583 49.12541 42.31562
# Shear Modulus (GPa) = 17.44627 23.35205 20.39916
#
# Velocity S-wave (km/s) = 3.17322 3.67123 3.43127
# Velocity P-wave (km/s) = 5.82394 6.80616 6.33412
#
# Compressibility (1/GPa) = 0.02816439
#
# Stress axis : x y z
#
# Youngs Moduli (GPa) = 69.51604 93.41733 34.95565
#
# Poissons Ratio (x) = 0.47297 0.18899
# Poissons Ratio (y) = 0.35195 0.08030
# Poissons Ratio (z) = 0.37584 0.21459
#
# Static dielectric constant tensor:
#      x y z
#    x 1.576450 0.000000 0.009780 
#    y 0.000000 1.619410 0.000000 
#    z 0.009780 0.000000 1.587860 
# 
# From -- ./inp_files/75515.got.cif
#   From: 2010.05.17/outbox.cif.g08.bks.cpg/sg10_38_cif.got.tgz:75515.got - 2010.06.03 11:33:40.
