data_PCOD9145510
_publ_section_title
;
Structure prediction by ZEFSAII (Michael W. Deem and Ramdas Pophale) SiO2 
 PCOD9145510
Probable space group: P 2/M
;
_chemical_formula_sum "Si O2"
_cell_formula_units_Z 32
_cell_length_a 23.315895
_cell_length_b 8.286081
_cell_length_c 18.811808
_cell_angle_alpha 90.000000
_cell_angle_beta 27.160950
_cell_angle_gamma 90.000000
_cell_volume 1659.069692
_symmetry_space_group_name_H-M "P 2/M"
_symmetry_group_IT_number 10
_symmetry_cell_setting 'monoclinic'
loop_
_space_group_symop_operation_xyz
x,y,z
-x,y,-z
-x,-y,-z
x,-y,z
loop_
_atom_site_type_symbol
_atom_site_label
_atom_site_fract_x
_atom_site_fract_y
_atom_site_fract_z
Si Si1 0.554327 0.820526 0.146270
Si Si2 0.242991 0.693163 0.178907
Si Si3 0.473042 0.304995 0.610004
Si Si4 0.051028 0.307702 0.270234
Si Si5 0.222409 0.696662 0.469388
Si Si6 0.244640 0.820033 0.948390
Si Si7 0.349356 0.317207 0.462306
Si Si8 0.363755 0.806960 0.179096
O O1 0.659755 0.831825 0.090901
O O2 0.461207 0.688787 0.280717
O O3 0.497432 0.000000 0.201682
O O4 0.631129 0.769743 0.993100
O O5 0.248336 0.500000 0.167159
O O6 0.128152 0.750753 0.255026
O O7 0.252874 0.741646 0.249920
O O8 0.500000 0.252958 0.500000
O O9 0.478457 0.500000 0.607488
O O10 0.334211 0.255673 0.789537
O O11 0.582067 0.242820 0.544264
O O12 0.042561 0.500000 0.287919
O O13 0.910694 0.244787 0.414517
O O14 0.129511 0.273200 0.111519
O O15 0.223075 0.500000 0.470529
O O16 0.241681 0.754139 0.530082
O O17 0.329476 0.752768 0.296364
O O18 0.205251 0.000000 0.970691
O O19 0.313740 0.500000 0.520334
O O20 0.364923 0.000000 0.174431
O O21 0.500000 0.747940 0.000000
#
# Coordination Sequence:
#
# PCOD9145510 Si02
#       8
#     4   4   4   4   4   4   4   4
#     4   9  16  27  45  70  98 126 158 199 247 293
#     4  10  19  32  51  71  94 126 164 206 249 292
#     4   9  17  30  51  80 110 135 160 196 244 294
#     4   9  19  35  53  73  97 129 170 211 248 287
#     4  10  21  36  53  72  96 129 169 209 247 293
#     4   9  17  29  48  74 102 131 163 200 241 289
#     4   9  17  30  49  72  98 129 164 200 241 291
#     4  11  24  38  51  71 100 130 161 203 256 306
#
# _framework density 19.287918000000001
#
# number of rings (size 3 to 8) (size 9 to 14) (size 15 to 20)
#    0.000    2.500    0.000    2.250    0.000    8.250 
#    0.000    2.500    0.000    0.750    0.000    5.250 
#    0.000    0.000    0.000    0.000    0.000    0.000 
#
# Total GULP energy -178135.374244 kJ/mol
# GULP energy per Si atom -5566.730445 kJ/mol
# Density = 1.924402 g / cm^3
# Si number density = 19.287918 Si / 1000 Ang^3
#
#
#
# Elastic Constant Matrix: (Units=GPa)
#
#
# Indices 1 2 3 4 5 6 
#
# 1 129.6631 5.4982 44.0013 0.0000 5.6914 0.0000
# 2 5.4982 20.7449 -4.6414 0.0000 -2.0200 0.0000
# 3 44.0013 -4.6414 58.2472 0.0000 -3.5925 0.0000
# 4 0.0000 0.0000 0.0000 0.3689 0.0000 -5.9500
# 5 5.6914 -2.0200 -3.5925 0.0000 28.9935 0.0000
# 6 0.0000 0.0000 0.0000 -5.9500 0.0000 5.2697
#
#
#
# Elastic Compliance Matrix: (Units=1/GPa)
#
#
# Indices 1 2 3 4 5 6 
#
# 1 0.011195 -0.005366 -0.009112 0.000000 -0.003700 0.000000
# 2 -0.005366 0.052101 0.008560 0.000000 0.005744 0.000000
# 3 -0.009112 0.008560 0.025073 0.000000 0.005492 0.000000
# 4 0.000000 0.000000 0.000000 -0.157502 0.000000 -0.177833
# 5 -0.003700 0.005744 0.005492 0.000000 0.036298 0.000000
# 6 0.000000 0.000000 0.000000 -0.177833 0.000000 -0.011025
#
#
# Mechanical properties :
#
#
# Convention : Reuss Voigt Hill
#
# Bulk Modulus (GPa) = 13.06667 33.15239 23.10953
# Shear Modulus (GPa) = -767.76791 17.84621 -374.96085
#
# Velocity S-wave (km/s) = -19.97300 3.04510 -13.95794
# Velocity P-wave (km/s) = 22.91517 5.43957 15.74033
#
# Compressibility (1/GPa) = 0.07653059
#
# Stress axis : x y z
#
# Youngs Moduli (GPa) = 89.32874 19.19340 39.88386
#
# Poissons Ratio (x) = 0.10299 0.36344
# Poissons Ratio (y) = 0.47935 -0.34139
# Poissons Ratio (z) = 0.81401 -0.16429
#
# Static dielectric constant tensor:
#      x y z
#    x 1.734260 0.000000 -0.043130 
#    y 0.000000 1.691820 0.000000 
#    z -0.043130 0.000000 1.679560 
# 
# From -- ./inp_files/79364.got.cif
#   From: 2010.05.17/outbox.cif.g08.bks.cpg/sg10_40_cif.got.tgz:79364.got - 2010.06.03 11:33:40.
