data_PCOD9145855
_publ_section_title
;
Structure prediction by ZEFSAII (Michael W. Deem and Ramdas Pophale) SiO2 
 PCOD9145855
Probable space group: P 2/M
;
_chemical_formula_sum "Si O2"
_cell_formula_units_Z 28
_cell_length_a 31.937899
_cell_length_b 8.660844
_cell_length_c 10.539534
_cell_angle_alpha 90.000000
_cell_angle_beta 147.497833
_cell_angle_gamma 90.000000
_cell_volume 1566.499550
_symmetry_space_group_name_H-M "P 2/M"
_symmetry_group_IT_number 10
_symmetry_cell_setting 'monoclinic'
loop_
_space_group_symop_operation_xyz
x,y,z
-x,y,-z
-x,-y,-z
x,-y,z
loop_
_atom_site_type_symbol
_atom_site_label
_atom_site_fract_x
_atom_site_fract_y
_atom_site_fract_z
Si Si1 0.740760 0.313564 0.121544
Si Si2 0.325657 0.686513 0.318666
Si Si3 0.235589 0.813819 0.328695
Si Si4 0.497146 0.686399 0.844089
Si Si5 0.074796 0.185364 0.037348
Si Si6 0.089070 0.314813 0.358167
Si Si7 0.341875 0.815136 0.840252
O O1 0.736768 0.500000 0.115728
O O2 0.831602 0.270093 0.368247
O O3 0.694242 0.249322 0.122886
O O4 0.704398 0.261498 0.895475
O O5 0.324605 0.500000 0.317888
O O6 0.270791 0.745459 0.290998
O O7 0.414374 0.735290 0.574480
O O8 0.288680 0.764749 0.584428
O O9 0.238792 0.000000 0.330295
O O10 0.146562 0.769017 0.131133
O O11 0.502246 0.500000 0.850738
O O12 0.500000 0.730653 0.000000
O O13 0.571005 0.756565 0.961762
O O14 0.990414 0.250504 0.784897
O O15 0.071332 0.000000 0.034868
O O16 0.092240 0.248436 0.223279
O O17 0.084424 0.500000 0.339234
O O18 0.340534 0.000000 0.840796
#
# Coordination Sequence:
#
# PCOD9145855 Si02
#       7
#     4   4   4   4   4   4   4
#     4  10  22  39  57  81 114 149 184 226 276 330
#     4  10  22  39  59  81 110 148 186 227 278 330
#     4  10  21  36  55  83 112 143 184 227 272 328
#     4  10  20  36  58  84 110 142 186 231 277 325
#     4  10  19  33  54  81 112 143 181 225 273 323
#     4  10  19  32  53  82 111 141 182 227 273 320
#     4  11  22  36  58  84 112 146 185 227 274 328
#
# _framework density 17.874247
#
# number of rings (size 3 to 8) (size 9 to 14) (size 15 to 20)
#    0.000    1.857    2.857    2.143    0.000    4.286 
#    0.000    3.571    0.000    4.286    0.000    0.000 
#    0.000    0.000    0.000    0.000    0.000    0.000 
#
# Total GULP energy -156342.027468 kJ/mol
# GULP energy per Si atom -5583.643838 kJ/mol
# Density = 1.783356 g / cm^3
# Si number density = 17.874247 Si / 1000 Ang^3
#
#
#
# Elastic Constant Matrix: (Units=GPa)
#
#
# Indices 1 2 3 4 5 6 
#
# 1 153.6129 31.8217 103.4462 0.0000 15.0339 0.0000
# 2 31.8217 23.6099 37.9696 0.0000 5.6104 0.0000
# 3 103.4462 37.9696 166.7970 0.0000 11.8870 0.0000
# 4 0.0000 0.0000 0.0000 11.9656 0.0000 3.7713
# 5 15.0339 5.6104 11.8870 0.0000 37.4179 0.0000
# 6 0.0000 0.0000 0.0000 3.7713 0.0000 36.8196
#
#
#
# Elastic Compliance Matrix: (Units=1/GPa)
#
#
# Indices 1 2 3 4 5 6 
#
# 1 0.011924 -0.006202 -0.005840 0.000000 -0.002006 0.000000
# 2 -0.006202 0.071088 -0.012026 0.000000 -0.004346 0.000000
# 3 -0.005840 -0.012026 0.012339 0.000000 0.000230 0.000000
# 4 0.000000 0.000000 0.000000 0.086361 0.000000 -0.008846
# 5 -0.002006 -0.004346 0.000230 0.000000 0.028110 0.000000
# 6 0.000000 0.000000 0.000000 -0.008846 0.000000 0.028065
#
#
# Mechanical properties :
#
#
# Convention : Reuss Voigt Hill
#
# Bulk Modulus (GPa) = 21.18056 76.72166 48.95111
# Shear Modulus (GPa) = 16.56940 28.62612 22.59776
#
# Velocity S-wave (km/s) = 3.04797 4.00625 3.55951
# Velocity P-wave (km/s) = 4.92568 8.02597 6.65877
#
# Compressibility (1/GPa) = 0.04721311
#
# Stress axis : x y z
#
# Youngs Moduli (GPa) = 83.86449 14.06712 81.04584
#
# Poissons Ratio (x) = 0.08725 0.47334
# Poissons Ratio (y) = 0.52014 0.97466
# Poissons Ratio (z) = 0.48980 0.16917
#
# Static dielectric constant tensor:
#      x y z
#    x 1.575000 0.000000 0.013360 
#    y 0.000000 1.604950 0.000000 
#    z 0.013360 0.000000 1.616160 
# 
# From -- ./inp_files/37351.got.cif
#   From: 2010.05.17/outbox.cif.g08.bks.cpg/sg10_19_cif.got.tgz:37351.got - 2010.06.03 11:33:40.
