data_PCOD9145532
_publ_section_title
;
Structure prediction by ZEFSAII (Michael W. Deem and Ramdas Pophale) SiO2 
 PCOD9145532
Probable space group: P 2/M
;
_chemical_formula_sum "Si O2"
_cell_formula_units_Z 32
_cell_length_a 13.336998
_cell_length_b 7.614348
_cell_length_c 14.332400
_cell_angle_alpha 90.000000
_cell_angle_beta 84.050355
_cell_angle_gamma 90.000000
_cell_volume 1447.651498
_symmetry_space_group_name_H-M "P 2/M"
_symmetry_group_IT_number 10
_symmetry_cell_setting 'monoclinic'
loop_
_space_group_symop_operation_xyz
x,y,z
-x,y,-z
-x,-y,-z
x,-y,z
loop_
_atom_site_type_symbol
_atom_site_label
_atom_site_fract_x
_atom_site_fract_y
_atom_site_fract_z
Si Si1 0.796021 0.796240 0.882638
Si Si2 0.639246 0.709320 0.262089
Si Si3 0.730414 0.217076 0.694413
Si Si4 0.834305 0.708656 0.370491
Si Si5 0.456816 0.797983 0.406912
Si Si6 0.217063 0.295565 0.904595
Si Si7 0.975813 0.712780 0.191300
Si Si8 0.098729 0.199177 0.447271
O O1 0.730187 0.727343 0.802137
O O2 0.913858 0.781108 0.843052
O O3 0.771521 0.000000 0.896196
O O4 0.779775 0.714333 0.985160
O O5 0.617556 0.500000 0.259773
O O6 0.734280 0.738859 0.320946
O O7 0.543520 0.794087 0.320056
O O8 0.684234 0.774671 0.158820
O O9 0.641335 0.278629 0.635213
O O10 0.836924 0.278432 0.641399
O O11 0.730691 0.000000 0.693394
O O12 0.841142 0.500000 0.385981
O O13 0.929567 0.761394 0.296776
O O14 0.829899 0.803523 0.469063
O O15 0.500000 0.719295 0.500000
O O16 0.430629 0.000000 0.432177
O O17 0.214965 0.500000 0.876436
O O18 0.110698 0.226033 0.873855
O O19 0.982232 0.500000 0.187053
O O20 0.000000 0.288045 0.500000
O O21 0.071628 0.000000 0.422910
#
# Coordination Sequence:
#
# PCOD9145532 Si02
#       8
#     4   4   4   4   4   4   4   4
#     4  11  21  33  51  75 105 139 175 217 256 297
#     4   9  19  36  56  78 103 130 166 215 263 304
#     4   9  20  36  50  73 109 139 167 209 263 314
#     4   9  18  32  50  74 103 133 166 208 259 310
#     4  10  20  36  59  81 102 134 172 210 257 313
#     4   9  19  36  55  75 104 140 173 210 259 308
#     4   9  18  33  52  74 105 143 174 205 254 310
#     4  10  19  32  51  73 101 139 175 207 248 299
#
# _framework density 22.104766999999999
#
# number of rings (size 3 to 8) (size 9 to 14) (size 15 to 20)
#    0.000    2.500    0.000    3.750    0.000    6.000 
#    0.000    6.250    0.000    3.750    0.000    0.000 
#    0.000    0.000    0.000    0.000    0.000    0.000 
#
# Total GULP energy -178578.461341 kJ/mol
# GULP energy per Si atom -5580.576917 kJ/mol
# Density = 2.205446 g / cm^3
# Si number density = 22.104767 Si / 1000 Ang^3
#
#
#
# Elastic Constant Matrix: (Units=GPa)
#
#
# Indices 1 2 3 4 5 6 
#
# 1 89.5466 -1.5127 34.9997 0.0000 -2.8511 0.0000
# 2 -1.5127 42.1009 -3.8255 0.0000 5.2531 0.0000
# 3 34.9997 -3.8255 120.8164 0.0000 9.2725 0.0000
# 4 0.0000 0.0000 0.0000 30.2051 0.0000 5.3874
# 5 -2.8511 5.2531 9.2725 0.0000 29.7838 0.0000
# 6 0.0000 0.0000 0.0000 5.3874 0.0000 20.5125
#
#
#
# Elastic Compliance Matrix: (Units=1/GPa)
#
#
# Indices 1 2 3 4 5 6 
#
# 1 0.012764 -0.000203 -0.003894 0.000000 0.002470 0.000000
# 2 -0.000203 0.024440 0.001194 0.000000 -0.004702 0.000000
# 3 -0.003894 0.001194 0.009720 0.000000 -0.003609 0.000000
# 4 0.000000 0.000000 0.000000 0.034734 0.000000 -0.009122
# 5 0.002470 -0.004702 -0.003609 0.000000 0.035765 0.000000
# 6 0.000000 0.000000 0.000000 -0.009122 0.000000 0.051147
#
#
# Mechanical properties :
#
#
# Convention : Reuss Voigt Hill
#
# Bulk Modulus (GPa) = 24.32054 34.64300 29.48177
# Shear Modulus (GPa) = 26.58404 30.95379 28.76891
#
# Velocity S-wave (km/s) = 3.47167 3.74615 3.61152
# Velocity P-wave (km/s) = 5.20541 5.86666 5.54590
#
# Compressibility (1/GPa) = 0.04111751
#
# Stress axis : x y z
#
# Youngs Moduli (GPa) = 78.34239 40.91609 102.88250
#
# Poissons Ratio (x) = 0.00832 0.40060
# Poissons Ratio (y) = 0.01593 -0.12280
# Poissons Ratio (z) = 0.30505 -0.04884
#
# Static dielectric constant tensor:
#      x y z
#    x 1.835190 0.000000 0.019770 
#    y 0.000000 1.853640 0.000000 
#    z 0.019770 0.000000 1.816110 
# 
# From -- ./inp_files/63846.got.cif
#   From: 2010.05.17/outbox.cif.g08.bks.cpg/sg10_32_cif.got.tgz:63846.got - 2010.06.03 11:33:40.
