data_PCOD9145483
_publ_section_title
;
Structure prediction by ZEFSAII (Michael W. Deem and Ramdas Pophale) SiO2 
 PCOD9145483
Probable space group: P 2/M
;
_chemical_formula_sum "Si O2"
_cell_formula_units_Z 28
_cell_length_a 11.426184
_cell_length_b 23.488973
_cell_length_c 11.989853
_cell_angle_alpha 90.000000
_cell_angle_beta 152.492485
_cell_angle_gamma 90.000000
_cell_volume 1486.257664
_symmetry_space_group_name_H-M "P 2/M"
_symmetry_group_IT_number 10
_symmetry_cell_setting 'monoclinic'
loop_
_space_group_symop_operation_xyz
x,y,z
-x,y,-z
-x,-y,-z
x,-y,z
loop_
_atom_site_type_symbol
_atom_site_label
_atom_site_fract_x
_atom_site_fract_y
_atom_site_fract_z
Si Si1 0.087025 0.064529 0.319362
Si Si2 0.089826 0.373123 0.946321
Si Si3 0.235817 0.851265 0.086988
Si Si4 0.226514 0.831689 0.576398
Si Si5 0.500000 0.899903 0.500000
Si Si6 0.500000 0.215457 0.000000
Si Si7 0.100319 0.252306 0.834282
Si Si8 0.408602 0.434545 0.551743
O O1 0.089129 0.110556 0.420939
O O2 0.348079 0.066709 0.467168
O O3 0.036947 0.000000 0.310465
O O4 0.880395 0.091141 0.061246
O O5 0.081363 0.312903 0.875950
O O6 0.878031 0.410604 0.701623
O O7 0.374930 0.399474 0.197363
O O8 0.000000 0.367302 0.000000
O O9 0.505425 0.840835 0.257160
O O10 0.292483 0.860855 0.263714
O O11 0.093227 0.795240 0.925680
O O12 0.290935 0.822712 0.760053
O O13 0.109404 0.773646 0.427018
O O14 0.645786 0.249813 0.027373
O O15 0.500000 0.434143 0.500000
O O16 0.407601 0.500000 0.589635
#
# Coordination Sequence:
#
# PCOD9145483 Si02
#       8
#     4   4   4   4   2   2   4   4
#     4  10  20  34  51  75 105 141 184 230 281 348
#     4  10  21  33  56  91 124 160 199 240 285 342
#     4   9  20  33  49  72 105 145 177 227 281 341
#     4   9  20  37  55  75 102 136 178 231 292 343
#     4  10  19  32  50  74 104 148 185 222 280 348
#     4  10  20  38  61  80 103 142 182 238 292 356
#     4  10  21  36  57  82 113 142 188 236 291 344
#     4   9  18  35  55  83 125 169 203 235 277 333
#
# _framework density 18.839262999999999
#
# number of rings (size 3 to 8) (size 9 to 14) (size 15 to 20)
#    0.000    2.429    0.000    1.500    4.000    8.571 
#    1.286    0.357    0.000   11.143    0.000    3.000 
#    0.000    0.000    0.000    0.000    0.000    0.000 
#
# Total GULP energy -155868.949125 kJ/mol
# GULP energy per Si atom -5566.748183 kJ/mol
# Density = 1.879638 g / cm^3
# Si number density = 18.839263 Si / 1000 Ang^3
#
#
#
# Elastic Constant Matrix: (Units=GPa)
#
#
# Indices 1 2 3 4 5 6 
#
# 1 48.5591 33.7995 16.3844 0.0000 0.5783 0.0000
# 2 33.7995 140.2026 70.1401 0.0000 -13.3085 0.0000
# 3 16.3844 70.1401 138.2518 0.0000 -13.8580 0.0000
# 4 0.0000 0.0000 0.0000 11.3879 0.0000 -0.3984
# 5 0.5783 -13.3085 -13.8580 0.0000 31.3057 0.0000
# 6 0.0000 0.0000 0.0000 -0.3984 0.0000 18.6223
#
#
#
# Elastic Compliance Matrix: (Units=1/GPa)
#
#
# Indices 1 2 3 4 5 6 
#
# 1 0.025042 -0.006292 -0.000095 0.000000 -0.003179 0.000000
# 2 -0.006292 0.011261 -0.004684 0.000000 0.002830 0.000000
# 3 -0.000095 -0.004684 0.009859 0.000000 0.002375 0.000000
# 4 0.000000 0.000000 0.000000 0.087878 0.000000 0.001880
# 5 -0.003179 0.002830 0.002375 0.000000 0.034256 0.000000
# 6 0.000000 0.000000 0.000000 0.001880 0.000000 0.053739
#
#
# Mechanical properties :
#
#
# Convention : Reuss Voigt Hill
#
# Bulk Modulus (GPa) = 41.62792 63.07349 52.35071
# Shear Modulus (GPa) = 19.82683 26.04249 22.93466
#
# Velocity S-wave (km/s) = 3.24762 3.72203 3.49289
# Velocity P-wave (km/s) = 6.01723 7.21276 6.64195
#
# Compressibility (1/GPa) = 0.02402234
#
# Stress axis : x y z
#
# Youngs Moduli (GPa) = 39.93212 88.80063 101.43299
#
# Poissons Ratio (x) = 0.55870 0.00959
# Poissons Ratio (y) = 0.25124 0.47510
# Poissons Ratio (z) = 0.00377 0.41593
#
# Static dielectric constant tensor:
#      x y z
#    x 1.696380 0.000000 0.026740 
#    y 0.000000 1.638240 0.000000 
#    z 0.026740 0.000000 1.739860 
# 
# From -- ./inp_files/48036.got.cif
#   From: 2010.05.17/outbox.cif.g08.bks.cpg/sg10_25_cif.got.tgz:48036.got - 2010.06.03 11:33:40.
