data_PCOD9145090
_publ_section_title
;
Structure prediction by ZEFSAII (Michael W. Deem and Ramdas Pophale) SiO2 
 PCOD9145090
Probable space group: P 2/M
;
_chemical_formula_sum "Si O2"
_cell_formula_units_Z 20
_cell_length_a 8.103344
_cell_length_b 14.319779
_cell_length_c 7.240917
_cell_angle_alpha 90.000000
_cell_angle_beta 92.555610
_cell_angle_gamma 90.000000
_cell_volume 839.386544
_symmetry_space_group_name_H-M "P 2/M"
_symmetry_group_IT_number 10
_symmetry_cell_setting 'monoclinic'
loop_
_space_group_symop_operation_xyz
x,y,z
-x,y,-z
-x,-y,-z
x,-y,z
loop_
_atom_site_type_symbol
_atom_site_label
_atom_site_fract_x
_atom_site_fract_y
_atom_site_fract_z
Si Si1 0.692154 0.500000 0.471870
Si Si2 0.196074 0.299774 0.533413
Si Si3 0.195448 0.100134 0.975990
Si Si4 0.199491 0.899812 0.536491
Si Si5 0.303432 0.300353 0.968968
Si Si6 0.300244 0.500000 0.966757
O O1 0.500000 0.500000 0.500000
O O2 0.751899 0.399368 0.545710
O O3 0.730543 0.500000 0.254884
O O4 0.263243 0.199559 0.464856
O O5 0.249442 0.300214 0.751292
O O6 0.000000 0.295592 0.500000
O O7 0.227705 0.100787 0.758018
O O8 0.249483 0.201442 0.049554
O O9 0.263592 0.000000 0.049283
O O10 0.000000 0.097350 0.000000
O O11 0.000000 0.900690 0.500000
O O12 0.261913 0.000000 0.467758
O O13 0.237249 0.400514 0.038409
O O14 0.500000 0.303385 0.000000
O O15 0.500000 0.500000 0.000000
#
# Coordination Sequence:
#
# PCOD9145090 Si02
#       6
#     2   4   4   4   4   2
#     4  10  19  31  50  75  99 122 157 206 248 275
#     4   9  17  31  50  72  96 126 162 196 233 287
#     4   9  17  29  46  71  99 123 155 202 244 275
#     4   8  14  27  47  67  89 123 160 189 226 281
#     4   9  17  31  50  69  95 130 161 192 237 292
#     4   8  16  33  49  63  91 130 160 184 230 291
#
# _framework density 23.826923000000001
#
# number of rings (size 3 to 8) (size 9 to 14) (size 15 to 20)
#    0.000    3.200    0.000    0.300    0.000    0.400 
#    0.000   18.500    0.000    0.600    0.000    0.000 
#    0.000    0.000    0.000    0.000    0.000    0.000 
#
# Total GULP energy -111386.746706 kJ/mol
# GULP energy per Si atom -5569.337335 kJ/mol
# Density = 2.377269 g / cm^3
# Si number density = 23.826923 Si / 1000 Ang^3
#
#
#
# Elastic Constant Matrix: (Units=GPa)
#
#
# Indices 1 2 3 4 5 6 
#
# 1 38.4528 36.2869 6.2365 0.0000 16.1534 0.0000
# 2 36.2869 389.3900 16.0428 0.0000 -5.4215 0.0000
# 3 6.2365 16.0428 135.9175 0.0000 5.7902 0.0000
# 4 0.0000 0.0000 0.0000 29.9150 0.0000 39.2897
# 5 16.1534 -5.4215 5.7902 0.0000 22.3634 0.0000
# 6 0.0000 0.0000 0.0000 39.2897 0.0000 22.4519
#
#
#
# Elastic Compliance Matrix: (Units=1/GPa)
#
#
# Indices 1 2 3 4 5 6 
#
# 1 0.044209 -0.004576 -0.000082 0.000000 -0.033021 0.000000
# 2 -0.004576 0.003066 -0.000328 0.000000 0.004134 0.000000
# 3 -0.000082 -0.000328 0.007483 0.000000 -0.001958 0.000000
# 4 0.000000 0.000000 0.000000 -0.025747 0.000000 0.045055
# 5 -0.033021 0.004134 -0.001958 0.000000 0.070077 0.000000
# 6 0.000000 0.000000 0.000000 0.045055 0.000000 -0.034305
#
#
# Mechanical properties :
#
#
# Convention : Reuss Voigt Hill
#
# Bulk Modulus (GPa) = 22.32815 75.65475 48.99145
# Shear Modulus (GPa) = 55.75159 48.62568 52.18864
#
# Velocity S-wave (km/s) = 4.84245 4.52241 4.68516
# Velocity P-wave (km/s) = 6.37630 7.68702 7.06213
#
# Compressibility (1/GPa) = 0.04478652
#
# Stress axis : x y z
#
# Youngs Moduli (GPa) = 22.61970 326.19665 133.63132
#
# Poissons Ratio (x) = 1.49274 0.01091
# Poissons Ratio (y) = 0.10351 0.04383
# Poissons Ratio (z) = 0.00185 0.10698
#
# Static dielectric constant tensor:
#      x y z
#    x 1.811510 0.000000 0.015880 
#    y 0.000000 2.076280 0.000000 
#    z 0.015880 0.000000 1.856040 
# 
# From -- ./inp_files/18717.got.cif
#   From: 2010.05.17/outbox.cif.g08.bks.cpg/sg10_10_cif.got.tgz:18717.got - 2010.06.03 11:33:40.
