data_PCOD9145583
_publ_section_title
;
Structure prediction by ZEFSAII (Michael W. Deem and Ramdas Pophale) SiO2 
 PCOD9145583
Probable space group: P 2/M
;
_chemical_formula_sum "Si O2"
_cell_formula_units_Z 32
_cell_length_a 15.335762
_cell_length_b 7.803755
_cell_length_c 23.168269
_cell_angle_alpha 90.000000
_cell_angle_beta 31.848520
_cell_angle_gamma 90.000000
_cell_volume 1463.084330
_symmetry_space_group_name_H-M "P 2/M"
_symmetry_group_IT_number 10
_symmetry_cell_setting 'monoclinic'
loop_
_space_group_symop_operation_xyz
x,y,z
-x,y,-z
-x,-y,-z
x,-y,z
loop_
_atom_site_type_symbol
_atom_site_label
_atom_site_fract_x
_atom_site_fract_y
_atom_site_fract_z
Si Si1 0.995942 0.792337 0.746408
Si Si2 0.974770 0.702012 0.630032
Si Si3 0.102376 0.796587 0.806363
Si Si4 0.623637 0.203869 0.979566
Si Si5 0.613425 0.303239 0.267196
Si Si6 0.150090 0.804058 0.961946
Si Si7 0.623615 0.706886 0.786676
Si Si8 0.704558 0.710968 0.611626
O O1 0.036438 0.725847 0.660400
O O2 0.107879 0.736186 0.737519
O O3 0.809488 0.733256 0.866668
O O4 0.999451 0.000000 0.741061
O O5 0.961518 0.500000 0.625116
O O6 0.113079 0.770006 0.508561
O O7 0.788713 0.770249 0.727348
O O8 0.265357 0.773660 0.753116
O O9 0.071026 0.000000 0.822276
O O10 0.941600 0.725758 0.931050
O O11 0.633129 0.000000 0.965974
O O12 0.500000 0.275362 0.000000
O O13 0.539596 0.234384 0.088525
O O14 0.595381 0.500000 0.293527
O O15 0.706567 0.291592 0.152781
O O16 0.432486 0.229337 0.357375
O O17 0.205141 0.000000 0.942040
O O18 0.000000 0.812914 0.000000
O O19 0.618907 0.500000 0.790196
O O20 0.648950 0.762966 0.706667
O O21 0.704183 0.500000 0.611209
#
# Coordination Sequence:
#
# PCOD9145583 Si02
#       8
#     4   4   4   4   4   4   4   4
#     4  10  21  37  56  79 110 146 179 216 267 320
#     4  10  20  37  59  79 104 142 184 222 264 318
#     4   9  19  35  53  73 104 144 179 212 259 320
#     4  10  20  35  55  80 114 146 171 214 274 325
#     4  10  19  32  51  76 106 137 174 223 269 308
#     4   8  15  29  48  69  98 135 171 208 255 313
#     4  10  20  35  58  83 108 140 180 221 263 320
#     4   9  20  37  55  79 110 142 177 223 275 316
#
# _framework density 21.871603
#
# number of rings (size 3 to 8) (size 9 to 14) (size 15 to 20)
#    0.000    2.500    1.250    1.500    1.750    5.000 
#    0.000    3.125    0.000    5.250    0.000    0.000 
#    0.000    0.000    0.000    0.000    0.000    0.000 
#
# Total GULP energy -178566.446341 kJ/mol
# GULP energy per Si atom -5580.201448 kJ/mol
# Density = 2.182182 g / cm^3
# Si number density = 21.871603 Si / 1000 Ang^3
#
#
#
# Elastic Constant Matrix: (Units=GPa)
#
#
# Indices 1 2 3 4 5 6 
#
# 1 73.1449 -8.6013 2.8802 0.0000 9.0412 0.0000
# 2 -8.6013 19.7165 -9.0031 0.0000 -6.0998 0.0000
# 3 2.8802 -9.0031 60.3970 0.0000 10.1766 0.0000
# 4 0.0000 0.0000 0.0000 6.0066 0.0000 16.6035
# 5 9.0412 -6.0998 10.1766 0.0000 26.0853 0.0000
# 6 0.0000 0.0000 0.0000 16.6035 0.0000 10.5347
#
#
#
# Elastic Compliance Matrix: (Units=1/GPa)
#
#
# Indices 1 2 3 4 5 6 
#
# 1 0.014805 0.005548 0.000821 0.000000 -0.004154 0.000000
# 2 0.005548 0.059181 0.007010 0.000000 0.009181 0.000000
# 3 0.000821 0.007010 0.018554 0.000000 -0.005884 0.000000
# 4 0.000000 0.000000 0.000000 -0.049599 0.000000 0.078172
# 5 -0.004154 0.009181 -0.005884 0.000000 0.044218 0.000000
# 6 0.000000 0.000000 0.000000 0.078172 0.000000 -0.028280
#
#
# Mechanical properties :
#
#
# Convention : Reuss Voigt Hill
#
# Bulk Modulus (GPa) = 8.38223 13.75666 11.06944
# Shear Modulus (GPa) = 69.55369 19.72416 44.63892
#
# Velocity S-wave (km/s) = 5.64535 3.00628 4.52259
# Velocity P-wave (km/s) = 6.80691 4.28412 5.68717
#
# Compressibility (1/GPa) = 0.11930004
#
# Stress axis : x y z
#
# Youngs Moduli (GPa) = 67.54417 16.89732 53.89567
#
# Poissons Ratio (x) = -0.09375 -0.04425
# Poissons Ratio (y) = -0.37476 -0.37783
# Poissons Ratio (z) = -0.05546 -0.11846
#
# Static dielectric constant tensor:
#      x y z
#    x 1.835810 0.000000 -0.009680 
#    y 0.000000 1.802220 0.000000 
#    z -0.009680 0.000000 1.788740 
# 
# From -- ./inp_files/89495.got.cif
#   From: 2010.05.17/outbox.cif.g08.bks.cpg/sg10_45_cif.got.tgz:89495.got - 2010.06.03 11:33:40.
