data_PCOD9145556
_publ_section_title
;
Structure prediction by ZEFSAII (Michael W. Deem and Ramdas Pophale) SiO2 
 PCOD9145556
Probable space group: P 2/M
;
_chemical_formula_sum "Si O2"
_cell_formula_units_Z 30
_cell_length_a 17.459242
_cell_length_b 19.622278
_cell_length_c 5.099869
_cell_angle_alpha 90.000000
_cell_angle_beta 114.070078
_cell_angle_gamma 90.000000
_cell_volume 1595.243946
_symmetry_space_group_name_H-M "P 2/M"
_symmetry_group_IT_number 10
_symmetry_cell_setting 'monoclinic'
loop_
_space_group_symop_operation_xyz
x,y,z
-x,y,-z
-x,-y,-z
x,-y,z
loop_
_atom_site_type_symbol
_atom_site_label
_atom_site_fract_x
_atom_site_fract_y
_atom_site_fract_z
Si Si1 0.313772 0.148889 0.794250
Si Si2 0.322133 0.420920 0.671997
Si Si3 0.751271 0.920007 0.779139
Si Si4 0.575483 0.752391 0.774301
Si Si5 0.727870 0.338669 0.891072
Si Si6 0.154299 0.753832 0.628956
Si Si7 0.090861 0.180107 0.046164
Si Si8 0.500000 0.631423 0.000000
O O1 0.313600 0.107928 0.526636
O O2 0.239531 0.204780 0.687467
O O3 0.286202 0.099585 0.991751
O O4 0.395419 0.192418 0.974545
O O5 0.300986 0.500000 0.619029
O O6 0.271687 0.375821 0.388521
O O7 0.305277 0.392430 0.939557
O O8 0.422442 0.410248 0.772640
O O9 0.836880 0.877630 0.843712
O O10 0.765706 0.000000 0.775811
O O11 0.500000 0.781499 0.500000
O O12 0.661646 0.724516 0.760795
O O13 0.537902 0.683609 0.843191
O O14 0.810875 0.309701 0.151533
O O15 0.110639 0.758728 0.283544
O O16 0.096774 0.793011 0.758302
O O17 0.000000 0.153148 0.000000
#
# Coordination Sequence:
#
# PCOD9145556 Si02
#       8
#     4   4   4   4   4   4   4   2
#     4   9  20  32  53  73  95 130 174 217 249 290
#     4  11  21  33  48  72 107 140 174 209 249 302
#     4  10  20  36  53  73 101 139 170 194 244 313
#     4  10  19  32  51  74  97 124 177 223 262 298
#     4  10  20  34  51  71 101 141 177 209 248 301
#     4   9  18  33  51  74 106 135 166 207 251 296
#     4  10  19  32  53  83 110 130 156 202 254 305
#     4  10  21  32  48  74 103 136 168 214 272 316
#
# _framework density 18.805900000000001
#
# number of rings (size 3 to 8) (size 9 to 14) (size 15 to 20)
#    0.000    2.133    1.333    2.200    1.867    3.467 
#    0.000    2.000    0.000    7.200    0.000    0.000 
#    0.000   37.333    0.000    0.000    0.000    0.000 
#
# Total GULP energy -167156.146027 kJ/mol
# GULP energy per Si atom -5571.871534 kJ/mol
# Density = 1.876310 g / cm^3
# Si number density = 18.805900 Si / 1000 Ang^3
#
#
#
# Elastic Constant Matrix: (Units=GPa)
#
#
# Indices 1 2 3 4 5 6 
#
# 1 13.5759 -0.0432 -0.9439 0.0000 0.8650 0.0000
# 2 -0.0432 54.1984 5.3876 0.0000 12.6760 0.0000
# 3 -0.9439 5.3876 73.9104 0.0000 -0.4646 0.0000
# 4 0.0000 0.0000 0.0000 13.7406 0.0000 1.9525
# 5 0.8650 12.6760 -0.4646 0.0000 14.8434 0.0000
# 6 0.0000 0.0000 0.0000 1.9525 0.0000 6.1481
#
#
#
# Elastic Compliance Matrix: (Units=1/GPa)
#
#
# Indices 1 2 3 4 5 6 
#
# 1 0.074061 0.001225 0.000823 0.000000 -0.005336 0.000000
# 2 0.001225 0.023319 -0.001810 0.000000 -0.020042 0.000000
# 3 0.000823 -0.001810 0.013684 0.000000 0.001926 0.000000
# 4 0.000000 0.000000 0.000000 0.076216 0.000000 -0.024205
# 5 -0.005336 -0.020042 0.001926 0.000000 0.084857 0.000000
# 6 0.000000 0.000000 0.000000 -0.024205 0.000000 0.170338
#
#
# Mechanical properties :
#
#
# Convention : Reuss Voigt Hill
#
# Bulk Modulus (GPa) = 8.96533 16.72062 12.84297
# Shear Modulus (GPa) = 10.43451 16.09873 13.26662
#
# Velocity S-wave (km/s) = 2.35809 2.92900 2.65891
# Velocity P-wave (km/s) = 3.49167 4.51101 4.03367
#
# Compressibility (1/GPa) = 0.11154085
#
# Stress axis : x y z
#
# Youngs Moduli (GPa) = 13.50238 42.88333 73.07562
#
# Poissons Ratio (x) = -0.05255 -0.06014
# Poissons Ratio (y) = -0.01654 0.13228
# Poissons Ratio (z) = -0.01111 0.07762
#
# Static dielectric constant tensor:
#      x y z
#    x 1.686140 0.000000 0.034070 
#    y 0.000000 1.640060 0.000000 
#    z 0.034070 0.000000 1.684660 
# 
# From -- ./inp_files/11586.got.cif
#   From: 2010.05.17/outbox.cif.g08.bks.cpg/sg10_6_cif.got.tgz:11586.got - 2010.06.03 11:33:40.
