data_PCOD9145802
_publ_section_title
;
Structure prediction by ZEFSAII (Michael W. Deem and Ramdas Pophale) SiO2 
 PCOD9145802
Probable space group: P 2/M
;
_chemical_formula_sum "Si O2"
_cell_formula_units_Z 20
_cell_length_a 5.243068
_cell_length_b 25.194539
_cell_length_c 7.634389
_cell_angle_alpha 90.000000
_cell_angle_beta 82.743312
_cell_angle_gamma 90.000000
_cell_volume 1000.399759
_symmetry_space_group_name_H-M "P 2/M"
_symmetry_group_IT_number 10
_symmetry_cell_setting 'monoclinic'
loop_
_space_group_symop_operation_xyz
x,y,z
-x,y,-z
-x,-y,-z
x,-y,z
loop_
_atom_site_type_symbol
_atom_site_label
_atom_site_fract_x
_atom_site_fract_y
_atom_site_fract_z
Si Si1 0.226418 0.226943 0.122504
Si Si2 0.770624 0.656386 0.878741
Si Si3 0.438471 0.060549 0.715997
Si Si4 0.062327 0.882384 0.289217
Si Si5 0.272634 0.558993 0.380040
O O1 0.164319 0.176675 0.247066
O O2 0.500000 0.221326 0.000000
O O3 0.209145 0.285292 0.211753
O O4 0.000000 0.227079 0.000000
O O5 0.245622 0.606622 0.247162
O O6 0.500000 0.658091 0.000000
O O7 0.000000 0.650529 0.000000
O O8 0.500000 0.062543 0.500000
O O9 0.704123 0.078689 0.779715
O O10 0.203853 0.100199 0.777886
O O11 0.369150 0.000000 0.763082
O O12 0.000000 0.888048 0.500000
O O13 0.500000 0.568923 0.500000
O O14 0.322067 0.500000 0.297428
O O15 0.000000 0.556549 0.500000
#
# Coordination Sequence:
#
# PCOD9145802 Si02
#       5
#     4   4   4   4   4
#     4  10  21  37  54  74 106 142 173 215 270 316
#     4  10  21  37  57  81 108 146 192 226 263 323
#     4   9  17  30  50  76 103 129 164 214 262 306
#     4  10  19  32  53  78  99 129 175 215 255 313
#     4  10  21  37  57  84 117 148 179 224 281 325
#
# _framework density 19.992007000000001
#
# number of rings (size 3 to 8) (size 9 to 14) (size 15 to 20)
#    0.000    2.200    0.000    3.000    0.000    4.000 
#    0.000    3.000    0.000   12.000    0.000    0.000 
#    0.000    0.000    0.000    0.000    0.000    0.000 
#
# Total GULP energy -111579.992596 kJ/mol
# GULP energy per Si atom -5578.999630 kJ/mol
# Density = 1.994650 g / cm^3
# Si number density = 19.992007 Si / 1000 Ang^3
#
#
#
# Elastic Constant Matrix: (Units=GPa)
#
#
# Indices 1 2 3 4 5 6 
#
# 1 159.1981 48.3008 24.6601 0.0000 -14.7438 0.0000
# 2 48.3008 159.1320 30.1123 0.0000 -10.6369 0.0000
# 3 24.6601 30.1123 12.5857 0.0000 -6.2263 0.0000
# 4 0.0000 0.0000 0.0000 69.3107 0.0000 -6.0020
# 5 -14.7438 -10.6369 -6.2263 0.0000 16.5084 0.0000
# 6 0.0000 0.0000 0.0000 -6.0020 0.0000 32.7070
#
#
#
# Elastic Compliance Matrix: (Units=1/GPa)
#
#
# Indices 1 2 3 4 5 6 
#
# 1 0.009153 0.001056 -0.019769 0.000000 0.001399 0.000000
# 2 0.001056 0.011786 -0.032019 0.000000 -0.003539 0.000000
# 3 -0.019769 -0.032019 0.216196 0.000000 0.043253 0.000000
# 4 0.000000 0.000000 0.000000 0.014661 0.000000 0.002690
# 5 0.001399 -0.003539 0.043253 0.000000 0.075858 0.000000
# 6 0.000000 0.000000 0.000000 0.002690 0.000000 0.031068
#
#
# Mechanical properties :
#
#
# Convention : Reuss Voigt Hill
#
# Bulk Modulus (GPa) = 7.37074 59.67356 33.52215
# Shear Modulus (GPa) = 9.89300 38.89473 24.39387
#
# Velocity S-wave (km/s) = 2.22693 4.41558 3.49690
# Velocity P-wave (km/s) = 3.21047 7.47730 5.75400
#
# Compressibility (1/GPa) = 0.13567162
#
# Stress axis : x y z
#
# Youngs Moduli (GPa) = 109.25586 84.84780 4.62544
#
# Poissons Ratio (x) = -0.08962 0.09144
# Poissons Ratio (y) = -0.11540 0.14810
# Poissons Ratio (z) = 2.15986 2.71672
#
# Static dielectric constant tensor:
#      x y z
#    x 1.677280 0.000000 0.013250 
#    y 0.000000 1.750330 0.000000 
#    z 0.013250 0.000000 1.686680 
# 
# From -- ./inp_files/15163.got.cif
#   From: 2010.05.17/outbox.cif.g08.bks.cpg/sg10_8_cif.got.tgz:15163.got - 2010.06.03 11:33:40.
