data_PCOD9145734
_publ_section_title
;
Structure prediction by ZEFSAII (Michael W. Deem and Ramdas Pophale) SiO2 
 PCOD9145734
Probable space group: P 2/M
;
_chemical_formula_sum "Si O2"
_cell_formula_units_Z 32
_cell_length_a 15.126385
_cell_length_b 8.872765
_cell_length_c 23.992619
_cell_angle_alpha 90.000000
_cell_angle_beta 31.338933
_cell_angle_gamma 90.000000
_cell_volume 1674.782098
_symmetry_space_group_name_H-M "P 2/M"
_symmetry_group_IT_number 10
_symmetry_cell_setting 'monoclinic'
loop_
_space_group_symop_operation_xyz
x,y,z
-x,y,-z
-x,-y,-z
x,-y,z
loop_
_atom_site_type_symbol
_atom_site_label
_atom_site_fract_x
_atom_site_fract_y
_atom_site_fract_z
Si Si1 0.425896 0.820945 0.099615
Si Si2 0.804186 0.181238 0.093963
Si Si3 0.905006 0.665990 0.695566
Si Si4 0.297846 0.329048 0.622262
Si Si5 0.626515 0.819877 0.306282
Si Si6 0.180418 0.330774 0.387045
Si Si7 0.466667 0.682276 0.839917
Si Si8 0.761032 0.822976 0.458448
O O1 0.226607 0.778455 0.205112
O O2 0.507028 0.743847 0.111185
O O3 0.447846 0.000000 0.093630
O O4 0.500000 0.772112 0.000000
O O5 0.701810 0.215955 0.205780
O O6 0.705375 0.259663 0.096333
O O7 0.800570 0.000000 0.087060
O O8 0.000000 0.224835 0.000000
O O9 0.901204 0.500000 0.723742
O O10 0.838399 0.652863 0.668910
O O11 0.093815 0.728346 0.590494
O O12 0.500000 0.331595 0.500000
O O13 0.234330 0.500000 0.651092
O O14 0.279901 0.265634 0.693901
O O15 0.224666 0.220547 0.614375
O O16 0.426702 0.782190 0.419030
O O17 0.641451 0.000000 0.307661
O O18 0.180568 0.500000 0.413097
O O19 0.371386 0.264994 0.286464
O O20 0.000000 0.254391 0.500000
O O21 0.471756 0.500000 0.838061
O O22 0.785673 0.000000 0.453368
#
# Coordination Sequence:
#
# PCOD9145734 Si02
#       8
#     4   4   4   4   4   4   4   4
#     4  10  21  40  64  86 113 153 194 232 283 345
#     4  10  22  41  61  82 114 156 200 246 291 347
#     4  10  20  33  53  83 117 147 182 230 278 331
#     4   9  17  31  51  76 105 139 182 229 280 337
#     4   9  19  35  55  78 107 148 192 236 291 345
#     4   8  16  31  51  79 114 148 179 215 272 340
#     4  10  21  37  61  89 118 153 190 242 295 338
#     4  10  19  32  52  79 114 148 184 230 285 348
#
# _framework density 19.106963
#
# number of rings (size 3 to 8) (size 9 to 14) (size 15 to 20)
#    0.000    2.500    0.000    2.625    1.750    3.750 
#    2.250    0.000    0.000    2.250    0.000    0.000 
#    0.000    0.000    0.000    0.000    0.000    0.000 
#
# Total GULP energy -178260.063365 kJ/mol
# GULP energy per Si atom -5570.626980 kJ/mol
# Density = 1.906347 g / cm^3
# Si number density = 19.106963 Si / 1000 Ang^3
#
#
#
# Elastic Constant Matrix: (Units=GPa)
#
#
# Indices 1 2 3 4 5 6 
#
# 1 81.1439 31.5036 43.2920 0.0000 -11.8105 0.0000
# 2 31.5036 36.2239 26.5528 0.0000 -1.9567 0.0000
# 3 43.2920 26.5528 90.7246 0.0000 0.3372 0.0000
# 4 0.0000 0.0000 0.0000 17.1830 0.0000 1.5209
# 5 -11.8105 -1.9567 0.3372 0.0000 28.5888 0.0000
# 6 0.0000 0.0000 0.0000 1.5209 0.0000 5.8141
#
#
#
# Elastic Compliance Matrix: (Units=1/GPa)
#
#
# Indices 1 2 3 4 5 6 
#
# 1 0.022696 -0.014411 -0.006644 0.000000 0.008468 0.000000
# 2 -0.014411 0.044480 -0.006131 0.000000 -0.002837 0.000000
# 3 -0.006644 -0.006131 0.016000 0.000000 -0.003353 0.000000
# 4 0.000000 0.000000 0.000000 0.059577 0.000000 -0.015585
# 5 0.008468 -0.002837 -0.003353 0.000000 0.038322 0.000000
# 6 0.000000 0.000000 0.000000 -0.015585 0.000000 0.176073
#
#
# Mechanical properties :
#
#
# Convention : Reuss Voigt Hill
#
# Bulk Modulus (GPa) = 34.71749 45.64325 40.18037
# Shear Modulus (GPa) = 11.87311 17.43345 14.65328
#
# Velocity S-wave (km/s) = 2.49550 3.02389 2.77231
# Velocity P-wave (km/s) = 5.14906 6.01100 5.59665
#
# Compressibility (1/GPa) = 0.02880393
#
# Stress axis : x y z
#
# Youngs Moduli (GPa) = 44.06100 22.48200 62.50193
#
# Poissons Ratio (x) = 0.32399 0.41525
# Poissons Ratio (y) = 0.63496 0.38320
# Poissons Ratio (z) = 0.29273 0.13784
#
# Static dielectric constant tensor:
#      x y z
#    x 1.683390 0.000000 -0.019080 
#    y 0.000000 1.658590 0.000000 
#    z -0.019080 0.000000 1.695620 
# 
# From -- ./inp_files/89492.got.cif
#   From: 2010.05.17/outbox.cif.g08.bks.cpg/sg10_45_cif.got.tgz:89492.got - 2010.06.03 11:33:40.
