data_PCOD9145951
_publ_section_title
;
Structure prediction by ZEFSAII (Michael W. Deem and Ramdas Pophale) SiO2 
 PCOD9145951
Probable space group: P 2/M
;
_chemical_formula_sum "Si O2"
_cell_formula_units_Z 32
_cell_length_a 20.852439
_cell_length_b 7.738940
_cell_length_c 26.760021
_cell_angle_alpha 90.000000
_cell_angle_beta 21.067525
_cell_angle_gamma 90.000000
_cell_volume 1552.333291
_symmetry_space_group_name_H-M "P 2/M"
_symmetry_group_IT_number 10
_symmetry_cell_setting 'monoclinic'
loop_
_space_group_symop_operation_xyz
x,y,z
-x,y,-z
-x,-y,-z
x,-y,z
loop_
_atom_site_type_symbol
_atom_site_label
_atom_site_fract_x
_atom_site_fract_y
_atom_site_fract_z
Si Si1 0.896779 0.292256 0.878774
Si Si2 0.693215 0.291303 0.841167
Si Si3 0.994627 0.709891 0.311120
Si Si4 0.506141 0.201327 0.573476
Si Si5 0.494142 0.791279 0.799552
Si Si6 0.786156 0.301177 0.287223
Si Si7 0.414269 0.204180 0.375484
Si Si8 0.799611 0.206758 0.651488
O O1 0.918078 0.500000 0.862688
O O2 0.956573 0.230984 0.780445
O O3 0.030378 0.225849 0.824638
O O4 0.693215 0.252066 0.038875
O O5 0.691177 0.500000 0.845221
O O6 0.729947 0.240617 0.757689
O O7 0.853020 0.231928 0.761067
O O8 0.500000 0.228868 0.000000
O O9 0.991813 0.500000 0.313222
O O10 0.798992 0.772036 0.468626
O O11 0.648862 0.293519 0.433876
O O12 0.316209 0.213450 0.684092
O O13 0.512619 0.272915 0.624840
O O14 0.559968 0.000000 0.535383
O O15 0.508665 0.724191 0.732271
O O16 0.658910 0.725732 0.713171
O O17 0.507571 0.000000 0.788084
O O18 0.813158 0.500000 0.253238
O O19 0.454874 0.000000 0.346092
O O20 0.000000 0.276744 0.500000
O O21 0.808915 0.000000 0.637551
#
# Coordination Sequence:
#
# PCOD9145951 Si02
#       8
#     4   4   4   4   4   4   4   4
#     4  10  21  37  56  81 111 145 183 223 271 323
#     4  10  21  36  55  79 109 141 176 224 276 324
#     4  10  20  35  56  81 107 139 181 226 272 322
#     4  10  19  32  54  83 112 141 178 223 269 316
#     4  10  22  38  56  79 109 146 184 223 272 326
#     4  10  19  33  55  81 111 144 178 220 268 319
#     4  10  21  37  56  81 110 142 181 225 270 318
#     4  10  21  38  58  79 107 143 183 227 273 325
#
# _framework density 20.614129999999999
#
# number of rings (size 3 to 8) (size 9 to 14) (size 15 to 20)
#    0.000    2.000    1.250    3.000    0.000    6.000 
#    0.000    0.625    0.000    3.750    0.000    0.000 
#    0.000    0.000    0.000    0.000    0.000    0.000 
#
# Total GULP energy -178738.637769 kJ/mol
# GULP energy per Si atom -5585.582430 kJ/mol
# Density = 2.056721 g / cm^3
# Si number density = 20.614130 Si / 1000 Ang^3
#
#
#
# Elastic Constant Matrix: (Units=GPa)
#
#
# Indices 1 2 3 4 5 6 
#
# 1 99.7840 -6.4537 7.0407 0.0000 -11.4012 0.0000
# 2 -6.4537 28.6364 -13.4242 0.0000 -3.3590 0.0000
# 3 7.0407 -13.4242 52.1886 0.0000 5.5841 0.0000
# 4 0.0000 0.0000 0.0000 24.9866 0.0000 0.0884
# 5 -11.4012 -3.3590 5.5841 0.0000 34.4486 0.0000
# 6 0.0000 0.0000 0.0000 0.0884 0.0000 23.7279
#
#
#
# Elastic Compliance Matrix: (Units=1/GPa)
#
#
# Indices 1 2 3 4 5 6 
#
# 1 0.010714 0.002279 -0.001285 0.000000 0.003976 0.000000
# 2 0.002279 0.040366 0.009743 0.000000 0.003111 0.000000
# 3 -0.001285 0.009743 0.022169 0.000000 -0.003069 0.000000
# 4 0.000000 0.000000 0.000000 0.040022 0.000000 -0.000149
# 5 0.003976 0.003111 -0.003069 0.000000 0.031146 0.000000
# 6 0.000000 0.000000 0.000000 -0.000149 0.000000 0.042145
#
#
# Mechanical properties :
#
#
# Convention : Reuss Voigt Hill
#
# Bulk Modulus (GPa) = 10.55708 17.21499 13.88603
# Shear Modulus (GPa) = 25.42424 29.52901 27.47663
#
# Velocity S-wave (km/s) = 3.51570 3.78890 3.65485
# Velocity P-wave (km/s) = 4.64894 5.24501 4.95595
#
# Compressibility (1/GPa) = 0.09472316
#
# Stress axis : x y z
#
# Youngs Moduli (GPa) = 93.33573 24.77312 45.10796
#
# Poissons Ratio (x) = -0.05645 0.05795
# Poissons Ratio (y) = -0.21269 -0.43948
# Poissons Ratio (z) = 0.11991 -0.24136
#
# Static dielectric constant tensor:
#      x y z
#    x 1.745750 0.000000 -0.020600 
#    y 0.000000 1.774600 0.000000 
#    z -0.020600 0.000000 1.685490 
# 
# From -- ./inp_files/93614.got.cif
#   From: 2010.05.17/outbox.cif.g08.bks.cpg/sg10_47_cif.got.tgz:93614.got - 2010.06.03 11:33:40.
