data_PCOD9145767
_publ_section_title
;
Structure prediction by ZEFSAII (Michael W. Deem and Ramdas Pophale) SiO2 
 PCOD9145767
Probable space group: P 2/M
;
_chemical_formula_sum "Si O2"
_cell_formula_units_Z 28
_cell_length_a 22.773626
_cell_length_b 8.004733
_cell_length_c 29.611531
_cell_angle_alpha 90.000000
_cell_angle_beta 163.866994
_cell_angle_gamma 90.000000
_cell_volume 1499.956113
_symmetry_space_group_name_H-M "P 2/M"
_symmetry_group_IT_number 10
_symmetry_cell_setting 'monoclinic'
loop_
_space_group_symop_operation_xyz
x,y,z
-x,y,-z
-x,-y,-z
x,-y,z
loop_
_atom_site_type_symbol
_atom_site_label
_atom_site_fract_x
_atom_site_fract_y
_atom_site_fract_z
Si Si1 0.504964 0.698298 0.647228
Si Si2 0.682625 0.694169 0.249086
Si Si3 0.366083 0.705070 0.357007
Si Si4 0.644151 0.702662 0.064077
Si Si5 0.127748 0.196581 0.427444
Si Si6 0.912413 0.806160 0.503679
Si Si7 0.076963 0.307013 0.004433
O O1 0.546762 0.500000 0.675639
O O2 0.529013 0.758580 0.613316
O O3 0.277467 0.723505 0.500882
O O4 0.688797 0.769120 0.816459
O O5 0.659699 0.500000 0.243979
O O6 0.745323 0.791597 0.340095
O O7 0.880225 0.710471 0.360533
O O8 0.478386 0.753640 0.071629
O O9 0.500000 0.758217 0.500000
O O10 0.362990 0.500000 0.355573
O O11 0.119580 0.761549 0.170116
O O12 0.651751 0.500000 0.071062
O O13 0.879685 0.769899 0.238602
O O14 0.500000 0.757077 0.000000
O O15 0.173227 0.257883 0.512061
O O16 0.169031 0.000000 0.455979
O O17 0.974196 0.000000 0.554913
O O18 0.100066 0.500000 0.006543
O O19 0.000000 0.307802 0.000000
#
# Coordination Sequence:
#
# PCOD9145767 Si02
#       7
#     4   4   4   4   4   4   4
#     4   9  17  30  49  71  99 133 165 206 253 299
#     4  10  19  32  53  76  95 119 158 211 262 302
#     4   8  13  24  47  78 104 125 158 206 252 296
#     4  10  20  35  54  76 100 128 168 219 266 310
#     4  11  23  35  50  72 102 140 176 211 255 309
#     4  10  20  33  49  70  97 130 165 203 249 302
#     4   7  11  22  42  68  94 122 156 191 236 289
#
# _framework density 18.667213
#
# number of rings (size 3 to 8) (size 9 to 14) (size 15 to 20)
#    0.000    2.714    1.429    3.857    0.000    3.143 
#    0.000    1.429    0.000    7.714    0.000    0.000 
#    0.000    0.000    0.000    0.000    0.000    0.000 
#
# Total GULP energy -155943.099378 kJ/mol
# GULP energy per Si atom -5569.396406 kJ/mol
# Density = 1.862473 g / cm^3
# Si number density = 18.667213 Si / 1000 Ang^3
#
#
#
# Elastic Constant Matrix: (Units=GPa)
#
#
# Indices 1 2 3 4 5 6 
#
# 1 89.5501 2.9019 63.3184 0.0000 -5.4452 0.0000
# 2 2.9019 10.4065 3.1211 0.0000 -4.1496 0.0000
# 3 63.3184 3.1211 120.9982 0.0000 -11.3360 0.0000
# 4 0.0000 0.0000 0.0000 223.2866 0.0000 181.8958
# 5 -5.4452 -4.1496 -11.3360 0.0000 30.1960 0.0000
# 6 0.0000 0.0000 0.0000 181.8958 0.0000 170.0649
#
#
#
# Elastic Compliance Matrix: (Units=1/GPa)
#
#
# Indices 1 2 3 4 5 6 
#
# 1 0.017785 -0.002416 -0.009303 0.000000 -0.000617 0.000000
# 2 -0.002416 0.102209 -0.000101 0.000000 0.013572 0.000000
# 3 -0.009303 -0.000101 0.013450 0.000000 0.003358 0.000000
# 4 0.000000 0.000000 0.000000 0.034798 0.000000 -0.037219
# 5 -0.000617 0.013572 0.003358 0.000000 0.036131 0.000000
# 6 0.000000 0.000000 0.000000 -0.037219 0.000000 0.045689
#
#
# Mechanical properties :
#
#
# Convention : Reuss Voigt Hill
#
# Bulk Modulus (GPa) = 9.10692 39.95975 24.53333
# Shear Modulus (GPa) = 16.11328 94.81706 55.46517
#
# Velocity S-wave (km/s) = 2.94119 7.13468 5.45684
# Velocity P-wave (km/s) = 4.05257 9.45116 7.27144
#
# Compressibility (1/GPa) = 0.10980665
#
# Stress axis : x y z
#
# Youngs Moduli (GPa) = 56.22640 9.78383 74.35064
#
# Poissons Ratio (x) = 0.02363 0.69165
# Poissons Ratio (y) = 0.13582 0.00749
# Poissons Ratio (z) = 0.52305 0.00099
#
# Static dielectric constant tensor:
#      x y z
#    x 1.639400 0.000000 -0.013900 
#    y 0.000000 1.655050 0.000000 
#    z -0.013900 0.000000 1.681250 
# 
# From -- ./inp_files/93554.got.cif
#   From: 2010.05.17/outbox.cif.g08.bks.cpg/sg10_47_cif.got.tgz:93554.got - 2010.06.03 11:33:40.
