data_PCOD9145423
_publ_section_title
;
Structure prediction by ZEFSAII (Michael W. Deem and Ramdas Pophale) SiO2 
 PCOD9145423
Probable space group: P 2/M
;
_chemical_formula_sum "Si O2"
_cell_formula_units_Z 26
_cell_length_a 13.924430
_cell_length_b 7.073644
_cell_length_c 10.885132
_cell_angle_alpha 90.000000
_cell_angle_beta 119.331167
_cell_angle_gamma 90.000000
_cell_volume 934.700882
_symmetry_space_group_name_H-M "P 2/M"
_symmetry_group_IT_number 10
_symmetry_cell_setting 'monoclinic'
loop_
_space_group_symop_operation_xyz
x,y,z
-x,y,-z
-x,-y,-z
x,-y,z
loop_
_atom_site_type_symbol
_atom_site_label
_atom_site_fract_x
_atom_site_fract_y
_atom_site_fract_z
Si Si1 0.875518 0.272478 0.411238
Si Si2 0.292301 0.000000 0.022173
Si Si3 0.088545 0.275040 0.944415
Si Si4 0.465340 0.728441 0.680257
Si Si5 0.662764 0.271502 0.653599
Si Si6 0.119873 0.272581 0.316175
Si Si7 0.341836 0.727389 0.853238
O O1 0.881246 0.500000 0.401092
O O2 0.832862 0.228904 0.520874
O O3 0.784809 0.214310 0.257560
O O4 0.000000 0.204847 0.500000
O O5 0.364639 0.835853 0.991571
O O6 0.200642 0.837325 0.008888
O O7 0.112178 0.500000 0.955223
O O8 0.006186 0.217020 0.781241
O O9 0.000000 0.246443 0.000000
O O10 0.468820 0.500000 0.686063
O O11 0.395696 0.775088 0.513010
O O12 0.587539 0.799413 0.718415
O O13 0.408701 0.782186 0.772021
O O14 0.663685 0.500000 0.661594
O O15 0.788494 0.208307 0.722307
O O16 0.115805 0.500000 0.304476
O O17 0.350618 0.500000 0.872855
#
# Coordination Sequence:
#
# PCOD9145423 Si02
#       7
#     4   2   4   4   4   4   4
#     4   9  15  24  41  66 100 139 170 196 235 293
#     4  12  23  36  55  77 105 137 175 213 254 311
#     4  10  22  40  59  78 100 129 171 223 271 310
#     4   8  13  23  43  73 106 139 177 208 241 296
#     4   8  12  21  44  75 102 137 178 212 248 296
#     4   9  15  27  49  75 102 135 172 212 262 306
#     4  10  19  32  49  74 108 144 173 200 245 306
#
# _framework density 27.816383999999999
#
# number of rings (size 3 to 8) (size 9 to 14) (size 15 to 20)
#    0.000    2.769    1.538    2.538    0.000    2.462 
#    0.000    3.462    0.000    2.769    0.000    2.154 
#    0.000    7.385    0.000    0.000    0.000    0.000 
#
# Total GULP energy -145041.484087 kJ/mol
# GULP energy per Si atom -5578.518619 kJ/mol
# Density = 2.775307 g / cm^3
# Si number density = 27.816384 Si / 1000 Ang^3
#
#
#
# Elastic Constant Matrix: (Units=GPa)
#
#
# Indices 1 2 3 4 5 6 
#
# 1 191.8221 6.8483 42.3041 0.0000 -20.8916 0.0000
# 2 6.8483 186.6647 0.5477 0.0000 -15.9338 0.0000
# 3 42.3041 0.5477 99.5700 0.0000 -8.7659 0.0000
# 4 0.0000 0.0000 0.0000 -0.0811 0.0000 -77.6066
# 5 -20.8916 -15.9338 -8.7659 0.0000 51.4469 0.0000
# 6 0.0000 0.0000 0.0000 -77.6066 0.0000 43.5321
#
#
#
# Elastic Compliance Matrix: (Units=1/GPa)
#
#
# Indices 1 2 3 4 5 6 
#
# 1 0.005952 -0.000040 -0.002352 0.000000 0.002004 0.000000
# 2 -0.000040 0.005504 0.000138 0.000000 0.001712 0.000000
# 3 -0.002352 0.000138 0.011128 0.000000 0.000984 0.000000
# 4 0.000000 0.000000 0.000000 -0.007224 0.000000 -0.012878
# 5 0.002004 0.001712 0.000984 0.000000 0.020949 0.000000
# 6 0.000000 0.000000 0.000000 -0.012878 0.000000 0.000013
#
#
# Mechanical properties :
#
#
# Convention : Reuss Voigt Hill
#
# Bulk Modulus (GPa) = 55.32629 64.16188 59.74409
# Shear Modulus (GPa) = 106.70672 47.53671 77.12171
#
# Velocity S-wave (km/s) = 6.20035 4.13843 5.27119
# Velocity P-wave (km/s) = 8.43755 6.77877 7.65323
#
# Compressibility (1/GPa) = 0.01807459
#
# Stress axis : x y z
#
# Youngs Moduli (GPa) = 168.02430 181.67287 89.86081
#
# Poissons Ratio (x) = 0.00734 0.21135
# Poissons Ratio (y) = 0.00679 -0.01237
# Poissons Ratio (z) = 0.39519 -0.02500
#
# Static dielectric constant tensor:
#      x y z
#    x 2.134690 0.000000 0.007200 
#    y 0.000000 2.117700 0.000000 
#    z 0.007200 0.000000 2.322130 
# 
# From -- ./inp_files/48778.got.cif
#   From: 2010.05.17/outbox.cif.g08.bks.cpg/sg10_25_cif.got.tgz:48778.got - 2010.06.03 11:33:40.
