data_PCOD9145883
_publ_section_title
;
Structure prediction by ZEFSAII (Michael W. Deem and Ramdas Pophale) SiO2 
 PCOD9145883
Probable space group: P 2/M
;
_chemical_formula_sum "Si O2"
_cell_formula_units_Z 24
_cell_length_a 9.837047
_cell_length_b 7.380030
_cell_length_c 19.472494
_cell_angle_alpha 90.000000
_cell_angle_beta 130.094026
_cell_angle_gamma 90.000000
_cell_volume 1081.432435
_symmetry_space_group_name_H-M "P 2/M"
_symmetry_group_IT_number 10
_symmetry_cell_setting 'monoclinic'
loop_
_space_group_symop_operation_xyz
x,y,z
-x,y,-z
-x,-y,-z
x,-y,z
loop_
_atom_site_type_symbol
_atom_site_label
_atom_site_fract_x
_atom_site_fract_y
_atom_site_fract_z
Si Si1 0.410609 0.778403 0.757550
Si Si2 0.298571 0.779413 0.416199
Si Si3 0.679725 0.204675 0.729365
Si Si4 0.983967 0.221007 0.415137
Si Si5 0.408583 0.780792 0.040389
Si Si6 0.996902 0.709317 0.075101
O O1 0.533119 0.716190 0.733509
O O2 0.206571 0.725310 0.678654
O O3 0.495890 0.720108 0.857973
O O4 0.416367 0.000000 0.759842
O O5 0.500000 0.730641 0.500000
O O6 0.277454 0.715149 0.330937
O O7 0.148716 0.717967 0.421279
O O8 0.285660 0.000000 0.413317
O O9 0.863201 0.198546 0.830199
O O10 0.614136 0.000000 0.693900
O O11 0.000000 0.277993 0.500000
O O12 0.986174 0.000000 0.416377
O O13 0.410727 0.000000 0.042776
O O14 0.500000 0.721213 0.000000
O O15 0.205870 0.720494 0.969501
O O16 0.054536 0.500000 0.089859
O O17 0.000000 0.788882 0.000000
#
# Coordination Sequence:
#
# PCOD9145883 Si02
#       6
#     4   4   4   4   4   4
#     4   9  17  29  45  71 102 135 170 211 261 310
#     4   9  17  28  46  76 108 137 171 214 265 319
#     4  10  19  32  54  78 106 139 178 224 268 314
#     4   9  16  26  42  67 105 141 167 204 260 319
#     4  10  21  35  55  80 108 139 179 223 268 321
#     4  11  23  38  55  77 108 145 186 223 269 324
#
# _framework density 22.192786000000002
#
# number of rings (size 3 to 8) (size 9 to 14) (size 15 to 20)
#    0.000    2.333    1.667    1.500    2.333    5.000 
#    0.000    0.000    0.000    0.500    0.000    0.000 
#    0.000    3.333    0.000    0.000    0.000    0.000 
#
# Total GULP energy -134044.775961 kJ/mol
# GULP energy per Si atom -5585.198998 kJ/mol
# Density = 2.214227 g / cm^3
# Si number density = 22.192786 Si / 1000 Ang^3
#
#
#
# Elastic Constant Matrix: (Units=GPa)
#
#
# Indices 1 2 3 4 5 6 
#
# 1 234.5303 2.4869 107.1282 0.0000 -2.4665 0.0000
# 2 2.4869 78.3963 -0.7949 0.0000 -5.5159 0.0000
# 3 107.1282 -0.7949 145.9021 0.0000 -0.8580 0.0000
# 4 0.0000 0.0000 0.0000 -26.3536 0.0000 -5.2055
# 5 -2.4665 -5.5159 -0.8580 0.0000 44.9175 0.0000
# 6 0.0000 0.0000 0.0000 -5.2055 0.0000 -11.9996
#
#
#
# Elastic Compliance Matrix: (Units=1/GPa)
#
#
# Indices 1 2 3 4 5 6 
#
# 1 0.006423 -0.000235 -0.004716 0.000000 0.000234 0.000000
# 2 -0.000235 0.012876 0.000252 0.000000 0.001573 0.000000
# 3 -0.004716 0.000252 0.010318 0.000000 -0.000031 0.000000
# 4 0.000000 0.000000 0.000000 -0.041502 0.000000 0.018004
# 5 0.000234 0.001573 -0.000031 0.000000 0.022468 0.000000
# 6 0.000000 0.000000 0.000000 0.018004 0.000000 -0.091146
#
#
# Mechanical properties :
#
#
# Convention : Reuss Voigt Hill
#
# Bulk Modulus (GPa) = 49.45821 75.16322 62.31072
# Shear Modulus (GPa) = -77.61028 24.64676 -26.48176
#
# Velocity S-wave (km/s) = -5.92004 3.33614 -3.45811
# Velocity P-wave (km/s) = 4.93914 6.98439 3.49189
#
# Compressibility (1/GPa) = 0.02021909
#
# Stress axis : x y z
#
# Youngs Moduli (GPa) = 155.69247 77.66140 96.92033
#
# Poissons Ratio (x) = 0.01826 0.45707
# Poissons Ratio (y) = 0.03661 -0.02443
# Poissons Ratio (z) = 0.73423 -0.01957
#
# Static dielectric constant tensor:
#      x y z
#    x 1.774330 0.000000 -0.047910 
#    y 0.000000 1.867300 0.000000 
#    z -0.047910 0.000000 1.754110 
# 
# From -- ./inp_files/27053.got.cif
#   From: 2010.05.17/outbox.cif.g08.bks.cpg/sg10_14_cif.got.tgz:27053.got - 2010.06.03 11:33:40.
