data_PCOD9145820
_publ_section_title
;
Structure prediction by ZEFSAII (Michael W. Deem and Ramdas Pophale) SiO2 
 PCOD9145820
Probable space group: P 2/M
;
_chemical_formula_sum "Si O2"
_cell_formula_units_Z 28
_cell_length_a 13.396774
_cell_length_b 12.982845
_cell_length_c 9.565032
_cell_angle_alpha 90.000000
_cell_angle_beta 72.087998
_cell_angle_gamma 90.000000
_cell_volume 1582.993077
_symmetry_space_group_name_H-M "P 2/M"
_symmetry_group_IT_number 10
_symmetry_cell_setting 'monoclinic'
loop_
_space_group_symop_operation_xyz
x,y,z
-x,y,-z
-x,-y,-z
x,-y,z
loop_
_atom_site_type_symbol
_atom_site_label
_atom_site_fract_x
_atom_site_fract_y
_atom_site_fract_z
Si Si1 0.896140 0.500000 0.135374
Si Si2 0.726646 0.882291 0.054756
Si Si3 0.197398 0.711928 0.773819
Si Si4 0.581105 0.619343 0.338639
Si Si5 0.723552 0.122052 0.723197
Si Si6 0.880411 0.727721 0.494949
Si Si7 0.887929 0.500000 0.475566
Si Si8 0.496172 0.214057 0.836876
O O1 0.839890 0.608377 0.132156
O O2 0.905884 0.500000 0.300622
O O3 0.000000 0.500000 0.000000
O O4 0.791134 0.803809 0.121992
O O5 0.603650 0.861016 0.139948
O O6 0.752785 0.000000 0.074634
O O7 0.741557 0.864450 0.882480
O O8 0.312763 0.679958 0.668708
O O9 0.126739 0.739466 0.670251
O O10 0.500000 0.621209 0.500000
O O11 0.605486 0.500000 0.295681
O O12 0.529406 0.681779 0.234270
O O13 0.806922 0.189410 0.601788
O O14 0.605569 0.162633 0.745242
O O15 0.730879 0.000000 0.689489
O O16 0.838692 0.609874 0.537241
O O17 0.000000 0.734355 0.500000
O O18 0.000000 0.500000 0.500000
O O19 0.500000 0.235161 0.000000
#
# Coordination Sequence:
#
# PCOD9145820 Si02
#       8
#     2   4   4   4   4   4   2   4
#     4  10  20  34  55  77 103 142 177 217 267 312
#     4   9  19  35  57  81 108 142 178 222 273 323
#     4  10  20  36  55  80 112 140 182 224 268 325
#     4  10  19  32  53  79 112 146 174 212 268 325
#     4  10  20  36  56  80 109 143 184 224 268 319
#     4  10  21  37  57  78 107 142 184 227 270 318
#     4   8  18  36  54  75 101 130 173 223 266 316
#     4   9  18  34  54  79 109 141 178 218 265 321
#
# _framework density 17.688010999999999
#
# number of rings (size 3 to 8) (size 9 to 14) (size 15 to 20)
#    0.000    2.429    0.714    1.286    0.000    6.286 
#    1.286    0.000    0.000    6.857    0.000    0.000 
#    0.000    0.000    0.000    0.000    0.000    0.000 
#
# Total GULP energy -156038.542382 kJ/mol
# GULP energy per Si atom -5572.805085 kJ/mol
# Density = 1.764775 g / cm^3
# Si number density = 17.688011 Si / 1000 Ang^3
#
#
#
# Elastic Constant Matrix: (Units=GPa)
#
#
# Indices 1 2 3 4 5 6 
#
# 1 72.6496 37.9087 31.0484 0.0000 11.5008 0.0000
# 2 37.9087 111.6896 51.5955 0.0000 14.1010 0.0000
# 3 31.0484 51.5955 40.1989 0.0000 -6.8554 0.0000
# 4 0.0000 0.0000 0.0000 13.9177 0.0000 23.6081
# 5 11.5008 14.1010 -6.8554 0.0000 29.9962 0.0000
# 6 0.0000 0.0000 0.0000 23.6081 0.0000 -3.2598
#
#
#
# Elastic Compliance Matrix: (Units=1/GPa)
#
#
# Indices 1 2 3 4 5 6 
#
# 1 0.032984 0.018483 -0.054980 0.000000 -0.033900 0.000000
# 2 0.018483 0.047021 -0.082835 0.000000 -0.048122 0.000000
# 3 -0.054980 -0.082835 0.191353 0.000000 0.103752 0.000000
# 4 0.000000 0.000000 0.000000 0.005409 0.000000 0.039170
# 5 -0.033900 -0.048122 0.103752 0.000000 0.092669 0.000000
# 6 0.000000 0.000000 0.000000 0.039170 0.000000 -0.023092
#
#
# Mechanical properties :
#
#
# Convention : Reuss Voigt Hill
#
# Bulk Modulus (GPa) = 30.58531 51.73815 41.16173
# Shear Modulus (GPa) = 8.39060 15.06319 11.72690
#
# Velocity S-wave (km/s) = 2.18036 2.92139 2.57764
# Velocity P-wave (km/s) = 4.86495 6.37913 5.67279
#
# Compressibility (1/GPa) = 0.03269544
#
# Stress axis : x y z
#
# Youngs Moduli (GPa) = 30.31817 21.26696 5.22593
#
# Poissons Ratio (x) = -0.39308 0.28732
# Poissons Ratio (y) = -0.56038 0.43289
# Poissons Ratio (z) = 1.66689 1.76164
#
# Static dielectric constant tensor:
#      x y z
#    x 1.623240 0.000000 -0.001060 
#    y 0.000000 1.607720 0.000000 
#    z -0.001060 0.000000 1.583540 
# 
# From -- ./inp_files/28267.got.cif
#   From: 2010.05.17/outbox.cif.g08.bks.cpg/sg10_15_cif.got.tgz:28267.got - 2010.06.03 11:33:40.
