data_PCOD9145905
_publ_section_title
;
Structure prediction by ZEFSAII (Michael W. Deem and Ramdas Pophale) SiO2 
 PCOD9145905
Probable space group: P 2/M
;
_chemical_formula_sum "Si O2"
_cell_formula_units_Z 28
_cell_length_a 23.943434
_cell_length_b 11.653073
_cell_length_c 20.189918
_cell_angle_alpha 90.000000
_cell_angle_beta 162.705994
_cell_angle_gamma 90.000000
_cell_volume 1674.633725
_symmetry_space_group_name_H-M "P 2/M"
_symmetry_group_IT_number 10
_symmetry_cell_setting 'monoclinic'
loop_
_space_group_symop_operation_xyz
x,y,z
-x,y,-z
-x,-y,-z
x,-y,z
loop_
_atom_site_type_symbol
_atom_site_label
_atom_site_fract_x
_atom_site_fract_y
_atom_site_fract_z
Si Si1 0.405503 0.756173 0.575600
Si Si2 0.048704 0.361001 0.354607
Si Si3 0.348877 0.752463 0.274248
Si Si4 0.239287 0.000000 0.351005
Si Si5 0.644630 0.638100 0.957864
Si Si6 0.558443 0.361258 0.138478
Si Si7 0.034218 0.636482 0.184449
Si Si8 0.210176 0.000000 0.158478
O O1 0.556236 0.733476 0.689069
O O2 0.338519 0.887578 0.493180
O O3 0.501809 0.711736 0.751772
O O4 0.215382 0.683776 0.352149
O O5 0.058346 0.500000 0.363514
O O6 0.237903 0.320214 0.605187
O O7 0.042549 0.322891 0.270983
O O8 0.856441 0.333394 0.175396
O O9 0.500000 0.718197 0.500000
O O10 0.298900 0.885921 0.228364
O O11 0.156508 0.683647 0.062151
O O12 0.250851 0.000000 0.283645
O O13 0.014362 0.000000 0.108569
O O14 0.614365 0.500000 0.911889
O O15 0.594827 0.660842 0.977916
O O16 0.572776 0.500000 0.149809
O O17 0.500000 0.317770 0.000000
O O18 0.035360 0.500000 0.185787
#
# Coordination Sequence:
#
# PCOD9145905 Si02
#       8
#     4   4   4   2   4   4   4   2
#     4  12  22  37  60  84 106 145 188 233 279 336
#     4   9  17  31  50  75 109 148 183 216 263 323
#     4  12  24  39  61  80 107 145 189 238 291 332
#     4  11  23  38  65  81 105 139 183 237 295 336
#     4  10  19  32  54  80 111 150 184 219 272 332
#     4   9  17  29  48  78 115 149 182 222 265 317
#     4  11  23  38  56  81 114 151 187 227 277 339
#     4  11  22  43  60  81 107 137 181 242 304 340
#
# _framework density 16.720074
#
# number of rings (size 3 to 8) (size 9 to 14) (size 15 to 20)
#    0.000    1.429    5.714    1.071    0.000    2.000 
#    0.000    3.571    0.000    0.000    0.000    0.500 
#    0.000    1.143    0.000    0.000    0.000    0.000 
#
# Total GULP energy -156240.436485 kJ/mol
# GULP energy per Si atom -5580.015589 kJ/mol
# Density = 1.668202 g / cm^3
# Si number density = 16.720074 Si / 1000 Ang^3
#
#
#
# Elastic Constant Matrix: (Units=GPa)
#
#
# Indices 1 2 3 4 5 6 
#
# 1 65.9615 17.7038 8.7934 0.0000 8.2644 0.0000
# 2 17.7038 48.9584 14.9241 0.0000 2.1007 0.0000
# 3 8.7934 14.9241 62.5850 0.0000 16.9773 0.0000
# 4 0.0000 0.0000 0.0000 7.2720 0.0000 18.8176
# 5 8.2644 2.1007 16.9773 0.0000 31.1970 0.0000
# 6 0.0000 0.0000 0.0000 18.8176 0.0000 -2.3698
#
#
#
# Elastic Compliance Matrix: (Units=1/GPa)
#
#
# Indices 1 2 3 4 5 6 
#
# 1 0.017318 -0.006137 0.000191 0.000000 -0.004278 0.000000
# 2 -0.006137 0.024271 -0.005776 0.000000 0.003135 0.000000
# 3 0.000191 -0.005776 0.020222 0.000000 -0.010666 0.000000
# 4 0.000000 0.000000 0.000000 0.006382 0.000000 0.050675
# 5 -0.004278 0.003135 -0.010666 0.000000 0.038781 0.000000
# 6 0.000000 0.000000 0.000000 0.050675 0.000000 -0.019583
#
#
# Mechanical properties :
#
#
# Convention : Reuss Voigt Hill
#
# Bulk Modulus (GPa) = 26.06385 28.92750 27.49568
# Shear Modulus (GPa) = 40.44536 16.29210 28.36873
#
# Velocity S-wave (km/s) = 4.92364 3.12493 4.12355
# Velocity P-wave (km/s) = 6.92424 5.50989 6.25716
#
# Compressibility (1/GPa) = 0.03836731
#
# Stress axis : x y z
#
# Youngs Moduli (GPa) = 57.74312 41.20178 49.45064
#
# Poissons Ratio (x) = 0.25285 -0.00943
# Poissons Ratio (y) = 0.35437 0.28561
# Poissons Ratio (z) = -0.01101 0.23797
#
# Static dielectric constant tensor:
#      x y z
#    x 1.574420 0.000000 0.006880 
#    y 0.000000 1.538060 0.000000 
#    z 0.006880 0.000000 1.572320 
# 
# From -- ./inp_files/79544.got.cif
#   From: 2010.05.17/outbox.cif.g08.bks.cpg/sg10_40_cif.got.tgz:79544.got - 2010.06.03 11:33:40.
