data_PCOD9145870
_publ_section_title
;
Structure prediction by ZEFSAII (Michael W. Deem and Ramdas Pophale) SiO2 
 PCOD9145870
Probable space group: P 2/M
;
_chemical_formula_sum "Si O2"
_cell_formula_units_Z 18
_cell_length_a 9.587963
_cell_length_b 8.470411
_cell_length_c 22.503386
_cell_angle_alpha 90.000000
_cell_angle_beta 31.698096
_cell_angle_gamma 90.000000
_cell_volume 960.294907
_symmetry_space_group_name_H-M "P 2/M"
_symmetry_group_IT_number 10
_symmetry_cell_setting 'monoclinic'
loop_
_space_group_symop_operation_xyz
x,y,z
-x,y,-z
-x,-y,-z
x,-y,z
loop_
_atom_site_type_symbol
_atom_site_label
_atom_site_fract_x
_atom_site_fract_y
_atom_site_fract_z
Si Si1 0.000000 0.238262 0.500000
Si Si2 0.758018 0.685578 0.129724
Si Si3 0.773139 0.684450 0.364294
Si Si4 0.436419 0.814930 0.680235
Si Si5 0.214856 0.822255 0.291067
O O1 0.702130 0.295098 0.589192
O O2 0.913703 0.172217 0.596076
O O3 0.788015 0.500000 0.132306
O O4 0.735400 0.781897 0.199051
O O5 0.476163 0.715668 0.200121
O O6 0.000000 0.734614 0.000000
O O7 0.500000 0.697105 0.500000
O O8 0.826238 0.500000 0.333704
O O9 0.723203 0.773913 0.320842
O O10 0.003197 0.756905 0.321379
O O11 0.522507 0.000000 0.648055
O O12 0.293034 0.000000 0.247102
#
# Coordination Sequence:
#
# PCOD9145870 Si02
#       5
#     2   4   4   4   4
#     4  10  19  32  53  84 115 148 185 232 287 336
#     4  10  22  41  62  85 116 152 192 242 294 341
#     4  11  23  37  54  85 124 159 191 231 287 350
#     4  11  21  36  59  86 117 153 195 238 284 343
#     4  11  21  36  59  86 117 153 195 238 284 343
#
# _framework density 18.744242
#
# number of rings (size 3 to 8) (size 9 to 14) (size 15 to 20)
#    0.000    1.333    2.222    6.000    0.000    2.667 
#    0.000    4.444    0.000    6.667    0.000    0.000 
#    0.000    0.000    0.000    0.000    0.000    0.000 
#
# Total GULP energy -100273.613743 kJ/mol
# GULP energy per Si atom -5570.756319 kJ/mol
# Density = 1.870158 g / cm^3
# Si number density = 18.744242 Si / 1000 Ang^3
#
#
#
# Elastic Constant Matrix: (Units=GPa)
#
#
# Indices 1 2 3 4 5 6 
#
# 1 167.7987 24.6126 39.0066 0.0000 -0.9770 0.0000
# 2 24.6126 48.0306 16.2383 0.0000 6.7130 0.0000
# 3 39.0066 16.2383 104.7044 0.0000 3.4534 0.0000
# 4 0.0000 0.0000 0.0000 17.1360 0.0000 -3.9971
# 5 -0.9770 6.7130 3.4534 0.0000 13.4915 0.0000
# 6 0.0000 0.0000 0.0000 -3.9971 0.0000 23.8488
#
#
#
# Elastic Compliance Matrix: (Units=1/GPa)
#
#
# Indices 1 2 3 4 5 6 
#
# 1 0.006951 -0.003195 -0.002181 0.000000 0.002651 0.000000
# 2 -0.003195 0.024910 -0.002276 0.000000 -0.012043 0.000000
# 3 -0.002181 -0.002276 0.010775 0.000000 -0.001784 0.000000
# 4 0.000000 0.000000 0.000000 0.060731 0.000000 0.010179
# 5 0.002651 -0.012043 -0.001784 0.000000 0.080761 0.000000
# 6 0.000000 0.000000 0.000000 0.010179 0.000000 0.043637
#
#
# Mechanical properties :
#
#
# Convention : Reuss Voigt Hill
#
# Bulk Modulus (GPa) = 36.58765 53.36099 44.97432
# Shear Modulus (GPa) = 19.82716 26.94035 23.38376
#
# Velocity S-wave (km/s) = 3.25587 3.79523 3.53585
# Velocity P-wave (km/s) = 5.80483 6.90904 6.38086
#
# Compressibility (1/GPa) = 0.02733163
#
# Stress axis : x y z
#
# Youngs Moduli (GPa) = 143.87125 40.14478 92.80640
#
# Poissons Ratio (x) = 0.12826 0.20244
# Poissons Ratio (y) = 0.45965 0.21121
# Poissons Ratio (z) = 0.31384 0.09136
#
# Static dielectric constant tensor:
#      x y z
#    x 1.632470 0.000000 -0.007170 
#    y 0.000000 1.665950 0.000000 
#    z -0.007170 0.000000 1.626400 
# 
# From -- ./inp_files/16936.got.cif
#   From: 2010.05.17/outbox.cif.g08.bks.cpg/sg10_9_cif.got.tgz:16936.got - 2010.06.03 11:33:40.
