data_PCOD9145887
_publ_section_title
;
Structure prediction by ZEFSAII (Michael W. Deem and Ramdas Pophale) SiO2 
 PCOD9145887
Probable space group: P 2/M
;
_chemical_formula_sum "Si O2"
_cell_formula_units_Z 32
_cell_length_a 17.292273
_cell_length_b 7.854759
_cell_length_c 23.865362
_cell_angle_alpha 90.000000
_cell_angle_beta 22.511294
_cell_angle_gamma 90.000000
_cell_volume 1241.078496
_symmetry_space_group_name_H-M "P 2/M"
_symmetry_group_IT_number 10
_symmetry_cell_setting 'monoclinic'
loop_
_space_group_symop_operation_xyz
x,y,z
-x,y,-z
-x,-y,-z
x,-y,z
loop_
_atom_site_type_symbol
_atom_site_label
_atom_site_fract_x
_atom_site_fract_y
_atom_site_fract_z
Si Si1 0.458676 0.697321 0.957461
Si Si2 0.779484 0.190866 0.990226
Si Si3 0.536569 0.205442 0.367325
Si Si4 0.917494 0.698573 0.721618
Si Si5 0.982772 0.792058 0.075635
Si Si6 0.773399 0.204444 0.659656
Si Si7 0.674983 0.800334 0.605395
Si Si8 0.851977 0.693302 0.313274
O O1 0.477462 0.500000 0.956812
O O2 0.671780 0.758062 0.788049
O O3 0.327537 0.714670 0.988230
O O4 0.307065 0.766148 0.108568
O O5 0.817496 0.269064 0.025208
O O6 0.016144 0.186628 0.813922
O O7 0.695304 0.000000 0.047306
O O8 0.755325 0.266511 0.240427
O O9 0.450835 0.269169 0.363875
O O10 0.372825 0.252831 0.523214
O O11 0.546636 0.000000 0.356042
O O12 0.899966 0.500000 0.716963
O O13 0.083701 0.785495 0.570439
O O14 0.036851 0.701786 0.700847
O O15 0.995289 0.000000 0.070711
O O16 0.000000 0.745535 0.000000
O O17 0.652140 0.265225 0.684770
O O18 0.000000 0.272397 0.500000
O O19 0.782293 0.000000 0.650233
O O20 0.625657 0.000000 0.640207
O O21 0.866798 0.500000 0.283020
#
# Coordination Sequence:
#
# PCOD9145887 Si02
#       8
#     4   4   4   4   4   4   4   4
#     4  10  21  37  58  83 112 146 184 222 270 329
#     4  10  19  32  54  79 104 138 178 221 271 314
#     4   9  17  31  52  76 101 134 180 224 264 313
#     4   8  16  32  53  78 107 139 178 224 266 319
#     4   9  19  32  48  72 104 138 178 229 268 307
#     4  10  22  39  58  85 116 143 178 224 271 324
#     4   9  18  32  56  83 107 140 181 225 271 320
#     4   9  17  31  50  73 105 137 174 220 269 318
#
# _framework density 25.784026999999998
#
# number of rings (size 3 to 8) (size 9 to 14) (size 15 to 20)
#    0.000    2.750    0.000    1.875    1.750    4.750 
#    0.000    4.375    0.000    5.625    0.000    0.000 
#    0.000    0.000    0.000    0.000    0.000    0.000 
#
# Total GULP energy -178572.186751 kJ/mol
# GULP energy per Si atom -5580.380836 kJ/mol
# Density = 2.572534 g / cm^3
# Si number density = 25.784027 Si / 1000 Ang^3
#
#
#
# Elastic Constant Matrix: (Units=GPa)
#
#
# Indices 1 2 3 4 5 6 
#
# 1 102.4509 8.2851 16.7289 0.0000 7.8703 0.0000
# 2 8.2851 35.4050 -0.8384 0.0000 2.9391 0.0000
# 3 16.7289 -0.8384 134.5460 0.0000 -1.0170 0.0000
# 4 0.0000 0.0000 0.0000 -102.0119 0.0000 -100.1843
# 5 7.8703 2.9391 -1.0170 0.0000 51.0375 0.0000
# 6 0.0000 0.0000 0.0000 -100.1843 0.0000 -50.6359
#
#
#
# Elastic Compliance Matrix: (Units=1/GPa)
#
#
# Indices 1 2 3 4 5 6 
#
# 1 0.010274 -0.002312 -0.001303 0.000000 -0.001477 0.000000
# 2 -0.002312 0.028904 0.000458 0.000000 -0.001299 0.000000
# 3 -0.001303 0.000458 0.007600 0.000000 0.000326 0.000000
# 4 0.000000 0.000000 0.000000 0.010394 0.000000 -0.020566
# 5 -0.001477 -0.001299 0.000326 0.000000 0.019902 0.000000
# 6 0.000000 0.000000 0.000000 -0.020566 0.000000 0.020941
#
#
# Mechanical properties :
#
#
# Convention : Reuss Voigt Hill
#
# Bulk Modulus (GPa) = 24.71402 35.63924 30.17663
# Shear Modulus (GPa) = 42.43804 -3.77364 19.33220
#
# Velocity S-wave (km/s) = 4.06138 -1.21109 2.74117
# Velocity P-wave (km/s) = 5.62129 3.44914 4.66344
#
# Compressibility (1/GPa) = 0.04046286
#
# Stress axis : x y z
#
# Youngs Moduli (GPa) = 97.33293 34.59681 131.58360
#
# Poissons Ratio (x) = 0.08000 0.17145
# Poissons Ratio (y) = 0.22508 -0.06024
# Poissons Ratio (z) = 0.12683 -0.01584
#
# Static dielectric constant tensor:
#      x y z
#    x 2.192090 0.000000 -0.003870 
#    y 0.000000 1.932840 0.000000 
#    z -0.003870 0.000000 2.136590 
# 
# From -- ./inp_files/93669.got.cif
#   From: 2010.05.17/outbox.cif.g08.bks.cpg/sg10_47_cif.got.tgz:93669.got - 2010.06.03 11:33:40.
