data_PCOD9145622
_publ_section_title
;
Structure prediction by ZEFSAII (Michael W. Deem and Ramdas Pophale) SiO2 
 PCOD9145622
Probable space group: P 2/M
;
_chemical_formula_sum "Si O2"
_cell_formula_units_Z 26
_cell_length_a 21.045071
_cell_length_b 9.152879
_cell_length_c 11.883258
_cell_angle_alpha 90.000000
_cell_angle_beta 141.229411
_cell_angle_gamma 90.000000
_cell_volume 1433.373127
_symmetry_space_group_name_H-M "P 2/M"
_symmetry_group_IT_number 10
_symmetry_cell_setting 'monoclinic'
loop_
_space_group_symop_operation_xyz
x,y,z
-x,y,-z
-x,-y,-z
x,-y,z
loop_
_atom_site_type_symbol
_atom_site_label
_atom_site_fract_x
_atom_site_fract_y
_atom_site_fract_z
Si Si1 0.967707 0.322589 0.829928
Si Si2 0.597517 0.323150 0.065920
Si Si3 0.822762 0.322712 0.971654
Si Si4 0.683288 0.165600 0.600271
Si Si5 0.345324 0.331866 0.097643
Si Si6 0.738832 0.324905 0.463162
Si Si7 0.500000 0.753158 0.500000
O O1 0.964733 0.500000 0.828200
O O2 0.855121 0.275650 0.640362
O O3 0.000000 0.274786 0.000000
O O4 0.059440 0.281421 0.873356
O O5 0.583679 0.500000 0.038352
O O6 0.694417 0.295952 0.278748
O O7 0.500000 0.267334 0.000000
O O8 0.614236 0.265398 0.962758
O O9 0.815921 0.500000 0.956814
O O10 0.765625 0.258012 0.784284
O O11 0.757024 0.269260 0.987425
O O12 0.671823 0.246207 0.465636
O O13 0.581307 0.165246 0.534016
O O14 0.717642 0.000000 0.631227
O O15 0.321082 0.500000 0.038129
O O16 0.429923 0.329666 0.312538
O O17 0.733079 0.500000 0.473862
#
# Coordination Sequence:
#
# PCOD9145622 Si02
#       7
#     4   4   4   4   4   4   2
#     4   9  15  27  48  73  99 126 161 200 242 291
#     4   9  17  29  46  71 101 127 161 206 244 281
#     4   9  17  31  50  71  98 128 160 200 244 292
#     4  11  21  32  47  71 101 127 160 204 247 290
#     4   9  17  29  48  75  99 124 164 207 239 283
#     4  10  19  32  52  72  96 133 166 195 243 293
#     4  10  20  32  48  66  97 134 159 192 253 302
#
# _framework density 18.139030000000002
#
# number of rings (size 3 to 8) (size 9 to 14) (size 15 to 20)
#    0.000    2.462    1.538    1.846    0.000    3.077 
#    0.000    2.308    0.000   12.462    0.000    0.000 
#    0.000    6.154    0.000    0.000    0.000    0.000 
#
# Total GULP energy -144761.606960 kJ/mol
# GULP energy per Si atom -5567.754114 kJ/mol
# Density = 1.809774 g / cm^3
# Si number density = 18.139030 Si / 1000 Ang^3
#
#
#
# Elastic Constant Matrix: (Units=GPa)
#
#
# Indices 1 2 3 4 5 6 
#
# 1 147.6202 14.0165 61.7451 0.0000 -6.1073 0.0000
# 2 14.0165 20.1023 8.1101 0.0000 -2.5408 0.0000
# 3 61.7451 8.1101 74.6151 0.0000 2.3708 0.0000
# 4 0.0000 0.0000 0.0000 -1.5102 0.0000 2.2061
# 5 -6.1073 -2.5408 2.3708 0.0000 34.1470 0.0000
# 6 0.0000 0.0000 0.0000 2.2061 0.0000 3.9744
#
#
#
# Elastic Compliance Matrix: (Units=1/GPa)
#
#
# Indices 1 2 3 4 5 6 
#
# 1 0.010835 -0.003790 -0.008626 0.000000 0.002255 0.000000
# 2 -0.003790 0.053982 -0.002844 0.000000 0.003536 0.000000
# 3 -0.008626 -0.002844 0.020951 0.000000 -0.003209 0.000000
# 4 0.000000 0.000000 0.000000 -0.365660 0.000000 0.202970
# 5 0.002255 0.003536 -0.003209 0.000000 0.030174 0.000000
# 6 0.000000 0.000000 0.000000 0.202970 0.000000 0.138946
#
#
# Mechanical properties :
#
#
# Convention : Reuss Voigt Hill
#
# Bulk Modulus (GPa) = 18.09964 45.56454 31.83209
# Shear Modulus (GPa) = -80.86164 17.88664 -31.48750
#
# Velocity S-wave (km/s) = -6.68398 3.14361 -4.17093
# Velocity P-wave (km/s) = 7.04042 6.19278 2.36823
#
# Compressibility (1/GPa) = 0.05524973
#
# Stress axis : x y z
#
# Youngs Moduli (GPa) = 92.29091 18.52460 47.72958
#
# Poissons Ratio (x) = 0.07021 0.41172
# Poissons Ratio (y) = 0.34977 0.13573
# Poissons Ratio (z) = 0.79611 0.05268
#
# Static dielectric constant tensor:
#      x y z
#    x 1.676980 0.000000 0.013080 
#    y 0.000000 1.608480 0.000000 
#    z 0.013080 0.000000 1.618040 
# 
# From -- ./inp_files/55420.got.cif
#   From: 2010.05.17/outbox.cif.g08.bks.cpg/sg10_28_cif.got.tgz:55420.got - 2010.06.03 11:33:40.
