data_PCOD9145961
_publ_section_title
;
Structure prediction by ZEFSAII (Michael W. Deem and Ramdas Pophale) SiO2 
 PCOD9145961
Probable space group: P 2/M
;
_chemical_formula_sum "Si O2"
_cell_formula_units_Z 28
_cell_length_a 11.792618
_cell_length_b 7.532570
_cell_length_c 15.308071
_cell_angle_alpha 90.000000
_cell_angle_beta 67.911082
_cell_angle_gamma 90.000000
_cell_volume 1259.989187
_symmetry_space_group_name_H-M "P 2/M"
_symmetry_group_IT_number 10
_symmetry_cell_setting 'monoclinic'
loop_
_space_group_symop_operation_xyz
x,y,z
-x,y,-z
-x,-y,-z
x,-y,z
loop_
_atom_site_type_symbol
_atom_site_label
_atom_site_fract_x
_atom_site_fract_y
_atom_site_fract_z
Si Si1 0.374727 0.783485 0.143746
Si Si2 0.110350 0.289135 0.909653
Si Si3 0.841930 0.707257 0.294263
Si Si4 0.441142 0.214764 0.609567
Si Si5 0.343105 0.213942 0.959603
Si Si6 0.104136 0.290072 0.532208
Si Si7 0.332154 0.785586 0.345406
O O1 0.518240 0.730745 0.103799
O O2 0.312381 0.724140 0.251739
O O3 0.372493 0.000000 0.144055
O O4 0.320020 0.725965 0.066496
O O5 0.090035 0.500000 0.907025
O O6 0.115416 0.213953 0.810151
O O7 0.238902 0.268047 0.922475
O O8 0.000000 0.215401 0.000000
O O9 0.876750 0.500000 0.284077
O O10 0.694831 0.716148 0.339567
O O11 0.888540 0.786073 0.372284
O O12 0.500000 0.268593 0.500000
O O13 0.534571 0.269419 0.658349
O O14 0.433694 0.000000 0.611787
O O15 0.344556 0.000000 0.959422
O O16 0.079749 0.500000 0.548687
O O17 0.231577 0.272054 0.444189
O O18 0.000000 0.212582 0.500000
O O19 0.330464 0.000000 0.345778
#
# Coordination Sequence:
#
# PCOD9145961 Si02
#       7
#     4   4   4   4   4   4   4
#     4   8  16  31  54  81 108 136 165 210 268 316
#     4  10  22  38  54  75 106 142 179 222 270 311
#     4  10  21  37  56  77 105 142 179 217 265 319
#     4  10  19  32  54  84 112 136 169 216 264 310
#     4   9  17  34  57  79 104 136 175 215 261 316
#     4  10  22  38  53  72 102 139 178 215 254 306
#     4  10  19  33  53  79 109 138 170 209 259 314
#
# _framework density 22.222413
#
# number of rings (size 3 to 8) (size 9 to 14) (size 15 to 20)
#    0.000    2.429    1.429    1.714    0.000    4.286 
#    0.000    4.286    0.000    0.000    0.000    0.000 
#    0.000    0.000    0.000    0.000    0.000    0.000 
#
# Total GULP energy -156372.685875 kJ/mol
# GULP energy per Si atom -5584.738781 kJ/mol
# Density = 2.217183 g / cm^3
# Si number density = 22.222413 Si / 1000 Ang^3
#
#
#
# Elastic Constant Matrix: (Units=GPa)
#
#
# Indices 1 2 3 4 5 6 
#
# 1 98.5244 -0.2982 65.8399 0.0000 28.4734 0.0000
# 2 -0.2982 54.7912 10.4316 0.0000 3.4671 0.0000
# 3 65.8399 10.4316 209.0965 0.0000 35.5403 0.0000
# 4 0.0000 0.0000 0.0000 5.3671 0.0000 1.2079
# 5 28.4734 3.4671 35.5403 0.0000 29.7159 0.0000
# 6 0.0000 0.0000 0.0000 1.2079 0.0000 20.7805
#
#
#
# Elastic Compliance Matrix: (Units=1/GPa)
#
#
# Indices 1 2 3 4 5 6 
#
# 1 0.015445 0.001375 -0.002999 0.000000 -0.011373 0.000000
# 2 0.001375 0.018590 -0.000964 0.000000 -0.002334 0.000000
# 3 -0.002999 -0.000964 0.006611 0.000000 -0.004921 0.000000
# 4 0.000000 0.000000 0.000000 0.188789 0.000000 -0.010973
# 5 -0.011373 -0.002334 -0.004921 0.000000 0.050707 0.000000
# 6 0.000000 0.000000 0.000000 -0.010973 0.000000 0.048760
#
#
# Mechanical properties :
#
#
# Convention : Reuss Voigt Hill
#
# Bulk Modulus (GPa) = 28.19274 57.15097 42.67185
# Shear Modulus (GPa) = 14.45502 30.26862 22.36182
#
# Velocity S-wave (km/s) = 2.55320 3.69464 3.17562
# Velocity P-wave (km/s) = 4.62665 6.63129 5.71751
#
# Compressibility (1/GPa) = 0.03547013
#
# Stress axis : x y z
#
# Youngs Moduli (GPa) = 64.74790 53.79316 151.25691
#
# Poissons Ratio (x) = -0.07394 0.45357
# Poissons Ratio (y) = -0.08900 0.14575
# Poissons Ratio (z) = 0.19416 0.05184
#
# Static dielectric constant tensor:
#      x y z
#    x 1.779110 0.000000 0.030860 
#    y 0.000000 1.855150 0.000000 
#    z 0.030860 0.000000 1.839320 
# 
# From -- ./inp_files/49360.got.cif
#   From: 2010.05.17/outbox.cif.g08.bks.cpg/sg10_25_cif.got.tgz:49360.got - 2010.06.03 11:33:40.
