data_PCOD9145835
_publ_section_title
;
Structure prediction by ZEFSAII (Michael W. Deem and Ramdas Pophale) SiO2 
 PCOD9145835
Probable space group: P 2/M
;
_chemical_formula_sum "Si O2"
_cell_formula_units_Z 32
_cell_length_a 29.377065
_cell_length_b 7.436135
_cell_length_c 11.934743
_cell_angle_alpha 90.000000
_cell_angle_beta 31.003882
_cell_angle_gamma 90.000000
_cell_volume 1342.941346
_symmetry_space_group_name_H-M "P 2/M"
_symmetry_group_IT_number 10
_symmetry_cell_setting 'monoclinic'
loop_
_space_group_symop_operation_xyz
x,y,z
-x,y,-z
-x,-y,-z
x,-y,z
loop_
_atom_site_type_symbol
_atom_site_label
_atom_site_fract_x
_atom_site_fract_y
_atom_site_fract_z
Si Si1 0.215355 0.716757 0.055116
Si Si2 0.857669 0.788519 0.559790
Si Si3 0.636684 0.208893 0.666581
Si Si4 0.323841 0.780725 0.168148
Si Si5 0.026967 0.293798 0.062541
Si Si6 0.407411 0.294201 0.659792
Si Si7 0.195951 0.281402 0.840656
Si Si8 0.481228 0.781946 0.275689
O O1 0.222066 0.500000 0.036566
O O2 0.147298 0.762830 0.296328
O O3 0.194973 0.778712 0.972292
O O4 0.312520 0.786959 0.887231
O O5 0.765573 0.717102 0.701772
O O6 0.942404 0.706486 0.321541
O O7 0.862030 0.000000 0.526676
O O8 0.666915 0.282094 0.722561
O O9 0.552908 0.279665 0.773726
O O10 0.616072 0.000000 0.732979
O O11 0.717855 0.221588 0.408960
O O12 0.320489 0.000000 0.173082
O O13 0.417462 0.729762 0.915325
O O14 0.053048 0.500000 0.982355
O O15 0.110349 0.216195 0.952771
O O16 0.000000 0.210836 0.000000
O O17 0.500000 0.206043 0.500000
O O18 0.408233 0.500000 0.699007
O O19 0.416498 0.293347 0.506251
O O20 0.195913 0.500000 0.842931
O O21 0.475899 0.000000 0.290124
#
# Coordination Sequence:
#
# PCOD9145835 Si02
#       8
#     4   4   4   4   4   4   4   4
#     4  10  21  38  57  78 112 151 186 227 277 335
#     4  11  23  38  59  85 114 147 186 234 280 326
#     4  10  19  33  56  83 112 147 187 231 278 332
#     4   9  19  35  53  79 115 151 185 226 282 339
#     4  10  22  41  64  88 113 144 184 227 279 344
#     4  10  20  34  53  77 109 150 192 234 276 320
#     4  10  21  38  60  83 111 149 186 229 284 336
#     4  10  19  32  53  80 110 147 188 229 275 331
#
# _framework density 23.828294
#
# number of rings (size 3 to 8) (size 9 to 14) (size 15 to 20)
#    0.000    2.000    1.250    2.250    0.000    4.000 
#    0.000    4.375    0.000    1.500    0.000    0.000 
#    0.000    0.000    0.000    0.000    0.000    0.000 
#
# Total GULP energy -178895.401874 kJ/mol
# GULP energy per Si atom -5590.481309 kJ/mol
# Density = 2.377406 g / cm^3
# Si number density = 23.828294 Si / 1000 Ang^3
#
#
#
# Elastic Constant Matrix: (Units=GPa)
#
#
# Indices 1 2 3 4 5 6 
#
# 1 99.8533 4.9989 19.0143 0.0000 -5.4082 0.0000
# 2 4.9989 83.7752 -13.3115 0.0000 -4.2411 0.0000
# 3 19.0143 -13.3115 86.0753 0.0000 2.0350 0.0000
# 4 0.0000 0.0000 0.0000 8.8604 0.0000 14.6187
# 5 -5.4082 -4.2411 2.0350 0.0000 47.0194 0.0000
# 6 0.0000 0.0000 0.0000 14.6187 0.0000 -6.9786
#
#
#
# Elastic Compliance Matrix: (Units=1/GPa)
#
#
# Indices 1 2 3 4 5 6 
#
# 1 0.010611 -0.000971 -0.002524 0.000000 0.001242 0.000000
# 2 -0.000971 0.012376 0.002107 0.000000 0.000913 0.000000
# 3 -0.002524 0.002107 0.012516 0.000000 -0.000642 0.000000
# 4 0.000000 0.000000 0.000000 0.025327 0.000000 0.053055
# 5 0.001242 0.000913 -0.000642 0.000000 0.021521 0.000000
# 6 0.000000 0.000000 0.000000 0.053055 0.000000 -0.032157
#
#
# Mechanical properties :
#
#
# Convention : Reuss Voigt Hill
#
# Bulk Modulus (GPa) = 30.55585 32.34526 31.45055
# Shear Modulus (GPa) = 78.27265 27.04706 52.65986
#
# Velocity S-wave (km/s) = 5.73759 3.37275 4.70613
# Velocity P-wave (km/s) = 7.53289 5.36387 6.53894
#
# Compressibility (1/GPa) = 0.03272695
#
# Stress axis : x y z
#
# Youngs Moduli (GPa) = 94.24060 80.80369 79.89644
#
# Poissons Ratio (x) = 0.07848 0.20163
# Poissons Ratio (y) = 0.09153 -0.16833
# Poissons Ratio (z) = 0.23783 -0.17024
#
# Static dielectric constant tensor:
#      x y z
#    x 1.942610 0.000000 0.003590 
#    y 0.000000 1.921520 0.000000 
#    z 0.003590 0.000000 1.855920 
# 
# From -- ./inp_files/58146.got.cif
#   From: 2010.05.17/outbox.cif.g08.bks.cpg/sg10_30_cif.got.tgz:58146.got - 2010.06.03 11:33:40.
