data_PCOD9145100
_publ_section_title
;
Structure prediction by ZEFSAII (Michael W. Deem and Ramdas Pophale) SiO2 
 PCOD9145100
Probable space group: P 2/M
;
_chemical_formula_sum "Si O2"
_cell_formula_units_Z 28
_cell_length_a 20.997764
_cell_length_b 8.982719
_cell_length_c 12.165811
_cell_angle_alpha 90.000000
_cell_angle_beta 54.556284
_cell_angle_gamma 90.000000
_cell_volume 1869.441828
_symmetry_space_group_name_H-M "P 2/M"
_symmetry_group_IT_number 10
_symmetry_cell_setting 'monoclinic'
loop_
_space_group_symop_operation_xyz
x,y,z
-x,y,-z
-x,-y,-z
x,-y,z
loop_
_atom_site_type_symbol
_atom_site_label
_atom_site_fract_x
_atom_site_fract_y
_atom_site_fract_z
Si Si1 0.592216 0.321430 0.414822
Si Si2 0.763684 0.174650 0.846349
Si Si3 0.649163 0.822624 0.580885
Si Si4 0.230163 0.677041 0.383682
Si Si5 0.506017 0.821516 0.121750
Si Si6 0.088591 0.823997 0.427941
Si Si7 0.352802 0.677909 0.883623
O O1 0.500000 0.285218 0.500000
O O2 0.598457 0.500000 0.425132
O O3 0.630063 0.237798 0.479300
O O4 0.630998 0.282961 0.259334
O O5 0.732723 0.252448 0.765282
O O6 0.857273 0.190401 0.735650
O O7 0.744370 0.000000 0.863538
O O8 0.725748 0.252058 0.988233
O O9 0.723469 0.743008 0.560551
O O10 0.574133 0.789342 0.733242
O O11 0.660424 0.000000 0.568820
O O12 0.233958 0.500000 0.376542
O O13 0.140543 0.734290 0.463958
O O14 0.576512 0.741022 0.113438
O O15 0.519226 0.000000 0.112693
O O16 0.500000 0.778063 0.000000
O O17 0.000000 0.774472 0.500000
O O18 0.088274 0.000000 0.456601
O O19 0.350818 0.500000 0.894351
#
# Coordination Sequence:
#
# PCOD9145100 Si02
#       7
#     4   4   4   4   4   4   4
#     4  10  21  37  51  66  93 131 174 220 261 294
#     4   9  18  32  50  73 104 132 160 199 244 293
#     4  11  21  33  50  71  96 132 175 214 251 294
#     4  10  19  31  50  76 106 133 162 200 247 297
#     4  10  21  33  47  66  93 128 165 207 254 298
#     4   8  16  32  53  77 105 135 162 192 239 299
#     4  11  21  33  50  70  94 129 170 211 255 299
#
# _framework density 14.977732
#
# number of rings (size 3 to 8) (size 9 to 14) (size 15 to 20)
#    0.857    1.286    1.429    3.000    0.000    3.714 
#    0.000    0.000    0.000    0.000    0.000    1.000 
#    0.000    8.000    0.000    0.000    0.000    0.000 
#
# Total GULP energy -155981.678921 kJ/mol
# GULP energy per Si atom -5570.774247 kJ/mol
# Density = 1.494364 g / cm^3
# Si number density = 14.977732 Si / 1000 Ang^3
#
#
#
# Elastic Constant Matrix: (Units=GPa)
#
#
# Indices 1 2 3 4 5 6 
#
# 1 99.5958 54.6682 71.9549 0.0000 -1.3457 0.0000
# 2 54.6682 64.8828 51.4635 0.0000 2.5676 0.0000
# 3 71.9549 51.4635 96.1784 0.0000 11.9103 0.0000
# 4 0.0000 0.0000 0.0000 26.3828 0.0000 1.6670
# 5 -1.3457 2.5676 11.9103 0.0000 22.0886 0.0000
# 6 0.0000 0.0000 0.0000 1.6670 0.0000 23.5578
#
#
#
# Elastic Compliance Matrix: (Units=1/GPa)
#
#
# Indices 1 2 3 4 5 6 
#
# 1 0.028489 -0.011097 -0.016878 0.000000 0.012126 0.000000
# 2 -0.011097 0.031613 -0.008652 0.000000 0.000315 0.000000
# 3 -0.016878 -0.008652 0.029636 0.000000 -0.016002 0.000000
# 4 0.000000 0.000000 0.000000 0.038074 0.000000 -0.002694
# 5 0.012126 0.000315 -0.016002 0.000000 0.054603 0.000000
# 6 0.000000 0.000000 0.000000 -0.002694 0.000000 0.042639
#
#
# Mechanical properties :
#
#
# Convention : Reuss Voigt Hill
#
# Bulk Modulus (GPa) = 60.66690 68.53668 64.60179
# Shear Modulus (GPa) = 16.45807 19.91053 18.18430
#
# Velocity S-wave (km/s) = 3.31847 3.64997 3.48816
# Velocity P-wave (km/s) = 7.43476 7.97630 7.71029
#
# Compressibility (1/GPa) = 0.01648345
#
# Stress axis : x y z
#
# Youngs Moduli (GPa) = 35.10106 31.63289 33.74312
#
# Poissons Ratio (x) = 0.35103 0.56951
# Poissons Ratio (y) = 0.38951 0.29196
# Poissons Ratio (z) = 0.59243 0.27370
#
# Static dielectric constant tensor:
#      x y z
#    x 1.480930 0.000000 -0.014650 
#    y 0.000000 1.497510 0.000000 
#    z -0.014650 0.000000 1.497200 
# 
# From -- ./inp_files/54458.got.cif
#   From: 2010.05.17/outbox.cif.g08.bks.cpg/sg10_28_cif.got.tgz:54458.got - 2010.06.03 11:33:40.
