data_PCOD9145938
_publ_section_title
;
Structure prediction by ZEFSAII (Michael W. Deem and Ramdas Pophale) SiO2 
 PCOD9145938
Probable space group: P 2/M
;
_chemical_formula_sum "Si O2"
_cell_formula_units_Z 32
_cell_length_a 7.656175
_cell_length_b 20.208240
_cell_length_c 15.456950
_cell_angle_alpha 90.000000
_cell_angle_beta 37.457886
_cell_angle_gamma 90.000000
_cell_volume 1454.437094
_symmetry_space_group_name_H-M "P 2/M"
_symmetry_group_IT_number 10
_symmetry_cell_setting 'monoclinic'
loop_
_space_group_symop_operation_xyz
x,y,z
-x,y,-z
-x,-y,-z
x,-y,z
loop_
_atom_site_type_symbol
_atom_site_label
_atom_site_fract_x
_atom_site_fract_y
_atom_site_fract_z
Si Si1 0.083987 0.847791 0.168356
Si Si2 0.814170 0.925944 0.423036
Si Si3 0.957592 0.712097 0.293310
Si Si4 0.332219 0.571379 0.338892
Si Si5 0.546429 0.845696 0.675763
Si Si6 0.391222 0.708376 0.402562
Si Si7 0.246110 0.572466 0.169426
Si Si8 0.682303 0.923908 0.079742
O O1 0.033517 0.899422 0.265588
O O2 0.137699 0.775487 0.189252
O O3 0.771771 0.846502 0.242670
O O4 0.291428 0.876416 0.013374
O O5 0.500000 0.928103 0.500000
O O6 0.765892 0.875563 0.519959
O O7 0.881216 0.000000 0.426080
O O8 0.659983 0.720599 0.359400
O O9 0.880700 0.710073 0.425601
O O10 0.073820 0.639874 0.223721
O O11 0.460437 0.500000 0.315251
O O12 0.442783 0.637927 0.338558
O O13 0.351157 0.575594 0.227774
O O14 0.000000 0.569686 0.500000
O O15 0.618410 0.768924 0.660330
O O16 0.523792 0.891504 0.768015
O O17 0.095505 0.500000 0.221187
O O18 0.500000 0.572242 0.000000
O O19 0.612363 0.000000 0.085717
O O20 0.000000 0.925440 0.000000
#
# Coordination Sequence:
#
# PCOD9145938 Si02
#       8
#     4   4   4   4   4   4   4   4
#     4   9  16  26  40  63  97 133 169 212 261 310
#     4   9  14  21  36  57  87 129 168 201 249 311
#     4  10  19  33  54  80 111 144 178 223 273 320
#     4  10  20  36  57  81 108 141 180 221 264 313
#     4   9  16  26  39  63  98 133 168 212 264 306
#     4  10  19  32  54  82 111 141 179 226 270 318
#     4  10  22  40  59  80 110 144 177 219 269 319
#     4   9  16  25  38  60  96 140 177 209 255 317
#
# _framework density 22.001638
#
# number of rings (size 3 to 8) (size 9 to 14) (size 15 to 20)
#    0.000    2.500    2.500    0.750    0.000    4.500 
#    0.000    3.125    0.000    2.250    0.000    0.000 
#    0.000   20.000    0.000    0.000    0.000    0.000 
#
# Total GULP energy -178704.514598 kJ/mol
# GULP energy per Si atom -5584.516081 kJ/mol
# Density = 2.195156 g / cm^3
# Si number density = 22.001638 Si / 1000 Ang^3
#
#
#
# Elastic Constant Matrix: (Units=GPa)
#
#
# Indices 1 2 3 4 5 6 
#
# 1 48.9499 12.0799 3.3079 0.0000 7.6012 0.0000
# 2 12.0799 207.5290 52.9962 0.0000 20.7033 0.0000
# 3 3.3079 52.9962 123.9018 0.0000 29.5753 0.0000
# 4 0.0000 0.0000 0.0000 32.7695 0.0000 9.5066
# 5 7.6012 20.7033 29.5753 0.0000 25.3210 0.0000
# 6 0.0000 0.0000 0.0000 9.5066 0.0000 14.3484
#
#
#
# Elastic Compliance Matrix: (Units=1/GPa)
#
#
# Indices 1 2 3 4 5 6 
#
# 1 0.021740 -0.000919 0.001651 0.000000 -0.007704 0.000000
# 2 -0.000919 0.005554 -0.001848 0.000000 -0.002107 0.000000
# 3 0.001651 -0.001848 0.011890 0.000000 -0.012872 0.000000
# 4 0.000000 0.000000 0.000000 0.037777 0.000000 -0.025029
# 5 -0.007704 -0.002107 -0.012872 0.000000 0.058563 0.000000
# 6 0.000000 0.000000 0.000000 -0.025029 0.000000 0.086277
#
#
# Mechanical properties :
#
#
# Convention : Reuss Voigt Hill
#
# Bulk Modulus (GPa) = 27.06086 57.46097 42.26091
# Shear Modulus (GPa) = 21.15499 35.28758 28.22128
#
# Velocity S-wave (km/s) = 3.10420 4.00917 3.58535
# Velocity P-wave (km/s) = 5.01740 6.89961 6.03237
#
# Compressibility (1/GPa) = 0.03695375
#
# Stress axis : x y z
#
# Youngs Moduli (GPa) = 45.99713 180.04265 84.10463
#
# Poissons Ratio (x) = 0.16539 -0.13890
# Poissons Ratio (y) = 0.04225 0.15545
# Poissons Ratio (z) = -0.07596 0.33277
#
# Static dielectric constant tensor:
#      x y z
#    x 1.870810 0.000000 -0.031890 
#    y 0.000000 1.800720 0.000000 
#    z -0.031890 0.000000 1.767660 
# 
# From -- ./inp_files/62495.got.cif
#   From: 2010.05.17/outbox.cif.g08.bks.cpg/sg10_32_cif.got.tgz:62495.got - 2010.06.03 11:33:40.
