data_PCOD9145712
_publ_section_title
;
Structure prediction by ZEFSAII (Michael W. Deem and Ramdas Pophale) SiO2 
 PCOD9145712
Probable space group: P 2/M
;
_chemical_formula_sum "Si O2"
_cell_formula_units_Z 23
_cell_length_a 17.787623
_cell_length_b 14.521473
_cell_length_c 14.129469
_cell_angle_alpha 90.000000
_cell_angle_beta 20.743404
_cell_angle_gamma 90.000000
_cell_volume 1292.654934
_symmetry_space_group_name_H-M "P 2/M"
_symmetry_group_IT_number 10
_symmetry_cell_setting 'monoclinic'
loop_
_space_group_symop_operation_xyz
x,y,z
-x,y,-z
-x,-y,-z
x,-y,z
loop_
_atom_site_type_symbol
_atom_site_label
_atom_site_fract_x
_atom_site_fract_y
_atom_site_fract_z
Si Si1 0.000000 0.818575 0.500000
Si Si2 0.401246 0.290028 0.313343
Si Si3 0.824765 0.350792 0.594443
Si Si4 0.000000 0.500000 0.500000
Si Si5 0.450525 0.104416 0.945921
Si Si6 0.250900 0.603149 0.984240
Si Si7 0.976309 0.608398 0.139450
O O1 0.900178 0.749343 0.539913
O O2 0.801459 0.877197 0.769762
O O3 0.368519 0.339226 0.249762
O O4 0.601526 0.325498 0.136291
O O5 0.197508 0.322464 0.613128
O O6 0.428737 0.183086 0.255104
O O7 0.822172 0.419169 0.685352
O O8 0.019931 0.395838 0.305708
O O9 0.504976 0.000000 0.854870
O O10 0.500000 0.114470 0.000000
O O11 0.340629 0.500000 0.887490
O O12 0.194046 0.622469 0.942003
O O13 0.916637 0.500000 0.225664
O O14 0.000000 0.621348 0.000000
#
# Coordination Sequence:
#
# PCOD9145712 Si02
#       7
#     2   4   4   1   4   4   4
#     4  11  19  37  51  72 106 146 182 226 274 314
#     4  11  21  35  56  79 110 143 188 232 277 322
#     4  10  20  32  47  71 110 147 182 223 259 317
#     4  10  20  32  44  68 112 154 186 212 260 316
#     4  11  23  38  56  79 107 145 191 236 278 328
#     4  10  19  32  52  78 111 144 180 219 265 324
#     4   9  20  38  58  84 116 146 180 222 269 331
#
# _framework density 17.792838
#
# number of rings (size 3 to 8) (size 9 to 14) (size 15 to 20)
#    0.000    1.739    4.348    0.783    2.435    0.696 
#    0.000    3.478    0.000    0.522    0.000    1.217 
#    0.000    0.000    0.000    0.000    0.000    0.000 
#
# Total GULP energy -128035.452198 kJ/mol
# GULP energy per Si atom -5566.758791 kJ/mol
# Density = 1.775234 g / cm^3
# Si number density = 17.792838 Si / 1000 Ang^3
#
#
#
# Elastic Constant Matrix: (Units=GPa)
#
#
# Indices 1 2 3 4 5 6 
#
# 1 115.7042 60.1909 28.6940 0.0000 -9.2000 0.0000
# 2 60.1909 149.6443 46.9497 0.0000 -5.8739 0.0000
# 3 28.6940 46.9497 49.2930 0.0000 -9.0280 0.0000
# 4 0.0000 0.0000 0.0000 12.3884 0.0000 0.4873
# 5 -9.2000 -5.8739 -9.0280 0.0000 25.9495 0.0000
# 6 0.0000 0.0000 0.0000 0.4873 0.0000 20.0565
#
#
#
# Elastic Compliance Matrix: (Units=1/GPa)
#
#
# Indices 1 2 3 4 5 6 
#
# 1 0.011395 -0.003627 -0.002765 0.000000 0.002257 0.000000
# 2 -0.003627 0.010713 -0.008420 0.000000 -0.001790 0.000000
# 3 -0.002765 -0.008420 0.031388 0.000000 0.008034 0.000000
# 4 0.000000 0.000000 0.000000 0.080798 0.000000 -0.001963
# 5 0.002257 -0.001790 0.008034 0.000000 0.041726 0.000000
# 6 0.000000 0.000000 0.000000 -0.001963 0.000000 0.049907
#
#
# Mechanical properties :
#
#
# Convention : Reuss Voigt Hill
#
# Bulk Modulus (GPa) = 41.89221 65.14564 53.51892
# Shear Modulus (GPa) = 18.97475 23.59933 21.28704
#
# Velocity S-wave (km/s) = 3.26916 3.64584 3.46263
# Velocity P-wave (km/s) = 6.15186 7.37671 6.79195
#
# Compressibility (1/GPa) = 0.02387079
#
# Stress axis : x y z
#
# Youngs Moduli (GPa) = 87.75935 93.34482 31.85974
#
# Poissons Ratio (x) = 0.33858 0.08809
# Poissons Ratio (y) = 0.31832 0.26826
# Poissons Ratio (z) = 0.24264 0.78598
#
# Static dielectric constant tensor:
#      x y z
#    x 1.735980 0.000000 0.006880 
#    y 0.000000 1.615630 0.000000 
#    z 0.006880 0.000000 1.652990 
# 
# From -- ./inp_files/69270.got.cif
#   From: 2010.05.17/outbox.cif.g08.bks.cpg/sg10_35_cif.got.tgz:69270.got - 2010.06.03 11:33:40.
