data_PCOD9145118
_publ_section_title
;
Structure prediction by ZEFSAII (Michael W. Deem and Ramdas Pophale) SiO2 
 PCOD9145118
Probable space group: P 2/M
;
_chemical_formula_sum "Si O2"
_cell_formula_units_Z 24
_cell_length_a 19.444618
_cell_length_b 12.696056
_cell_length_c 14.102865
_cell_angle_alpha 90.000000
_cell_angle_beta 158.278430
_cell_angle_gamma 90.000000
_cell_volume 1288.518310
_symmetry_space_group_name_H-M "P 2/M"
_symmetry_group_IT_number 10
_symmetry_cell_setting 'monoclinic'
loop_
_space_group_symop_operation_xyz
x,y,z
-x,y,-z
-x,-y,-z
x,-y,z
loop_
_atom_site_type_symbol
_atom_site_label
_atom_site_fract_x
_atom_site_fract_y
_atom_site_fract_z
Si Si1 0.380705 0.624331 0.441782
Si Si2 0.258214 0.380863 0.825064
Si Si3 0.993880 0.723634 0.631513
Si Si4 0.310602 0.123878 0.696751
Si Si5 0.041134 0.379672 0.883382
Si Si6 0.630611 0.303820 0.373654
O O1 0.500000 0.642668 0.500000
O O2 0.401228 0.500000 0.493210
O O3 0.436036 0.693132 0.603003
O O4 0.170380 0.645114 0.138196
O O5 0.217644 0.500000 0.804583
O O6 0.165859 0.360465 0.604803
O O7 0.154116 0.296025 0.759468
O O8 0.475014 0.360136 0.110869
O O9 0.872250 0.829608 0.484313
O O10 0.077151 0.693920 0.839448
O O11 0.331195 0.192225 0.627222
O O12 0.291709 0.000000 0.655715
O O13 0.500000 0.140825 0.000000
O O14 0.085887 0.500000 0.914417
O O15 0.823885 0.366447 0.624694
#
# Coordination Sequence:
#
# PCOD9145118 Si02
#       6
#     4   4   4   4   4   4
#     4  10  20  34  53  80 116 156 188 219 268 333
#     4  11  20  32  51  82 121 151 174 218 278 342
#     4  10  20  34  52  78 110 148 186 224 275 333
#     4  10  21  41  60  78 106 142 193 246 287 324
#     4  10  19  31  50  77 112 151 188 221 263 330
#     4  11  21  34  56  82 110 146 189 230 278 330
#
# _framework density 18.626045000000001
#
# number of rings (size 3 to 8) (size 9 to 14) (size 15 to 20)
#    0.000    1.667    1.667    5.000    0.000    2.667 
#    0.000    5.000    0.000    8.500    0.000    0.000 
#    0.000    0.000    0.000    0.000    0.000    0.000 
#
# Total GULP energy -133850.830263 kJ/mol
# GULP energy per Si atom -5577.117928 kJ/mol
# Density = 1.858365 g / cm^3
# Si number density = 18.626045 Si / 1000 Ang^3
#
#
#
# Elastic Constant Matrix: (Units=GPa)
#
#
# Indices 1 2 3 4 5 6 
#
# 1 67.6329 30.3935 2.3187 0.0000 -3.4469 0.0000
# 2 30.3935 96.5232 23.7139 0.0000 -4.7226 0.0000
# 3 2.3187 23.7139 85.6407 0.0000 1.2757 0.0000
# 4 0.0000 0.0000 0.0000 21.4253 0.0000 2.6379
# 5 -3.4469 -4.7226 1.2757 0.0000 28.9048 0.0000
# 6 0.0000 0.0000 0.0000 2.6379 0.0000 15.7619
#
#
#
# Elastic Compliance Matrix: (Units=1/GPa)
#
#
# Indices 1 2 3 4 5 6 
#
# 1 0.017356 -0.005678 0.001086 0.000000 0.001094 0.000000
# 2 -0.005678 0.013086 -0.003494 0.000000 0.001615 0.000000
# 3 0.001086 -0.003494 0.012630 0.000000 -0.000999 0.000000
# 4 0.000000 0.000000 0.000000 0.047656 0.000000 -0.007976
# 5 0.001094 0.001615 -0.000999 0.000000 0.035035 0.000000
# 6 0.000000 0.000000 0.000000 -0.007976 0.000000 0.064779
#
#
# Mechanical properties :
#
#
# Convention : Reuss Voigt Hill
#
# Bulk Modulus (GPa) = 37.17578 40.29432 38.73505
# Shear Modulus (GPa) = 23.18261 26.10978 24.64620
#
# Velocity S-wave (km/s) = 3.53176 3.74811 3.64154
# Velocity P-wave (km/s) = 6.05256 6.35699 6.20664
#
# Compressibility (1/GPa) = 0.02689923
#
# Stress axis : x y z
#
# Youngs Moduli (GPa) = 57.61677 76.41988 79.17923
#
# Poissons Ratio (x) = 0.43395 -0.08600
# Poissons Ratio (y) = 0.32717 0.27663
# Poissons Ratio (z) = -0.06258 0.26699
#
# Static dielectric constant tensor:
#      x y z
#    x 1.727980 0.000000 0.034870 
#    y 0.000000 1.596120 0.000000 
#    z 0.034870 0.000000 1.686960 
# 
# From -- ./inp_files/24054.got.cif
#   From: 2010.05.17/outbox.cif.g08.bks.cpg/sg10_13_cif.got.tgz:24054.got - 2010.06.03 11:33:40.
