data_PCOD9145297
_publ_section_title
;
Structure prediction by ZEFSAII (Michael W. Deem and Ramdas Pophale) SiO2 
 PCOD9145297
Probable space group: P 2/M
;
_chemical_formula_sum "Si O2"
_cell_formula_units_Z 28
_cell_length_a 14.604123
_cell_length_b 9.101612
_cell_length_c 20.043503
_cell_angle_alpha 90.000000
_cell_angle_beta 33.055599
_cell_angle_gamma 90.000000
_cell_volume 1453.196861
_symmetry_space_group_name_H-M "P 2/M"
_symmetry_group_IT_number 10
_symmetry_cell_setting 'monoclinic'
loop_
_space_group_symop_operation_xyz
x,y,z
-x,y,-z
-x,-y,-z
x,-y,z
loop_
_atom_site_type_symbol
_atom_site_label
_atom_site_fract_x
_atom_site_fract_y
_atom_site_fract_z
Si Si1 0.107701 0.175249 0.275153
Si Si2 0.219156 0.325462 0.556129
Si Si3 0.434693 0.669243 0.116882
Si Si4 0.763975 0.175012 0.952104
Si Si5 0.395690 0.674418 0.716418
Si Si6 0.697366 0.166652 0.360080
Si Si7 0.147732 0.823496 0.959215
O O1 0.260325 0.242913 0.224170
O O2 0.153773 0.209265 0.169380
O O3 0.928486 0.250425 0.395695
O O4 0.099495 0.000000 0.287847
O O5 0.193052 0.500000 0.577047
O O6 0.405114 0.299250 0.413051
O O7 0.220440 0.253085 0.629002
O O8 0.410523 0.500000 0.150636
O O9 0.500000 0.672772 0.000000
O O10 0.585321 0.744187 0.065056
O O11 0.734539 0.000000 0.970551
O O12 0.874508 0.212424 0.949284
O O13 0.368420 0.500000 0.732346
O O14 0.304074 0.748758 0.708802
O O15 0.316325 0.748655 0.829480
O O16 0.500000 0.156765 0.500000
O O17 0.764465 0.000000 0.312970
O O18 0.161219 0.000000 0.945036
O O19 0.000000 0.774370 0.000000
#
# Coordination Sequence:
#
# PCOD9145297 Si02
#       7
#     4   4   4   4   4   4   4
#     4  10  19  31  53  83 111 139 174 216 266 322
#     4  10  20  33  50  76 109 139 172 218 271 318
#     4   9  17  31  52  78 107 139 173 214 267 320
#     4   9  19  35  53  77 108 141 177 219 265 312
#     4  10  21  36  52  73 104 141 179 221 266 315
#     4   9  17  30  49  71  96 132 175 215 259 311
#     4  10  22  38  56  77 105 143 184 225 261 306
#
# _framework density 19.267862000000001
#
# number of rings (size 3 to 8) (size 9 to 14) (size 15 to 20)
#    0.000    2.429    0.000    2.143    2.000    6.571 
#    0.000    0.000    0.000    0.857    0.000    6.000 
#    0.000    0.000    0.000    0.000    0.000    0.000 
#
# Total GULP energy -156283.027283 kJ/mol
# GULP energy per Si atom -5581.536689 kJ/mol
# Density = 1.922401 g / cm^3
# Si number density = 19.267862 Si / 1000 Ang^3
#
#
#
# Elastic Constant Matrix: (Units=GPa)
#
#
# Indices 1 2 3 4 5 6 
#
# 1 65.0648 22.3961 17.1691 0.0000 -20.9993 0.0000
# 2 22.3961 51.3627 31.2649 0.0000 -19.1449 0.0000
# 3 17.1691 31.2649 49.6005 0.0000 -16.5624 0.0000
# 4 0.0000 0.0000 0.0000 25.4107 0.0000 -7.8222
# 5 -20.9993 -19.1449 -16.5624 0.0000 33.8496 0.0000
# 6 0.0000 0.0000 0.0000 -7.8222 0.0000 24.0546
#
#
#
# Elastic Compliance Matrix: (Units=1/GPa)
#
#
# Indices 1 2 3 4 5 6 
#
# 1 0.020301 -0.004820 -0.000829 0.000000 0.009462 0.000000
# 2 -0.004820 0.035652 -0.018012 0.000000 0.008360 0.000000
# 3 -0.000829 -0.018012 0.033741 0.000000 0.005807 0.000000
# 4 0.000000 0.000000 0.000000 0.043731 0.000000 0.014221
# 5 0.009462 0.008360 0.005807 0.000000 0.042983 0.000000
# 6 0.000000 0.000000 0.000000 0.014221 0.000000 0.046196
#
#
# Mechanical properties :
#
#
# Convention : Reuss Voigt Hill
#
# Bulk Modulus (GPa) = 23.60149 34.18760 28.89455
# Shear Modulus (GPa) = 17.60246 23.00951 20.30599
#
# Velocity S-wave (km/s) = 3.02580 3.45946 3.24987
# Velocity P-wave (km/s) = 4.94804 5.80852 5.39546
#
# Compressibility (1/GPa) = 0.04237020
#
# Stress axis : x y z
#
# Youngs Moduli (GPa) = 49.25815 28.04911 29.63758
#
# Poissons Ratio (x) = 0.13521 0.02457
# Poissons Ratio (y) = 0.23745 0.53384
# Poissons Ratio (z) = 0.04084 0.50523
#
# Static dielectric constant tensor:
#      x y z
#    x 1.676210 0.000000 -0.003120 
#    y 0.000000 1.637940 0.000000 
#    z -0.003120 0.000000 1.691940 
# 
# From -- ./inp_files/70316.got.cif
#   From: 2010.05.17/outbox.cif.g08.bks.cpg/sg10_36_cif.got.tgz:70316.got - 2010.06.03 11:33:40.
