data_PCOD9145129
_publ_section_title
;
Structure prediction by ZEFSAII (Michael W. Deem and Ramdas Pophale) SiO2 
 PCOD9145129
Probable space group: P 2/M
;
_chemical_formula_sum "Si O2"
_cell_formula_units_Z 32
_cell_length_a 14.375113
_cell_length_b 9.450473
_cell_length_c 11.802507
_cell_angle_alpha 90.000000
_cell_angle_beta 85.032339
_cell_angle_gamma 90.000000
_cell_volume 1597.366903
_symmetry_space_group_name_H-M "P 2/M"
_symmetry_group_IT_number 10
_symmetry_cell_setting 'monoclinic'
loop_
_space_group_symop_operation_xyz
x,y,z
-x,y,-z
-x,-y,-z
x,-y,z
loop_
_atom_site_type_symbol
_atom_site_label
_atom_site_fract_x
_atom_site_fract_y
_atom_site_fract_z
Si Si1 0.637332 0.663380 0.457419
Si Si2 0.893355 0.150610 0.481541
Si Si3 0.731782 0.337217 0.095189
Si Si4 0.834582 0.829326 0.729294
Si Si5 0.370676 0.832940 0.306817
Si Si6 0.577226 0.831815 0.237649
Si Si7 0.164619 0.649522 0.677828
Si Si8 0.088932 0.670481 0.071457
O O1 0.603625 0.500000 0.460883
O O2 0.624411 0.740519 0.578634
O O3 0.596401 0.753765 0.356467
O O4 0.746768 0.654405 0.415523
O O5 0.852406 0.220997 0.598507
O O6 0.894136 0.223168 0.360504
O O7 0.000000 0.134034 0.500000
O O8 0.843065 0.000000 0.475530
O O9 0.701150 0.500000 0.077419
O O10 0.644339 0.238567 0.136231
O O11 0.793097 0.339264 0.203622
O O12 0.810285 0.295723 0.996403
O O13 0.723239 0.802608 0.754285
O O14 0.901441 0.751222 0.810764
O O15 0.850265 0.000000 0.732458
O O16 0.466881 0.811938 0.228575
O O17 0.366775 0.000000 0.339340
O O18 0.596507 0.000000 0.245353
O O19 0.114306 0.500000 0.672266
O O20 0.083772 0.500000 0.086771
O O21 0.000000 0.708717 0.000000
#
# Coordination Sequence:
#
# PCOD9145129 Si02
#       8
#     4   4   4   4   4   4   4   4
#     4  10  19  31  50  79 116 155 193 232 276 332
#     4  10  21  35  53  80 114 148 183 227 282 338
#     4   9  20  39  58  82 115 146 187 240 286 333
#     4  10  22  40  59  83 118 152 189 239 287 339
#     4  10  20  35  54  79 115 155 193 235 283 338
#     4  10  20  33  54  83 113 152 196 234 281 338
#     4   9  18  32  52  79 109 145 184 225 275 333
#     4  10  23  43  66  87 111 146 190 240 290 343
#
# _framework density 20.032968
#
# number of rings (size 3 to 8) (size 9 to 14) (size 15 to 20)
#    0.000    2.250    1.250    1.875    1.750    6.500 
#    0.000    0.625    0.000    3.750    0.000    0.000 
#    0.000    0.000    0.000    0.000    0.000    0.000 
#
# Total GULP energy -178219.800419 kJ/mol
# GULP energy per Si atom -5569.368763 kJ/mol
# Density = 1.998737 g / cm^3
# Si number density = 20.032968 Si / 1000 Ang^3
#
#
#
# Elastic Constant Matrix: (Units=GPa)
#
#
# Indices 1 2 3 4 5 6 
#
# 1 72.2569 22.1541 17.5884 0.0000 0.1135 0.0000
# 2 22.1541 51.5753 20.9904 0.0000 0.2649 0.0000
# 3 17.5884 20.9904 53.0394 0.0000 -6.9131 0.0000
# 4 0.0000 0.0000 0.0000 -15.4571 0.0000 -26.6471
# 5 0.1135 0.2649 -6.9131 0.0000 22.0995 0.0000
# 6 0.0000 0.0000 0.0000 -26.6471 0.0000 -10.0420
#
#
#
# Elastic Compliance Matrix: (Units=1/GPa)
#
#
# Indices 1 2 3 4 5 6 
#
# 1 0.016393 -0.005683 -0.003325 0.000000 -0.001056 0.000000
# 2 -0.005683 0.025311 -0.008515 0.000000 -0.002938 0.000000
# 3 -0.003325 -0.008515 0.024334 0.000000 0.007731 0.000000
# 4 0.000000 0.000000 0.000000 0.018099 0.000000 -0.048026
# 5 -0.001056 -0.002938 0.007731 0.000000 0.047709 0.000000
# 6 0.000000 0.000000 0.000000 -0.048026 0.000000 0.027858
#
#
# Mechanical properties :
#
#
# Convention : Reuss Voigt Hill
#
# Bulk Modulus (GPa) = 32.26636 33.14863 32.70749
# Shear Modulus (GPa) = 24.38076 7.06267 15.72171
#
# Velocity S-wave (km/s) = 3.49238 1.87967 2.80445
# Velocity P-wave (km/s) = 5.69244 4.61453 5.18159
#
# Compressibility (1/GPa) = 0.03099203
#
# Stress axis : x y z
#
# Youngs Moduli (GPa) = 61.00218 39.50869 41.09482
#
# Poissons Ratio (x) = 0.22453 0.13663
# Poissons Ratio (y) = 0.34668 0.34993
# Poissons Ratio (z) = 0.20281 0.33642
#
# Static dielectric constant tensor:
#      x y z
#    x 1.760810 0.000000 -0.026650 
#    y 0.000000 1.793580 0.000000 
#    z -0.026650 0.000000 1.712020 
# 
# From -- ./inp_files/49793.got.cif
#   From: 2010.05.17/outbox.cif.g08.bks.cpg/sg10_25_cif.got.tgz:49793.got - 2010.06.03 11:33:40.
