data_PCOD9145804
_publ_section_title
;
Structure prediction by ZEFSAII (Michael W. Deem and Ramdas Pophale) SiO2 
 PCOD9145804
Probable space group: P 2/M
;
_chemical_formula_sum "Si O2"
_cell_formula_units_Z 28
_cell_length_a 19.563349
_cell_length_b 7.475874
_cell_length_c 17.114945
_cell_angle_alpha 90.000000
_cell_angle_beta 30.589300
_cell_angle_gamma 90.000000
_cell_volume 1273.786471
_symmetry_space_group_name_H-M "P 2/M"
_symmetry_group_IT_number 10
_symmetry_cell_setting 'monoclinic'
loop_
_space_group_symop_operation_xyz
x,y,z
-x,y,-z
-x,-y,-z
x,-y,z
loop_
_atom_site_type_symbol
_atom_site_label
_atom_site_fract_x
_atom_site_fract_y
_atom_site_fract_z
Si Si1 0.857571 0.215678 0.811867
Si Si2 0.428396 0.290518 0.647121
Si Si3 0.315795 0.216990 0.512552
Si Si4 0.825750 0.289491 0.013503
Si Si5 0.079476 0.796307 0.849174
Si Si6 0.163207 0.789466 0.336147
Si Si7 0.831220 0.780971 0.499176
O O1 0.799920 0.282905 0.785711
O O2 0.013505 0.274926 0.664916
O O3 0.859768 0.000000 0.805341
O O4 0.785930 0.265275 0.962610
O O5 0.500000 0.211174 0.500000
O O6 0.404602 0.500000 0.654385
O O7 0.535680 0.274104 0.611115
O O8 0.286826 0.217026 0.816500
O O9 0.259553 0.276009 0.484123
O O10 0.214246 0.283334 0.680596
O O11 0.310262 0.000000 0.518832
O O12 0.842816 0.500000 0.010308
O O13 0.969013 0.201180 0.889233
O O14 0.111951 0.000000 0.840485
O O15 0.000000 0.711327 0.000000
O O16 0.212333 0.718700 0.371332
O O17 0.000000 0.778069 0.500000
O O18 0.197698 0.000000 0.301749
O O19 0.831373 0.000000 0.499918
#
# Coordination Sequence:
#
# PCOD9145804 Si02
#       7
#     4   4   4   4   4   4   4
#     4   9  15  28  50  75 104 133 164 203 249 296
#     4  10  23  41  54  67  95 136 178 214 248 296
#     4  10  19  32  53  79 103 128 162 209 256 300
#     4  11  22  34  51  74 101 134 171 209 251 300
#     4  10  20  34  53  78 104 127 158 207 262 309
#     4   7  11  20  42  73 101 132 161 193 243 296
#     4   8  13  25  46  76 107 128 159 204 249 296
#
# _framework density 21.981705000000002
#
# number of rings (size 3 to 8) (size 9 to 14) (size 15 to 20)
#    0.000    2.714    1.429    3.000    0.000    2.286 
#    0.000    0.000    0.000    5.571    0.000    6.000 
#    0.000    0.000    0.000    0.000    0.000    0.000 
#
# Total GULP energy -156204.450157 kJ/mol
# GULP energy per Si atom -5578.730363 kJ/mol
# Density = 2.193167 g / cm^3
# Si number density = 21.981705 Si / 1000 Ang^3
#
#
#
# Elastic Constant Matrix: (Units=GPa)
#
#
# Indices 1 2 3 4 5 6 
#
# 1 88.5177 0.7308 10.6588 0.0000 25.5238 0.0000
# 2 0.7308 69.5063 4.2260 0.0000 4.3101 0.0000
# 3 10.6588 4.2260 54.4865 0.0000 7.0047 0.0000
# 4 0.0000 0.0000 0.0000 0.9360 0.0000 -25.6459
# 5 25.5238 4.3101 7.0047 0.0000 39.7525 0.0000
# 6 0.0000 0.0000 0.0000 -25.6459 0.0000 -80.2361
#
#
#
# Elastic Compliance Matrix: (Units=1/GPa)
#
#
# Indices 1 2 3 4 5 6 
#
# 1 0.014019 0.000497 -0.001654 0.000000 -0.008764 0.000000
# 2 0.000497 0.014550 -0.001005 0.000000 -0.001719 0.000000
# 3 -0.001654 -0.001005 0.019035 0.000000 -0.002183 0.000000
# 4 0.000000 0.000000 0.000000 0.109491 0.000000 -0.034996
# 5 -0.008764 -0.001719 -0.002183 0.000000 0.031354 0.000000
# 6 0.000000 0.000000 0.000000 -0.034996 0.000000 -0.001277
#
#
# Mechanical properties :
#
#
# Convention : Reuss Voigt Hill
#
# Bulk Modulus (GPa) = 23.10554 27.08239 25.09397
# Shear Modulus (GPa) = 24.28101 5.21681 14.74891
#
# Velocity S-wave (km/s) = 3.32716 1.54221 2.59311
# Velocity P-wave (km/s) = 5.02932 3.93934 4.51732
#
# Compressibility (1/GPa) = 0.04327966
#
# Stress axis : x y z
#
# Youngs Moduli (GPa) = 71.33044 68.73013 52.53383
#
# Poissons Ratio (x) = -0.03413 0.08691
# Poissons Ratio (y) = -0.03542 0.05277
# Poissons Ratio (z) = 0.11801 0.06904
#
# Static dielectric constant tensor:
#      x y z
#    x 1.850860 0.000000 0.059510 
#    y 0.000000 1.849310 0.000000 
#    z 0.059510 0.000000 1.791970 
# 
# From -- ./inp_files/79253.got.cif
#   From: 2010.05.17/outbox.cif.g08.bks.cpg/sg10_40_cif.got.tgz:79253.got - 2010.06.03 11:33:40.
