data_PCOD9145451
_publ_section_title
;
Structure prediction by ZEFSAII (Michael W. Deem and Ramdas Pophale) SiO2 
 PCOD9145451
Probable space group: P 2/M
;
_chemical_formula_sum "Si O2"
_cell_formula_units_Z 28
_cell_length_a 9.210601
_cell_length_b 7.598954
_cell_length_c 29.548010
_cell_angle_alpha 90.000000
_cell_angle_beta 40.088329
_cell_angle_gamma 90.000000
_cell_volume 1331.785177
_symmetry_space_group_name_H-M "P 2/M"
_symmetry_group_IT_number 10
_symmetry_cell_setting 'monoclinic'
loop_
_space_group_symop_operation_xyz
x,y,z
-x,y,-z
-x,-y,-z
x,-y,z
loop_
_atom_site_type_symbol
_atom_site_label
_atom_site_fract_x
_atom_site_fract_y
_atom_site_fract_z
Si Si1 0.410337 0.284564 0.070394
Si Si2 0.902283 0.710494 0.207826
Si Si3 0.441176 0.716305 0.787527
Si Si4 0.061931 0.297241 0.353283
Si Si5 0.659633 0.287655 0.503622
Si Si6 0.250260 0.796445 0.654911
Si Si7 0.255661 0.715097 0.929448
O O1 0.408929 0.500000 0.071115
O O2 0.577788 0.228712 0.070274
O O3 0.155900 0.223439 0.139883
O O4 0.500000 0.230137 0.000000
O O5 0.912363 0.500000 0.199994
O O6 0.728522 0.774522 0.211351
O O7 0.817162 0.746400 0.278574
O O8 0.444595 0.500000 0.787584
O O9 0.694875 0.778991 0.716581
O O10 0.349972 0.771355 0.858287
O O11 0.104915 0.500000 0.355650
O O12 0.907366 0.221341 0.430732
O O13 0.903953 0.297650 0.346149
O O14 0.500000 0.230062 0.500000
O O15 0.668046 0.500000 0.501217
O O16 0.515011 0.235755 0.581643
O O17 0.203262 0.000000 0.659134
O O18 0.253899 0.500000 0.929738
O O19 0.000000 0.771819 0.000000
#
# Coordination Sequence:
#
# PCOD9145451 Si02
#       7
#     4   4   4   4   4   4   4
#     4   9  16  26  44  72 102 130 161 200 246 292
#     4  10  19  32  50  71  99 133 168 206 246 290
#     4   9  17  29  47  71  97 129 167 204 244 289
#     4   9  17  32  53  75  98 125 162 207 251 296
#     4   8  15  29  50  73  96 124 160 203 249 295
#     4  11  21  32  49  73 100 130 165 203 246 297
#     4   9  15  23  38  65 102 134 159 195 242 289
#
# _framework density 21.02441
#
# number of rings (size 3 to 8) (size 9 to 14) (size 15 to 20)
#    0.000    2.714    0.000    3.857    0.000    8.286 
#    0.000    1.429    0.000    4.714    0.000    0.000 
#    0.000    5.143    0.000    0.000    0.000    0.000 
#
# Total GULP energy -156228.674070 kJ/mol
# GULP energy per Si atom -5579.595503 kJ/mol
# Density = 2.097656 g / cm^3
# Si number density = 21.024410 Si / 1000 Ang^3
#
#
#
# Elastic Constant Matrix: (Units=GPa)
#
#
# Indices 1 2 3 4 5 6 
#
# 1 118.5970 2.2234 123.4706 0.0000 -11.0616 0.0000
# 2 2.2234 40.2053 -4.6765 0.0000 -8.2062 0.0000
# 3 123.4706 -4.6765 256.4975 0.0000 -20.3802 0.0000
# 4 0.0000 0.0000 0.0000 -47.3188 0.0000 -6.8448
# 5 -11.0616 -8.2062 -20.3802 0.0000 33.5203 0.0000
# 6 0.0000 0.0000 0.0000 -6.8448 0.0000 -13.4815
#
#
#
# Elastic Compliance Matrix: (Units=1/GPa)
#
#
# Indices 1 2 3 4 5 6 
#
# 1 0.017047 -0.001866 -0.008227 0.000000 0.000167 0.000000
# 2 -0.001866 0.026650 0.001947 0.000000 0.007093 0.000000
# 3 -0.008227 0.001947 0.008108 0.000000 0.002692 0.000000
# 4 0.000000 0.000000 0.000000 -0.022808 0.000000 0.011580
# 5 0.000167 0.007093 0.002692 0.000000 0.033261 0.000000
# 6 0.000000 0.000000 0.000000 0.011580 0.000000 -0.080055
#
#
# Mechanical properties :
#
#
# Convention : Reuss Voigt Hill
#
# Bulk Modulus (GPa) = 28.15686 73.03720 50.59703
# Shear Modulus (GPa) = 483.98326 14.16281 249.07304
#
# Velocity S-wave (km/s) = 15.18882 2.59827 10.89613
# Velocity P-wave (km/s) = 17.91709 6.61936 13.50626
#
# Compressibility (1/GPa) = 0.03551533
#
# Stress axis : x y z
#
# Youngs Moduli (GPa) = 58.65990 37.52390 123.33127
#
# Poissons Ratio (x) = 0.07000 1.01463
# Poissons Ratio (y) = 0.10944 -0.24019
# Poissons Ratio (z) = 0.48259 -0.07308
#
# Static dielectric constant tensor:
#      x y z
#    x 1.719670 0.000000 -0.014860 
#    y 0.000000 1.768870 0.000000 
#    z -0.014860 0.000000 1.763120 
# 
# From -- ./inp_files/38058.got.cif
#   From: 2010.05.17/outbox.cif.g08.bks.cpg/sg10_20_cif.got.tgz:38058.got - 2010.06.03 11:33:40.
