data_PCOD9145721
_publ_section_title
;
Structure prediction by ZEFSAII (Michael W. Deem and Ramdas Pophale) SiO2 
 PCOD9145721
Probable space group: P 2/M
;
_chemical_formula_sum "Si O2"
_cell_formula_units_Z 32
_cell_length_a 20.360074
_cell_length_b 7.661377
_cell_length_c 11.456663
_cell_angle_alpha 90.000000
_cell_angle_beta 125.170494
_cell_angle_gamma 90.000000
_cell_volume 1460.834714
_symmetry_space_group_name_H-M "P 2/M"
_symmetry_group_IT_number 10
_symmetry_cell_setting 'monoclinic'
loop_
_space_group_symop_operation_xyz
x,y,z
-x,y,-z
-x,-y,-z
x,-y,z
loop_
_atom_site_type_symbol
_atom_site_label
_atom_site_fract_x
_atom_site_fract_y
_atom_site_fract_z
Si Si1 0.245029 0.289953 0.181340
Si Si2 0.086529 0.298517 0.615459
Si Si3 0.917183 0.288491 0.857059
Si Si4 0.669460 0.208261 0.500517
Si Si5 0.474567 0.198401 0.789094
Si Si6 0.769221 0.714897 0.094513
Si Si7 0.169217 0.794425 0.464156
Si Si8 0.380286 0.299334 0.916093
O O1 0.243217 0.500000 0.176329
O O2 0.159128 0.230569 0.144352
O O3 0.310647 0.238962 0.344225
O O4 0.254353 0.227959 0.058969
O O5 0.071072 0.500000 0.633514
O O6 0.143023 0.224912 0.774873
O O7 0.139007 0.293506 0.551145
O O8 0.000000 0.216544 0.500000
O O9 0.918364 0.500000 0.856811
O O10 0.897206 0.229954 0.705429
O O11 0.000000 0.228860 0.000000
O O12 0.583754 0.276429 0.368819
O O13 0.746277 0.273585 0.503453
O O14 0.666902 0.000000 0.478644
O O15 0.417981 0.198564 0.846453
O O16 0.497237 0.000000 0.782771
O O17 0.554707 0.294050 0.912553
O O18 0.768567 0.500000 0.095602
O O19 0.702995 0.770697 0.120520
O O20 0.178167 0.000000 0.496690
O O21 0.370868 0.500000 0.868979
#
# Coordination Sequence:
#
# PCOD9145721 Si02
#       8
#     4   4   4   4   4   4   4   4
#     4   9  18  33  53  75 101 134 173 215 257 305
#     4  10  21  35  55  77 101 136 175 215 256 305
#     4   9  18  31  53  78  98 128 173 219 257 301
#     4   9  19  35  53  75 103 136 171 212 257 303
#     4  10  19  33  54  78 106 134 170 214 255 303
#     4   9  19  35  53  76 106 137 170 212 260 307
#     4  10  20  34  51  73 105 134 166 210 259 310
#     4  10  19  32  52  79 108 136 168 209 257 308
#
# _framework density 21.905286
#
# number of rings (size 3 to 8) (size 9 to 14) (size 15 to 20)
#    0.000    2.500    0.000    2.625    1.750    2.000 
#    0.000    3.125    0.000    3.750    0.000    0.000 
#    0.000    0.000    0.000    0.000    0.000    0.000 
#
# Total GULP energy -178664.476416 kJ/mol
# GULP energy per Si atom -5583.264888 kJ/mol
# Density = 2.185543 g / cm^3
# Si number density = 21.905286 Si / 1000 Ang^3
#
#
#
# Elastic Constant Matrix: (Units=GPa)
#
#
# Indices 1 2 3 4 5 6 
#
# 1 29.3156 -4.6847 17.5335 0.0000 4.5837 0.0000
# 2 -4.6847 46.3993 -6.7640 0.0000 3.8515 0.0000
# 3 17.5335 -6.7640 111.4493 0.0000 20.1262 0.0000
# 4 0.0000 0.0000 0.0000 26.5373 0.0000 -11.9127
# 5 4.5837 3.8515 20.1262 0.0000 28.2838 0.0000
# 6 0.0000 0.0000 0.0000 -11.9127 0.0000 8.1722
#
#
#
# Elastic Compliance Matrix: (Units=1/GPa)
#
#
# Indices 1 2 3 4 5 6 
#
# 1 0.038263 0.003331 -0.005296 0.000000 -0.002886 0.000000
# 2 0.003331 0.022539 0.001716 0.000000 -0.004830 0.000000
# 3 -0.005296 0.001716 0.011242 0.000000 -0.007375 0.000000
# 4 0.000000 0.000000 0.000000 0.109028 0.000000 0.158932
# 5 -0.002886 -0.004830 -0.007375 0.000000 0.041729 0.000000
# 6 0.000000 0.000000 0.000000 0.158932 0.000000 0.354042
#
#
# Mechanical properties :
#
#
# Convention : Reuss Voigt Hill
#
# Bulk Modulus (GPa) = 13.97719 22.14819 18.06269
# Shear Modulus (GPa) = 8.31683 24.67063 16.49373
#
# Velocity S-wave (km/s) = 1.95063 3.35959 2.74698
# Velocity P-wave (km/s) = 3.38643 5.01817 4.28076
#
# Compressibility (1/GPa) = 0.07154512
#
# Stress axis : x y z
#
# Youngs Moduli (GPa) = 26.13517 44.36662 88.95301
#
# Poissons Ratio (x) = -0.14777 0.47112
# Poissons Ratio (y) = -0.08705 -0.15267
# Poissons Ratio (z) = 0.13842 -0.07614
#
# Static dielectric constant tensor:
#      x y z
#    x 1.768220 0.000000 0.020080 
#    y 0.000000 1.823360 0.000000 
#    z 0.020080 0.000000 1.827030 
# 
# From -- ./inp_files/55347.got.cif
#   From: 2010.05.17/outbox.cif.g08.bks.cpg/sg10_28_cif.got.tgz:55347.got - 2010.06.03 11:33:40.
