data_PCOD9145547
_publ_section_title
;
Structure prediction by ZEFSAII (Michael W. Deem and Ramdas Pophale) SiO2 
 PCOD9145547
Probable space group: P 2/M
;
_chemical_formula_sum "Si O2"
_cell_formula_units_Z 32
_cell_length_a 9.299256
_cell_length_b 14.894484
_cell_length_c 19.936017
_cell_angle_alpha 90.000000
_cell_angle_beta 37.524562
_cell_angle_gamma 90.000000
_cell_volume 1681.905968
_symmetry_space_group_name_H-M "P 2/M"
_symmetry_group_IT_number 10
_symmetry_cell_setting 'monoclinic'
loop_
_space_group_symop_operation_xyz
x,y,z
-x,y,-z
-x,-y,-z
x,-y,z
loop_
_atom_site_type_symbol
_atom_site_label
_atom_site_fract_x
_atom_site_fract_y
_atom_site_fract_z
Si Si1 0.361460 0.895132 0.159436
Si Si2 0.137525 0.896223 0.097972
Si Si3 0.610888 0.604930 0.648514
Si Si4 0.809501 0.394332 0.799418
Si Si5 0.617248 0.273197 0.768801
Si Si6 0.115432 0.775849 0.896024
Si Si7 0.272635 0.391118 0.542234
Si Si8 0.034357 0.398296 0.862101
O O1 0.206050 0.885333 0.149918
O O2 0.281171 0.822033 0.243579
O O3 0.355033 0.000000 0.182908
O O4 0.627873 0.875493 0.033362
O O5 0.925126 0.832757 0.155028
O O6 0.080948 0.000000 0.107124
O O7 0.671315 0.500000 0.636920
O O8 0.706070 0.661402 0.676339
O O9 0.713374 0.638118 0.539902
O O10 0.321895 0.607023 0.746664
O O11 0.754346 0.500000 0.811838
O O12 0.609524 0.333086 0.839782
O O13 0.037725 0.369612 0.670005
O O14 0.891896 0.382046 0.845687
O O15 0.373385 0.244658 0.825001
O O16 0.982730 0.681634 0.932043
O O17 0.000000 0.828603 0.000000
O O18 0.500000 0.359649 0.500000
O O19 0.286029 0.500000 0.535120
O O20 0.981728 0.500000 0.904072
#
# Coordination Sequence:
#
# PCOD9145547 Si02
#       8
#     4   4   4   4   4   4   4   4
#     4   9  18  34  55  75  96 123 158 206 256 298
#     4   9  18  34  55  75  93 119 161 210 257 300
#     4   9  17  30  48  73 103 132 162 201 245 291
#     4  10  19  32  51  74 100 133 167 209 253 289
#     4  11  21  31  46  74 107 132 159 202 252 295
#     4  11  21  33  48  69  98 137 172 201 246 294
#     4   9  15  28  52  76  98 129 169 204 246 301
#     4   9  18  32  48  66  95 135 176 208 236 276
#
# _framework density 19.026035
#
# number of rings (size 3 to 8) (size 9 to 14) (size 15 to 20)
#    0.000    2.375    2.500    1.875    0.000    2.000 
#    0.000    1.875    0.000    1.500    0.000    1.750 
#    0.000    1.000    0.000    0.000    0.000    0.000 
#
# Total GULP energy -178255.230700 kJ/mol
# GULP energy per Si atom -5570.475959 kJ/mol
# Density = 1.898273 g / cm^3
# Si number density = 19.026035 Si / 1000 Ang^3
#
#
#
# Elastic Constant Matrix: (Units=GPa)
#
#
# Indices 1 2 3 4 5 6 
#
# 1 111.4555 69.7205 10.0639 0.0000 3.7787 0.0000
# 2 69.7205 86.8830 9.1780 0.0000 11.2860 0.0000
# 3 10.0639 9.1780 14.4120 0.0000 3.5700 0.0000
# 4 0.0000 0.0000 0.0000 35.7515 0.0000 -67.5624
# 5 3.7787 11.2860 3.5700 0.0000 28.2595 0.0000
# 6 0.0000 0.0000 0.0000 -67.5624 0.0000 191.8903
#
#
#
# Elastic Compliance Matrix: (Units=1/GPa)
#
#
# Indices 1 2 3 4 5 6 
#
# 1 0.018619 -0.014998 -0.004457 0.000000 0.004063 0.000000
# 2 -0.014998 0.024890 -0.003522 0.000000 -0.007490 0.000000
# 3 -0.004457 -0.003522 0.076644 0.000000 -0.007680 0.000000
# 4 0.000000 0.000000 0.000000 0.083588 0.000000 0.029430
# 5 0.004063 -0.007490 -0.007680 0.000000 0.038804 0.000000
# 6 0.000000 0.000000 0.000000 0.029430 0.000000 0.015573
#
#
# Mechanical properties :
#
#
# Convention : Reuss Voigt Hill
#
# Bulk Modulus (GPa) = 13.47730 43.40836 28.44283
# Shear Modulus (GPa) = 15.20657 59.43280 37.31968
#
# Velocity S-wave (km/s) = 2.83017 5.59513 4.43369
# Velocity P-wave (km/s) = 4.21649 8.03774 6.41810
#
# Compressibility (1/GPa) = 0.07419882
#
# Stress axis : x y z
#
# Youngs Moduli (GPa) = 53.70938 40.17676 13.04731
#
# Poissons Ratio (x) = 0.60257 0.05815
# Poissons Ratio (y) = 0.80553 0.04596
# Poissons Ratio (z) = 0.23937 0.14152
#
# Static dielectric constant tensor:
#      x y z
#    x 1.696720 0.000000 -0.035950 
#    y 0.000000 1.687540 0.000000 
#    z -0.035950 0.000000 1.699310 
# 
# From -- ./inp_files/34838.got.cif
#   From: 2010.05.17/outbox.cif.g08.bks.cpg/sg10_18_cif.got.tgz:34838.got - 2010.06.03 11:33:40.
