data_PCOD9145514
_publ_section_title
;
Structure prediction by ZEFSAII (Michael W. Deem and Ramdas Pophale) SiO2 
 PCOD9145514
Probable space group: P 2/M
;
_chemical_formula_sum "Si O2"
_cell_formula_units_Z 28
_cell_length_a 14.536269
_cell_length_b 7.502204
_cell_length_c 15.712940
_cell_angle_alpha 90.000000
_cell_angle_beta 40.675579
_cell_angle_gamma 90.000000
_cell_volume 1116.855813
_symmetry_space_group_name_H-M "P 2/M"
_symmetry_group_IT_number 10
_symmetry_cell_setting 'monoclinic'
loop_
_space_group_symop_operation_xyz
x,y,z
-x,y,-z
-x,-y,-z
x,-y,z
loop_
_atom_site_type_symbol
_atom_site_label
_atom_site_fract_x
_atom_site_fract_y
_atom_site_fract_z
Si Si1 0.836810 0.795870 0.166802
Si Si2 0.362598 0.217832 0.150508
Si Si3 0.524497 0.212205 0.751803
Si Si4 0.497469 0.795536 0.592252
Si Si5 0.957673 0.781526 0.625889
Si Si6 0.066909 0.799868 0.721521
Si Si7 0.804925 0.295312 0.999749
O O1 0.668567 0.805260 0.274567
O O2 0.872327 0.721451 0.047800
O O3 0.864601 0.714140 0.241280
O O4 0.887648 0.000000 0.137359
O O5 0.389708 0.277321 0.228243
O O6 0.203736 0.273243 0.239776
O O7 0.363973 0.000000 0.146937
O O8 0.500000 0.275529 0.000000
O O9 0.561360 0.285622 0.632664
O O10 0.357807 0.238805 0.886880
O O11 0.546600 0.000000 0.730217
O O12 0.500000 0.703163 0.500000
O O13 0.551330 0.000000 0.544388
O O14 0.059412 0.721673 0.631991
O O15 0.000000 0.728707 0.500000
O O16 0.961918 0.000000 0.624281
O O17 0.126378 0.000000 0.672212
O O18 0.903796 0.809502 0.866298
O O19 0.811051 0.500000 0.970978
#
# Coordination Sequence:
#
# PCOD9145514 Si02
#       7
#     4   4   4   4   4   4   4
#     4   9  18  31  48  72 101 134 168 201 247 308
#     4   9  16  27  47  74 102 133 168 207 253 302
#     4   9  17  30  49  71  97 130 165 204 253 307
#     4   8  14  25  42  66  93 119 154 199 240 285
#     4   9  18  31  49  79 113 138 169 217 263 301
#     4  10  19  32  51  72 100 137 169 201 248 307
#     4  11  21  32  49  74 102 129 164 214 263 305
#
# _framework density 25.070381000000001
#
# number of rings (size 3 to 8) (size 9 to 14) (size 15 to 20)
#    0.000    2.714    0.000    3.429    0.000    5.714 
#    0.000    5.714    0.000   11.143    0.000    4.000 
#    0.000    0.000    0.000    0.000    0.000    0.000 
#
# Total GULP energy -156179.997870 kJ/mol
# GULP energy per Si atom -5577.857067 kJ/mol
# Density = 2.501332 g / cm^3
# Si number density = 25.070381 Si / 1000 Ang^3
#
#
#
# Elastic Constant Matrix: (Units=GPa)
#
#
# Indices 1 2 3 4 5 6 
#
# 1 156.5353 3.0588 40.1980 0.0000 34.3239 0.0000
# 2 3.0588 61.7816 11.7610 0.0000 20.9576 0.0000
# 3 40.1980 11.7610 89.4198 0.0000 23.3973 0.0000
# 4 0.0000 0.0000 0.0000 -54.3282 0.0000 -4.3286
# 5 34.3239 20.9576 23.3973 0.0000 38.8490 0.0000
# 6 0.0000 0.0000 0.0000 -4.3286 0.0000 36.7191
#
#
#
# Elastic Compliance Matrix: (Units=1/GPa)
#
#
# Indices 1 2 3 4 5 6 
#
# 1 0.008580 0.002590 -0.002194 0.000000 -0.007656 0.000000
# 2 0.002590 0.020597 -0.000436 0.000000 -0.013137 0.000000
# 3 -0.002194 -0.000436 0.013839 0.000000 -0.006161 0.000000
# 4 0.000000 0.000000 0.000000 -0.018235 0.000000 -0.002150
# 5 -0.007656 -0.013137 -0.006161 0.000000 0.043303 0.000000
# 6 0.000000 0.000000 0.000000 -0.002150 0.000000 0.026980
#
#
# Mechanical properties :
#
#
# Convention : Reuss Voigt Hill
#
# Bulk Modulus (GPa) = 23.29061 46.41915 34.85488
# Shear Modulus (GPa) = 45.68023 21.09591 33.38807
#
# Velocity S-wave (km/s) = 4.27321 2.90395 3.65331
# Velocity P-wave (km/s) = 5.80150 5.45891 5.63281
#
# Compressibility (1/GPa) = 0.04293575
#
# Stress axis : x y z
#
# Youngs Moduli (GPa) = 116.54915 48.55014 72.25942
#
# Poissons Ratio (x) = -0.12575 0.15857
# Poissons Ratio (y) = -0.30188 0.03150
# Poissons Ratio (z) = 0.25576 0.02117
#
# Static dielectric constant tensor:
#      x y z
#    x 2.010890 0.000000 0.012050 
#    y 0.000000 1.925640 0.000000 
#    z 0.012050 0.000000 2.071450 
# 
# From -- ./inp_files/66416.got.cif
#   From: 2010.05.17/outbox.cif.g08.bks.cpg/sg10_34_cif.got.tgz:66416.got - 2010.06.03 11:33:40.
