data_PCOD9145333
_publ_section_title
;
Structure prediction by ZEFSAII (Michael W. Deem and Ramdas Pophale) SiO2 
 PCOD9145333
Probable space group: P 2/M
;
_chemical_formula_sum "Si O2"
_cell_formula_units_Z 29
_cell_length_a 14.621417
_cell_length_b 9.838923
_cell_length_c 13.253752
_cell_angle_alpha 90.000000
_cell_angle_beta 53.685734
_cell_angle_gamma 90.000000
_cell_volume 1536.359352
_symmetry_space_group_name_H-M "P 2/M"
_symmetry_group_IT_number 10
_symmetry_cell_setting 'monoclinic'
loop_
_space_group_symop_operation_xyz
x,y,z
-x,y,-z
-x,-y,-z
x,-y,z
loop_
_atom_site_type_symbol
_atom_site_label
_atom_site_fract_x
_atom_site_fract_y
_atom_site_fract_z
Si Si1 0.847009 0.335687 0.847833
Si Si2 0.599678 0.662618 0.013098
Si Si3 0.129497 0.664012 0.936327
Si Si4 0.728822 0.843131 0.518187
Si Si5 0.054374 0.661579 0.575346
Si Si6 0.500000 0.500000 0.500000
Si Si7 0.521469 0.155247 0.246672
Si Si8 0.334469 0.753379 0.662096
O O1 0.854724 0.500000 0.839559
O O2 0.957321 0.288042 0.716254
O O3 0.722768 0.299570 0.887513
O O4 0.845468 0.294054 0.965389
O O5 0.600497 0.500000 0.032676
O O6 0.576468 0.741676 0.131531
O O7 0.500000 0.692247 0.000000
O O8 0.136389 0.500000 0.926874
O O9 0.220099 0.720556 0.798773
O O10 0.000000 0.703525 0.000000
O O11 0.830485 0.744390 0.483830
O O12 0.610813 0.809574 0.651569
O O13 0.700319 0.826479 0.418339
O O14 0.757880 0.000000 0.520203
O O15 0.076074 0.500000 0.577735
O O16 0.000000 0.675728 0.500000
O O17 0.404497 0.618732 0.587153
O O18 0.584227 0.167257 0.313256
O O19 0.530417 0.000000 0.204877
#
# Coordination Sequence:
#
# PCOD9145333 Si02
#       8
#     4   4   4   4   4   1   4   4
#     4   9  18  36  57  88 124 151 189 247 310 360
#     4  10  22  38  64  93 120 155 202 259 309 365
#     4  10  19  31  55  87 119 155 191 239 301 359
#     4  11  25  42  61  87 126 170 205 248 309 375
#     4  10  23  41  66  94 121 157 206 262 307 358
#     4  12  24  32  60 104 120 164 208 270 306 378
#     4  11  24  41  62  89 127 167 202 251 313 373
#     4  12  22  38  61  91 128 156 207 257 312 367
#
# _framework density 18.875793000000002
#
# number of rings (size 3 to 8) (size 9 to 14) (size 15 to 20)
#    0.000    1.517    3.448    1.241    3.862    3.310 
#    0.000    0.690    0.000    1.655    0.000    0.000 
#    0.000    0.000    0.000    0.000    0.000    0.000 
#
# Total GULP energy -161623.554509 kJ/mol
# GULP energy per Si atom -5573.226018 kJ/mol
# Density = 1.883283 g / cm^3
# Si number density = 18.875793 Si / 1000 Ang^3
#
#
#
# Elastic Constant Matrix: (Units=GPa)
#
#
# Indices 1 2 3 4 5 6 
#
# 1 102.0686 34.5717 27.0295 0.0000 -29.6793 0.0000
# 2 34.5717 48.0628 28.9846 0.0000 -13.0544 0.0000
# 3 27.0295 28.9846 91.1542 0.0000 -30.2616 0.0000
# 4 0.0000 0.0000 0.0000 -48.1393 0.0000 14.1683
# 5 -29.6793 -13.0544 -30.2616 0.0000 35.4049 0.0000
# 6 0.0000 0.0000 0.0000 14.1683 0.0000 0.8132
#
#
#
# Elastic Compliance Matrix: (Units=1/GPa)
#
#
# Indices 1 2 3 4 5 6 
#
# 1 0.015834 -0.009561 0.002207 0.000000 0.011635 0.000000
# 2 -0.009561 0.031827 -0.008447 0.000000 -0.003499 0.000000
# 3 0.002207 -0.008447 0.017567 0.000000 0.013751 0.000000
# 4 0.000000 0.000000 0.000000 -0.003390 0.000000 0.059063
# 5 0.011635 -0.003499 0.013751 0.000000 0.048461 0.000000
# 6 0.000000 0.000000 0.000000 0.059063 0.000000 0.200676
#
#
# Mechanical properties :
#
#
# Convention : Reuss Voigt Hill
#
# Bulk Modulus (GPa) = 29.73730 46.93970 38.33850
# Shear Modulus (GPa) = 14.13293 7.66239 10.89766
#
# Velocity S-wave (km/s) = 2.73927 2.01697 2.40539
# Velocity P-wave (km/s) = 5.07870 5.50871 5.29807
#
# Compressibility (1/GPa) = 0.03362780
#
# Stress axis : x y z
#
# Youngs Moduli (GPa) = 63.15395 31.42029 56.92589
#
# Poissons Ratio (x) = 0.30040 -0.12566
# Poissons Ratio (y) = 0.60379 0.48084
# Poissons Ratio (z) = -0.13941 0.26540
#
# Static dielectric constant tensor:
#      x y z
#    x 1.666650 0.000000 -0.000450 
#    y 0.000000 1.632810 0.000000 
#    z -0.000450 0.000000 1.643950 
# 
# From -- ./inp_files/66447.got.cif
#   From: 2010.05.17/outbox.cif.g08.bks.cpg/sg10_34_cif.got.tgz:66447.got - 2010.06.03 11:33:40.
