data_PCOD9145815
_publ_section_title
;
Structure prediction by ZEFSAII (Michael W. Deem and Ramdas Pophale) SiO2 
 PCOD9145815
Probable space group: P 2/M
;
_chemical_formula_sum "Si O2"
_cell_formula_units_Z 22
_cell_length_a 5.242269
_cell_length_b 8.123773
_cell_length_c 22.973001
_cell_angle_alpha 90.000000
_cell_angle_beta 95.925458
_cell_angle_gamma 90.000000
_cell_volume 973.123985
_symmetry_space_group_name_H-M "P 2/M"
_symmetry_group_IT_number 10
_symmetry_cell_setting 'monoclinic'
loop_
_space_group_symop_operation_xyz
x,y,z
-x,y,-z
-x,-y,-z
x,-y,z
loop_
_atom_site_type_symbol
_atom_site_label
_atom_site_fract_x
_atom_site_fract_y
_atom_site_fract_z
Si Si1 0.914787 0.798449 0.933630
Si Si2 0.407053 0.697487 0.733765
Si Si3 0.513791 0.177885 0.430436
Si Si4 0.264447 0.500000 0.540552
Si Si5 0.884168 0.300323 0.662620
Si Si6 0.615811 0.198135 0.133318
O O1 0.124159 0.743530 0.891273
O O2 0.633024 0.743046 0.908052
O O3 0.911864 0.000000 0.933838
O O4 0.000000 0.746704 0.000000
O O5 0.390519 0.500000 0.733599
O O6 0.666354 0.740460 0.705855
O O7 0.405266 0.755138 0.799988
O O8 0.154295 0.758137 0.694047
O O9 0.500000 0.168947 0.500000
O O10 0.691517 0.335358 0.421520
O O11 0.235654 0.218583 0.397684
O O12 0.603189 0.000000 0.411364
O O13 0.500000 0.500000 0.500000
O O14 0.000000 0.500000 0.500000
O O15 0.885942 0.500000 0.654352
O O16 0.617277 0.000000 0.129923
#
# Coordination Sequence:
#
# PCOD9145815 Si02
#       6
#     4   4   4   2   4   4
#     4   9  17  30  51  80 111 144 184 231 282 337
#     4  10  22  38  58  81 112 152 192 235 288 348
#     4  10  22  41  65  94 124 158 200 250 309 367
#     4  10  22  40  62  86 120 158 192 238 291 358
#     4  10  21  39  59  82 111 150 195 238 290 353
#     4  10  19  32  53  79 108 143 186 234 282 335
#
# _framework density 22.607602
#
# number of rings (size 3 to 8) (size 9 to 14) (size 15 to 20)
#    0.000    2.182    0.909    1.636    0.000    6.909 
#    0.000    3.636    0.000    3.273    0.000    0.000 
#    0.000    0.000    0.000    0.000    0.000    0.000 
#
# Total GULP energy -123059.297883 kJ/mol
# GULP energy per Si atom -5593.604449 kJ/mol
# Density = 2.255615 g / cm^3
# Si number density = 22.607602 Si / 1000 Ang^3
#
#
#
# Elastic Constant Matrix: (Units=GPa)
#
#
# Indices 1 2 3 4 5 6 
#
# 1 80.4114 18.8679 -8.6460 0.0000 8.8125 0.0000
# 2 18.8679 78.6163 1.8669 0.0000 11.3505 0.0000
# 3 -8.6460 1.8669 84.7593 0.0000 5.4201 0.0000
# 4 0.0000 0.0000 0.0000 30.0560 0.0000 -4.0549
# 5 8.8125 11.3505 5.4201 0.0000 42.5043 0.0000
# 6 0.0000 0.0000 0.0000 -4.0549 0.0000 8.0891
#
#
#
# Elastic Compliance Matrix: (Units=1/GPa)
#
#
# Indices 1 2 3 4 5 6 
#
# 1 0.013547 -0.002969 0.001589 0.000000 -0.002219 0.000000
# 2 -0.002969 0.013881 -0.000414 0.000000 -0.003039 0.000000
# 3 0.001589 -0.000414 0.012082 0.000000 -0.001759 0.000000
# 4 0.000000 0.000000 0.000000 0.035685 0.000000 0.017888
# 5 -0.002219 -0.003039 -0.001759 0.000000 0.025023 0.000000
# 6 0.000000 0.000000 0.000000 0.017888 0.000000 0.132590
#
#
# Mechanical properties :
#
#
# Convention : Reuss Voigt Hill
#
# Bulk Modulus (GPa) = 27.83813 29.77382 28.80597
# Shear Modulus (GPa) = 20.13138 31.57643 25.85390
#
# Velocity S-wave (km/s) = 2.98731 3.74132 3.38537
# Velocity P-wave (km/s) = 4.92332 5.64462 5.29626
#
# Compressibility (1/GPa) = 0.03592196
#
# Stress axis : x y z
#
# Youngs Moduli (GPa) = 73.81922 72.04084 82.76880
#
# Poissons Ratio (x) = 0.21386 -0.13153
# Poissons Ratio (y) = 0.21914 0.03429
# Poissons Ratio (z) = -0.11731 0.02984
#
# Static dielectric constant tensor:
#      x y z
#    x 1.986430 0.000000 -0.112480 
#    y 0.000000 1.880530 0.000000 
#    z -0.112480 0.000000 1.859560 
# 
# From -- ./inp_files/80956.got.cif
#   From: 2010.05.17/outbox.cif.g08.bks.cpg/sg10_41_cif.got.tgz:80956.got - 2010.06.03 11:33:40.
