data_PCOD9145687
_publ_section_title
;
Structure prediction by ZEFSAII (Michael W. Deem and Ramdas Pophale) SiO2 
 PCOD9145687
Probable space group: P 2/M
;
_chemical_formula_sum "Si O2"
_cell_formula_units_Z 28
_cell_length_a 19.632727
_cell_length_b 9.194879
_cell_length_c 15.696212
_cell_angle_alpha 90.000000
_cell_angle_beta 142.940574
_cell_angle_gamma 90.000000
_cell_volume 1707.582275
_symmetry_space_group_name_H-M "P 2/M"
_symmetry_group_IT_number 10
_symmetry_cell_setting 'monoclinic'
loop_
_space_group_symop_operation_xyz
x,y,z
-x,y,-z
-x,-y,-z
x,-y,z
loop_
_atom_site_type_symbol
_atom_site_label
_atom_site_fract_x
_atom_site_fract_y
_atom_site_fract_z
Si Si1 0.862853 0.666910 0.362724
Si Si2 0.134165 0.670759 0.129469
Si Si3 0.735937 0.173982 0.891797
Si Si4 0.509111 0.325729 0.609487
Si Si5 0.129575 0.825978 0.802954
Si Si6 0.862764 0.173752 0.536881
Si Si7 0.261277 0.326430 0.431941
O O1 0.824377 0.500000 0.327937
O O2 0.830845 0.744205 0.242603
O O3 0.828972 0.755379 0.412927
O O4 0.000000 0.666562 0.500000
O O5 0.159727 0.500000 0.137876
O O6 0.187765 0.766391 0.109009
O O7 0.189220 0.706864 0.275229
O O8 0.000000 0.688419 0.000000
O O9 0.613536 0.244968 0.756845
O O10 0.728068 0.000000 0.879938
O O11 0.796421 0.213442 0.041087
O O12 0.500000 0.286084 0.500000
O O13 0.527479 0.500000 0.630650
O O14 0.391079 0.293445 0.538349
O O15 0.996425 0.792117 0.685055
O O16 0.136613 0.000000 0.796575
O O17 0.788978 0.240181 0.538919
O O18 0.851877 0.000000 0.522361
O O19 0.251780 0.500000 0.438255
#
# Coordination Sequence:
#
# PCOD9145687 Si02
#       7
#     4   4   4   4   4   4   4
#     4   9  17  30  51  78 105 135 173 212 248 300
#     4  10  20  34  52  74 103 139 174 210 258 311
#     4  11  22  34  52  77 106 136 173 219 260 308
#     4  10  20  38  57  71  97 137 181 223 263 305
#     4   9  19  34  50  75 110 142 168 204 259 313
#     4  10  19  32  52  77 108 141 169 204 258 317
#     4  10  20  34  52  74 101 134 174 220 258 300
#
# _framework density 16.397452000000001
#
# number of rings (size 3 to 8) (size 9 to 14) (size 15 to 20)
#    0.000    2.143    1.429    2.143    0.000    5.143 
#    0.000    0.000    0.000    0.857    0.000    6.000 
#    0.000    0.000    0.000    0.000    0.000    0.000 
#
# Total GULP energy -156258.305451 kJ/mol
# GULP energy per Si atom -5580.653766 kJ/mol
# Density = 1.636013 g / cm^3
# Si number density = 16.397452 Si / 1000 Ang^3
#
#
#
# Elastic Constant Matrix: (Units=GPa)
#
#
# Indices 1 2 3 4 5 6 
#
# 1 132.9400 79.2617 103.4877 0.0000 -25.3078 0.0000
# 2 79.2617 67.4834 62.0260 0.0000 -14.3019 0.0000
# 3 103.4877 62.0260 82.0186 0.0000 -13.5897 0.0000
# 4 0.0000 0.0000 0.0000 21.9014 0.0000 -6.7597
# 5 -25.3078 -14.3019 -13.5897 0.0000 22.1265 0.0000
# 6 0.0000 0.0000 0.0000 -6.7597 0.0000 31.0747
#
#
#
# Elastic Compliance Matrix: (Units=1/GPa)
#
#
# Indices 1 2 3 4 5 6 
#
# 1 -0.991085 -0.032738 1.206741 0.000000 -0.413585 0.000000
# 2 -0.032738 0.049522 0.003291 0.000000 -0.003414 0.000000
# 3 1.206741 0.003291 -1.429319 0.000000 0.504510 0.000000
# 4 0.000000 0.000000 0.000000 0.048945 0.000000 0.010647
# 5 -0.413585 -0.003414 0.504510 0.000000 -0.120201 0.000000
# 6 0.000000 0.000000 0.000000 0.010647 0.000000 0.034497
#
#
# Mechanical properties :
#
#
# Convention : Reuss Voigt Hill
#
# Bulk Modulus (GPa) = -61.36999 85.77699 12.20350
# Shear Modulus (GPa) = -1.04873 17.53162 8.24145
#
# Velocity S-wave (km/s) = -0.80060 3.27336 2.24432
# Velocity P-wave (km/s) = 6.19374 8.16770 3.76489
#
# Compressibility (1/GPa) = -0.01629461
#
# Stress axis : x y z
#
# Youngs Moduli (GPa) = -1.00899 20.19311 -0.69963
#
# Poissons Ratio (x) = 0.66109 0.84428
# Poissons Ratio (y) = -0.03303 0.00230
# Poissons Ratio (z) = 1.21760 -0.06646
#
# Static dielectric constant tensor:
#      x y z
#    x 1.524380 0.000000 0.002220 
#    y 0.000000 1.549140 0.000000 
#    z 0.002220 0.000000 1.534620 
# 
# From -- ./inp_files/57496.got.cif
#   From: 2010.05.17/outbox.cif.g08.bks.cpg/sg10_29_cif.got.tgz:57496.got - 2010.06.03 11:33:40.
