data_PCOD9145792
_publ_section_title
;
Structure prediction by ZEFSAII (Michael W. Deem and Ramdas Pophale) SiO2 
 PCOD9145792
Probable space group: P 2/M
;
_chemical_formula_sum "Si O2"
_cell_formula_units_Z 32
_cell_length_a 22.487623
_cell_length_b 9.256396
_cell_length_c 20.977721
_cell_angle_alpha 90.000000
_cell_angle_beta 155.083627
_cell_angle_gamma 90.000000
_cell_volume 1839.628305
_symmetry_space_group_name_H-M "P 2/M"
_symmetry_group_IT_number 10
_symmetry_cell_setting 'monoclinic'
loop_
_space_group_symop_operation_xyz
x,y,z
-x,y,-z
-x,-y,-z
x,-y,z
loop_
_atom_site_type_symbol
_atom_site_label
_atom_site_fract_x
_atom_site_fract_y
_atom_site_fract_z
Si Si1 0.411467 0.165560 0.980391
Si Si2 0.269261 0.327620 0.501174
Si Si3 0.164596 0.174017 0.654369
Si Si4 0.990280 0.667776 0.833779
Si Si5 0.776999 0.169796 0.871851
Si Si6 0.444166 0.170855 0.563198
Si Si7 0.655630 0.671645 0.279703
Si Si8 0.765084 0.669169 0.729774
O O1 0.255830 0.211577 0.806281
O O2 0.408359 0.000000 0.000532
O O3 0.500000 0.166158 0.000000
O O4 0.500154 0.265152 0.113756
O O5 0.288724 0.500000 0.507789
O O6 0.110199 0.293739 0.323325
O O7 0.374251 0.239206 0.558059
O O8 0.298134 0.299325 0.603009
O O9 0.237809 0.252298 0.666048
O O10 0.000000 0.209056 0.500000
O O11 0.179212 0.000000 0.660662
O O12 0.032988 0.500000 0.870048
O O13 0.887102 0.680558 0.795001
O O14 0.123528 0.767372 0.976430
O O15 0.611748 0.191350 0.725586
O O16 0.808169 0.255492 0.837075
O O17 0.802867 0.000000 0.887966
O O18 0.369687 0.250682 0.431555
O O19 0.414151 0.000000 0.530130
O O20 0.656125 0.500000 0.269532
O O21 0.736392 0.500000 0.712265
#
# Coordination Sequence:
#
# PCOD9145792 Si02
#       8
#     4   4   4   4   4   4   4   4
#     4   8  15  29  49  73 101 132 165 199 236 281
#     4   9  20  38  55  72  96 130 171 208 245 296
#     4   9  18  33  52  76 107 139 168 200 242 291
#     4   9  19  35  52  70  96 130 167 204 244 296
#     4  11  22  33  48  75 104 126 158 206 256 301
#     4  10  21  35  51  73 100 128 162 208 252 292
#     4  10  19  32  53  78 102 130 167 208 247 291
#     4  10  20  34  53  75  98 129 167 202 246 306
#
# _framework density 17.394818999999998
#
# number of rings (size 3 to 8) (size 9 to 14) (size 15 to 20)
#    0.000    2.500    0.000    3.750    0.000   11.000 
#    0.000    1.250    0.000    6.000    0.000    0.000 
#    0.000    0.000    0.000    0.000    0.000    0.000 
#
# Total GULP energy -178505.343186 kJ/mol
# GULP energy per Si atom -5578.291975 kJ/mol
# Density = 1.735523 g / cm^3
# Si number density = 17.394819 Si / 1000 Ang^3
#
#
#
# Elastic Constant Matrix: (Units=GPa)
#
#
# Indices 1 2 3 4 5 6 
#
# 1 34.0626 27.9800 40.1269 0.0000 -15.0207 0.0000
# 2 27.9800 70.7755 69.5772 0.0000 -9.0780 0.0000
# 3 40.1269 69.5772 154.1418 0.0000 -14.4113 0.0000
# 4 0.0000 0.0000 0.0000 35.0815 0.0000 -10.9124
# 5 -15.0207 -9.0780 -14.4113 0.0000 23.2492 0.0000
# 6 0.0000 0.0000 0.0000 -10.9124 0.0000 24.6035
#
#
#
# Elastic Compliance Matrix: (Units=1/GPa)
#
#
# Indices 1 2 3 4 5 6 
#
# 1 0.062696 -0.013711 -0.007267 0.000000 0.030648 0.000000
# 2 -0.013711 0.028595 -0.009684 0.000000 -0.003695 0.000000
# 3 -0.007267 -0.009684 0.012694 0.000000 -0.000608 0.000000
# 4 0.000000 0.000000 0.000000 0.033067 0.000000 0.014666
# 5 0.030648 -0.003695 -0.000608 0.000000 0.060993 0.000000
# 6 0.000000 0.000000 0.000000 0.014666 0.000000 0.047149
#
#
# Mechanical properties :
#
#
# Convention : Reuss Voigt Hill
#
# Bulk Modulus (GPa) = 23.44026 59.37200 41.40613
# Shear Modulus (GPa) = 15.58904 24.67325 20.13115
#
# Velocity S-wave (km/s) = 2.99689 3.77028 3.40561
# Velocity P-wave (km/s) = 5.04775 7.29106 6.27054
#
# Compressibility (1/GPa) = 0.04266164
#
# Stress axis : x y z
#
# Youngs Moduli (GPa) = 15.95000 34.97077 78.78017
#
# Poissons Ratio (x) = 0.47948 0.57250
# Poissons Ratio (y) = 0.21869 0.76288
# Poissons Ratio (z) = 0.11591 0.33865
#
# Static dielectric constant tensor:
#      x y z
#    x 1.564360 0.000000 -0.000010 
#    y 0.000000 1.582560 0.000000 
#    z -0.000010 0.000000 1.615310 
# 
# From -- ./inp_files/91230.got.cif
#   From: 2010.05.17/outbox.cif.g08.bks.cpg/sg10_46_cif.got.tgz:91230.got - 2010.06.03 11:33:40.
