data_PCOD9145776
_publ_section_title
;
Structure prediction by ZEFSAII (Michael W. Deem and Ramdas Pophale) SiO2 
 PCOD9145776
Probable space group: P 2/M
;
_chemical_formula_sum "Si O2"
_cell_formula_units_Z 32
_cell_length_a 12.590255
_cell_length_b 8.724484
_cell_length_c 14.566949
_cell_angle_alpha 90.000000
_cell_angle_beta 76.016986
_cell_angle_gamma 90.000000
_cell_volume 1552.669694
_symmetry_space_group_name_H-M "P 2/M"
_symmetry_group_IT_number 10
_symmetry_cell_setting 'monoclinic'
loop_
_space_group_symop_operation_xyz
x,y,z
-x,y,-z
-x,-y,-z
x,-y,z
loop_
_atom_site_type_symbol
_atom_site_label
_atom_site_fract_x
_atom_site_fract_y
_atom_site_fract_z
Si Si1 0.100330 0.180197 0.632122
Si Si2 0.320076 0.318777 0.660180
Si Si3 0.996291 0.683126 0.169827
Si Si4 0.437852 0.317426 0.375058
Si Si5 0.321889 0.184014 0.237532
Si Si6 0.228374 0.182523 0.067457
Si Si7 0.229344 0.678536 0.878257
Si Si8 0.788984 0.183509 0.562744
O O1 0.223467 0.212667 0.643183
O O2 0.024927 0.265522 0.720897
O O3 0.114054 0.235863 0.523960
O O4 0.072683 0.000000 0.639120
O O5 0.302313 0.500000 0.638139
O O6 0.443894 0.271407 0.612741
O O7 0.306530 0.312954 0.773536
O O8 0.999970 0.500000 0.165518
O O9 0.890200 0.733141 0.132577
O O10 0.106897 0.752047 0.107469
O O11 0.433125 0.500000 0.380898
O O12 0.419565 0.262116 0.273672
O O13 0.328862 0.249798 0.444373
O O14 0.300025 0.236970 0.139442
O O15 0.217169 0.217785 0.327059
O O16 0.337308 0.000000 0.235419
O O17 0.223701 0.000000 0.074260
O O18 0.268033 0.232336 0.959354
O O19 0.217633 0.500000 0.906194
O O20 0.786748 0.000000 0.554660
#
# Coordination Sequence:
#
# PCOD9145776 Si02
#       8
#     4   4   4   4   4   4   4   4
#     4  10  19  32  53  77 101 134 171 204 244 297
#     4   9  19  34  50  74 108 137 162 203 256 298
#     4  10  21  36  53  75 106 135 159 201 256 301
#     4   9  17  31  53  75  98 133 174 207 242 293
#     4   8  18  36  51  69 101 134 165 209 254 290
#     4  11  21  34  55  77  97 129 171 210 250 297
#     4   9  19  35  52  72 103 136 161 197 253 304
#     4   8  17  34  51  70 103 137 165 204 252 292
#
# _framework density 20.609663000000001
#
# number of rings (size 3 to 8) (size 9 to 14) (size 15 to 20)
#    0.750    2.000    0.000    2.250    0.000    7.500 
#    0.000    3.750    0.000    7.500    0.000    0.000 
#    0.000    0.000    0.000    0.000    0.000    0.000 
#
# Total GULP energy -178297.374082 kJ/mol
# GULP energy per Si atom -5571.792940 kJ/mol
# Density = 2.056275 g / cm^3
# Si number density = 20.609663 Si / 1000 Ang^3
#
#
#
# Elastic Constant Matrix: (Units=GPa)
#
#
# Indices 1 2 3 4 5 6 
#
# 1 142.8515 -12.5452 -176.1180 0.0000 -37.4986 0.0000
# 2 -12.5452 13.9233 35.9516 0.0000 8.4544 0.0000
# 3 -176.1180 35.9516 409.0838 0.0000 94.8931 0.0000
# 4 0.0000 0.0000 0.0000 26.4275 0.0000 0.8063
# 5 -37.4986 8.4544 94.8931 0.0000 40.3114 0.0000
# 6 0.0000 0.0000 0.0000 0.8063 0.0000 31.8381
#
#
#
# Elastic Compliance Matrix: (Units=1/GPa)
#
#
# Indices 1 2 3 4 5 6 
#
# 1 0.015238 -0.004122 0.007564 0.000000 -0.002767 0.000000
# 2 -0.004122 0.094026 -0.010076 0.000000 0.000165 0.000000
# 3 0.007564 -0.010076 0.009834 0.000000 -0.013999 0.000000
# 4 0.000000 0.000000 0.000000 0.037869 0.000000 -0.000959
# 5 -0.002767 0.000165 -0.013999 0.000000 0.055152 0.000000
# 6 0.000000 0.000000 0.000000 -0.000959 0.000000 0.031433
#
#
# Mechanical properties :
#
#
# Convention : Reuss Voigt Hill
#
# Bulk Modulus (GPa) = 9.44917 28.93728 19.19322
# Shear Modulus (GPa) = 17.11766 67.62007 42.36887
#
# Velocity S-wave (km/s) = 2.88508 5.73421 4.53899
# Velocity P-wave (km/s) = 3.96144 7.61003 6.06653
#
# Compressibility (1/GPa) = 0.10582943
#
# Stress axis : x y z
#
# Youngs Moduli (GPa) = 65.62698 10.63539 101.68867
#
# Poissons Ratio (x) = 0.04384 -0.76920
# Poissons Ratio (y) = 0.27052 1.02463
# Poissons Ratio (z) = -0.49642 0.10716
#
# Static dielectric constant tensor:
#      x y z
#    x 1.737730 0.000000 0.015370 
#    y 0.000000 1.691280 0.000000 
#    z 0.015370 0.000000 1.811360 
# 
# From -- ./inp_files/66022.got.cif
#   From: 2010.05.17/outbox.cif.g08.bks.cpg/sg10_34_cif.got.tgz:66022.got - 2010.06.03 11:33:40.
