data_PCOD9145247
_publ_section_title
;
Structure prediction by ZEFSAII (Michael W. Deem and Ramdas Pophale) SiO2 
 PCOD9145247
Probable space group: P 2/M
;
_chemical_formula_sum "Si O2"
_cell_formula_units_Z 28
_cell_length_a 9.779576
_cell_length_b 13.550102
_cell_length_c 12.635883
_cell_angle_alpha 90.000000
_cell_angle_beta 55.870830
_cell_angle_gamma 90.000000
_cell_volume 1386.054755
_symmetry_space_group_name_H-M "P 2/M"
_symmetry_group_IT_number 10
_symmetry_cell_setting 'monoclinic'
loop_
_space_group_symop_operation_xyz
x,y,z
-x,y,-z
-x,-y,-z
x,-y,z
loop_
_atom_site_type_symbol
_atom_site_label
_atom_site_fract_x
_atom_site_fract_y
_atom_site_fract_z
Si Si1 0.019714 0.607200 0.235751
Si Si2 0.895228 0.820075 0.885384
Si Si3 0.748925 0.885390 0.348281
Si Si4 0.170810 0.320684 0.379729
Si Si5 0.326700 0.111446 0.843621
Si Si6 0.681794 0.322013 0.465530
Si Si7 0.385251 0.180901 0.140572
O O1 0.050878 0.500000 0.173858
O O2 0.824501 0.628062 0.332727
O O3 0.090759 0.703914 0.147705
O O4 0.098242 0.608626 0.320081
O O5 0.758168 0.868115 0.866788
O O6 0.067085 0.870267 0.779544
O O7 0.818143 0.829356 0.035040
O O8 0.638282 0.860879 0.292675
O O9 0.716420 0.796983 0.444247
O O10 0.724502 0.000000 0.392124
O O11 0.275916 0.357546 0.434079
O O12 0.290300 0.249303 0.263601
O O13 0.000000 0.273766 0.500000
O O14 0.489158 0.118033 0.844536
O O15 0.265926 0.000000 0.865953
O O16 0.500000 0.341995 0.500000
O O17 0.500000 0.231837 0.000000
#
# Coordination Sequence:
#
# PCOD9145247 Si02
#       7
#     4   4   4   4   4   4   4
#     4   9  19  36  57  79 102 135 181 228 277 334
#     4   9  18  32  53  77 104 136 177 226 271 315
#     4  10  20  33  50  74 106 146 186 218 258 320
#     4   9  18  34  55  77 106 144 181 221 272 325
#     4  10  19  31  52  79 107 144 184 218 260 320
#     4  10  20  33  52  77 108 140 176 227 277 317
#     4   9  18  32  51  76 106 138 178 225 272 317
#
# _framework density 20.201222000000001
#
# number of rings (size 3 to 8) (size 9 to 14) (size 15 to 20)
#    0.000    2.571    0.000    2.571    0.000    7.429 
#    0.000    0.714    0.000   50.571    0.000    0.000 
#    0.000    0.000    0.000    0.000    0.000    0.000 
#
# Total GULP energy -155904.976552 kJ/mol
# GULP energy per Si atom -5568.034877 kJ/mol
# Density = 2.015524 g / cm^3
# Si number density = 20.201222 Si / 1000 Ang^3
#
#
#
# Elastic Constant Matrix: (Units=GPa)
#
#
# Indices 1 2 3 4 5 6 
#
# 1 110.6186 12.7128 3.5992 0.0000 -13.5422 0.0000
# 2 12.7128 83.3456 17.2195 0.0000 0.2192 0.0000
# 3 3.5992 17.2195 54.6636 0.0000 -11.9674 0.0000
# 4 0.0000 0.0000 0.0000 -1.0160 0.0000 -10.9221
# 5 -13.5422 0.2192 -11.9674 0.0000 21.7837 0.0000
# 6 0.0000 0.0000 0.0000 -10.9221 0.0000 -25.0694
#
#
#
# Elastic Compliance Matrix: (Units=1/GPa)
#
#
# Indices 1 2 3 4 5 6 
#
# 1 0.010074 -0.001860 0.001475 0.000000 0.007092 0.000000
# 2 -0.001860 0.013315 -0.004950 0.000000 -0.004010 0.000000
# 3 0.001475 -0.004950 0.022697 0.000000 0.013436 0.000000
# 4 0.000000 0.000000 0.000000 0.267203 0.000000 -0.116413
# 5 0.007092 -0.004010 0.013436 0.000000 0.057737 0.000000
# 6 0.000000 0.000000 0.000000 -0.116413 0.000000 0.010829
#
#
# Mechanical properties :
#
#
# Convention : Reuss Voigt Hill
#
# Bulk Modulus (GPa) = 28.23461 35.07675 31.65568
# Shear Modulus (GPa) = 12.36613 13.47942 12.92278
#
# Velocity S-wave (km/s) = 2.47685 2.58594 2.53198
# Velocity P-wave (km/s) = 4.71028 5.13005 4.92464
#
# Compressibility (1/GPa) = 0.03541753
#
# Stress axis : x y z
#
# Youngs Moduli (GPa) = 99.26501 75.10259 44.05795
#
# Poissons Ratio (x) = 0.13969 -0.06500
# Poissons Ratio (y) = 0.18464 0.21807
# Poissons Ratio (z) = -0.14644 0.37174
#
# Static dielectric constant tensor:
#      x y z
#    x 1.776730 0.000000 0.029230 
#    y 0.000000 1.697840 0.000000 
#    z 0.029230 0.000000 1.750030 
# 
# From -- ./inp_files/42878.got.cif
#   From: 2010.05.17/outbox.cif.g08.bks.cpg/sg10_22_cif.got.tgz:42878.got - 2010.06.03 11:33:40.
