data_PCOD9145507
_publ_section_title
;
Structure prediction by ZEFSAII (Michael W. Deem and Ramdas Pophale) SiO2 
 PCOD9145507
Probable space group: P 2/M
;
_chemical_formula_sum "Si O2"
_cell_formula_units_Z 32
_cell_length_a 21.189229
_cell_length_b 7.473058
_cell_length_c 11.279446
_cell_angle_alpha 90.000000
_cell_angle_beta 124.363571
_cell_angle_gamma 90.000000
_cell_volume 1474.361250
_symmetry_space_group_name_H-M "P 2/M"
_symmetry_group_IT_number 10
_symmetry_cell_setting 'monoclinic'
loop_
_space_group_symop_operation_xyz
x,y,z
-x,y,-z
-x,-y,-z
x,-y,z
loop_
_atom_site_type_symbol
_atom_site_label
_atom_site_fract_x
_atom_site_fract_y
_atom_site_fract_z
Si Si1 0.251589 0.205013 0.970566
Si Si2 0.593177 0.219201 0.969369
Si Si3 0.169468 0.718295 0.639397
Si Si4 0.028070 0.285782 0.349396
Si Si5 0.422739 0.787229 0.777541
Si Si6 0.105251 0.705337 0.940484
Si Si7 0.734546 0.286481 0.489603
Si Si8 0.128745 0.283625 0.220403
O O1 0.335465 0.281612 0.032774
O O2 0.207281 0.212420 0.798243
O O3 0.194039 0.295058 0.000782
O O4 0.259626 0.000000 0.017232
O O5 0.600082 0.277968 0.114460
O O6 0.597130 0.000000 0.972695
O O7 0.508387 0.275827 0.839319
O O8 0.168983 0.500000 0.646225
O O9 0.083380 0.778236 0.513638
O O10 0.223848 0.773817 0.587486
O O11 0.022345 0.500000 0.366007
O O12 0.076126 0.252759 0.279076
O O13 0.944967 0.217739 0.221232
O O14 0.354739 0.752392 0.614504
O O15 0.429354 0.000000 0.796289
O O16 0.078102 0.500000 0.921167
O O17 0.097914 0.787387 0.063118
O O18 0.742317 0.500000 0.498108
O O19 0.786444 0.219825 0.653054
O O20 0.131551 0.500000 0.210204
#
# Coordination Sequence:
#
# PCOD9145507 Si02
#       8
#     4   4   4   4   4   4   4   4
#     4  11  21  33  47  65  96 130 156 186 230 280
#     4   8  16  29  46  66  91 123 156 189 222 270
#     4   9  17  30  47  69  96 123 152 188 231 276
#     4   8  15  29  51  74  92 115 155 202 234 264
#     4   9  15  28  49  70  90 118 157 189 225 275
#     4  10  19  32  51  71  90 122 164 196 226 269
#     4   9  16  27  46  74 101 118 141 190 243 277
#     4   8  15  29  50  73  95 119 152 195 237 272
#
# _framework density 21.704315999999999
#
# number of rings (size 3 to 8) (size 9 to 14) (size 15 to 20)
#    0.000    3.000    1.250    3.000    0.000    2.000 
#    0.000    6.250    0.000    3.750    0.000    5.250 
#    0.000    0.000    0.000    0.000    0.000    0.000 
#
# Total GULP energy -178416.182362 kJ/mol
# GULP energy per Si atom -5575.505699 kJ/mol
# Density = 2.165492 g / cm^3
# Si number density = 21.704316 Si / 1000 Ang^3
#
#
#
# Elastic Constant Matrix: (Units=GPa)
#
#
# Indices 1 2 3 4 5 6 
#
# 1 56.5227 -6.7362 27.8563 0.0000 29.0238 0.0000
# 2 -6.7362 56.9392 -2.8821 0.0000 0.5406 0.0000
# 3 27.8563 -2.8821 60.1719 0.0000 25.9350 0.0000
# 4 0.0000 0.0000 0.0000 21.9448 0.0000 2.8062
# 5 29.0238 0.5406 25.9350 0.0000 39.6936 0.0000
# 6 0.0000 0.0000 0.0000 2.8062 0.0000 13.8630
#
#
#
# Elastic Compliance Matrix: (Units=1/GPa)
#
#
# Indices 1 2 3 4 5 6 
#
# 1 0.030550 0.003484 -0.006024 0.000000 -0.018449 0.000000
# 2 0.003484 0.018037 0.000633 0.000000 -0.003207 0.000000
# 3 -0.006024 0.000633 0.024421 0.000000 -0.011560 0.000000
# 4 0.000000 0.000000 0.000000 0.046780 0.000000 -0.009469
# 5 -0.018449 -0.003207 -0.011560 0.000000 0.046280 0.000000
# 6 0.000000 0.000000 0.000000 -0.009469 0.000000 0.074051
#
#
# Mechanical properties :
#
#
# Convention : Reuss Voigt Hill
#
# Bulk Modulus (GPa) = 14.45198 23.34554 18.89876
# Shear Modulus (GPa) = 18.72690 25.46001 22.09346
#
# Velocity S-wave (km/s) = 2.94057 3.42868 3.19396
# Velocity P-wave (km/s) = 4.26641 5.14335 4.72527
#
# Compressibility (1/GPa) = 0.06919466
#
# Stress axis : x y z
#
# Youngs Moduli (GPa) = 32.73375 55.44059 40.94898
#
# Poissons Ratio (x) = -0.19318 0.24668
# Poissons Ratio (y) = -0.11406 -0.02593
# Poissons Ratio (z) = 0.19719 -0.03511
#
# Static dielectric constant tensor:
#      x y z
#    x 1.807680 0.000000 0.038230 
#    y 0.000000 1.833340 0.000000 
#    z 0.038230 0.000000 1.820850 
# 
# From -- ./inp_files/54828.got.cif
#   From: 2010.05.17/outbox.cif.g08.bks.cpg/sg10_28_cif.got.tgz:54828.got - 2010.06.03 11:33:40.
