data_PCOD9145003
_publ_section_title
;
Structure prediction by ZEFSAII (Michael W. Deem and Ramdas Pophale) SiO2 
 PCOD9145003
Probable space group: P 2/M
;
_chemical_formula_sum "Si O2"
_cell_formula_units_Z 24
_cell_length_a 22.723932
_cell_length_b 8.104157
_cell_length_c 18.950355
_cell_angle_alpha 90.000000
_cell_angle_beta 163.623069
_cell_angle_gamma 90.000000
_cell_volume 983.985646
_symmetry_space_group_name_H-M "P 2/M"
_symmetry_group_IT_number 10
_symmetry_cell_setting 'monoclinic'
loop_
_space_group_symop_operation_xyz
x,y,z
-x,y,-z
-x,-y,-z
x,-y,z
loop_
_atom_site_type_symbol
_atom_site_label
_atom_site_fract_x
_atom_site_fract_y
_atom_site_fract_z
Si Si1 0.305959 0.178190 0.001901
Si Si2 0.216318 0.500000 0.655007
Si Si3 0.175871 0.817646 0.527046
Si Si4 0.100567 0.193610 0.274920
Si Si5 0.517576 0.690463 0.375440
Si Si6 0.196563 0.301078 0.175984
Si Si7 0.287006 0.500000 0.899863
O O1 0.360376 0.207774 0.146432
O O2 0.393839 0.000000 0.081952
O O3 0.378974 0.335264 0.041352
O O4 0.057815 0.171230 0.709949
O O5 0.278017 0.664863 0.684229
O O6 0.295151 0.500000 0.825382
O O7 0.961507 0.500000 0.366612
O O8 0.136298 0.782410 0.398831
O O9 0.270997 0.000000 0.645746
O O10 0.271622 0.300395 0.429987
O O11 0.136489 0.000000 0.301149
O O12 0.874901 0.239412 0.982790
O O13 0.449069 0.500000 0.302370
O O14 0.599066 0.752191 0.545088
O O15 0.207515 0.500000 0.186492
O O16 0.000000 0.252674 0.000000
#
# Coordination Sequence:
#
# PCOD9145003 Si02
#       7
#     4   2   4   4   4   4   2
#     4  10  19  34  54  75 105 135 162 208 255 294
#     4   9  18  32  57  74 103 136 158 203 257 295
#     4   9  20  34  51  79 105 130 168 206 248 303
#     4  10  19  31  49  74 102 133 172 211 248 296
#     4  10  19  32  50  74 102 133 175 213 245 297
#     4   8  16  29  45  68  98 131 171 214 245 283
#     4   9  18  34  51  82 101 126 172 201 243 313
#
# _framework density 24.390601
#
# number of rings (size 3 to 8) (size 9 to 14) (size 15 to 20)
#    0.000    2.667    0.833    2.000    2.333    4.333 
#    0.000    4.167    0.000    7.000    0.000    3.500 
#    0.000    0.000    0.000    0.000    0.000    0.000 
#
# Total GULP energy -134169.170202 kJ/mol
# GULP energy per Si atom -5590.382092 kJ/mol
# Density = 2.433509 g / cm^3
# Si number density = 24.390601 Si / 1000 Ang^3
#
#
#
# Elastic Constant Matrix: (Units=GPa)
#
#
# Indices 1 2 3 4 5 6 
#
# 1 106.1647 64.7244 16.1514 0.0000 -32.5693 0.0000
# 2 64.7244 158.5539 54.0545 0.0000 -41.8923 0.0000
# 3 16.1514 54.0545 81.8964 0.0000 -11.5134 0.0000
# 4 0.0000 0.0000 0.0000 -12.5219 0.0000 4.0094
# 5 -32.5693 -41.8923 -11.5134 0.0000 49.5479 0.0000
# 6 0.0000 0.0000 0.0000 4.0094 0.0000 -5.6688
#
#
#
# Elastic Compliance Matrix: (Units=1/GPa)
#
#
# Indices 1 2 3 4 5 6 
#
# 1 0.013669 -0.004501 0.001037 0.000000 0.005420 0.000000
# 2 -0.004501 0.011651 -0.006031 0.000000 0.005491 0.000000
# 3 0.001037 -0.006031 0.015884 0.000000 -0.000726 0.000000
# 4 0.000000 0.000000 0.000000 -0.103239 0.000000 -0.073018
# 5 0.005420 0.005491 -0.000726 0.000000 0.028219 0.000000
# 6 0.000000 0.000000 0.000000 -0.073018 0.000000 -0.228049
#
#
# Mechanical properties :
#
#
# Convention : Reuss Voigt Hill
#
# Bulk Modulus (GPa) = 45.01473 68.49727 56.75600
# Shear Modulus (GPa) = -21.23401 20.38374 -0.42514
#
# Velocity S-wave (km/s) = -2.95376 2.89402 -0.41795
# Velocity P-wave (km/s) = 2.61971 6.26989 4.80492
#
# Compressibility (1/GPa) = 0.02221495
#
# Stress axis : x y z
#
# Youngs Moduli (GPa) = 73.16071 85.82773 62.95521
#
# Poissons Ratio (x) = 0.38634 -0.06531
# Poissons Ratio (y) = 0.32932 0.37966
# Poissons Ratio (z) = -0.07589 0.51759
#
# Static dielectric constant tensor:
#      x y z
#    x 1.969570 0.000000 0.067780 
#    y 0.000000 1.898350 0.000000 
#    z 0.067780 0.000000 1.954860 
# 
# From -- ./inp_files/75912.got.cif
#   From: 2010.05.17/outbox.cif.g08.bks.cpg/sg10_38_cif.got.tgz:75912.got - 2010.06.03 11:33:40.
