data_PCOD9145145
_publ_section_title
;
Structure prediction by ZEFSAII (Michael W. Deem and Ramdas Pophale) SiO2 
 PCOD9145145
Probable space group: P 2/M
;
_chemical_formula_sum "Si O2"
_cell_formula_units_Z 32
_cell_length_a 14.765593
_cell_length_b 9.099970
_cell_length_c 20.203532
_cell_angle_alpha 90.000000
_cell_angle_beta 31.489344
_cell_angle_gamma 90.000000
_cell_volume 1417.984298
_symmetry_space_group_name_H-M "P 2/M"
_symmetry_group_IT_number 10
_symmetry_cell_setting 'monoclinic'
loop_
_space_group_symop_operation_xyz
x,y,z
-x,y,-z
-x,-y,-z
x,-y,z
loop_
_atom_site_type_symbol
_atom_site_label
_atom_site_fract_x
_atom_site_fract_y
_atom_site_fract_z
Si Si1 0.642926 0.176765 0.964022
Si Si2 0.381692 0.677061 0.514432
Si Si3 0.086043 0.674962 0.795489
Si Si4 0.724883 0.825404 0.053417
Si Si5 0.113422 0.670100 0.280249
Si Si6 0.293076 0.672677 0.428504
Si Si7 0.794447 0.166847 0.647014
Si Si8 0.208654 0.330577 0.857626
O O1 0.613569 0.221194 0.058572
O O2 0.820760 0.241067 0.824032
O O3 0.650463 0.000000 0.958048
O O4 0.500000 0.225578 0.000000
O O5 0.500000 0.737034 0.500000
O O6 0.410475 0.500000 0.493372
O O7 0.188207 0.697399 0.664053
O O8 0.394094 0.727538 0.430925
O O9 0.041682 0.500000 0.828586
O O10 0.217979 0.706982 0.774412
O O11 0.917582 0.771998 0.911963
O O12 0.718119 0.000000 0.063607
O O13 0.697816 0.756724 0.142504
O O14 0.156657 0.500000 0.243937
O O15 0.208717 0.736438 0.285241
O O16 0.909399 0.679959 0.423094
O O17 0.330851 0.500000 0.392489
O O18 0.302995 0.765318 0.355283
O O19 0.000000 0.161810 0.500000
O O20 0.736806 0.000000 0.696468
O O21 0.257455 0.500000 0.834771
O O22 0.000000 0.318651 0.000000
#
# Coordination Sequence:
#
# PCOD9145145 Si02
#       8
#     4   4   4   4   4   4   4   4
#     4  10  22  38  51  67  98 136 167 199 245 299
#     4   9  17  30  49  72  99 132 167 201 239 285
#     4   9  17  31  51  74  99 128 161 198 243 289
#     4  10  19  31  51  75  96 124 162 201 241 288
#     4  10  19  32  53  78 100 125 162 208 251 290
#     4   9  17  30  50  76 103 129 162 207 250 287
#     4   9  17  30  50  75 102 131 162 199 245 297
#     4   8  15  28  47  71  99 127 155 195 244 289
#
# _framework density 22.567245
#
# number of rings (size 3 to 8) (size 9 to 14) (size 15 to 20)
#    0.000    2.750    0.000    2.625    0.000    6.500 
#    0.000    1.875    0.000    3.000    0.000    0.000 
#    0.000    0.000    0.000    0.000    0.000    0.000 
#
# Total GULP energy -178756.979761 kJ/mol
# GULP energy per Si atom -5586.155618 kJ/mol
# Density = 2.251588 g / cm^3
# Si number density = 22.567245 Si / 1000 Ang^3
#
#
#
# Elastic Constant Matrix: (Units=GPa)
#
#
# Indices 1 2 3 4 5 6 
#
# 1 178.8238 41.7590 26.9719 0.0000 21.9309 0.0000
# 2 41.7590 20.8432 6.5995 0.0000 5.7027 0.0000
# 3 26.9719 6.5995 66.0658 0.0000 16.0296 0.0000
# 4 0.0000 0.0000 0.0000 5.4044 0.0000 13.4657
# 5 21.9309 5.7027 16.0296 0.0000 45.6484 0.0000
# 6 0.0000 0.0000 0.0000 13.4657 0.0000 21.4610
#
#
#
# Elastic Compliance Matrix: (Units=1/GPa)
#
#
# Indices 1 2 3 4 5 6 
#
# 1 0.011007 -0.020897 -0.001920 0.000000 -0.002003 0.000000
# 2 -0.020897 0.090225 -0.000200 0.000000 -0.001162 0.000000
# 3 -0.001920 -0.000200 0.017174 0.000000 -0.005083 0.000000
# 4 0.000000 0.000000 0.000000 -0.328447 0.000000 0.206084
# 5 -0.002003 -0.001162 -0.005083 0.000000 0.024799 0.000000
# 6 0.000000 0.000000 0.000000 0.206084 0.000000 -0.082711
#
#
# Mechanical properties :
#
#
# Convention : Reuss Voigt Hill
#
# Bulk Modulus (GPa) = 13.81744 46.26595 30.04169
# Shear Modulus (GPa) = -25.27859 27.19623 0.95882
#
# Velocity S-wave (km/s) = -3.35049 3.47525 0.65253
# Velocity P-wave (km/s) = 2.97180 6.05384 3.72944
#
# Compressibility (1/GPa) = 0.07237232
#
# Stress axis : x y z
#
# Youngs Moduli (GPa) = 90.84958 11.08346 58.22867
#
# Poissons Ratio (x) = 0.23161 0.11182
# Poissons Ratio (y) = 1.89845 0.01162
# Poissons Ratio (z) = 0.17446 0.00221
#
# Static dielectric constant tensor:
#      x y z
#    x 1.893400 0.000000 -0.048540 
#    y 0.000000 1.747060 0.000000 
#    z -0.048540 0.000000 1.901940 
# 
# From -- ./inp_files/84715.got.cif
#   From: 2010.05.17/outbox.cif.g08.bks.cpg/sg10_43_cif.got.tgz:84715.got - 2010.06.03 11:33:40.
