data_PCOD9145495
_publ_section_title
;
Structure prediction by ZEFSAII (Michael W. Deem and Ramdas Pophale) SiO2 
 PCOD9145495
Probable space group: P 2/M
;
_chemical_formula_sum "Si O2"
_cell_formula_units_Z 28
_cell_length_a 8.415507
_cell_length_b 15.510122
_cell_length_c 19.543576
_cell_angle_alpha 90.000000
_cell_angle_beta 148.872334
_cell_angle_gamma 90.000000
_cell_volume 1318.697924
_symmetry_space_group_name_H-M "P 2/M"
_symmetry_group_IT_number 10
_symmetry_cell_setting 'monoclinic'
loop_
_space_group_symop_operation_xyz
x,y,z
-x,y,-z
-x,-y,-z
x,-y,z
loop_
_atom_site_type_symbol
_atom_site_label
_atom_site_fract_x
_atom_site_fract_y
_atom_site_fract_z
Si Si1 0.267130 0.597264 0.245885
Si Si2 0.628740 0.306140 0.847815
Si Si3 0.842382 0.218784 0.742900
Si Si4 0.563077 0.405740 0.953590
Si Si5 0.339475 0.092456 0.515325
Si Si6 0.259429 0.846253 0.770143
Si Si7 0.101117 0.903740 0.957138
O O1 0.370291 0.500000 0.304471
O O2 0.440534 0.642171 0.246693
O O3 0.219852 0.678252 0.279193
O O4 0.927420 0.584673 0.089333
O O5 0.482742 0.360838 0.855298
O O6 0.451317 0.217559 0.791771
O O7 0.000000 0.298620 0.000000
O O8 0.515780 0.170216 0.616152
O O9 0.059239 0.196152 0.758038
O O10 0.987761 0.174859 0.865758
O O11 0.410613 0.500000 0.901966
O O12 0.500000 0.354862 0.000000
O O13 0.500000 0.088600 0.500000
O O14 0.983930 0.106175 0.367521
O O15 0.388980 0.000000 0.568183
O O16 0.528695 0.899898 0.905309
O O17 0.003325 0.000000 0.897101
O O18 0.000000 0.896586 0.000000
#
# Coordination Sequence:
#
# PCOD9145495 Si02
#       7
#     4   4   4   4   4   4   4
#     4  10  20  34  53  77 110 153 195 237 288 344
#     4  10  19  32  50  76 113 153 190 231 284 340
#     4  11  22  38  62  88 117 153 195 245 294 343
#     4   9  16  27  46  74 106 140 185 237 283 331
#     4   9  20  39  62  88 116 148 189 236 289 349
#     4  11  21  36  61  88 118 153 193 242 292 343
#     4  11  23  38  58  89 127 160 192 235 288 348
#
# _framework density 21.233066000000001
#
# number of rings (size 3 to 8) (size 9 to 14) (size 15 to 20)
#    0.000    1.857    0.000    5.571    0.000    4.000 
#    0.000    3.571    0.000   11.571    0.000    0.000 
#    0.000    0.000    0.000    0.000    0.000    0.000 
#
# Total GULP energy -155896.333405 kJ/mol
# GULP energy per Si atom -5567.726193 kJ/mol
# Density = 2.118474 g / cm^3
# Si number density = 21.233066 Si / 1000 Ang^3
#
#
#
# Elastic Constant Matrix: (Units=GPa)
#
#
# Indices 1 2 3 4 5 6 
#
# 1 82.3677 21.1896 -0.0644 0.0000 5.4646 0.0000
# 2 21.1896 154.6893 32.5990 0.0000 3.3939 0.0000
# 3 -0.0644 32.5990 78.3405 0.0000 6.7908 0.0000
# 4 0.0000 0.0000 0.0000 59.4727 0.0000 -54.7724
# 5 5.4646 3.3939 6.7908 0.0000 11.2251 0.0000
# 6 0.0000 0.0000 0.0000 -54.7724 0.0000 71.4574
#
#
#
# Elastic Compliance Matrix: (Units=1/GPa)
#
#
# Indices 1 2 3 4 5 6 
#
# 1 0.013080 -0.001940 0.001392 0.000000 -0.006623 0.000000
# 2 -0.001940 0.007375 -0.003123 0.000000 0.000604 0.000000
# 3 0.001392 -0.003123 0.014819 0.000000 -0.008699 0.000000
# 4 0.000000 0.000000 0.000000 0.057177 0.000000 0.043827
# 5 -0.006623 0.000604 -0.008699 0.000000 0.097391 0.000000
# 6 0.000000 0.000000 0.000000 0.043827 0.000000 0.047588
#
#
# Mechanical properties :
#
#
# Convention : Reuss Voigt Hill
#
# Bulk Modulus (GPa) = 35.79909 46.98286 41.39098
# Shear Modulus (GPa) = 19.67865 45.87592 32.77729
#
# Velocity S-wave (km/s) = 3.04763 4.65326 3.93325
# Velocity P-wave (km/s) = 5.41117 7.14462 6.33744
#
# Compressibility (1/GPa) = 0.02793367
#
# Stress axis : x y z
#
# Youngs Moduli (GPa) = 76.45135 135.59039 67.47877
#
# Poissons Ratio (x) = 0.26302 -0.09394
# Poissons Ratio (y) = 0.14830 0.21073
# Poissons Ratio (z) = -0.10643 0.42343
#
# Static dielectric constant tensor:
#      x y z
#    x 1.809890 0.000000 0.009320 
#    y 0.000000 1.860910 0.000000 
#    z 0.009320 0.000000 1.751520 
# 
# From -- ./inp_files/82944.got.cif
#   From: 2010.05.17/outbox.cif.g08.bks.cpg/sg10_42_cif.got.tgz:82944.got - 2010.06.03 11:33:40.
