data_PCOD9145493
_publ_section_title
;
Structure prediction by ZEFSAII (Michael W. Deem and Ramdas Pophale) SiO2 
 PCOD9145493
Probable space group: P 2/M
;
_chemical_formula_sum "Si O2"
_cell_formula_units_Z 32
_cell_length_a 27.608385
_cell_length_b 7.409124
_cell_length_c 21.620277
_cell_angle_alpha 90.000000
_cell_angle_beta 161.282357
_cell_angle_gamma 90.000000
_cell_volume 1419.204984
_symmetry_space_group_name_H-M "P 2/M"
_symmetry_group_IT_number 10
_symmetry_cell_setting 'monoclinic'
loop_
_space_group_symop_operation_xyz
x,y,z
-x,y,-z
-x,-y,-z
x,-y,z
loop_
_atom_site_type_symbol
_atom_site_label
_atom_site_fract_x
_atom_site_fract_y
_atom_site_fract_z
Si Si1 0.909296 0.220564 0.483186
Si Si2 0.862894 0.282112 0.790485
Si Si3 0.539241 0.221065 0.249568
Si Si4 0.029867 0.718110 0.872282
Si Si5 0.527524 0.207345 0.376591
Si Si6 0.822694 0.211287 0.512855
Si Si7 0.361721 0.295665 0.294796
Si Si8 0.774545 0.219404 0.190813
O O1 0.850428 0.285848 0.478042
O O2 0.808406 0.274812 0.302295
O O3 0.081103 0.275315 0.675481
O O4 0.909865 0.000000 0.485049
O O5 0.856893 0.500000 0.785230
O O6 0.698202 0.215070 0.608672
O O7 0.907373 0.224219 0.775061
O O8 0.000000 0.225011 0.000000
O O9 0.536216 0.280626 0.317360
O O10 0.684003 0.285403 0.385730
O O11 0.545275 0.000000 0.258661
O O12 0.384910 0.276375 0.029400
O O13 0.036094 0.500000 0.880511
O O14 0.972258 0.773394 0.735533
O O15 0.194756 0.784815 0.091975
O O16 0.417780 0.301769 0.291947
O O17 0.477404 0.000000 0.312794
O O18 0.788771 0.000000 0.463365
O O19 0.500000 0.209897 0.500000
O O20 0.344937 0.500000 0.299962
O O21 0.773821 0.000000 0.189748
#
# Coordination Sequence:
#
# PCOD9145493 Si02
#       8
#     4   4   4   4   4   4   4   4
#     4   8  15  26  46  73 101 137 176 215 255 301
#     4  10  20  37  60  79 100 140 186 223 262 311
#     4   9  18  30  45  71 110 143 167 207 260 315
#     4  10  21  36  55  79 104 136 178 223 268 313
#     4  11  22  35  53  83 115 142 171 215 276 325
#     4  10  19  32  50  76 108 140 172 212 265 315
#     4  10  22  41  60  77 102 138 183 229 267 315
#     4   8  14  27  44  70 105 137 175 214 253 305
#
# _framework density 22.547836
#
# number of rings (size 3 to 8) (size 9 to 14) (size 15 to 20)
#    0.000    2.500    1.250    1.875    1.750    3.500 
#    0.000    3.750    0.000    0.000    0.000    5.250 
#    0.000    0.000    0.000    0.000    0.000    0.000 
#
# Total GULP energy -178781.427081 kJ/mol
# GULP energy per Si atom -5586.919596 kJ/mol
# Density = 2.249652 g / cm^3
# Si number density = 22.547836 Si / 1000 Ang^3
#
#
#
# Elastic Constant Matrix: (Units=GPa)
#
#
# Indices 1 2 3 4 5 6 
#
# 1 103.2827 1.5343 15.0321 0.0000 -7.7351 0.0000
# 2 1.5343 74.8808 -8.7461 0.0000 0.8384 0.0000
# 3 15.0321 -8.7461 109.7438 0.0000 -2.9100 0.0000
# 4 0.0000 0.0000 0.0000 14.8451 0.0000 -3.8270
# 5 -7.7351 0.8384 -2.9100 0.0000 30.9361 0.0000
# 6 0.0000 0.0000 0.0000 -3.8270 0.0000 9.7713
#
#
#
# Elastic Compliance Matrix: (Units=1/GPa)
#
#
# Indices 1 2 3 4 5 6 
#
# 1 0.010064 -0.000390 -0.001346 0.000000 0.002400 0.000000
# 2 -0.000390 0.013497 0.001120 0.000000 -0.000358 0.000000
# 3 -0.001346 0.001120 0.009399 0.000000 0.000517 0.000000
# 4 0.000000 0.000000 0.000000 0.074927 0.000000 0.029346
# 5 0.002400 -0.000358 0.000517 0.000000 0.032983 0.000000
# 6 0.000000 0.000000 0.000000 0.029346 0.000000 0.113834
#
#
# Mechanical properties :
#
#
# Convention : Reuss Voigt Hill
#
# Bulk Modulus (GPa) = 31.51864 33.72757 32.62311
# Shear Modulus (GPa) = 18.76077 29.78295 24.27186
#
# Velocity S-wave (km/s) = 2.88764 3.63833 3.28451
# Velocity P-wave (km/s) = 5.01267 5.71320 5.37436
#
# Compressibility (1/GPa) = 0.03172725
#
# Stress axis : x y z
#
# Youngs Moduli (GPa) = 99.36789 74.08868 106.38938
#
# Poissons Ratio (x) = 0.02892 0.14319
# Poissons Ratio (y) = 0.03878 -0.11912
# Poissons Ratio (z) = 0.13374 -0.08295
#
# Static dielectric constant tensor:
#      x y z
#    x 1.809500 0.000000 -0.013490 
#    y 0.000000 1.881140 0.000000 
#    z -0.013490 0.000000 1.795700 
# 
# From -- ./inp_files/87022.got.cif
#   From: 2010.05.17/outbox.cif.g08.bks.cpg/sg10_44_cif.got.tgz:87022.got - 2010.06.03 11:33:40.
