data_PCOD9145554
_publ_section_title
;
Structure prediction by ZEFSAII (Michael W. Deem and Ramdas Pophale) SiO2 
 PCOD9145554
Probable space group: P 2/M
;
_chemical_formula_sum "Si O2"
_cell_formula_units_Z 32
_cell_length_a 15.506863
_cell_length_b 17.097167
_cell_length_c 13.502991
_cell_angle_alpha 90.000000
_cell_angle_beta 28.106373
_cell_angle_gamma 90.000000
_cell_volume 1686.554587
_symmetry_space_group_name_H-M "P 2/M"
_symmetry_group_IT_number 10
_symmetry_cell_setting 'monoclinic'
loop_
_space_group_symop_operation_xyz
x,y,z
-x,y,-z
-x,-y,-z
x,-y,z
loop_
_atom_site_type_symbol
_atom_site_label
_atom_site_fract_x
_atom_site_fract_y
_atom_site_fract_z
Si Si1 0.482755 0.093107 0.398693
Si Si2 0.279061 0.258200 0.239387
Si Si3 0.806438 0.134796 0.938638
Si Si4 0.705222 0.595167 0.307994
Si Si5 0.913051 0.089221 0.187305
Si Si6 0.285886 0.915868 0.188378
Si Si7 0.970164 0.294476 0.691826
Si Si8 0.995566 0.406147 0.844423
O O1 0.500000 0.100028 0.500000
O O2 0.627444 0.141031 0.188444
O O3 0.278819 0.122386 0.582630
O O4 0.508672 0.000000 0.347527
O O5 0.221888 0.165971 0.298729
O O6 0.173607 0.297157 0.253631
O O7 0.176765 0.290815 0.439383
O O8 0.500000 0.263862 0.000000
O O9 0.748780 0.094685 0.893807
O O10 0.907092 0.215746 0.811819
O O11 0.945516 0.088175 0.867217
O O12 0.500000 0.624660 0.500000
O O13 0.698238 0.500000 0.318347
O O14 0.813571 0.619478 0.297202
O O15 0.835477 0.615294 0.083999
O O16 0.864092 0.000000 0.207176
O O17 0.000000 0.126044 0.000000
O O18 0.209016 0.000000 0.299582
O O19 0.500000 0.917980 0.000000
O O20 0.959524 0.365486 0.777727
O O21 0.997819 0.500000 0.833577
#
# Coordination Sequence:
#
# PCOD9145554 Si02
#       8
#     4   4   4   4   4   4   4   4
#     4  10  19  33  53  74 106 150 189 223 264 323
#     4   9  20  40  60  78 111 146 176 228 291 339
#     4  11  21  35  53  79 112 143 183 234 284 332
#     4   8  15  31  56  86 117 147 180 220 267 316
#     4  10  19  32  51  74 104 147 188 221 264 319
#     4   9  18  34  58  81 102 134 185 238 282 329
#     4  10  22  38  56  81 108 142 184 225 282 346
#     4   9  18  35  58  84 116 150 185 227 270 323
#
# _framework density 18.973592
#
# number of rings (size 3 to 8) (size 9 to 14) (size 15 to 20)
#    0.000    2.500    1.250    1.875    0.000    4.000 
#    2.250    9.375    0.000    0.750    0.000    0.000 
#    0.000    0.000    0.000    0.000    0.000    0.000 
#
# Total GULP energy -178275.156920 kJ/mol
# GULP energy per Si atom -5571.098654 kJ/mol
# Density = 1.893041 g / cm^3
# Si number density = 18.973592 Si / 1000 Ang^3
#
#
#
# Elastic Constant Matrix: (Units=GPa)
#
#
# Indices 1 2 3 4 5 6 
#
# 1 88.2114 29.0905 35.5927 0.0000 -15.0434 0.0000
# 2 29.0905 33.9063 23.3354 0.0000 5.1495 0.0000
# 3 35.5927 23.3354 113.1682 0.0000 -22.8586 0.0000
# 4 0.0000 0.0000 0.0000 13.5837 0.0000 -4.6770
# 5 -15.0434 5.1495 -22.8586 0.0000 35.3940 0.0000
# 6 0.0000 0.0000 0.0000 -4.6770 0.0000 -5.1164
#
#
#
# Elastic Compliance Matrix: (Units=1/GPa)
#
#
# Indices 1 2 3 4 5 6 
#
# 1 0.019119 -0.017891 -0.000180 0.000000 0.010613 0.000000
# 2 -0.017891 0.055302 -0.010278 0.000000 -0.022288 0.000000
# 3 -0.000180 -0.010278 0.012994 0.000000 0.009811 0.000000
# 4 0.000000 0.000000 0.000000 0.055994 0.000000 -0.051186
# 5 0.010613 -0.022288 0.009811 0.000000 0.042343 0.000000
# 6 0.000000 0.000000 0.000000 -0.051186 0.000000 -0.148660
#
#
# Mechanical properties :
#
#
# Convention : Reuss Voigt Hill
#
# Bulk Modulus (GPa) = 32.55678 45.70256 39.12967
# Shear Modulus (GPa) = 48.06254 18.59007 33.32631
#
# Velocity S-wave (km/s) = 5.03848 3.13355 4.19556
# Velocity P-wave (km/s) = 7.14455 6.10180 6.64366
#
# Compressibility (1/GPa) = 0.03071557
#
# Stress axis : x y z
#
# Youngs Moduli (GPa) = 52.30311 18.08245 76.95743
#
# Poissons Ratio (x) = 0.32352 0.01388
# Poissons Ratio (y) = 0.93578 0.79099
# Poissons Ratio (z) = 0.00943 0.18586
#
# Static dielectric constant tensor:
#      x y z
#    x 1.653310 0.000000 0.000920 
#    y 0.000000 1.662270 0.000000 
#    z 0.000920 0.000000 1.653180 
# 
# From -- ./inp_files/51928.got.cif
#   From: 2010.05.17/outbox.cif.g08.bks.cpg/sg10_26_cif.got.tgz:51928.got - 2010.06.03 11:33:40.
