data_PCOD9145231
_publ_section_title
;
Structure prediction by ZEFSAII (Michael W. Deem and Ramdas Pophale) SiO2 
 PCOD9145231
Probable space group: P 2/M
;
_chemical_formula_sum "Si O2"
_cell_formula_units_Z 28
_cell_length_a 13.745762
_cell_length_b 7.879508
_cell_length_c 14.184990
_cell_angle_alpha 90.000000
_cell_angle_beta 119.872602
_cell_angle_gamma 90.000000
_cell_volume 1332.243716
_symmetry_space_group_name_H-M "P 2/M"
_symmetry_group_IT_number 10
_symmetry_cell_setting 'monoclinic'
loop_
_space_group_symop_operation_xyz
x,y,z
-x,y,-z
-x,-y,-z
x,-y,z
loop_
_atom_site_type_symbol
_atom_site_label
_atom_site_fract_x
_atom_site_fract_y
_atom_site_fract_z
Si Si1 0.867968 0.793851 0.833017
Si Si2 0.282967 0.300177 0.627360
Si Si3 0.068085 0.192388 0.631865
Si Si4 0.478955 0.695569 0.840610
Si Si5 0.331473 0.803237 0.940006
Si Si6 0.849767 0.204218 0.621852
Si Si7 0.869224 0.793305 0.040188
O O1 0.814303 0.736359 0.708661
O O2 0.000205 0.750819 0.888817
O O3 0.860656 0.000000 0.832618
O O4 0.829157 0.733990 0.917104
O O5 0.297785 0.500000 0.627264
O O6 0.186728 0.268964 0.659839
O O7 0.402513 0.229914 0.719915
O O8 0.234256 0.239031 0.504345
O O9 0.000000 0.184705 0.500000
O O10 0.974485 0.272140 0.654917
O O11 0.090660 0.000000 0.675099
O O12 0.509536 0.500000 0.836790
O O13 0.393905 0.701706 0.888817
O O14 0.588207 0.792679 0.929219
O O15 0.210883 0.736574 0.914288
O O16 0.325985 0.000000 0.907619
O O17 0.862492 0.000000 0.631530
O O18 0.862899 0.000000 0.038827
#
# Coordination Sequence:
#
# PCOD9145231 Si02
#       7
#     4   4   4   4   4   4   4
#     4   8  14  27  46  72 102 127 149 181 234 290
#     4  10  20  31  44  63  91 127 161 192 230 276
#     4   8  15  26  40  62  90 119 152 187 224 268
#     4  10  21  35  48  66  95 131 161 190 238 290
#     4  10  19  31  52  77  94 117 156 203 238 270
#     4   9  17  28  46  69  94 125 155 187 230 277
#     4   8  15  27  47  74 100 122 150 190 235 282
#
# _framework density 21.017175000000002
#
# number of rings (size 3 to 8) (size 9 to 14) (size 15 to 20)
#    0.000    3.000    0.000    3.857    2.000    4.857 
#    0.000    0.000    0.000    2.571    0.000   11.000 
#    0.000    0.000    0.000    0.000    0.000    0.000 
#
# Total GULP energy -156044.985088 kJ/mol
# GULP energy per Si atom -5573.035182 kJ/mol
# Density = 2.096934 g / cm^3
# Si number density = 21.017175 Si / 1000 Ang^3
#
#
#
# Elastic Constant Matrix: (Units=GPa)
#
#
# Indices 1 2 3 4 5 6 
#
# 1 24.5246 -5.9164 -11.1995 0.0000 -3.2407 0.0000
# 2 -5.9164 27.2837 -4.1381 0.0000 -0.2924 0.0000
# 3 -11.1995 -4.1381 88.7858 0.0000 0.3404 0.0000
# 4 0.0000 0.0000 0.0000 6.5405 0.0000 14.1298
# 5 -3.2407 -0.2924 0.3404 0.0000 30.8298 0.0000
# 6 0.0000 0.0000 0.0000 14.1298 0.0000 -8.5057
#
#
#
# Elastic Compliance Matrix: (Units=1/GPa)
#
#
# Indices 1 2 3 4 5 6 
#
# 1 0.047089 0.011242 0.006445 0.000000 0.004985 0.000000
# 2 0.011242 0.039600 0.003258 0.000000 0.001521 0.000000
# 3 0.006445 0.003258 0.012226 0.000000 0.000573 0.000000
# 4 0.000000 0.000000 0.000000 0.033319 0.000000 0.055350
# 5 0.004985 0.001521 0.000573 0.000000 0.032968 0.000000
# 6 0.000000 0.000000 0.000000 0.055350 0.000000 -0.025621
#
#
# Mechanical properties :
#
#
# Convention : Reuss Voigt Hill
#
# Bulk Modulus (GPa) = 7.10202 10.89844 9.00023
# Shear Modulus (GPa) = 34.57167 16.56278 25.56722
#
# Velocity S-wave (km/s) = 4.06017 2.81028 3.49161
# Velocity P-wave (km/s) = 5.03651 3.96573 4.53285
#
# Compressibility (1/GPa) = 0.14080495
#
# Stress axis : x y z
#
# Youngs Moduli (GPa) = 21.23622 25.25240 81.79522
#
# Poissons Ratio (x) = -0.28389 -0.52715
# Poissons Ratio (y) = -0.23874 -0.26648
# Poissons Ratio (z) = -0.13686 -0.08227
#
# Static dielectric constant tensor:
#      x y z
#    x 1.755650 0.000000 -0.002870 
#    y 0.000000 1.754570 0.000000 
#    z -0.002870 0.000000 1.850610 
# 
# From -- ./inp_files/66242.got.cif
#   From: 2010.05.17/outbox.cif.g08.bks.cpg/sg10_34_cif.got.tgz:66242.got - 2010.06.03 11:33:40.
