data_PCOD9145869
_publ_section_title
;
Structure prediction by ZEFSAII (Michael W. Deem and Ramdas Pophale) SiO2 
 PCOD9145869
Probable space group: P 2/M
;
_chemical_formula_sum "Si O2"
_cell_formula_units_Z 32
_cell_length_a 15.703733
_cell_length_b 15.066971
_cell_length_c 11.372128
_cell_angle_alpha 90.000000
_cell_angle_beta 29.923491
_cell_angle_gamma 90.000000
_cell_volume 1342.253615
_symmetry_space_group_name_H-M "P 2/M"
_symmetry_group_IT_number 10
_symmetry_cell_setting 'monoclinic'
loop_
_space_group_symop_operation_xyz
x,y,z
-x,y,-z
-x,-y,-z
x,-y,z
loop_
_atom_site_type_symbol
_atom_site_label
_atom_site_fract_x
_atom_site_fract_y
_atom_site_fract_z
Si Si1 0.467036 0.903357 0.239290
Si Si2 0.232960 0.640537 0.568091
Si Si3 0.577248 0.714003 0.055333
Si Si4 0.822196 0.836759 0.272037
Si Si5 0.131168 0.362291 0.443177
Si Si6 0.881215 0.742867 0.872711
Si Si7 0.278842 0.898159 0.840720
Si Si8 0.703147 0.400652 0.249986
O O1 0.273498 0.895262 0.517498
O O2 0.583641 0.899681 0.218838
O O3 0.497875 0.000000 0.148087
O O4 0.508789 0.814060 0.117334
O O5 0.162672 0.738995 0.688664
O O6 0.148358 0.596704 0.553677
O O7 0.234556 0.593196 0.690184
O O8 0.425636 0.658522 0.294459
O O9 0.682913 0.661310 0.829355
O O10 0.720231 0.727827 0.981573
O O11 0.694871 0.841252 0.310100
O O12 0.000000 0.864637 0.000000
O O13 0.000000 0.398984 0.500000
O O14 0.039228 0.273227 0.597691
O O15 0.878473 0.843875 0.916822
O O16 0.827051 0.669891 0.036959
O O17 0.252656 0.000000 0.836596
O O18 0.500000 0.374881 0.500000
O O19 0.711013 0.500000 0.186239
#
# Coordination Sequence:
#
# PCOD9145869 Si02
#       8
#     4   4   4   4   4   4   4   4
#     4   9  19  33  52  80 117 166 216 256 303 370
#     4  11  21  37  64  89 122 162 208 253 308 372
#     4   9  19  36  62  87 116 167 216 254 307 363
#     4  11  21  31  50  81 123 161 196 254 314 369
#     4  10  22  39  63  90 118 164 219 262 308 363
#     4  10  19  38  61  91 131 164 201 259 314 370
#     4  10  19  32  53  83 123 167 206 245 306 380
#     4  11  23  40  68 102 133 163 197 244 313 386
#
# _framework density 23.840502999999998
#
# number of rings (size 3 to 8) (size 9 to 14) (size 15 to 20)
#    0.000    1.875    2.500    1.875    0.000    2.000 
#    0.000    1.875    0.000   19.500    0.000    0.000 
#    0.000    0.000    0.000    0.000    0.000    0.000 
#
# Total GULP energy -178227.269547 kJ/mol
# GULP energy per Si atom -5569.602173 kJ/mol
# Density = 2.378624 g / cm^3
# Si number density = 23.840503 Si / 1000 Ang^3
#
#
#
# Elastic Constant Matrix: (Units=GPa)
#
#
# Indices 1 2 3 4 5 6 
#
# 1 91.1407 -12.1559 3.2041 0.0000 23.7628 0.0000
# 2 -12.1559 90.2288 22.7269 0.0000 6.1250 0.0000
# 3 3.2041 22.7269 123.6480 0.0000 -7.0418 0.0000
# 4 0.0000 0.0000 0.0000 -6.5020 0.0000 -5.3202
# 5 23.7628 6.1250 -7.0418 0.0000 37.9962 0.0000
# 6 0.0000 0.0000 0.0000 -5.3202 0.0000 -12.2984
#
#
#
# Elastic Compliance Matrix: (Units=1/GPa)
#
#
# Indices 1 2 3 4 5 6 
#
# 1 0.013851 0.002861 -0.001419 0.000000 -0.009386 0.000000
# 2 0.002861 0.012413 -0.002599 0.000000 -0.004272 0.000000
# 3 -0.001419 -0.002599 0.008769 0.000000 0.002932 0.000000
# 4 0.000000 0.000000 0.000000 -0.238068 0.000000 0.102987
# 5 -0.009386 -0.004272 0.002932 0.000000 0.033421 0.000000
# 6 0.000000 0.000000 0.000000 0.102987 0.000000 -0.125863
#
#
# Mechanical properties :
#
#
# Convention : Reuss Voigt Hill
#
# Bulk Modulus (GPa) = 30.56466 36.95197 33.75832
# Shear Modulus (GPa) = -17.71436 23.25532 2.77048
#
# Velocity S-wave (km/s) = -2.72883 3.12661 1.07917
# Velocity P-wave (km/s) = 1.70870 5.34487 3.96782
#
# Compressibility (1/GPa) = 0.03271752
#
# Stress axis : x y z
#
# Youngs Moduli (GPa) = 72.19819 80.56115 114.03929
#
# Poissons Ratio (x) = -0.23046 0.16185
# Poissons Ratio (y) = -0.20654 0.29638
# Poissons Ratio (z) = 0.10247 0.20937
#
# Static dielectric constant tensor:
#      x y z
#    x 2.083250 0.000000 -0.038570 
#    y 0.000000 1.914310 0.000000 
#    z -0.038570 0.000000 1.919330 
# 
# From -- ./inp_files/53990.got.cif
#   From: 2010.05.17/outbox.cif.g08.bks.cpg/sg10_27_cif.got.tgz:53990.got - 2010.06.03 11:33:40.
