data_PCOD9145604
_publ_section_title
;
Structure prediction by ZEFSAII (Michael W. Deem and Ramdas Pophale) SiO2 
 PCOD9145604
Probable space group: P 2/M
;
_chemical_formula_sum "Si O2"
_cell_formula_units_Z 28
_cell_length_a 34.548728
_cell_length_b 8.309065
_cell_length_c 5.304421
_cell_angle_alpha 90.000000
_cell_angle_beta 55.316882
_cell_angle_gamma 90.000000
_cell_volume 1252.156741
_symmetry_space_group_name_H-M "P 2/M"
_symmetry_group_IT_number 10
_symmetry_cell_setting 'monoclinic'
loop_
_space_group_symop_operation_xyz
x,y,z
-x,y,-z
-x,-y,-z
x,-y,z
loop_
_atom_site_type_symbol
_atom_site_label
_atom_site_fract_x
_atom_site_fract_y
_atom_site_fract_z
Si Si1 0.849597 0.177471 0.520146
Si Si2 0.554043 0.303371 0.326073
Si Si3 0.284174 0.805109 0.829777
Si Si4 0.042687 0.825526 0.038605
Si Si5 0.608933 0.305235 0.622882
Si Si6 0.072151 0.500000 0.132191
Si Si7 0.866261 0.500000 0.607749
Si Si8 0.232004 0.807793 0.526426
O O1 0.905956 0.172153 0.285128
O O2 0.839111 0.332423 0.726179
O O3 0.822569 0.208448 0.356436
O O4 0.833883 0.000000 0.670667
O O5 0.500000 0.250998 0.500000
O O6 0.553636 0.500000 0.327695
O O7 0.578032 0.252066 0.497781
O O8 0.584850 0.251486 0.972304
O O9 0.337909 0.753654 0.600825
O O10 0.253997 0.745155 0.702361
O O11 0.282494 0.000000 0.842154
O O12 0.261436 0.746585 0.175929
O O13 0.044203 0.665287 0.196970
O O14 0.040288 0.000000 0.179884
O O15 0.000000 0.815785 0.000000
O O16 0.609305 0.500000 0.622050
O O17 0.110262 0.500000 0.760110
O O18 0.094926 0.500000 0.320509
O O19 0.238958 0.000000 0.512880
#
# Coordination Sequence:
#
# PCOD9145604 Si02
#       8
#     4   4   4   4   4   2   2   4
#     4   9  19  38  59  83 117 151 190 242 290 349
#     4   9  17  30  51  77 107 142 179 220 263 317
#     4  10  20  36  55  77 105 141 182 221 272 332
#     4   9  18  35  61  90 118 153 194 238 294 353
#     4  10  19  32  51  78 106 135 179 223 269 315
#     4  10  21  38  58  82 118 150 186 232 280 338
#     4  10  22  38  59  88 112 148 194 228 285 350
#     4   9  19  35  56  77 101 139 182 220 270 331
#
# _framework density 22.361416999999999
#
# number of rings (size 3 to 8) (size 9 to 14) (size 15 to 20)
#    0.000    2.571    0.000    1.500    0.000    4.571 
#    2.571   10.000    0.000   10.286    0.000    0.000 
#    0.000    0.000    0.000    0.000    0.000    0.000 
#
# Total GULP energy -156325.586640 kJ/mol
# GULP energy per Si atom -5583.056666 kJ/mol
# Density = 2.231052 g / cm^3
# Si number density = 22.361417 Si / 1000 Ang^3
#
#
#
# Elastic Constant Matrix: (Units=GPa)
#
#
# Indices 1 2 3 4 5 6 
#
# 1 112.8580 29.4524 21.6624 0.0000 -8.2549 0.0000
# 2 29.4524 119.8625 -0.7761 0.0000 11.9931 0.0000
# 3 21.6624 -0.7761 89.7960 0.0000 -7.2551 0.0000
# 4 0.0000 0.0000 0.0000 128.7362 0.0000 68.7752
# 5 -8.2549 11.9931 -7.2551 0.0000 41.0671 0.0000
# 6 0.0000 0.0000 0.0000 68.7752 0.0000 74.9817
#
#
#
# Elastic Compliance Matrix: (Units=1/GPa)
#
#
# Indices 1 2 3 4 5 6 
#
# 1 0.010201 -0.002767 -0.002287 0.000000 0.002455 0.000000
# 2 -0.002767 0.009346 0.000490 0.000000 -0.003199 0.000000
# 3 -0.002287 0.000490 0.011812 0.000000 0.001484 0.000000
# 4 0.000000 0.000000 0.000000 0.015231 0.000000 -0.013971
# 5 0.002455 -0.003199 0.001484 0.000000 0.026040 0.000000
# 6 0.000000 0.000000 0.000000 -0.013971 0.000000 0.026151
#
#
# Mechanical properties :
#
#
# Convention : Reuss Voigt Hill
#
# Bulk Modulus (GPa) = 44.98041 47.02156 46.00098
# Shear Modulus (GPa) = 43.35757 67.10217 55.22987
#
# Velocity S-wave (km/s) = 4.40812 5.48390 4.97517
# Velocity P-wave (km/s) = 6.78731 7.82120 7.32253
#
# Compressibility (1/GPa) = 0.02223190
#
# Stress axis : x y z
#
# Youngs Moduli (GPa) = 98.02728 106.99690 84.65889
#
# Poissons Ratio (x) = 0.29607 0.19358
# Poissons Ratio (y) = 0.27125 -0.04147
# Poissons Ratio (z) = 0.22414 -0.05241
#
# Static dielectric constant tensor:
#      x y z
#    x 1.787060 0.000000 0.000310 
#    y 0.000000 1.867520 0.000000 
#    z 0.000310 0.000000 1.841490 
# 
# From -- ./inp_files/13613.got.cif
#   From: 2010.05.17/outbox.cif.g08.bks.cpg/sg10_7_cif.got.tgz:13613.got - 2010.06.03 11:33:40.
