data_PCOD9145920
_publ_section_title
;
Structure prediction by ZEFSAII (Michael W. Deem and Ramdas Pophale) SiO2 
 PCOD9145920
Probable space group: P 2/M
;
_chemical_formula_sum "Si O2"
_cell_formula_units_Z 32
_cell_length_a 20.532577
_cell_length_b 7.602453
_cell_length_c 26.573068
_cell_angle_alpha 90.000000
_cell_angle_beta 158.494680
_cell_angle_gamma 90.000000
_cell_volume 1520.605974
_symmetry_space_group_name_H-M "P 2/M"
_symmetry_group_IT_number 10
_symmetry_cell_setting 'monoclinic'
loop_
_space_group_symop_operation_xyz
x,y,z
-x,y,-z
-x,-y,-z
x,-y,z
loop_
_atom_site_type_symbol
_atom_site_label
_atom_site_fract_x
_atom_site_fract_y
_atom_site_fract_z
Si Si1 0.376745 0.709821 0.675593
Si Si2 0.197252 0.787454 0.369580
Si Si3 0.201380 0.209159 0.654985
Si Si4 0.267657 0.205874 0.124149
Si Si5 0.053968 0.291485 0.374620
Si Si6 0.093984 0.784426 0.185236
Si Si7 0.686912 0.293955 0.153596
Si Si8 0.603041 0.784705 0.674650
O O1 0.386325 0.500000 0.677075
O O2 0.319785 0.752213 0.691331
O O3 0.566161 0.780155 0.793906
O O4 0.220457 0.779679 0.526491
O O5 0.090680 0.733317 0.342395
O O6 0.115775 0.726596 0.258357
O O7 0.401217 0.726731 0.521167
O O8 0.200116 0.000000 0.370900
O O9 0.284511 0.281989 0.766009
O O10 0.000000 0.276436 0.500000
O O11 0.188953 0.000000 0.652692
O O12 0.325773 0.278437 0.220123
O O13 0.231294 0.000000 0.107074
O O14 0.087811 0.278916 0.970976
O O15 0.050595 0.500000 0.383179
O O16 0.865310 0.216838 0.256838
O O17 0.262777 0.732630 0.272954
O O18 0.091262 0.000000 0.183885
O O19 0.683655 0.500000 0.136868
O O20 0.500000 0.217707 0.000000
O O21 0.599614 0.000000 0.672845
#
# Coordination Sequence:
#
# PCOD9145920 Si02
#       8
#     4   4   4   4   4   4   4   4
#     4  11  22  37  59  82 110 148 188 230 276 332
#     4  10  19  32  54  81 107 141 184 227 270 326
#     4  11  23  38  61  90 117 146 185 235 283 331
#     4  10  19  33  54  81 110 141 183 230 277 327
#     4  10  21  37  57  80 109 145 182 225 275 331
#     4   9  18  31  50  80 114 142 175 228 284 325
#     4  10  22  41  63  87 116 152 191 229 279 342
#     4   9  16  29  52  79 107 142 183 225 272 329
#
# _framework density 21.044243000000002
#
# number of rings (size 3 to 8) (size 9 to 14) (size 15 to 20)
#    0.000    2.000    2.500    1.500    0.000    5.750 
#    0.000    3.125    0.000    4.500    0.000    0.000 
#    0.000    0.000    0.000    0.000    0.000    0.000 
#
# Total GULP energy -178797.936505 kJ/mol
# GULP energy per Si atom -5587.435516 kJ/mol
# Density = 2.099635 g / cm^3
# Si number density = 21.044243 Si / 1000 Ang^3
#
#
#
# Elastic Constant Matrix: (Units=GPa)
#
#
# Indices 1 2 3 4 5 6 
#
# 1 161.4843 -12.8260 152.0675 0.0000 77.8715 0.0000
# 2 -12.8260 43.0064 23.8233 0.0000 13.1609 0.0000
# 3 152.0675 23.8233 382.8528 0.0000 158.4548 0.0000
# 4 0.0000 0.0000 0.0000 -1.5218 0.0000 -4.4799
# 5 77.8715 13.1609 158.4548 0.0000 126.0405 0.0000
# 6 0.0000 0.0000 0.0000 -4.4799 0.0000 15.1918
#
#
#
# Elastic Compliance Matrix: (Units=1/GPa)
#
#
# Indices 1 2 3 4 5 6 
#
# 1 0.011837 0.006615 -0.003753 0.000000 -0.003285 0.000000
# 2 0.006615 0.027884 -0.003056 0.000000 -0.003156 0.000000
# 3 -0.003753 -0.003056 0.006673 0.000000 -0.005752 0.000000
# 4 0.000000 0.000000 0.000000 -0.351758 0.000000 -0.103731
# 5 -0.003285 -0.003156 -0.005752 0.000000 0.017524 0.000000
# 6 0.000000 0.000000 0.000000 -0.103731 0.000000 0.035236
#
#
# Mechanical properties :
#
#
# Convention : Reuss Voigt Hill
#
# Bulk Modulus (GPa) = 21.73732 101.49701 61.61717
# Shear Modulus (GPa) = -21.10770 56.22734 17.55982
#
# Velocity S-wave (km/s) = -3.17048 5.17461 2.89177
# Velocity P-wave (km/s) = 1.74665 9.16718 6.36343
#
# Compressibility (1/GPa) = 0.04600383
#
# Stress axis : x y z
#
# Youngs Moduli (GPa) = 84.48397 35.86311 149.84719
#
# Poissons Ratio (x) = -0.23722 0.56245
# Poissons Ratio (y) = -0.55882 0.45794
# Poissons Ratio (z) = 0.31711 0.10960
#
# Static dielectric constant tensor:
#      x y z
#    x 1.703220 0.000000 0.000870 
#    y 0.000000 1.802500 0.000000 
#    z 0.000870 0.000000 1.752290 
# 
# From -- ./inp_files/86873.got.cif
#   From: 2010.05.17/outbox.cif.g08.bks.cpg/sg10_44_cif.got.tgz:86873.got - 2010.06.03 11:33:40.
