data_PCOD9145494
_publ_section_title
;
Structure prediction by ZEFSAII (Michael W. Deem and Ramdas Pophale) SiO2 
 PCOD9145494
Probable space group: P 2/M
;
_chemical_formula_sum "Si O2"
_cell_formula_units_Z 32
_cell_length_a 11.973864
_cell_length_b 7.898626
_cell_length_c 31.126086
_cell_angle_alpha 90.000000
_cell_angle_beta 29.971375
_cell_angle_gamma 90.000000
_cell_volume 1470.633188
_symmetry_space_group_name_H-M "P 2/M"
_symmetry_group_IT_number 10
_symmetry_cell_setting 'monoclinic'
loop_
_space_group_symop_operation_xyz
x,y,z
-x,y,-z
-x,-y,-z
x,-y,z
loop_
_atom_site_type_symbol
_atom_site_label
_atom_site_fract_x
_atom_site_fract_y
_atom_site_fract_z
Si Si1 0.958948 0.294769 0.062902
Si Si2 0.635559 0.803689 0.013054
Si Si3 0.831921 0.308940 0.385455
Si Si4 0.391154 0.303786 0.755024
Si Si5 0.544951 0.806368 0.554079
Si Si6 0.016870 0.204911 0.168507
Si Si7 0.756719 0.197914 0.570741
Si Si8 0.819511 0.796260 0.795024
O O1 0.974762 0.500000 0.062714
O O2 0.154790 0.210569 0.024954
O O3 0.721964 0.243431 0.162842
O O4 0.000000 0.253048 0.000000
O O5 0.748084 0.738206 0.931521
O O6 0.576970 0.000000 0.024277
O O7 0.422344 0.730363 0.108896
O O8 0.820083 0.500000 0.405027
O O9 0.650140 0.283352 0.407909
O O10 0.753599 0.195861 0.451410
O O11 0.070470 0.273515 0.284584
O O12 0.451740 0.500000 0.739359
O O13 0.187671 0.285012 0.788738
O O14 0.599615 0.210735 0.664662
O O15 0.624923 0.731962 0.572956
O O16 0.467111 0.000000 0.586917
O O17 0.023198 0.243055 0.216493
O O18 0.002259 0.000000 0.168359
O O19 0.000000 0.272582 0.500000
O O20 0.791007 0.000000 0.548308
O O21 0.809997 0.000000 0.793674
#
# Coordination Sequence:
#
# PCOD9145494 Si02
#       8
#     4   4   4   4   4   4   4   4
#     4   9  19  37  56  74 105 145 181 217 263 318
#     4   9  18  32  51  77 105 134 177 224 262 307
#     4  11  22  35  54  81 111 143 182 224 266 321
#     4  10  20  34  55  82 107 139 181 222 265 317
#     4  10  20  38  61  79 104 141 180 222 275 330
#     4   9  17  31  53  77 105 142 178 217 263 313
#     4  10  22  40  60  83 110 141 178 228 284 331
#     4  10  19  32  50  76 110 143 175 212 265 321
#
# _framework density 21.759335
#
# number of rings (size 3 to 8) (size 9 to 14) (size 15 to 20)
#    0.000    2.250    0.000    3.750    0.000    7.500 
#    2.250    0.000    0.000    3.750    0.000    0.000 
#    0.000    0.000    0.000    0.000    0.000    0.000 
#
# Total GULP energy -178584.950315 kJ/mol
# GULP energy per Si atom -5580.779697 kJ/mol
# Density = 2.170981 g / cm^3
# Si number density = 21.759335 Si / 1000 Ang^3
#
#
#
# Elastic Constant Matrix: (Units=GPa)
#
#
# Indices 1 2 3 4 5 6 
#
# 1 37.9988 1.5839 19.3541 0.0000 16.5809 0.0000
# 2 1.5839 28.1301 -4.5536 0.0000 1.0665 0.0000
# 3 19.3541 -4.5536 145.5483 0.0000 13.4579 0.0000
# 4 0.0000 0.0000 0.0000 6.1758 0.0000 12.2406
# 5 16.5809 1.0665 13.4579 0.0000 28.6387 0.0000
# 6 0.0000 0.0000 0.0000 12.2406 0.0000 19.7306
#
#
#
# Elastic Compliance Matrix: (Units=1/GPa)
#
#
# Indices 1 2 3 4 5 6 
#
# 1 0.036537 -0.001815 -0.003100 0.000000 -0.019629 0.000000
# 2 -0.001815 0.035924 0.001455 0.000000 -0.000971 0.000000
# 3 -0.003100 0.001455 0.007493 0.000000 -0.001780 0.000000
# 4 0.000000 0.000000 0.000000 -0.705197 0.000000 0.437493
# 5 -0.019629 -0.000971 -0.001780 0.000000 0.047155 0.000000
# 6 0.000000 0.000000 0.000000 0.437493 0.000000 -0.220731
#
#
# Mechanical properties :
#
#
# Convention : Reuss Voigt Hill
#
# Bulk Modulus (GPa) = 13.69244 27.16064 20.42654
# Shear Modulus (GPa) = -6.51419 23.92855 8.70718
#
# Velocity S-wave (km/s) = -1.73212 3.31976 2.00257
# Velocity P-wave (km/s) = 1.51856 5.21572 3.84121
#
# Compressibility (1/GPa) = 0.07303301
#
# Stress axis : x y z
#
# Youngs Moduli (GPa) = 27.36984 27.83681 133.45871
#
# Poissons Ratio (x) = 0.05052 0.41375
# Poissons Ratio (y) = 0.04967 -0.19418
# Poissons Ratio (z) = 0.08485 -0.04050
#
# Static dielectric constant tensor:
#      x y z
#    x 1.781060 0.000000 -0.002220 
#    y 0.000000 1.791200 0.000000 
#    z -0.002220 0.000000 1.844960 
# 
# From -- ./inp_files/94931.got.cif
#   From: 2010.05.17/outbox.cif.g08.bks.cpg/sg10_48_cif.got.tgz:94931.got - 2010.06.03 11:33:40.
