data_PCOD9145763
_publ_section_title
;
Structure prediction by ZEFSAII (Michael W. Deem and Ramdas Pophale) SiO2 
 PCOD9145763
Probable space group: P 2/M
;
_chemical_formula_sum "Si O2"
_cell_formula_units_Z 18
_cell_length_a 9.379329
_cell_length_b 22.687171
_cell_length_c 5.068700
_cell_angle_alpha 90.000000
_cell_angle_beta 121.777944
_cell_angle_gamma 90.000000
_cell_volume 916.888255
_symmetry_space_group_name_H-M "P 2/M"
_symmetry_group_IT_number 10
_symmetry_cell_setting 'monoclinic'
loop_
_space_group_symop_operation_xyz
x,y,z
-x,y,-z
-x,-y,-z
x,-y,z
loop_
_atom_site_type_symbol
_atom_site_label
_atom_site_fract_x
_atom_site_fract_y
_atom_site_fract_z
Si Si1 0.622785 0.500000 0.868521
Si Si2 0.623392 0.936890 0.370567
Si Si3 0.687061 0.627597 0.805956
Si Si4 0.622748 0.808280 0.369909
Si Si5 0.185505 0.308662 0.565647
O O1 0.500000 0.500000 0.500000
O O2 0.721681 0.561209 0.941073
O O3 0.500000 0.500000 0.000000
O O4 0.500000 0.937117 0.500000
O O5 0.709930 0.872989 0.461657
O O6 0.717703 0.000000 0.461166
O O7 0.500000 0.936811 0.000000
O O8 0.500000 0.630518 0.500000
O O9 0.801232 0.648330 0.673665
O O10 0.703514 0.668442 0.079402
O O11 0.500000 0.801573 0.500000
O O12 0.749227 0.754404 0.469627
O O13 0.500000 0.806981 0.000000
O O14 0.000000 0.305516 0.500000
#
# Coordination Sequence:
#
# PCOD9145763 Si02
#       5
#     2   4   4   4   4
#     4  10  20  36  61  88 105 130 177 228 265 308
#     4   8  14  25  43  70  99 125 164 219 264 299
#     4  11  22  40  62  82 105 140 182 220 263 321
#     4  10  19  32  53  76 100 138 182 217 258 315
#     4  12  24  37  53  81 116 145 176 221 271 313
#
# _framework density 19.631616000000001
#
# number of rings (size 3 to 8) (size 9 to 14) (size 15 to 20)
#    0.000    1.778    0.000    7.333    0.000    0.000 
#    0.000    3.333    0.000    0.667    0.000    0.000 
#    0.000   21.333    0.000    0.000    0.000    4.444 
#
# Total GULP energy -100396.690199 kJ/mol
# GULP energy per Si atom -5577.593900 kJ/mol
# Density = 1.958693 g / cm^3
# Si number density = 19.631616 Si / 1000 Ang^3
#
#
#
# Elastic Constant Matrix: (Units=GPa)
#
#
# Indices 1 2 3 4 5 6 
#
# 1 113.9380 78.0013 31.1702 0.0000 -29.0301 0.0000
# 2 78.0013 210.6362 24.0139 0.0000 -9.9866 0.0000
# 3 31.1702 24.0139 73.9886 0.0000 -36.0802 0.0000
# 4 0.0000 0.0000 0.0000 14.9393 0.0000 -18.4478
# 5 -29.0301 -9.9866 -36.0802 0.0000 41.2562 0.0000
# 6 0.0000 0.0000 0.0000 -18.4478 0.0000 11.9673
#
#
#
# Elastic Compliance Matrix: (Units=1/GPa)
#
#
# Indices 1 2 3 4 5 6 
#
# 1 0.014428 -0.004903 -0.000200 0.000000 0.008790 0.000000
# 2 -0.004903 0.006599 -0.001708 0.000000 -0.003347 0.000000
# 3 -0.000200 -0.001708 0.024208 0.000000 0.020616 0.000000
# 4 0.000000 0.000000 0.000000 -0.074083 0.000000 -0.114200
# 5 0.008790 -0.003347 0.020616 0.000000 0.047644 0.000000
# 6 0.000000 0.000000 0.000000 -0.114200 0.000000 -0.092481
#
#
# Mechanical properties :
#
#
# Convention : Reuss Voigt Hill
#
# Bulk Modulus (GPa) = 31.63405 73.88151 52.75778
# Shear Modulus (GPa) = -100.96069 31.32438 -34.81816
#
# Velocity S-wave (km/s) = -7.17908 3.99884 -4.21595
# Velocity P-wave (km/s) = 7.25053 7.68353 1.79811
#
# Compressibility (1/GPa) = 0.03161151
#
# Stress axis : x y z
#
# Youngs Moduli (GPa) = 69.31031 151.53058 41.30882
#
# Poissons Ratio (x) = 0.74299 0.00828
# Poissons Ratio (y) = 0.33984 0.07056
# Poissons Ratio (z) = 0.01389 0.25885
#
# Static dielectric constant tensor:
#      x y z
#    x 1.637440 0.000000 0.000870 
#    y 0.000000 1.809680 0.000000 
#    z 0.000870 0.000000 1.659960 
# 
# From -- ./inp_files/4484.got.cif
#   From: 2010.05.17/outbox.cif.g08.bks.cpg/sg10_3_cif.got.tgz:4484.got - 2010.06.03 11:33:40.
