data_PCOD9145642
_publ_section_title
;
Structure prediction by ZEFSAII (Michael W. Deem and Ramdas Pophale) SiO2 
 PCOD9145642
Probable space group: P 2/M
;
_chemical_formula_sum "Si O2"
_cell_formula_units_Z 24
_cell_length_a 22.696102
_cell_length_b 8.858978
_cell_length_c 9.913770
_cell_angle_alpha 90.000000
_cell_angle_beta 136.192746
_cell_angle_gamma 90.000000
_cell_volume 1379.834523
_symmetry_space_group_name_H-M "P 2/M"
_symmetry_group_IT_number 10
_symmetry_cell_setting 'monoclinic'
loop_
_space_group_symop_operation_xyz
x,y,z
-x,y,-z
-x,-y,-z
x,-y,z
loop_
_atom_site_type_symbol
_atom_site_label
_atom_site_fract_x
_atom_site_fract_y
_atom_site_fract_z
Si Si1 0.779999 0.319574 0.387195
Si Si2 0.721361 0.181531 0.561608
Si Si3 0.366231 0.319389 0.069760
Si Si4 0.758934 0.181309 0.926415
Si Si5 0.525638 0.818168 0.195905
Si Si6 0.901782 0.682327 0.351375
O O1 0.780649 0.500000 0.404028
O O2 0.773089 0.244917 0.520798
O O3 0.860425 0.276107 0.427441
O O4 0.696952 0.280032 0.159728
O O5 0.755282 0.227363 0.764129
O O6 0.622594 0.228621 0.383141
O O7 0.722901 0.000000 0.557384
O O8 0.366800 0.500000 0.084282
O O9 0.322553 0.245992 0.128026
O O10 0.458590 0.257010 0.185892
O O11 0.757697 0.000000 0.932496
O O12 0.841616 0.244953 0.139055
O O13 0.519828 0.000000 0.199102
O O14 0.500000 0.778435 0.000000
O O15 0.895384 0.500000 0.328857
O O16 0.000000 0.725719 0.500000
#
# Coordination Sequence:
#
# PCOD9145642 Si02
#       6
#     4   4   4   4   4   4
#     4   9  18  32  53  78 102 134 173 213 259 312
#     4  10  21  35  51  76 108 142 176 218 265 309
#     4  10  20  34  52  76 105 140 183 224 263 307
#     4  10  21  36  54  77 108 140 174 215 264 316
#     4  10  19  32  52  75 103 142 186 223 261 304
#     4   9  19  38  61  83 106 133 170 214 260 317
#
# _framework density 17.393391000000001
#
# number of rings (size 3 to 8) (size 9 to 14) (size 15 to 20)
#    0.000    2.333    1.667    2.000    0.000    6.000 
#    0.000    4.167    0.000    5.000    0.000    0.000 
#    0.000    0.000    0.000    0.000    0.000    0.000 
#
# Total GULP energy -133922.903105 kJ/mol
# GULP energy per Si atom -5580.120963 kJ/mol
# Density = 1.735380 g / cm^3
# Si number density = 17.393391 Si / 1000 Ang^3
#
#
#
# Elastic Constant Matrix: (Units=GPa)
#
#
# Indices 1 2 3 4 5 6 
#
# 1 166.7509 41.0230 95.2000 0.0000 -7.6476 0.0000
# 2 41.0230 21.0517 34.2507 0.0000 -5.9800 0.0000
# 3 95.2000 34.2507 101.3132 0.0000 -16.4304 0.0000
# 4 0.0000 0.0000 0.0000 -40.9501 0.0000 -45.6628
# 5 -7.6476 -5.9800 -16.4304 0.0000 34.2541 0.0000
# 6 0.0000 0.0000 0.0000 -45.6628 0.0000 -0.5237
#
#
#
# Elastic Compliance Matrix: (Units=1/GPa)
#
#
# Indices 1 2 3 4 5 6 
#
# 1 0.014942 -0.014117 -0.009897 0.000000 -0.003876 0.000000
# 2 -0.014117 0.118968 -0.026130 0.000000 0.005084 0.000000
# 3 -0.009897 -0.026130 0.029175 0.000000 0.007223 0.000000
# 4 0.000000 0.000000 0.000000 0.000254 0.000000 -0.022127
# 5 -0.003876 0.005084 0.007223 0.000000 0.032680 0.000000
# 6 0.000000 0.000000 0.000000 -0.022127 0.000000 0.019844
#
#
# Mechanical properties :
#
#
# Convention : Reuss Voigt Hill
#
# Bulk Modulus (GPa) = 15.92387 70.00701 42.96544
# Shear Modulus (GPa) = 14.83314 6.46553 10.64934
#
# Velocity S-wave (km/s) = 2.92345 1.93010 2.47708
# Velocity P-wave (km/s) = 4.53546 6.73080 5.73908
#
# Compressibility (1/GPa) = 0.06279879
#
# Stress axis : x y z
#
# Youngs Moduli (GPa) = 66.92370 8.40561 34.27599
#
# Poissons Ratio (x) = 0.11866 0.33922
# Poissons Ratio (y) = 0.94476 0.89562
# Poissons Ratio (z) = 0.66233 0.21964
#
# Static dielectric constant tensor:
#      x y z
#    x 1.578000 0.000000 -0.003610 
#    y 0.000000 1.585170 0.000000 
#    z -0.003610 0.000000 1.576290 
# 
# From -- ./inp_files/27197.got.cif
#   From: 2010.05.17/outbox.cif.g08.bks.cpg/sg10_14_cif.got.tgz:27197.got - 2010.06.03 11:33:40.
