data_PCOD9145809
_publ_section_title
;
Structure prediction by ZEFSAII (Michael W. Deem and Ramdas Pophale) SiO2 
 PCOD9145809
Probable space group: P 2/M
;
_chemical_formula_sum "Si O2"
_cell_formula_units_Z 24
_cell_length_a 20.433361
_cell_length_b 9.514411
_cell_length_c 8.859744
_cell_angle_alpha 90.000000
_cell_angle_beta 51.254722
_cell_angle_gamma 90.000000
_cell_volume 1343.389323
_symmetry_space_group_name_H-M "P 2/M"
_symmetry_group_IT_number 10
_symmetry_cell_setting 'monoclinic'
loop_
_space_group_symop_operation_xyz
x,y,z
-x,y,-z
-x,-y,-z
x,-y,z
loop_
_atom_site_type_symbol
_atom_site_label
_atom_site_fract_x
_atom_site_fract_y
_atom_site_fract_z
Si Si1 0.738054 0.833830 0.719730
Si Si2 0.912249 0.662543 0.819233
Si Si3 0.248638 0.164388 0.937885
Si Si4 0.901254 0.664082 0.468253
Si Si5 0.581856 0.833943 0.485543
Si Si6 0.412735 0.665048 0.215484
O O1 0.824265 0.763411 0.536867
O O2 0.660127 0.750563 0.763664
O O3 0.734453 0.000000 0.691145
O O4 0.737162 0.816876 0.902987
O O5 0.904190 0.500000 0.875019
O O6 0.906955 0.667922 0.643440
O O7 0.006801 0.709109 0.722843
O O8 0.833564 0.749849 0.991072
O O9 0.333535 0.201745 0.728060
O O10 0.232367 0.000000 0.936337
O O11 0.887038 0.500000 0.448041
O O12 0.500000 0.816547 0.500000
O O13 0.575915 0.736050 0.638747
O O14 0.586054 0.000000 0.521838
O O15 0.391202 0.500000 0.257457
O O16 0.500000 0.677348 0.000000
#
# Coordination Sequence:
#
# PCOD9145809 Si02
#       6
#     4   4   4   4   4   4
#     4  10  19  32  53  79 106 138 173 210 256 304
#     4   8  14  25  44  70 102 140 174 207 251 299
#     4   9  18  31  50  78 107 135 171 214 256 301
#     4   8  14  26  44  70 104 138 173 211 250 295
#     4  10  21  38  58  78 103 135 170 210 257 308
#     4  11  24  39  55  77 104 134 170 212 256 304
#
# _framework density 17.865259999999999
#
# number of rings (size 3 to 8) (size 9 to 14) (size 15 to 20)
#    0.000    2.667    0.000    3.000    0.000    5.000 
#    0.000    3.333    0.000    1.000    0.000    7.000 
#    0.000    0.000    0.000    0.000    0.000    0.000 
#
# Total GULP energy -133828.827046 kJ/mol
# GULP energy per Si atom -5576.201127 kJ/mol
# Density = 1.782460 g / cm^3
# Si number density = 17.865260 Si / 1000 Ang^3
#
#
#
# Elastic Constant Matrix: (Units=GPa)
#
#
# Indices 1 2 3 4 5 6 
#
# 1 96.3002 87.5441 54.5970 0.0000 -35.7609 0.0000
# 2 87.5441 117.2627 74.7561 0.0000 -25.5798 0.0000
# 3 54.5970 74.7561 102.3487 0.0000 -33.5940 0.0000
# 4 0.0000 0.0000 0.0000 24.0139 0.0000 -7.6803
# 5 -35.7609 -25.5798 -33.5940 0.0000 27.2537 0.0000
# 6 0.0000 0.0000 0.0000 -7.6803 0.0000 30.0718
#
#
#
# Elastic Compliance Matrix: (Units=1/GPa)
#
#
# Indices 1 2 3 4 5 6 
#
# 1 0.076996 -0.057224 0.027302 0.000000 0.080975 0.000000
# 2 -0.057224 0.058505 -0.031623 0.000000 -0.059155 0.000000
# 3 0.027302 -0.031623 0.034129 0.000000 0.048213 0.000000
# 4 0.000000 0.000000 0.000000 0.045347 0.000000 0.011581
# 5 0.080975 -0.059155 0.048213 0.000000 0.146850 0.000000
# 6 0.000000 0.000000 0.000000 0.011581 0.000000 0.036212
#
#
# Mechanical properties :
#
#
# Convention : Reuss Voigt Hill
#
# Bulk Modulus (GPa) = 21.48675 83.30067 52.39371
# Shear Modulus (GPa) = 9.31719 22.86883 16.09301
#
# Velocity S-wave (km/s) = 2.28617 3.58169 3.00459
# Velocity P-wave (km/s) = 4.36142 7.98956 6.43642
#
# Compressibility (1/GPa) = 0.04654030
#
# Stress axis : x y z
#
# Youngs Moduli (GPa) = 12.98770 17.09244 29.30047
#
# Poissons Ratio (x) = 0.97810 -0.79997
# Poissons Ratio (y) = 0.74321 0.92658
# Poissons Ratio (z) = -0.35459 0.54052
#
# Static dielectric constant tensor:
#      x y z
#    x 1.605340 0.000000 0.000250 
#    y 0.000000 1.592680 0.000000 
#    z 0.000250 0.000000 1.612020 
# 
# From -- ./inp_files/33794.got.cif
#   From: 2010.05.17/outbox.cif.g08.bks.cpg/sg10_17_cif.got.tgz:33794.got - 2010.06.03 11:33:40.
