data_PCOD9145769
_publ_section_title
;
Structure prediction by ZEFSAII (Michael W. Deem and Ramdas Pophale) SiO2 
 PCOD9145769
Probable space group: P 2/M
;
_chemical_formula_sum "Si O2"
_cell_formula_units_Z 28
_cell_length_a 16.367567
_cell_length_b 14.377828
_cell_length_c 9.130273
_cell_angle_alpha 90.000000
_cell_angle_beta 48.260748
_cell_angle_gamma 90.000000
_cell_volume 1603.267918
_symmetry_space_group_name_H-M "P 2/M"
_symmetry_group_IT_number 10
_symmetry_cell_setting 'monoclinic'
loop_
_space_group_symop_operation_xyz
x,y,z
-x,y,-z
-x,-y,-z
x,-y,z
loop_
_atom_site_type_symbol
_atom_site_label
_atom_site_fract_x
_atom_site_fract_y
_atom_site_fract_z
Si Si1 0.717473 0.392259 0.893250
Si Si2 0.016815 0.215559 0.807790
Si Si3 0.956110 0.391948 0.717139
Si Si4 0.224935 0.888662 0.420571
Si Si5 0.891176 0.105584 0.732004
Si Si6 0.508440 0.391693 0.659508
Si Si7 0.613221 0.267301 0.774830
O O1 0.727321 0.500000 0.830790
O O2 0.826709 0.371740 0.854581
O O3 0.695439 0.325661 0.781703
O O4 0.611025 0.386143 0.123018
O O5 0.124156 0.158681 0.628047
O O6 0.017670 0.321496 0.750301
O O7 0.915445 0.170710 0.838934
O O8 0.000000 0.209610 0.000000
O O9 0.971033 0.500000 0.739315
O O10 0.000000 0.377933 0.500000
O O11 0.202901 0.873347 0.272512
O O12 0.333284 0.831240 0.327372
O O13 0.227013 0.000000 0.442292
O O14 0.000000 0.109802 0.500000
O O15 0.879232 0.000000 0.798097
O O16 0.500000 0.364984 0.500000
O O17 0.543604 0.500000 0.625422
O O18 0.586663 0.327343 0.662829
O O19 0.500000 0.256931 0.000000
#
# Coordination Sequence:
#
# PCOD9145769 Si02
#       7
#     4   4   4   4   4   4   4
#     4   9  17  31  52  76 101 130 166 207 247 292
#     4  11  21  32  51  77 106 135 166 205 253 309
#     4  10  20  34  52  74 104 140 173 206 246 297
#     4  10  21  37  55  74  98 130 171 219 261 299
#     4   8  15  30  51  71  92 122 163 209 251 291
#     4   9  18  32  51  77 107 136 166 201 244 297
#     4  10  19  32  53  76  99 129 169 212 253 298
#
# _framework density 17.46433
#
# number of rings (size 3 to 8) (size 9 to 14) (size 15 to 20)
#    0.000    2.429    0.000    4.714    0.000    4.571 
#    0.000    0.714    0.000    0.429    0.000    0.000 
#    0.000    0.000    0.000    0.000    0.000    0.000 
#
# Total GULP energy -156110.347434 kJ/mol
# GULP energy per Si atom -5575.369551 kJ/mol
# Density = 1.742458 g / cm^3
# Si number density = 17.464330 Si / 1000 Ang^3
#
#
#
# Elastic Constant Matrix: (Units=GPa)
#
#
# Indices 1 2 3 4 5 6 
#
# 1 60.6582 67.4619 38.9164 0.0000 16.3145 0.0000
# 2 67.4619 126.6930 52.2457 0.0000 15.0369 0.0000
# 3 38.9164 52.2457 44.7949 0.0000 20.1474 0.0000
# 4 0.0000 0.0000 0.0000 8.0228 0.0000 -11.3783
# 5 16.3145 15.0369 20.1474 0.0000 28.9773 0.0000
# 6 0.0000 0.0000 0.0000 -11.3783 0.0000 30.5636
#
#
#
# Elastic Compliance Matrix: (Units=1/GPa)
#
#
# Indices 1 2 3 4 5 6 
#
# 1 0.051827 -0.017981 -0.022008 0.000000 -0.004546 0.000000
# 2 -0.017981 0.022326 -0.014201 0.000000 0.008412 0.000000
# 3 -0.022008 -0.014201 0.071469 0.000000 -0.029931 0.000000
# 4 0.000000 0.000000 0.000000 0.264067 0.000000 0.098307
# 5 -0.004546 0.008412 -0.029931 0.000000 0.053515 0.000000
# 6 0.000000 0.000000 0.000000 0.098307 0.000000 0.069317
#
#
# Mechanical properties :
#
#
# Convention : Reuss Voigt Hill
#
# Bulk Modulus (GPa) = 26.85277 61.04377 43.94827
# Shear Modulus (GPa) = 7.65327 18.41423 13.03375
#
# Velocity S-wave (km/s) = 2.09565 3.25066 2.73483
# Velocity P-wave (km/s) = 4.61138 7.00845 5.93225
#
# Compressibility (1/GPa) = 0.03724010
#
# Stress axis : x y z
#
# Youngs Moduli (GPa) = 19.29506 44.79143 13.99199
#
# Poissons Ratio (x) = 0.80542 0.30794
# Poissons Ratio (y) = 0.34695 0.19870
# Poissons Ratio (z) = 0.42465 0.63608
#
# Static dielectric constant tensor:
#      x y z
#    x 1.600620 0.000000 -0.024660 
#    y 0.000000 1.617480 0.000000 
#    z -0.024660 0.000000 1.580420 
# 
# From -- ./inp_files/28960.got.cif
#   From: 2010.05.17/outbox.cif.g08.bks.cpg/sg10_15_cif.got.tgz:28960.got - 2010.06.03 11:33:40.
