data_PCOD9145154
_publ_section_title
;
Structure prediction by ZEFSAII (Michael W. Deem and Ramdas Pophale) SiO2 
 PCOD9145154
Probable space group: P 2/M
;
_chemical_formula_sum "Si O2"
_cell_formula_units_Z 32
_cell_length_a 23.369683
_cell_length_b 7.394403
_cell_length_c 30.749771
_cell_angle_alpha 90.000000
_cell_angle_beta 163.739465
_cell_angle_gamma 90.000000
_cell_volume 1487.868120
_symmetry_space_group_name_H-M "P 2/M"
_symmetry_group_IT_number 10
_symmetry_cell_setting 'monoclinic'
loop_
_space_group_symop_operation_xyz
x,y,z
-x,y,-z
-x,-y,-z
x,-y,z
loop_
_atom_site_type_symbol
_atom_site_label
_atom_site_fract_x
_atom_site_fract_y
_atom_site_fract_z
Si Si1 0.038052 0.782332 0.735469
Si Si2 0.159507 0.278700 0.078652
Si Si3 0.577524 0.286612 0.424426
Si Si4 0.660984 0.721211 0.581017
Si Si5 0.906316 0.715969 0.067814
Si Si6 0.353947 0.784207 0.040040
Si Si7 0.207608 0.221125 0.675122
Si Si8 0.729085 0.220350 0.179788
O O1 0.801952 0.735263 0.568548
O O2 0.124771 0.719782 0.752507
O O3 0.051414 0.000000 0.745851
O O4 0.182337 0.716061 0.880450
O O5 0.153412 0.500000 0.073132
O O6 0.386280 0.217351 0.257657
O O7 0.111906 0.216934 0.994878
O O8 0.000000 0.224410 0.000000
O O9 0.538513 0.500000 0.400185
O O10 0.590810 0.212944 0.482887
O O11 0.500000 0.773626 0.500000
O O12 0.665499 0.500000 0.583028
O O13 0.887389 0.783611 0.758626
O O14 0.926396 0.500000 0.079224
O O15 0.720139 0.749953 0.964974
O O16 0.581065 0.719184 0.193600
O O17 0.359685 0.000000 0.038561
O O18 0.213938 0.277929 0.730157
O O19 0.000000 0.279475 0.500000
O O20 0.207639 0.000000 0.674505
O O21 0.731347 0.000000 0.181904
O O22 0.500000 0.274825 0.000000
#
# Coordination Sequence:
#
# PCOD9145154 Si02
#       8
#     4   4   4   4   4   4   4   4
#     4  10  19  31  51  76 102 132 166 207 251 296
#     4   9  18  33  53  76 101 130 167 210 250 290
#     4  10  19  32  51  75 101 128 161 206 251 292
#     4   9  16  27  47  73  95 120 162 206 236 275
#     4  10  19  32  52  76 100 131 166 201 250 303
#     4  10  19  32  51  75 104 133 162 206 255 295
#     4   9  17  29  47  72  98 125 165 211 245 281
#     4   9  15  27  47  68  91 126 168 203 240 285
#
# _framework density 21.507283999999999
#
# number of rings (size 3 to 8) (size 9 to 14) (size 15 to 20)
#    0.000    2.500    2.500    0.750    0.000    4.000 
#    0.000    1.875    0.000    6.000    0.000    0.000 
#    0.000    0.000    0.000    0.000    0.000    0.000 
#
# Total GULP energy -178729.926411 kJ/mol
# GULP energy per Si atom -5585.310200 kJ/mol
# Density = 2.145833 g / cm^3
# Si number density = 21.507284 Si / 1000 Ang^3
#
#
#
# Elastic Constant Matrix: (Units=GPa)
#
#
# Indices 1 2 3 4 5 6 
#
# 1 132.9321 -6.2524 30.6107 0.0000 -3.4020 0.0000
# 2 -6.2524 72.0030 0.0746 0.0000 -7.5112 0.0000
# 3 30.6107 0.0746 95.5514 0.0000 -7.7850 0.0000
# 4 0.0000 0.0000 0.0000 4.1533 0.0000 13.3695
# 5 -3.4020 -7.5112 -7.7850 0.0000 39.1357 0.0000
# 6 0.0000 0.0000 0.0000 13.3695 0.0000 7.2152
#
#
#
# Elastic Compliance Matrix: (Units=1/GPa)
#
#
# Indices 1 2 3 4 5 6 
#
# 1 0.008162 0.000747 -0.002588 0.000000 0.000338 0.000000
# 2 0.000747 0.014245 -0.000023 0.000000 0.002794 0.000000
# 3 -0.002588 -0.000023 0.011462 0.000000 0.002051 0.000000
# 4 0.000000 0.000000 0.000000 -0.048497 0.000000 0.089863
# 5 0.000338 0.002794 0.002051 0.000000 0.026526 0.000000
# 6 0.000000 0.000000 0.000000 0.089863 0.000000 -0.027916
#
#
# Mechanical properties :
#
#
# Convention : Reuss Voigt Hill
#
# Bulk Modulus (GPa) = 33.17737 38.81692 35.99715
# Shear Modulus (GPa) = -2228.31867 28.50441 -1099.90713
#
# Velocity S-wave (km/s) = -32.22306 3.64447 -22.63894
# Velocity P-wave (km/s) = 36.99965 5.98306 25.81838
#
# Compressibility (1/GPa) = 0.03014102
#
# Stress axis : x y z
#
# Youngs Moduli (GPa) = 122.51390 70.20169 87.24685
#
# Poissons Ratio (x) = -0.05242 0.22579
# Poissons Ratio (y) = -0.09148 0.00198
# Poissons Ratio (z) = 0.31706 0.00159
#
# Static dielectric constant tensor:
#      x y z
#    x 1.697090 0.000000 -0.026970 
#    y 0.000000 1.843280 0.000000 
#    z -0.026970 0.000000 1.731320 
# 
# From -- ./inp_files/78949.got.cif
#   From: 2010.05.17/outbox.cif.g08.bks.cpg/sg10_40_cif.got.tgz:78949.got - 2010.06.03 11:33:40.
