data_PCOD9145748
_publ_section_title
;
Structure prediction by ZEFSAII (Michael W. Deem and Ramdas Pophale) SiO2 
 PCOD9145748
Probable space group: P 2/M
;
_chemical_formula_sum "Si O2"
_cell_formula_units_Z 24
_cell_length_a 12.803136
_cell_length_b 20.533593
_cell_length_c 15.309990
_cell_angle_alpha 90.000000
_cell_angle_beta 18.988211
_cell_angle_gamma 90.000000
_cell_volume 1309.599585
_symmetry_space_group_name_H-M "P 2/M"
_symmetry_group_IT_number 10
_symmetry_cell_setting 'monoclinic'
loop_
_space_group_symop_operation_xyz
x,y,z
-x,y,-z
-x,-y,-z
x,-y,z
loop_
_atom_site_type_symbol
_atom_site_label
_atom_site_fract_x
_atom_site_fract_y
_atom_site_fract_z
Si Si1 0.776289 0.150097 0.090616
Si Si2 0.623107 0.359145 0.807667
Si Si3 0.630108 0.500000 0.744725
Si Si4 0.354876 0.640321 0.524825
Si Si5 0.308366 0.705014 0.907605
Si Si6 0.727280 0.074432 0.406713
Si Si7 0.611191 0.500000 0.272962
O O1 0.774459 0.221565 0.050704
O O2 0.439045 0.122195 0.392079
O O3 0.000000 0.152947 0.000000
O O4 0.937665 0.101236 0.894119
O O5 0.489640 0.431616 0.889739
O O6 0.537231 0.302725 0.808530
O O7 0.000000 0.366393 0.500000
O O8 0.500000 0.342848 0.000000
O O9 0.516423 0.500000 0.729940
O O10 0.000000 0.500000 0.500000
O O11 0.500000 0.666015 0.500000
O O12 0.519064 0.674476 0.312851
O O13 0.447557 0.564760 0.441076
O O14 0.988069 0.660045 0.827157
O O15 0.500000 0.074434 0.500000
O O16 0.742799 0.000000 0.425707
O O17 0.000000 0.500000 0.000000
#
# Coordination Sequence:
#
# PCOD9145748 Si02
#       7
#     4   4   2   4   4   4   2
#     4  10  19  32  52  81 116 155 194 228 281 356
#     4  11  24  43  63  87 112 149 202 264 318 371
#     4  10  23  43  69  88 116 156 212 270 320 379
#     4  12  25  40  59  84 119 159 196 247 311 370
#     4  12  24  40  61  84 120 155 204 246 308 367
#     4   9  17  30  50  78 116 157 194 232 273 329
#     4  12  25  45  63  94 123 159 210 270 320 383
#
# _framework density 18.326212000000002
#
# number of rings (size 3 to 8) (size 9 to 14) (size 15 to 20)
#    0.000    1.167    1.667    5.500    2.333    4.667 
#    0.000    0.000    0.000    0.000    0.000    0.000 
#    0.000   13.333    0.000    0.000    0.000    0.000 
#
# Total GULP energy -133704.201550 kJ/mol
# GULP energy per Si atom -5571.008398 kJ/mol
# Density = 1.828450 g / cm^3
# Si number density = 18.326212 Si / 1000 Ang^3
#
#
#
# Elastic Constant Matrix: (Units=GPa)
#
#
# Indices 1 2 3 4 5 6 
#
# 1 111.2868 16.7053 35.8547 0.0000 24.0247 0.0000
# 2 16.7053 100.8174 36.5036 0.0000 5.1099 0.0000
# 3 35.8547 36.5036 96.0924 0.0000 24.4842 0.0000
# 4 0.0000 0.0000 0.0000 16.9622 0.0000 13.3851
# 5 24.0247 5.1099 24.4842 0.0000 31.3055 0.0000
# 6 0.0000 0.0000 0.0000 13.3851 0.0000 12.7790
#
#
#
# Elastic Compliance Matrix: (Units=1/GPa)
#
#
# Indices 1 2 3 4 5 6 
#
# 1 0.011273 -0.000729 -0.002192 0.000000 -0.006818 0.000000
# 2 -0.000729 0.011641 -0.004757 0.000000 0.002379 0.000000
# 3 -0.002192 -0.004757 0.015492 0.000000 -0.009658 0.000000
# 4 0.000000 0.000000 0.000000 0.339877 0.000000 -0.355997
# 5 -0.006818 0.002379 -0.009658 0.000000 0.044340 0.000000
# 6 0.000000 0.000000 0.000000 -0.355997 0.000000 0.451135
#
#
# Mechanical properties :
#
#
# Convention : Reuss Voigt Hill
#
# Bulk Modulus (GPa) = 43.38068 54.03599 48.70833
# Shear Modulus (GPa) = 5.57539 26.81819 16.19679
#
# Velocity S-wave (km/s) = 1.74611 3.82956 2.97611
# Velocity P-wave (km/s) = 5.27143 7.00740 6.20047
#
# Compressibility (1/GPa) = 0.02305174
#
# Stress axis : x y z
#
# Youngs Moduli (GPa) = 88.70465 85.90075 64.54755
#
# Poissons Ratio (x) = 0.06259 0.14152
# Poissons Ratio (y) = 0.06463 0.30703
# Poissons Ratio (z) = 0.19448 0.40860
#
# Static dielectric constant tensor:
#      x y z
#    x 1.669610 0.000000 -0.045410 
#    y 0.000000 1.635600 0.000000 
#    z -0.045410 0.000000 1.667670 
# 
# From -- ./inp_files/65471.got.cif
#   From: 2010.05.17/outbox.cif.g08.bks.cpg/sg10_33_cif.got.tgz:65471.got - 2010.06.03 11:33:40.
