data_PCOD9145827
_publ_section_title
;
Structure prediction by ZEFSAII (Michael W. Deem and Ramdas Pophale) SiO2 
 PCOD9145827
Probable space group: P 2/M
;
_chemical_formula_sum "Si O2"
_cell_formula_units_Z 32
_cell_length_a 21.642196
_cell_length_b 12.448226
_cell_length_c 8.271411
_cell_angle_alpha 90.000000
_cell_angle_beta 49.154209
_cell_angle_gamma 90.000000
_cell_volume 1685.705067
_symmetry_space_group_name_H-M "P 2/M"
_symmetry_group_IT_number 10
_symmetry_cell_setting 'monoclinic'
loop_
_space_group_symop_operation_xyz
x,y,z
-x,y,-z
-x,-y,-z
x,-y,z
loop_
_atom_site_type_symbol
_atom_site_label
_atom_site_fract_x
_atom_site_fract_y
_atom_site_fract_z
Si Si1 0.199509 0.705163 0.939008
Si Si2 0.904510 0.876921 0.676791
Si Si3 0.277479 0.383001 0.115379
Si Si4 0.574555 0.307242 0.967447
Si Si5 0.320017 0.813590 0.477035
Si Si6 0.902658 0.620329 0.169400
Si Si7 0.186821 0.801229 0.470639
Si Si8 0.490110 0.877959 0.325840
O O1 0.266024 0.758795 0.707595
O O2 0.137605 0.635951 0.937287
O O3 0.146399 0.796156 0.122445
O O4 0.249976 0.634558 0.979577
O O5 0.865536 0.869859 0.564495
O O6 0.000000 0.846434 0.500000
O O7 0.899442 0.000000 0.744577
O O8 0.249110 0.500000 0.219637
O O9 0.372962 0.373204 0.994047
O O10 0.237037 0.283221 0.275769
O O11 0.634081 0.269582 0.720725
O O12 0.500000 0.361532 0.000000
O O13 0.538463 0.204222 0.126847
O O14 0.251319 0.863490 0.474632
O O15 0.395063 0.875002 0.432797
O O16 0.880728 0.500000 0.266835
O O17 0.868930 0.721152 0.328243
O O18 0.000000 0.626468 0.000000
O O19 0.500000 0.850474 0.500000
O O20 0.520884 0.000000 0.251965
#
# Coordination Sequence:
#
# PCOD9145827 Si02
#       8
#     4   4   4   4   4   4   4   4
#     4  10  20  35  54  78 108 138 175 221 265 313
#     4  10  21  37  55  75 104 144 184 221 265 314
#     4  10  19  33  54  77 103 136 173 214 261 313
#     4   9  19  35  53  75 104 137 171 210 256 309
#     4   9  19  34  52  74 104 135 168 211 261 309
#     4  10  19  32  53  80 108 138 172 215 270 324
#     4   9  19  35  53  76 104 136 174 220 264 312
#     4  10  20  34  54  78 104 134 168 211 261 309
#
# _framework density 18.983156000000001
#
# number of rings (size 3 to 8) (size 9 to 14) (size 15 to 20)
#    0.000    2.375    0.000    2.250    0.000    3.500 
#    0.000   10.000    0.000   20.625    0.000    0.000 
#    0.000    0.000    0.000    0.000    0.000    0.000 
#
# Total GULP energy -178176.504628 kJ/mol
# GULP energy per Si atom -5568.015770 kJ/mol
# Density = 1.893995 g / cm^3
# Si number density = 18.983156 Si / 1000 Ang^3
#
#
#
# Elastic Constant Matrix: (Units=GPa)
#
#
# Indices 1 2 3 4 5 6 
#
# 1 143.3104 15.0176 42.6783 0.0000 -5.6573 0.0000
# 2 15.0176 64.5107 27.1274 0.0000 -5.5614 0.0000
# 3 42.6783 27.1274 81.9314 0.0000 -5.0375 0.0000
# 4 0.0000 0.0000 0.0000 11.5578 0.0000 8.5395
# 5 -5.6573 -5.5614 -5.0375 0.0000 23.5508 0.0000
# 6 0.0000 0.0000 0.0000 8.5395 0.0000 -29.9681
#
#
#
# Elastic Compliance Matrix: (Units=1/GPa)
#
#
# Indices 1 2 3 4 5 6 
#
# 1 0.008286 -0.000057 -0.004232 0.000000 0.001072 0.000000
# 2 -0.000057 0.018223 -0.005817 0.000000 0.003045 0.000000
# 3 -0.004232 -0.005817 0.016404 0.000000 0.001119 0.000000
# 4 0.000000 0.000000 0.000000 0.071474 0.000000 0.020367
# 5 0.001072 0.003045 0.001119 0.000000 0.043677 0.000000
# 6 0.000000 0.000000 0.000000 0.020367 0.000000 -0.027565
#
#
# Mechanical properties :
#
#
# Convention : Reuss Voigt Hill
#
# Bulk Modulus (GPa) = 44.04709 51.04434 47.54572
# Shear Modulus (GPa) = 31.59005 14.69005 23.14005
#
# Velocity S-wave (km/s) = 4.08378 2.78483 3.49517
# Velocity P-wave (km/s) = 6.74462 6.10639 6.43343
#
# Compressibility (1/GPa) = 0.02270297
#
# Stress axis : x y z
#
# Youngs Moduli (GPa) = 120.68072 54.87540 60.95993
#
# Poissons Ratio (x) = 0.00314 0.25795
# Poissons Ratio (y) = 0.00690 0.35458
# Poissons Ratio (z) = 0.51066 0.31919
#
# Static dielectric constant tensor:
#      x y z
#    x 1.703420 0.000000 0.002260 
#    y 0.000000 1.631120 0.000000 
#    z 0.002260 0.000000 1.647120 
# 
# From -- ./inp_files/34804.got.cif
#   From: 2010.05.17/outbox.cif.g08.bks.cpg/sg10_18_cif.got.tgz:34804.got - 2010.06.03 11:33:40.
