data_PCOD9145161
_publ_section_title
;
Structure prediction by ZEFSAII (Michael W. Deem and Ramdas Pophale) SiO2 
 PCOD9145161
Probable space group: P 2/M
;
_chemical_formula_sum "Si O2"
_cell_formula_units_Z 32
_cell_length_a 36.794639
_cell_length_b 7.899260
_cell_length_c 5.347365
_cell_angle_alpha 90.000000
_cell_angle_beta 89.999976
_cell_angle_gamma 90.000000
_cell_volume 1554.213884
_symmetry_space_group_name_H-M "P 2/M"
_symmetry_group_IT_number 10
_symmetry_cell_setting 'monoclinic'
loop_
_space_group_symop_operation_xyz
x,y,z
-x,y,-z
-x,-y,-z
x,-y,z
loop_
_atom_site_type_symbol
_atom_site_label
_atom_site_fract_x
_atom_site_fract_y
_atom_site_fract_z
Si Si1 0.667002 0.707853 0.000072
Si Si2 0.916895 0.704216 0.000015
Si Si3 0.792785 0.796126 0.499951
Si Si4 0.415999 0.701017 0.999957
Si Si5 0.042036 0.292717 0.499985
Si Si6 0.541082 0.798690 0.500043
Si Si7 0.291648 0.704113 0.499926
Si Si8 0.832443 0.795981 0.999950
O O1 0.666908 0.500000 0.000072
O O2 0.625315 0.767582 0.000023
O O3 0.687960 0.763277 0.249648
O O4 0.687972 0.763279 0.750544
O O5 0.919007 0.500000 0.000016
O O6 0.937163 0.764021 0.250550
O O7 0.937166 0.764021 0.749490
O O8 0.874807 0.752697 0.999999
O O9 0.750377 0.753736 0.500010
O O10 0.812591 0.731951 0.749982
O O11 0.796093 0.000000 0.499944
O O12 0.812580 0.731951 0.249880
O O13 0.413067 0.500000 0.999960
O O14 0.437470 0.749934 0.750077
O O15 0.437477 0.749932 0.249810
O O16 0.042313 0.500000 0.499985
O O17 0.000000 0.240408 0.500000
O O18 0.500000 0.727255 0.500000
O O19 0.538324 0.000000 0.500046
O O20 0.293477 0.500000 0.499922
O O21 0.829304 0.000000 0.999945
#
# Coordination Sequence:
#
# PCOD9145161 Si02
#       8
#     4   4   4   4   4   4   4   4
#     4   9  19  35  55  81 111 140 173 221 277 321
#     4  10  19  31  51  76  98 125 166 208 241 290
#     4  10  21  36  52  73 101 134 171 209 253 305
#     4  11  22  39  64  89 115 152 199 242 279 340
#     4   9  17  30  49  74 102 129 158 199 251 297
#     4  11  24  41  59  84 122 159 190 237 299 347
#     4  10  19  34  56  79 105 138 173 213 267 321
#     4  10  21  36  52  70 100 137 166 203 257 305
#
# _framework density 20.589186999999999
#
# number of rings (size 3 to 8) (size 9 to 14) (size 15 to 20)
#    0.000    2.000    0.000    3.750    0.000    7.000 
#    0.000    3.750    0.000    2.250    0.000    0.000 
#    0.000    0.000    0.000    0.000    0.000    0.000 
#
# Total GULP energy -178859.058450 kJ/mol
# GULP energy per Si atom -5589.345577 kJ/mol
# Density = 2.054233 g / cm^3
# Si number density = 20.589187 Si / 1000 Ang^3
#
#
#
# Elastic Constant Matrix: (Units=GPa)
#
#
# Indices 1 2 3 4 5 6 
#
# 1 246.7353 3.1929 162.4811 0.0000 -0.0051 0.0000
# 2 3.1929 21.9911 15.5471 0.0000 0.0003 0.0000
# 3 162.4811 15.5471 268.2859 0.0000 -0.0048 0.0000
# 4 0.0000 0.0000 0.0000 8.8329 0.0000 0.0060
# 5 -0.0051 0.0003 -0.0048 0.0000 48.4738 0.0000
# 6 0.0000 0.0000 0.0000 0.0060 0.0000 43.6694
#
#
#
# Elastic Compliance Matrix: (Units=1/GPa)
#
#
# Indices 1 2 3 4 5 6 
#
# 1 0.006826 0.002014 -0.004251 0.000000 0.000000 0.000000
# 2 0.002014 0.048010 -0.004002 0.000000 0.000000 0.000000
# 3 -0.004251 -0.004002 0.006534 0.000000 0.000000 0.000000
# 4 0.000000 0.000000 0.000000 0.113213 0.000000 -0.000015
# 5 0.000000 0.000000 0.000000 0.000000 0.020630 0.000000
# 6 0.000000 0.000000 0.000000 -0.000015 0.000000 0.022899
#
#
# Mechanical properties :
#
#
# Convention : Reuss Voigt Hill
#
# Bulk Modulus (GPa) = 20.45311 99.93940 60.19626
# Shear Modulus (GPa) = 20.25223 43.91465 32.08344
#
# Velocity S-wave (km/s) = 3.13970 4.62334 3.95177
# Velocity P-wave (km/s) = 4.80615 8.78325 7.07971
#
# Compressibility (1/GPa) = 0.04889232
#
# Stress axis : x y z
#
# Youngs Moduli (GPa) = 146.49632 20.82907 153.05325
#
# Poissons Ratio (x) = -0.04195 0.65060
# Poissons Ratio (y) = -0.29506 0.61251
# Poissons Ratio (z) = 0.62273 0.08336
#
# Static dielectric constant tensor:
#      x y z
#    x 1.692590 0.000000 0.000000 
#    y 0.000000 1.739780 0.000000 
#    z 0.000000 0.000000 1.697360 
# 
# From -- ./inp_files/13648.got.cif
#   From: 2010.05.17/outbox.cif.g08.bks.cpg/sg10_7_cif.got.tgz:13648.got - 2010.06.03 11:33:40.
