data_PCOD9145144
_publ_section_title
;
Structure prediction by ZEFSAII (Michael W. Deem and Ramdas Pophale) SiO2 
 PCOD9145144
Probable space group: P 2/M
;
_chemical_formula_sum "Si O2"
_cell_formula_units_Z 24
_cell_length_a 21.314829
_cell_length_b 7.808627
_cell_length_c 9.850151
_cell_angle_alpha 90.000000
_cell_angle_beta 126.092053
_cell_angle_gamma 90.000000
_cell_volume 1324.796774
_symmetry_space_group_name_H-M "P 2/M"
_symmetry_group_IT_number 10
_symmetry_cell_setting 'monoclinic'
loop_
_space_group_symop_operation_xyz
x,y,z
-x,y,-z
-x,-y,-z
x,-y,z
loop_
_atom_site_type_symbol
_atom_site_label
_atom_site_fract_x
_atom_site_fract_y
_atom_site_fract_z
Si Si1 0.156236 0.799622 0.509555
Si Si2 0.886247 0.500000 0.952630
Si Si3 0.306034 0.802418 0.526001
Si Si4 0.053002 0.500000 0.279633
Si Si5 0.728982 0.290339 0.113982
Si Si6 0.585688 0.698579 0.112574
Si Si7 0.737590 0.694117 0.819586
O O1 0.224782 0.745671 0.490990
O O2 0.086421 0.668587 0.395907
O O3 0.197152 0.775332 0.707484
O O4 0.137227 0.000000 0.463519
O O5 0.960543 0.500000 0.144120
O O6 0.913868 0.500000 0.832549
O O7 0.829195 0.660529 0.908168
O O8 0.375954 0.707166 0.689621
O O9 0.299286 0.783888 0.356713
O O10 0.315458 0.000000 0.574991
O O11 0.732920 0.500000 0.121470
O O12 0.651804 0.231625 0.095763
O O13 0.727434 0.232781 0.956269
O O14 0.577308 0.500000 0.061498
O O15 0.500000 0.777286 0.000000
O O16 0.704412 0.500000 0.779131
#
# Coordination Sequence:
#
# PCOD9145144 Si02
#       7
#     4   2   4   2   4   4   4
#     4  10  19  32  53  79 102 138 181 217 256 309
#     4   9  20  31  55  79 100 136 170 214 268 309
#     4  10  19  31  51  75 101 135 174 212 255 309
#     4  11  18  35  55  79 106 135 174 220 268 306
#     4   9  17  31  54  76 101 136 174 214 259 308
#     4   9  18  32  52  77 101 129 170 217 258 303
#     4   9  17  33  51  75  98 134 174 209 253 313
#
# _framework density 18.115984999999998
#
# number of rings (size 3 to 8) (size 9 to 14) (size 15 to 20)
#    0.500    2.000    2.500    0.500    1.167    1.000 
#    0.000    5.000    0.000    6.000    0.000    0.000 
#    0.000    0.000    0.000    0.000    0.000    0.000 
#
# Total GULP energy -133644.625928 kJ/mol
# GULP energy per Si atom -5568.526080 kJ/mol
# Density = 1.807475 g / cm^3
# Si number density = 18.115985 Si / 1000 Ang^3
#
#
#
# Elastic Constant Matrix: (Units=GPa)
#
#
# Indices 1 2 3 4 5 6 
#
# 1 54.6068 5.5304 51.3464 0.0000 2.7917 0.0000
# 2 5.5304 44.4492 13.4659 0.0000 10.6940 0.0000
# 3 51.3464 13.4659 113.2480 0.0000 -7.5985 0.0000
# 4 0.0000 0.0000 0.0000 -30.0761 0.0000 -1.5548
# 5 2.7917 10.6940 -7.5985 0.0000 36.3710 0.0000
# 6 0.0000 0.0000 0.0000 -1.5548 0.0000 5.7000
#
#
#
# Elastic Compliance Matrix: (Units=1/GPa)
#
#
# Indices 1 2 3 4 5 6 
#
# 1 0.033256 0.002205 -0.015776 0.000000 -0.006497 0.000000
# 2 0.002205 0.025723 -0.004642 0.000000 -0.008702 0.000000
# 3 -0.015776 -0.004642 0.016945 0.000000 0.006116 0.000000
# 4 0.000000 0.000000 0.000000 -0.032787 0.000000 -0.008943
# 5 -0.006497 -0.008702 0.006116 0.000000 0.031830 0.000000
# 6 0.000000 0.000000 0.000000 -0.008943 0.000000 0.172999
#
#
# Mechanical properties :
#
#
# Convention : Reuss Voigt Hill
#
# Bulk Modulus (GPa) = 25.31817 39.22103 32.26960
# Shear Modulus (GPa) = 16.80334 11.86306 14.33320
#
# Velocity S-wave (km/s) = 3.04886 2.56176 2.81586
# Velocity P-wave (km/s) = 5.13809 5.51789 5.33137
#
# Compressibility (1/GPa) = 0.03949733
#
# Stress axis : x y z
#
# Youngs Moduli (GPa) = 30.06989 38.87518 59.01300
#
# Poissons Ratio (x) = -0.08571 0.93100
# Poissons Ratio (y) = -0.06630 0.27395
# Poissons Ratio (z) = 0.47439 0.18047
#
# Static dielectric constant tensor:
#      x y z
#    x 1.636540 0.000000 -0.005450 
#    y 0.000000 1.648280 0.000000 
#    z -0.005450 0.000000 1.610690 
# 
# From -- ./inp_files/31253.got.cif
#   From: 2010.05.17/outbox.cif.g08.bks.cpg/sg10_16_cif.got.tgz:31253.got - 2010.06.03 11:33:40.
