data_PCOD9145260
_publ_section_title
;
Structure prediction by ZEFSAII (Michael W. Deem and Ramdas Pophale) SiO2 
 PCOD9145260
Probable space group: P 2/M
;
_chemical_formula_sum "Si O2"
_cell_formula_units_Z 32
_cell_length_a 14.097153
_cell_length_b 13.987768
_cell_length_c 19.655216
_cell_angle_alpha 90.000000
_cell_angle_beta 26.320978
_cell_angle_gamma 90.000000
_cell_volume 1718.512724
_symmetry_space_group_name_H-M "P 2/M"
_symmetry_group_IT_number 10
_symmetry_cell_setting 'monoclinic'
loop_
_space_group_symop_operation_xyz
x,y,z
-x,y,-z
-x,-y,-z
x,-y,z
loop_
_atom_site_type_symbol
_atom_site_label
_atom_site_fract_x
_atom_site_fract_y
_atom_site_fract_z
Si Si1 0.469958 0.887364 0.441885
Si Si2 0.244141 0.803908 0.863422
Si Si3 0.347307 0.109283 0.164949
Si Si4 0.055437 0.392975 0.109235
Si Si5 0.312994 0.610379 0.762072
Si Si6 0.198132 0.393177 0.587628
Si Si7 0.014976 0.188872 0.691533
Si Si8 0.303433 0.793003 0.977083
O O1 0.500000 0.847975 0.500000
O O2 0.620076 0.845525 0.286395
O O3 0.230893 0.865969 0.570885
O O4 0.510834 0.000000 0.419063
O O5 0.304325 0.691182 0.824356
O O6 0.277779 0.839708 0.918850
O O7 0.000000 0.818183 0.000000
O O8 0.120379 0.145976 0.283468
O O9 0.335813 0.000000 0.197569
O O10 0.500000 0.108747 0.000000
O O11 0.466268 0.178637 0.141411
O O12 0.138196 0.500000 0.045689
O O13 0.239598 0.317668 0.007601
O O14 0.890146 0.367942 0.155247
O O15 0.896695 0.395078 0.275941
O O16 0.292527 0.500000 0.796604
O O17 0.545259 0.619453 0.577415
O O18 0.156055 0.500000 0.584585
O O19 0.083518 0.298852 0.631463
O O20 0.867846 0.178803 0.854123
#
# Coordination Sequence:
#
# PCOD9145260 Si02
#       8
#     4   4   4   4   4   4   4   4
#     4  11  25  41  59  83 112 151 196 239 289 348
#     4  12  23  37  56  85 122 155 184 232 292 350
#     4   9  19  37  61  86 108 142 196 249 295 341
#     4   9  17  30  51  83 120 154 193 231 275 336
#     4  10  19  31  52  81 118 158 193 227 274 339
#     4   9  17  29  52  86 116 148 189 235 280 332
#     4  10  19  38  65  84 112 150 196 241 279 344
#     4  10  21  35  57  87 117 150 186 238 298 337
#
# _framework density 18.620753000000001
#
# number of rings (size 3 to 8) (size 9 to 14) (size 15 to 20)
#    0.000    2.000    2.500    1.500    1.750    3.500 
#    0.000    1.250    0.000    5.250    0.000    1.750 
#    0.000    0.000    0.000    0.000    0.000    0.000 
#
# Total GULP energy -178301.404568 kJ/mol
# GULP energy per Si atom -5571.918893 kJ/mol
# Density = 1.857837 g / cm^3
# Si number density = 18.620753 Si / 1000 Ang^3
#
#
#
# Elastic Constant Matrix: (Units=GPa)
#
#
# Indices 1 2 3 4 5 6 
#
# 1 117.3119 43.9036 64.6872 0.0000 -10.5513 0.0000
# 2 43.9036 68.7156 45.7835 0.0000 -4.2841 0.0000
# 3 64.6872 45.7835 83.9279 0.0000 -17.1039 0.0000
# 4 0.0000 0.0000 0.0000 6.2623 0.0000 -5.9198
# 5 -10.5513 -4.2841 -17.1039 0.0000 16.1846 0.0000
# 6 0.0000 0.0000 0.0000 -5.9198 0.0000 18.4202
#
#
#
# Elastic Compliance Matrix: (Units=1/GPa)
#
#
# Indices 1 2 3 4 5 6 
#
# 1 0.015259 -0.002768 -0.010671 0.000000 -0.002062 0.000000
# 2 -0.002768 0.024463 -0.013076 0.000000 -0.009147 0.000000
# 3 -0.010671 -0.013076 0.032053 0.000000 0.023455 0.000000
# 4 0.000000 0.000000 0.000000 0.229368 0.000000 0.073713
# 5 -0.002062 -0.009147 0.023455 0.000000 0.082809 0.000000
# 6 0.000000 0.000000 0.000000 0.073713 0.000000 0.077978
#
#
# Mechanical properties :
#
#
# Convention : Reuss Voigt Hill
#
# Bulk Modulus (GPa) = 53.34684 64.30044 58.82364
# Shear Modulus (GPa) = 9.59314 15.87882 12.73598
#
# Velocity S-wave (km/s) = 2.27223 2.92335 2.61811
# Velocity P-wave (km/s) = 5.96619 6.78242 6.38735
#
# Compressibility (1/GPa) = 0.01874525
#
# Stress axis : x y z
#
# Youngs Moduli (GPa) = 65.53595 40.87842 31.19881
#
# Poissons Ratio (x) = 0.11314 0.33292
# Poissons Ratio (y) = 0.18139 0.40794
# Poissons Ratio (z) = 0.69934 0.53451
#
# Static dielectric constant tensor:
#      x y z
#    x 1.629900 0.000000 0.038160 
#    y 0.000000 1.695860 0.000000 
#    z 0.038160 0.000000 1.654150 
# 
# From -- ./inp_files/76996.got.cif
#   From: 2010.05.17/outbox.cif.g08.bks.cpg/sg10_39_cif.got.tgz:76996.got - 2010.06.03 11:33:40.
