data_PCOD9145136
_publ_section_title
;
Structure prediction by ZEFSAII (Michael W. Deem and Ramdas Pophale) SiO2 
 PCOD9145136
Probable space group: P 2/M
;
_chemical_formula_sum "Si O2"
_cell_formula_units_Z 32
_cell_length_a 20.661837
_cell_length_b 8.805709
_cell_length_c 25.778857
_cell_angle_alpha 90.000000
_cell_angle_beta 22.831556
_cell_angle_gamma 90.000000
_cell_volume 1819.929925
_symmetry_space_group_name_H-M "P 2/M"
_symmetry_group_IT_number 10
_symmetry_cell_setting 'monoclinic'
loop_
_space_group_symop_operation_xyz
x,y,z
-x,y,-z
-x,-y,-z
x,-y,z
loop_
_atom_site_type_symbol
_atom_site_label
_atom_site_fract_x
_atom_site_fract_y
_atom_site_fract_z
Si Si1 0.332503 0.175359 0.159221
Si Si2 0.349691 0.182661 0.881380
Si Si3 0.151621 0.182214 0.847895
Si Si4 0.021850 0.318943 0.838203
Si Si5 0.837546 0.817456 0.371211
Si Si6 0.533208 0.680773 0.100441
Si Si7 0.862266 0.319360 0.787520
Si Si8 0.471068 0.184467 0.678145
O O1 0.386469 0.255254 0.172534
O O2 0.194970 0.260166 0.226404
O O3 0.287605 0.000000 0.200734
O O4 0.500000 0.178850 0.000000
O O5 0.453889 0.240937 0.853455
O O6 0.427902 0.231221 0.768650
O O7 0.338732 0.000000 0.890551
O O8 0.164310 0.250438 0.022538
O O9 0.114537 0.266267 0.821866
O O10 0.322706 0.231250 0.749144
O O11 0.157396 0.000000 0.834105
O O12 0.000000 0.208938 0.000000
O O13 0.011757 0.500000 0.842367
O O14 0.113324 0.253646 0.720147
O O15 0.653256 0.767854 0.524914
O O16 0.975708 0.763215 0.310232
O O17 0.841176 0.000000 0.364638
O O18 0.518679 0.500000 0.116356
O O19 0.707743 0.712247 0.941073
O O20 0.886899 0.500000 0.768501
O O21 0.469156 0.000000 0.679590
#
# Coordination Sequence:
#
# PCOD9145136 Si02
#       8
#     4   4   4   4   4   4   4   4
#     4   9  17  29  48  77 110 147 191 229 272 329
#     4  11  20  36  60  84 110 146 191 236 280 331
#     4  10  19  38  64  85 109 144 187 234 283 334
#     4  12  24  37  55  85 117 147 186 230 281 336
#     4  11  22  38  59  82 112 150 191 232 277 333
#     4  10  19  31  50  81 117 146 181 232 283 330
#     4  10  19  32  51  78 115 150 183 228 282 333
#     4   9  21  39  60  86 110 141 189 238 281 332
#
# _framework density 17.583093999999999
#
# number of rings (size 3 to 8) (size 9 to 14) (size 15 to 20)
#    0.000    1.750    2.500    3.000    0.000    3.250 
#    0.000    6.250    0.000    0.750    0.000    5.250 
#    0.000    0.000    0.000    0.000    0.000    0.000 
#
# Total GULP energy -178701.459485 kJ/mol
# GULP energy per Si atom -5584.420609 kJ/mol
# Density = 1.754307 g / cm^3
# Si number density = 17.583094 Si / 1000 Ang^3
#
#
#
# Elastic Constant Matrix: (Units=GPa)
#
#
# Indices 1 2 3 4 5 6 
#
# 1 183.9405 61.3585 75.7644 0.0000 -7.1239 0.0000
# 2 61.3585 73.2786 45.7149 0.0000 -1.6813 0.0000
# 3 75.7644 45.7149 103.2367 0.0000 4.5617 0.0000
# 4 0.0000 0.0000 0.0000 -1.1013 0.0000 2.3291
# 5 -7.1239 -1.6813 4.5617 0.0000 20.9748 0.0000
# 6 0.0000 0.0000 0.0000 2.3291 0.0000 -14.3123
#
#
#
# Elastic Compliance Matrix: (Units=1/GPa)
#
#
# Indices 1 2 3 4 5 6 
#
# 1 0.009074 -0.004494 -0.004836 0.000000 0.003773 0.000000
# 2 -0.004494 0.021319 -0.006210 0.000000 0.001533 0.000000
# 3 -0.004836 -0.006210 0.016236 0.000000 -0.005671 0.000000
# 4 0.000000 0.000000 0.000000 -1.384429 0.000000 -0.225294
# 5 0.003773 0.001533 -0.005671 0.000000 0.050314 0.000000
# 6 0.000000 0.000000 0.000000 -0.225294 0.000000 -0.106533
#
#
# Mechanical properties :
#
#
# Convention : Reuss Voigt Hill
#
# Bulk Modulus (GPa) = 64.31357 80.68124 72.49741
# Shear Modulus (GPa) = -3.68254 12.95342 4.63544
#
# Velocity S-wave (km/s) = -1.44876 2.71716 1.62543
# Velocity P-wave (km/s) = 5.81874 7.47190 6.69653
#
# Compressibility (1/GPa) = 0.01554882
#
# Stress axis : x y z
#
# Youngs Moduli (GPa) = 110.20882 46.90657 61.59284
#
# Poissons Ratio (x) = 0.21082 0.29784
# Poissons Ratio (y) = 0.49532 0.38247
# Poissons Ratio (z) = 0.53293 0.29128
#
# Static dielectric constant tensor:
#      x y z
#    x 1.588140 0.000000 -0.004090 
#    y 0.000000 1.585710 0.000000 
#    z -0.004090 0.000000 1.577660 
# 
# From -- ./inp_files/93590.got.cif
#   From: 2010.05.17/outbox.cif.g08.bks.cpg/sg10_47_cif.got.tgz:93590.got - 2010.06.03 11:33:40.
