data_PCOD9145817
_publ_section_title
;
Structure prediction by ZEFSAII (Michael W. Deem and Ramdas Pophale) SiO2 
 PCOD9145817
Probable space group: P 2/M
;
_chemical_formula_sum "Si O2"
_cell_formula_units_Z 20
_cell_length_a 12.947066
_cell_length_b 8.901364
_cell_length_c 30.042237
_cell_angle_alpha 90.000000
_cell_angle_beta 160.494404
_cell_angle_gamma 90.000000
_cell_volume 1156.046253
_symmetry_space_group_name_H-M "P 2/M"
_symmetry_group_IT_number 10
_symmetry_cell_setting 'monoclinic'
loop_
_space_group_symop_operation_xyz
x,y,z
-x,y,-z
-x,-y,-z
x,-y,z
loop_
_atom_site_type_symbol
_atom_site_label
_atom_site_fract_x
_atom_site_fract_y
_atom_site_fract_z
Si Si1 0.629847 0.178697 0.351107
Si Si2 0.635346 0.321634 0.846396
Si Si3 0.165144 0.672643 0.339348
Si Si4 0.124326 0.821558 0.697242
Si Si5 0.463396 0.680920 0.592799
O O1 0.482289 0.249425 0.247259
O O2 0.503664 0.256073 0.344461
O O3 0.000000 0.203788 0.500000
O O4 0.577220 0.000000 0.330981
O O5 0.574806 0.500000 0.821306
O O6 0.439401 0.246812 0.806327
O O7 0.000000 0.297081 0.000000
O O8 0.500000 0.673576 0.500000
O O9 0.054975 0.500000 0.294998
O O10 0.251887 0.719548 0.324541
O O11 0.946246 0.773743 0.280705
O O12 0.846506 0.751603 0.554610
O O13 0.120417 0.000000 0.690684
O O14 0.433017 0.500000 0.580284
#
# Coordination Sequence:
#
# PCOD9145817 Si02
#       5
#     4   4   4   4   4
#     4  11  22  35  55  84 113 143 178 223 279 327
#     4  11  24  40  58  79 106 146 189 225 268 324
#     4   8  16  30  48  74 106 141 179 219 266 317
#     4  11  20  31  51  79 110 143 178 222 275 322
#     4  10  19  32  53  79 109 144 181 223 267 316
#
# _framework density 17.300346000000001
#
# number of rings (size 3 to 8) (size 9 to 14) (size 15 to 20)
#    0.000    1.800    2.000    4.800    0.000    6.800 
#    0.000    0.000    0.000    1.200    0.000    8.400 
#    0.000    0.000    0.000    0.000    0.000    0.000 
#
# Total GULP energy -111640.548279 kJ/mol
# GULP energy per Si atom -5582.027414 kJ/mol
# Density = 1.726097 g / cm^3
# Si number density = 17.300346 Si / 1000 Ang^3
#
#
#
# Elastic Constant Matrix: (Units=GPa)
#
#
# Indices 1 2 3 4 5 6 
#
# 1 159.3962 83.7588 49.4936 0.0000 26.0177 0.0000
# 2 83.7588 120.0999 63.1949 0.0000 14.4196 0.0000
# 3 49.4936 63.1949 58.1427 0.0000 10.9746 0.0000
# 4 0.0000 0.0000 0.0000 -1.8566 0.0000 -10.5129
# 5 26.0177 14.4196 10.9746 0.0000 21.0602 0.0000
# 6 0.0000 0.0000 0.0000 -10.5129 0.0000 11.3641
#
#
#
# Elastic Compliance Matrix: (Units=1/GPa)
#
#
# Indices 1 2 3 4 5 6 
#
# 1 0.011426 -0.006213 -0.001234 0.000000 -0.009219 0.000000
# 2 -0.006213 0.022952 -0.020120 0.000000 0.002444 0.000000
# 3 -0.001234 -0.020120 0.041291 0.000000 -0.006217 0.000000
# 4 0.000000 0.000000 0.000000 -0.086341 0.000000 -0.079873
# 5 -0.009219 0.002444 -0.006217 0.000000 0.060438 0.000000
# 6 0.000000 0.000000 0.000000 -0.079873 0.000000 0.014106
#
#
# Mechanical properties :
#
#
# Convention : Reuss Voigt Hill
#
# Bulk Modulus (GPa) = 48.69261 81.17037 64.93149
# Shear Modulus (GPa) = 39.72956 15.52630 27.62793
#
# Velocity S-wave (km/s) = 4.79734 2.99901 4.00053
# Velocity P-wave (km/s) = 7.67414 7.68194 7.67805
#
# Compressibility (1/GPa) = 0.02053700
#
# Stress axis : x y z
#
# Youngs Moduli (GPa) = 87.51813 43.56853 24.21844
#
# Poissons Ratio (x) = 0.27067 0.02988
# Poissons Ratio (y) = 0.54371 0.48727
# Poissons Ratio (z) = 0.10799 0.87659
#
# Static dielectric constant tensor:
#      x y z
#    x 1.610180 0.000000 0.013470 
#    y 0.000000 1.573940 0.000000 
#    z 0.013470 0.000000 1.557070 
# 
# From -- ./inp_files/22178.got.cif
#   From: 2010.05.17/outbox.cif.g08.bks.cpg/sg10_12_cif.got.tgz:22178.got - 2010.06.03 11:33:40.
