data_PCOD9145025
_publ_section_title
;
Structure prediction by ZEFSAII (Michael W. Deem and Ramdas Pophale) SiO2 
 PCOD9145025
Probable space group: P 2/M
;
_chemical_formula_sum "Si O2"
_cell_formula_units_Z 24
_cell_length_a 14.228310
_cell_length_b 22.839419
_cell_length_c 12.030746
_cell_angle_alpha 90.000000
_cell_angle_beta 20.318960
_cell_angle_gamma 90.000000
_cell_volume 1357.588568
_symmetry_space_group_name_H-M "P 2/M"
_symmetry_group_IT_number 10
_symmetry_cell_setting 'monoclinic'
loop_
_space_group_symop_operation_xyz
x,y,z
-x,y,-z
-x,-y,-z
x,-y,z
loop_
_atom_site_type_symbol
_atom_site_label
_atom_site_fract_x
_atom_site_fract_y
_atom_site_fract_z
Si Si1 0.296422 0.376365 0.623982
Si Si2 0.982285 0.500000 0.383016
Si Si3 0.699674 0.808800 0.883942
Si Si4 0.300192 0.937192 0.116304
Si Si5 0.458036 0.309831 0.833209
Si Si6 0.500362 0.500000 0.638366
Si Si7 0.906476 0.368954 0.475598
O O1 0.500000 0.371904 0.500000
O O2 0.348481 0.322746 0.484473
O O3 0.351398 0.438721 0.503090
O O4 0.000000 0.377672 0.000000
O O5 0.847922 0.436832 0.514728
O O6 0.000000 0.500000 0.500000
O O7 0.237222 0.500000 0.012549
O O8 0.670022 0.873393 0.971512
O O9 0.000000 0.801883 0.500000
O O10 0.500000 0.806165 0.000000
O O11 0.630830 0.755687 0.041350
O O12 0.000000 0.937445 0.500000
O O13 0.340245 0.000000 0.011929
O O14 0.500000 0.937108 0.000000
O O15 0.643573 0.333313 0.729431
O O16 0.184426 0.346680 0.110705
O O17 0.500000 0.500000 0.500000
O O18 0.000000 0.362050 0.500000
#
# Coordination Sequence:
#
# PCOD9145025 Si02
#       7
#     4   2   4   4   4   2   4
#     4  11  24  40  57  78  97 127 173 228 275 323
#     4  10  22  40  57  83 110 136 174 225 279 333
#     4  10  19  31  49  76 105 138 174 201 244 310
#     4   8  14  25  42  66 100 137 169 202 236 280
#     4  12  22  36  56  73 105 133 174 212 267 312
#     4  10  21  40  62  79 100 134 180 229 273 335
#     4  11  23  37  54  76 105 137 168 207 265 325
#
# _framework density 17.678404
#
# number of rings (size 3 to 8) (size 9 to 14) (size 15 to 20)
#    0.000    1.667    1.667    4.250    2.333    1.333 
#    0.000    2.500    0.000    0.000    0.000    0.000 
#    0.000    1.333    0.000    0.000    0.000    1.667 
#
# Total GULP energy -133695.977961 kJ/mol
# GULP energy per Si atom -5570.665748 kJ/mol
# Density = 1.763817 g / cm^3
# Si number density = 17.678404 Si / 1000 Ang^3
#
#
#
# Elastic Constant Matrix: (Units=GPa)
#
#
# Indices 1 2 3 4 5 6 
#
# 1 77.8245 18.9790 27.8754 0.0000 -6.8237 0.0000
# 2 18.9790 178.5213 29.6751 0.0000 5.1922 0.0000
# 3 27.8754 29.6751 84.8960 0.0000 -6.9246 0.0000
# 4 0.0000 0.0000 0.0000 12.0738 0.0000 122.1433
# 5 -6.8237 5.1922 -6.9246 0.0000 37.0897 0.0000
# 6 0.0000 0.0000 0.0000 122.1433 0.0000-1177.8496
#
#
#
# Elastic Compliance Matrix: (Units=1/GPa)
#
#
# Indices 1 2 3 4 5 6 
#
# 1 0.014819 -0.000906 -0.004383 0.000000 0.002035 0.000000
# 2 -0.000906 0.006059 -0.001933 0.000000 -0.001376 0.000000
# 3 -0.004383 -0.001933 0.014064 0.000000 0.002090 0.000000
# 4 0.000000 0.000000 0.000000 0.040420 0.000000 0.004192
# 5 0.002035 -0.001376 0.002090 0.000000 0.027919 0.000000
# 6 0.000000 0.000000 0.000000 0.004192 0.000000 -0.000414
#
#
# Mechanical properties :
#
#
# Convention : Reuss Voigt Hill
#
# Bulk Modulus (GPa) = 48.78351 54.92233 51.85292
# Shear Modulus (GPa) = 40.27606 -208.08973 -83.90684
#
# Velocity S-wave (km/s) = 4.77829 -10.86112 -6.89681
# Velocity P-wave (km/s) = 7.62218 11.23167 5.83321
#
# Compressibility (1/GPa) = 0.02049873
#
# Stress axis : x y z
#
# Youngs Moduli (GPa) = 67.48224 165.03904 71.10198
#
# Poissons Ratio (x) = 0.14953 0.31164
# Poissons Ratio (y) = 0.06114 0.13742
# Poissons Ratio (z) = 0.29578 0.31897
#
# Static dielectric constant tensor:
#      x y z
#    x 1.676200 0.000000 -0.010340 
#    y 0.000000 1.663120 0.000000 
#    z -0.010340 0.000000 1.665470 
# 
# From -- ./inp_files/52101.got.cif
#   From: 2010.05.17/outbox.cif.g08.bks.cpg/sg10_27_cif.got.tgz:52101.got - 2010.06.03 11:33:40.
