data_PCOD9145653
_publ_section_title
;
Structure prediction by ZEFSAII (Michael W. Deem and Ramdas Pophale) SiO2 
 PCOD9145653
Probable space group: P 2/M
;
_chemical_formula_sum "Si O2"
_cell_formula_units_Z 24
_cell_length_a 19.363169
_cell_length_b 14.216345
_cell_length_c 8.073432
_cell_angle_alpha 90.000000
_cell_angle_beta 147.439816
_cell_angle_gamma 90.000000
_cell_volume 1196.063802
_symmetry_space_group_name_H-M "P 2/M"
_symmetry_group_IT_number 10
_symmetry_cell_setting 'monoclinic'
loop_
_space_group_symop_operation_xyz
x,y,z
-x,y,-z
-x,-y,-z
x,-y,z
loop_
_atom_site_type_symbol
_atom_site_label
_atom_site_fract_x
_atom_site_fract_y
_atom_site_fract_z
Si Si1 0.872613 0.304519 0.906724
Si Si2 0.155342 0.725330 0.797612
Si Si3 0.544101 0.890671 0.280546
Si Si4 0.820532 0.109478 0.720316
Si Si5 0.846606 0.610248 0.522797
Si Si6 0.277866 0.110604 0.859431
O O1 0.911647 0.194673 0.959381
O O2 0.799539 0.337816 0.594294
O O3 0.800511 0.310744 0.934433
O O4 0.000106 0.368064 0.172671
O O5 0.200387 0.658001 0.740317
O O6 0.201203 0.827914 0.835258
O O7 0.000000 0.725498 0.500000
O O8 0.692645 0.865337 0.568121
O O9 0.546058 0.000000 0.332056
O O10 0.500000 0.885455 0.000000
O O11 0.424869 0.851208 0.143192
O O12 0.783412 0.116471 0.450243
O O13 0.858083 0.000000 0.826157
O O14 0.823334 0.500000 0.483264
O O15 0.278353 0.000000 0.902970
#
# Coordination Sequence:
#
# PCOD9145653 Si02
#       6
#     4   4   4   4   4   4
#     4  10  19  32  52  76 101 127 165 204 250 300
#     4  10  21  33  50  75 104 132 168 205 247 304
#     4   7  12  24  46  72  96 133 177 207 235 278
#     4   9  16  29  50  75 105 137 171 206 241 287
#     4  10  21  38  55  72  96 127 168 214 260 301
#     4   9  16  30  49  71 106 144 172 202 240 284
#
# _framework density 20.065821
#
# number of rings (size 3 to 8) (size 9 to 14) (size 15 to 20)
#    0.000    2.833    1.667    3.000    0.000    4.667 
#    0.000    5.000    0.000    3.000    0.000    3.500 
#    0.000   13.333    0.000    0.000    0.000    0.000 
#
# Total GULP energy -133640.890807 kJ/mol
# GULP energy per Si atom -5568.370450 kJ/mol
# Density = 2.002015 g / cm^3
# Si number density = 20.065821 Si / 1000 Ang^3
#
#
#
# Elastic Constant Matrix: (Units=GPa)
#
#
# Indices 1 2 3 4 5 6 
#
# 1 110.0129 42.3552 32.4111 0.0000 -35.0848 0.0000
# 2 42.3552 111.9093 16.9326 0.0000 -22.1165 0.0000
# 3 32.4111 16.9326 22.3961 0.0000 -15.3964 0.0000
# 4 0.0000 0.0000 0.0000 3.8117 0.0000 -16.5449
# 5 -35.0848 -22.1165 -15.3964 0.0000 40.3593 0.0000
# 6 0.0000 0.0000 0.0000 -16.5449 0.0000 106.5779
#
#
#
# Elastic Compliance Matrix: (Units=1/GPa)
#
#
# Indices 1 2 3 4 5 6 
#
# 1 0.017942 -0.002509 -0.019371 0.000000 0.006832 0.000000
# 2 -0.002509 0.010831 -0.002679 0.000000 0.002732 0.000000
# 3 -0.019371 -0.002679 0.084207 0.000000 0.013816 0.000000
# 4 0.000000 0.000000 0.000000 0.804343 0.000000 0.124865
# 5 0.006832 0.002732 0.013816 0.000000 0.037484 0.000000
# 6 0.000000 0.000000 0.000000 0.124865 0.000000 0.028767
#
#
# Mechanical properties :
#
#
# Convention : Reuss Voigt Hill
#
# Bulk Modulus (GPa) = 15.65898 47.52401 31.59149
# Shear Modulus (GPa) = 4.74393 40.32440 22.53416
#
# Velocity S-wave (km/s) = 1.53926 4.48773 3.35477
# Velocity P-wave (km/s) = 3.31358 7.11255 5.54834
#
# Compressibility (1/GPa) = 0.06386113
#
# Stress axis : x y z
#
# Youngs Moduli (GPa) = 55.73615 92.32939 11.87548
#
# Poissons Ratio (x) = 0.23169 0.23004
# Poissons Ratio (y) = 0.13986 0.03182
# Poissons Ratio (z) = 1.07965 0.24736
#
# Static dielectric constant tensor:
#      x y z
#    x 1.777650 0.000000 -0.007970 
#    y 0.000000 1.686250 0.000000 
#    z -0.007970 0.000000 1.815220 
# 
# From -- ./inp_files/27764.got.cif
#   From: 2010.05.17/outbox.cif.g08.bks.cpg/sg10_14_cif.got.tgz:27764.got - 2010.06.03 11:33:40.
