data_PCOD9145108
_publ_section_title
;
Structure prediction by ZEFSAII (Michael W. Deem and Ramdas Pophale) SiO2 
 PCOD9145108
Probable space group: P 2/M
;
_chemical_formula_sum "Si O2"
_cell_formula_units_Z 26
_cell_length_a 5.333368
_cell_length_b 7.917012
_cell_length_c 32.082022
_cell_angle_alpha 90.000000
_cell_angle_beta 59.674957
_cell_angle_gamma 90.000000
_cell_volume 1169.293172
_symmetry_space_group_name_H-M "P 2/M"
_symmetry_group_IT_number 10
_symmetry_cell_setting 'monoclinic'
loop_
_space_group_symop_operation_xyz
x,y,z
-x,y,-z
-x,-y,-z
x,-y,z
loop_
_atom_site_type_symbol
_atom_site_label
_atom_site_fract_x
_atom_site_fract_y
_atom_site_fract_z
Si Si1 0.209046 0.793233 0.695520
Si Si2 0.180114 0.793165 0.193363
Si Si3 0.209644 0.815590 0.442544
Si Si4 0.830981 0.703636 0.973357
Si Si5 0.356838 0.500000 0.467317
Si Si6 0.878700 0.203806 0.641226
Si Si7 0.153949 0.796295 0.861310
O O1 0.542746 0.739353 0.672810
O O2 0.008976 0.740611 0.750959
O O3 0.068012 0.733919 0.663912
O O4 0.212001 0.000000 0.695326
O O5 0.513220 0.736335 0.167967
O O6 0.028394 0.736811 0.163347
O O7 0.182230 0.000000 0.193142
O O8 0.426958 0.668827 0.436581
O O9 0.046491 0.765368 0.413787
O O10 0.000000 0.832265 0.500000
O O11 0.348433 0.000000 0.424208
O O12 0.819673 0.500000 0.977133
O O13 0.999795 0.748023 0.917153
O O14 0.500000 0.766954 0.000000
O O15 0.000000 0.767049 0.000000
O O16 0.500000 0.500000 0.500000
O O17 0.000000 0.500000 0.500000
O O18 0.881963 0.000000 0.644856
O O19 0.161768 0.000000 0.858487
#
# Coordination Sequence:
#
# PCOD9145108 Si02
#       7
#     4   4   4   4   2   4   4
#     4   9  16  28  46  72 103 132 169 213 255 312
#     4   9  17  29  47  74 105 131 164 213 258 302
#     4   9  19  36  57  83 114 146 186 235 278 332
#     4  10  21  36  52  72 100 135 172 206 247 299
#     4  10  22  38  56  80 108 144 184 220 276 332
#     4   9  17  28  46  73 101 134 173 209 259 313
#     4  10  19  31  50  77 102 130 168 208 258 304
#
# _framework density 22.235657
#
# number of rings (size 3 to 8) (size 9 to 14) (size 15 to 20)
#    0.000    2.615    0.000    1.846    0.000    7.077 
#    0.000    4.615    0.000    0.000   12.000    0.000 
#    0.000    0.000    0.000    0.000    0.000    0.000 
#
# Total GULP energy -145213.765106 kJ/mol
# GULP energy per Si atom -5585.144812 kJ/mol
# Density = 2.218505 g / cm^3
# Si number density = 22.235657 Si / 1000 Ang^3
#
#
#
# Elastic Constant Matrix: (Units=GPa)
#
#
# Indices 1 2 3 4 5 6 
#
# 1 165.9941 13.8671 70.4389 0.0000 11.3036 0.0000
# 2 13.8671 52.0502 -4.0361 0.0000 13.6939 0.0000
# 3 70.4389 -4.0361 169.1823 0.0000 3.7913 0.0000
# 4 0.0000 0.0000 0.0000 -302.1807 0.0000 -137.7159
# 5 11.3036 13.6939 3.7913 0.0000 46.4281 0.0000
# 6 0.0000 0.0000 0.0000 -137.7159 0.0000 -69.9411
#
#
#
# Elastic Compliance Matrix: (Units=1/GPa)
#
#
# Indices 1 2 3 4 5 6 
#
# 1 0.007617 -0.002014 -0.003197 0.000000 -0.000999 0.000000
# 2 -0.002014 0.021430 0.001483 0.000000 -0.005951 0.000000
# 3 -0.003197 0.001483 0.007283 0.000000 -0.000254 0.000000
# 4 0.000000 0.000000 0.000000 -0.032243 0.000000 0.063487
# 5 -0.000999 -0.005951 -0.000254 0.000000 0.023558 0.000000
# 6 0.000000 0.000000 0.000000 0.063487 0.000000 -0.139306
#
#
# Mechanical properties :
#
#
# Convention : Reuss Voigt Hill
#
# Bulk Modulus (GPa) = 34.63379 60.86291 47.74835
# Shear Modulus (GPa) = -52.86539 -44.67496 -48.77017
#
# Velocity S-wave (km/s) = -4.88126 -4.48723 -4.68838
# Velocity P-wave (km/s) = 4.01986 0.76436 2.79061
#
# Compressibility (1/GPa) = 0.02887353
#
# Stress axis : x y z
#
# Youngs Moduli (GPa) = 131.27958 46.66427 137.30644
#
# Poissons Ratio (x) = 0.09400 0.43899
# Poissons Ratio (y) = 0.26445 -0.20367
# Poissons Ratio (z) = 0.41972 -0.06922
#
# Static dielectric constant tensor:
#      x y z
#    x 1.839940 0.000000 -0.048330 
#    y 0.000000 4.285440 0.000000 
#    z -0.048330 0.000000 1.823500 
# 
# From -- ./inp_files/94271.got.cif
#   From: 2010.05.17/outbox.cif.g08.bks.cpg/sg10_48_cif.got.tgz:94271.got - 2010.06.03 11:33:40.
