data_PCOD9145884
_publ_section_title
;
Structure prediction by ZEFSAII (Michael W. Deem and Ramdas Pophale) SiO2 
 PCOD9145884
Probable space group: P 2/M
;
_chemical_formula_sum "Si O2"
_cell_formula_units_Z 24
_cell_length_a 8.444148
_cell_length_b 10.783661
_cell_length_c 23.974447
_cell_angle_alpha 90.000000
_cell_angle_beta 149.635796
_cell_angle_gamma 90.000000
_cell_volume 1103.538163
_symmetry_space_group_name_H-M "P 2/M"
_symmetry_group_IT_number 10
_symmetry_cell_setting 'monoclinic'
loop_
_space_group_symop_operation_xyz
x,y,z
-x,y,-z
-x,-y,-z
x,-y,z
loop_
_atom_site_type_symbol
_atom_site_label
_atom_site_fract_x
_atom_site_fract_y
_atom_site_fract_z
Si Si1 0.309451 0.639625 0.720254
Si Si2 0.349344 0.642523 0.606693
Si Si3 0.576731 0.642513 0.920987
Si Si4 0.874943 0.135157 0.616985
Si Si5 0.938697 0.227945 0.754112
Si Si6 0.826852 0.135683 0.064816
O O1 0.173109 0.500000 0.684921
O O2 0.458610 0.644084 0.704438
O O3 0.539791 0.654588 0.842938
O O4 0.051416 0.747162 0.645050
O O5 0.321619 0.500000 0.580260
O O6 0.605848 0.706768 0.647209
O O7 0.000000 0.696946 0.500000
O O8 0.663012 0.500000 0.960581
O O9 0.226854 0.674301 0.838549
O O10 0.794162 0.748794 0.013320
O O11 0.500000 0.145946 0.500000
O O12 0.978371 0.139836 0.713336
O O13 0.962611 0.000000 0.619724
O O14 0.936806 0.160234 0.812826
O O15 0.875985 0.000000 0.053556
O O16 0.500000 0.131481 0.000000
#
# Coordination Sequence:
#
# PCOD9145884 Si02
#       6
#     4   4   4   4   4   4
#     4   9  19  35  53  76 107 140 175 217 265 316
#     4  10  20  34  53  79 111 145 180 219 265 316
#     4   9  18  32  53  80 105 132 172 219 265 314
#     4  10  20  34  53  77 104 137 179 223 266 314
#     4  10  19  32  54  78 107 139 176 219 265 312
#     4   9  18  32  52  77 104 134 170 216 267 315
#
# _framework density 21.748228999999998
#
# number of rings (size 3 to 8) (size 9 to 14) (size 15 to 20)
#    0.000    2.500    0.000    2.000    0.000    8.667 
#    0.000    2.500    0.000    8.500    0.000    0.000 
#    0.000    0.000    0.000    0.000    0.000    0.000 
#
# Total GULP energy -133880.313809 kJ/mol
# GULP energy per Si atom -5578.346409 kJ/mol
# Density = 2.169873 g / cm^3
# Si number density = 21.748229 Si / 1000 Ang^3
#
#
#
# Elastic Constant Matrix: (Units=GPa)
#
#
# Indices 1 2 3 4 5 6 
#
# 1 36.1364 26.5099 2.6327 0.0000 -5.4249 0.0000
# 2 26.5099 149.6693 28.6005 0.0000 -6.4292 0.0000
# 3 2.6327 28.6005 49.5526 0.0000 -15.3539 0.0000
# 4 0.0000 0.0000 0.0000 14.0040 0.0000 -0.9946
# 5 -5.4249 -6.4292 -15.3539 0.0000 35.1844 0.0000
# 6 0.0000 0.0000 0.0000 -0.9946 0.0000 5.0080
#
#
#
# Elastic Compliance Matrix: (Units=1/GPa)
#
#
# Indices 1 2 3 4 5 6 
#
# 1 0.032828 -0.006261 0.003565 0.000000 0.005473 0.000000
# 2 -0.006261 0.008715 -0.005207 0.000000 -0.001645 0.000000
# 3 0.003565 -0.005207 0.026448 0.000000 0.011140 0.000000
# 4 0.000000 0.000000 0.000000 0.072430 0.000000 0.014385
# 5 0.005473 -0.001645 0.011140 0.000000 0.033826 0.000000
# 6 0.000000 0.000000 0.000000 0.014385 0.000000 0.202537
#
#
# Mechanical properties :
#
#
# Convention : Reuss Voigt Hill
#
# Bulk Modulus (GPa) = 19.16232 38.98274 29.07253
# Shear Modulus (GPa) = 12.19560 22.68030 17.43795
#
# Velocity S-wave (km/s) = 2.37061 3.23283 2.83470
# Velocity P-wave (km/s) = 4.04020 5.64787 4.91028
#
# Compressibility (1/GPa) = 0.05218575
#
# Stress axis : x y z
#
# Youngs Moduli (GPa) = 30.46201 114.74913 37.80979
#
# Poissons Ratio (x) = 0.71841 -0.13480
# Poissons Ratio (y) = 0.19071 0.19688
# Poissons Ratio (z) = -0.10861 0.59750
#
# Static dielectric constant tensor:
#      x y z
#    x 1.764830 0.000000 -0.019210 
#    y 0.000000 1.799780 0.000000 
#    z -0.019210 0.000000 1.847630 
# 
# From -- ./inp_files/53716.got.cif
#   From: 2010.05.17/outbox.cif.g08.bks.cpg/sg10_27_cif.got.tgz:53716.got - 2010.06.03 11:33:40.
