data_PCOD9145496
_publ_section_title
;
Structure prediction by ZEFSAII (Michael W. Deem and Ramdas Pophale) SiO2 
 PCOD9145496
Probable space group: P 2/M
;
_chemical_formula_sum "Si O2"
_cell_formula_units_Z 28
_cell_length_a 14.353450
_cell_length_b 9.531917
_cell_length_c 18.142925
_cell_angle_alpha 90.000000
_cell_angle_beta 140.946517
_cell_angle_gamma 90.000000
_cell_volume 1563.924577
_symmetry_space_group_name_H-M "P 2/M"
_symmetry_group_IT_number 10
_symmetry_cell_setting 'monoclinic'
loop_
_space_group_symop_operation_xyz
x,y,z
-x,y,-z
-x,-y,-z
x,-y,z
loop_
_atom_site_type_symbol
_atom_site_label
_atom_site_fract_x
_atom_site_fract_y
_atom_site_fract_z
Si Si1 0.843506 0.252092 0.932075
Si Si2 0.906801 0.844985 0.133710
Si Si3 0.528213 0.659760 0.794882
Si Si4 0.430186 0.838445 0.036332
Si Si5 0.632370 0.837154 0.427281
Si Si6 0.175847 0.666519 0.346147
Si Si7 0.319520 0.154122 0.311747
O O1 0.698385 0.338548 0.868707
O O2 0.778314 0.165651 0.822865
O O3 0.883148 0.168219 0.030942
O O4 0.000000 0.317013 0.000000
O O5 0.013733 0.723520 0.226866
O O6 0.968618 0.000000 0.187485
O O7 0.747638 0.833840 0.073857
O O8 0.476717 0.500000 0.763066
O O9 0.525314 0.729537 0.873374
O O10 0.429496 0.757752 0.682111
O O11 0.469896 0.000000 0.081520
O O12 0.500000 0.808688 0.000000
O O13 0.760817 0.748498 0.544488
O O14 0.490174 0.836003 0.394333
O O15 0.670245 0.000000 0.436936
O O16 0.182798 0.500000 0.358268
O O17 0.272619 0.721822 0.336574
O O18 0.294491 0.000000 0.330298
#
# Coordination Sequence:
#
# PCOD9145496 Si02
#       7
#     4   4   4   4   4   4   4
#     4  10  19  32  50  77 107 148 183 224 259 316
#     4  10  20  35  55  80 108 143 184 224 268 321
#     4  10  21  35  54  83 114 142 177 220 272 325
#     4   9  19  38  63  88 112 140 177 220 266 322
#     4  10  21  38  56  73  99 142 192 231 265 313
#     4  12  24  34  48  73 108 145 181 228 276 319
#     4  10  20  34  52  73  98 140 193 235 268 312
#
# _framework density 17.903676999999998
#
# number of rings (size 3 to 8) (size 9 to 14) (size 15 to 20)
#    0.000    1.857    1.429    3.000    0.000   11.429 
#    0.000    0.000    0.000    0.857    0.000    6.000 
#    0.000    0.000    0.000    0.000    0.000    0.000 
#
# Total GULP energy -156180.840116 kJ/mol
# GULP energy per Si atom -5577.887147 kJ/mol
# Density = 1.786293 g / cm^3
# Si number density = 17.903677 Si / 1000 Ang^3
#
#
#
# Elastic Constant Matrix: (Units=GPa)
#
#
# Indices 1 2 3 4 5 6 
#
# 1 63.3530 30.7139 16.8384 0.0000 -13.6235 0.0000
# 2 30.7139 168.9735 58.6983 0.0000 -15.6449 0.0000
# 3 16.8384 58.6983 90.4588 0.0000 -6.5776 0.0000
# 4 0.0000 0.0000 0.0000 13.7557 0.0000 6.2221
# 5 -13.6235 -15.6449 -6.5776 0.0000 11.3881 0.0000
# 6 0.0000 0.0000 0.0000 6.2221 0.0000 5.1503
#
#
#
# Elastic Compliance Matrix: (Units=1/GPa)
#
#
# Indices 1 2 3 4 5 6 
#
# 1 0.021867 -0.001260 -0.001541 0.000000 0.023538 0.000000
# 2 -0.001260 0.008474 -0.004726 0.000000 0.007405 0.000000
# 3 -0.001541 -0.004726 0.014407 0.000000 -0.000015 0.000000
# 4 0.000000 0.000000 0.000000 0.160291 0.000000 -0.193649
# 5 0.023538 0.007405 -0.000015 0.000000 0.126134 0.000000
# 6 0.000000 0.000000 0.000000 -0.193649 0.000000 0.428113
#
#
# Mechanical properties :
#
#
# Convention : Reuss Voigt Hill
#
# Bulk Modulus (GPa) = 33.67695 59.47629 46.57662
# Shear Modulus (GPa) = 6.37562 20.49446 13.43504
#
# Velocity S-wave (km/s) = 1.88913 3.38702 2.74233
# Velocity P-wave (km/s) = 4.85894 6.97052 6.00822
#
# Compressibility (1/GPa) = 0.02969390
#
# Stress axis : x y z
#
# Youngs Moduli (GPa) = 45.73175 118.00125 69.40934
#
# Poissons Ratio (x) = 0.14867 0.10698
# Poissons Ratio (y) = 0.05762 0.32803
# Poissons Ratio (z) = 0.07048 0.55768
#
# Static dielectric constant tensor:
#      x y z
#    x 1.593950 0.000000 0.008650 
#    y 0.000000 1.609750 0.000000 
#    z 0.008650 0.000000 1.627890 
# 
# From -- ./inp_files/77710.got.cif
#   From: 2010.05.17/outbox.cif.g08.bks.cpg/sg10_39_cif.got.tgz:77710.got - 2010.06.03 11:33:40.
