data_PCOD9145789
_publ_section_title
;
Structure prediction by ZEFSAII (Michael W. Deem and Ramdas Pophale) SiO2 
 PCOD9145789
Probable space group: P 2/M
;
_chemical_formula_sum "Si O2"
_cell_formula_units_Z 32
_cell_length_a 16.779578
_cell_length_b 9.268217
_cell_length_c 14.516637
_cell_angle_alpha 90.000000
_cell_angle_beta 141.180820
_cell_angle_gamma 90.000000
_cell_volume 1415.197438
_symmetry_space_group_name_H-M "P 2/M"
_symmetry_group_IT_number 10
_symmetry_cell_setting 'monoclinic'
loop_
_space_group_symop_operation_xyz
x,y,z
-x,y,-z
-x,-y,-z
x,-y,z
loop_
_atom_site_type_symbol
_atom_site_label
_atom_site_fract_x
_atom_site_fract_y
_atom_site_fract_z
Si Si1 0.757385 0.161594 0.921698
Si Si2 0.211720 0.674754 0.667654
Si Si3 0.969047 0.760669 0.875386
Si Si4 0.885387 0.341053 0.604209
Si Si5 0.590350 0.334658 0.406874
Si Si6 0.541574 0.167843 0.184355
Si Si7 0.318502 0.167840 0.338296
Si Si8 0.254054 0.168567 0.884635
O O1 0.684194 0.228080 0.768648
O O2 0.704247 0.000000 0.887730
O O3 0.763683 0.228876 0.028141
O O4 0.902874 0.148214 0.018629
O O5 0.211762 0.500000 0.669676
O O6 0.122465 0.732319 0.503381
O O7 0.351539 0.734242 0.766358
O O8 0.186864 0.740442 0.745260
O O9 0.957003 0.698299 0.761934
O O10 0.829877 0.828188 0.763982
O O11 0.000000 0.676314 0.000000
O O12 0.931194 0.500000 0.623113
O O13 0.737104 0.342673 0.502495
O O14 0.543308 0.500000 0.367768
O O15 0.523509 0.234173 0.270631
O O16 0.603429 0.259499 0.517803
O O17 0.582878 0.000000 0.227099
O O18 0.407011 0.171234 0.011633
O O19 0.356408 0.000000 0.371908
O O20 0.213359 0.000000 0.844739
#
# Coordination Sequence:
#
# PCOD9145789 Si02
#       8
#     4   4   4   4   4   4   4   4
#     4   9  18  33  50  71 102 135 169 212 256 297
#     4  10  20  35  55  76 101 133 166 207 258 305
#     4   9  16  28  51  79 102 128 166 210 251 292
#     4   8  16  30  47  71 101 129 160 200 249 303
#     4   9  17  30  49  75 106 134 163 206 255 301
#     4  10  19  32  53  78 100 128 169 211 252 302
#     4   9  16  29  52  78 102 132 170 209 251 300
#     4  10  21  36  52  72 101 135 171 212 254 299
#
# _framework density 22.611685999999999
#
# number of rings (size 3 to 8) (size 9 to 14) (size 15 to 20)
#    0.000    2.750    0.000    2.625    0.000    4.250 
#    0.000    6.250    0.000    6.750    0.000    0.000 
#    0.000    0.000    0.000    0.000    0.000    0.000 
#
# Total GULP energy -178201.837729 kJ/mol
# GULP energy per Si atom -5568.807429 kJ/mol
# Density = 2.256022 g / cm^3
# Si number density = 22.611686 Si / 1000 Ang^3
#
#
#
# Elastic Constant Matrix: (Units=GPa)
#
#
# Indices 1 2 3 4 5 6 
#
# 1 72.8856 11.7210 45.1831 0.0000 -19.7447 0.0000
# 2 11.7210 83.0985 54.6263 0.0000 -24.5507 0.0000
# 3 45.1831 54.6263 171.0200 0.0000 -54.3082 0.0000
# 4 0.0000 0.0000 0.0000 190.8041 0.0000 -210.5342
# 5 -19.7447 -24.5507 -54.3082 0.0000 63.1015 0.0000
# 6 0.0000 0.0000 0.0000 -210.5342 0.0000 235.5673
#
#
#
# Elastic Compliance Matrix: (Units=1/GPa)
#
#
# Indices 1 2 3 4 5 6 
#
# 1 0.016634 0.000918 -0.004020 0.000000 0.002102 0.000000
# 2 0.000918 0.015550 -0.004399 0.000000 0.002551 0.000000
# 3 -0.004020 -0.004399 0.010144 0.000000 0.005761 0.000000
# 4 0.000000 0.000000 0.000000 0.378391 0.000000 0.338181
# 5 0.002102 0.002551 0.005761 0.000000 0.022456 0.000000
# 6 0.000000 0.000000 0.000000 0.338181 0.000000 0.306488
#
#
# Mechanical properties :
#
#
# Convention : Reuss Voigt Hill
#
# Bulk Modulus (GPa) = 36.59766 61.11833 48.85800
# Shear Modulus (GPa) = 6.46182 112.25949 59.36065
#
# Velocity S-wave (km/s) = 1.69232 7.05368 5.12925
# Velocity P-wave (km/s) = 4.47649 9.66579 7.53215
#
# Compressibility (1/GPa) = 0.02732415
#
# Stress axis : x y z
#
# Youngs Moduli (GPa) = 60.11686 64.30834 98.58011
#
# Poissons Ratio (x) = -0.05901 0.39633
# Poissons Ratio (y) = -0.05516 0.43368
# Poissons Ratio (z) = 0.24169 0.28291
#
# Static dielectric constant tensor:
#      x y z
#    x 1.927720 0.000000 -0.012780 
#    y 0.000000 1.806160 0.000000 
#    z -0.012780 0.000000 1.906330 
# 
# From -- ./inp_files/70016.got.cif
#   From: 2010.05.17/outbox.cif.g08.bks.cpg/sg10_36_cif.got.tgz:70016.got - 2010.06.03 11:33:40.
