data_PCOD9145058
_publ_section_title
;
Structure prediction by ZEFSAII (Michael W. Deem and Ramdas Pophale) SiO2 
 PCOD9145058
Probable space group: P 2/M
;
_chemical_formula_sum "Si O2"
_cell_formula_units_Z 32
_cell_length_a 17.086265
_cell_length_b 7.927491
_cell_length_c 21.910700
_cell_angle_alpha 90.000000
_cell_angle_beta 152.411414
_cell_angle_gamma 90.000000
_cell_volume 1374.460301
_symmetry_space_group_name_H-M "P 2/M"
_symmetry_group_IT_number 10
_symmetry_cell_setting 'monoclinic'
loop_
_space_group_symop_operation_xyz
x,y,z
-x,y,-z
-x,-y,-z
x,-y,z
loop_
_atom_site_type_symbol
_atom_site_label
_atom_site_fract_x
_atom_site_fract_y
_atom_site_fract_z
Si Si1 0.829109 0.803837 0.343482
Si Si2 0.515133 0.199138 0.200309
Si Si3 0.316371 0.298433 0.497803
Si Si4 0.836519 0.801649 0.098202
Si Si5 0.350139 0.301508 0.212556
Si Si6 0.011876 0.795572 0.669541
Si Si7 0.314550 0.803554 0.364395
Si Si8 0.988250 0.306443 0.076128
O O1 0.682009 0.729640 0.283843
O O2 0.883378 0.730396 0.315841
O O3 0.000000 0.805915 0.500000
O O4 0.776360 0.000000 0.296318
O O5 0.444974 0.285868 0.212654
O O6 0.539754 0.000000 0.233264
O O7 0.364616 0.209429 0.047168
O O8 0.323359 0.500000 0.496516
O O9 0.505592 0.230783 0.642461
O O10 0.246404 0.222525 0.386277
O O11 0.184214 0.255508 0.460016
O O12 0.901653 0.739251 0.207843
O O13 0.911695 0.711543 0.091119
O O14 0.882181 0.000000 0.123154
O O15 0.332564 0.500000 0.214518
O O16 0.160123 0.228469 0.069782
O O17 0.014469 0.000000 0.668419
O O18 0.500000 0.719994 0.500000
O O19 0.181719 0.746450 0.221478
O O20 0.335923 0.000000 0.368168
O O21 0.994808 0.500000 0.063869
#
# Coordination Sequence:
#
# PCOD9145058 Si02
#       8
#     4   4   4   4   4   4   4   4
#     4   9  17  28  43  67 100 140 186 232 276 321
#     4   9  17  30  49  73 103 142 188 230 273 323
#     4  11  22  37  58  84 112 143 184 226 266 324
#     4   9  17  29  48  75 104 137 180 228 273 320
#     4   9  20  36  55  82 113 146 184 226 271 318
#     4  10  19  31  50  74 105 142 182 232 279 318
#     4  11  24  41  61  86 115 143 174 217 267 321
#     4  10  19  35  59  83 111 146 181 219 265 319
#
# _framework density 23.281865
#
# number of rings (size 3 to 8) (size 9 to 14) (size 15 to 20)
#    0.000    2.250    1.250    1.875    0.000    4.000 
#    0.000    3.750    0.000    6.000    0.000    4.375 
#    0.000    0.000    0.000    0.000    0.000    0.000 
#
# Total GULP energy -178652.282791 kJ/mol
# GULP energy per Si atom -5582.883837 kJ/mol
# Density = 2.322887 g / cm^3
# Si number density = 23.281865 Si / 1000 Ang^3
#
#
#
# Elastic Constant Matrix: (Units=GPa)
#
#
# Indices 1 2 3 4 5 6 
#
# 1 98.3986 0.7513 36.6751 0.0000 4.0649 0.0000
# 2 0.7513 34.8857 15.2559 0.0000 0.2244 0.0000
# 3 36.6751 15.2559 155.0233 0.0000 -2.6271 0.0000
# 4 0.0000 0.0000 0.0000 21.3881 0.0000 7.4913
# 5 4.0649 0.2244 -2.6271 0.0000 49.7793 0.0000
# 6 0.0000 0.0000 0.0000 7.4913 0.0000 14.8690
#
#
#
# Elastic Compliance Matrix: (Units=1/GPa)
#
#
# Indices 1 2 3 4 5 6 
#
# 1 0.011232 0.000977 -0.002772 0.000000 -0.001068 0.000000
# 2 0.000977 0.030043 -0.003194 0.000000 -0.000384 0.000000
# 3 -0.002772 -0.003194 0.007431 0.000000 0.000633 0.000000
# 4 0.000000 0.000000 0.000000 0.056774 0.000000 -0.028604
# 5 -0.001068 -0.000384 0.000633 0.000000 0.020211 0.000000
# 6 0.000000 0.000000 0.000000 -0.028604 0.000000 0.081665
#
#
# Mechanical properties :
#
#
# Convention : Reuss Voigt Hill
#
# Bulk Modulus (GPa) = 25.82005 43.74134 34.78070
# Shear Modulus (GPa) = 21.71605 32.91564 27.31584
#
# Velocity S-wave (km/s) = 3.05740 3.76412 3.42901
# Velocity P-wave (km/s) = 4.85571 6.14166 5.53615
#
# Compressibility (1/GPa) = 0.03872959
#
# Stress axis : x y z
#
# Youngs Moduli (GPa) = 89.02798 33.28525 134.56393
#
# Poissons Ratio (x) = -0.03252 0.37296
# Poissons Ratio (y) = -0.08698 0.42983
# Poissons Ratio (z) = 0.24675 0.10632
#
# Static dielectric constant tensor:
#      x y z
#    x 1.921750 0.000000 0.028110 
#    y 0.000000 1.845660 0.000000 
#    z 0.028110 0.000000 1.943800 
# 
# From -- ./inp_files/93719.got.cif
#   From: 2010.05.17/outbox.cif.g08.bks.cpg/sg10_47_cif.got.tgz:93719.got - 2010.06.03 11:33:40.
