data_PCOD9145487
_publ_section_title
;
Structure prediction by ZEFSAII (Michael W. Deem and Ramdas Pophale) SiO2 
 PCOD9145487
Probable space group: P 2/M
;
_chemical_formula_sum "Si O2"
_cell_formula_units_Z 24
_cell_length_a 25.124374
_cell_length_b 8.796313
_cell_length_c 18.896181
_cell_angle_alpha 90.000000
_cell_angle_beta 160.992003
_cell_angle_gamma 90.000000
_cell_volume 1360.153378
_symmetry_space_group_name_H-M "P 2/M"
_symmetry_group_IT_number 10
_symmetry_cell_setting 'monoclinic'
loop_
_space_group_symop_operation_xyz
x,y,z
-x,y,-z
-x,-y,-z
x,-y,z
loop_
_atom_site_type_symbol
_atom_site_label
_atom_site_fract_x
_atom_site_fract_y
_atom_site_fract_z
Si Si1 0.926159 0.816427 0.510393
Si Si2 0.738337 0.319877 0.646927
Si Si3 0.757257 0.681709 0.169047
Si Si4 0.098629 0.182055 0.357717
Si Si5 0.568690 0.818284 0.305774
Si Si6 0.081254 0.321046 0.992623
O O1 0.785696 0.748973 0.283332
O O2 0.909275 0.770076 0.570810
O O3 0.094966 0.751843 0.691270
O O4 0.925393 0.000000 0.504486
O O5 0.699961 0.500000 0.600567
O O6 0.608195 0.231834 0.435831
O O7 0.910781 0.304637 0.821698
O O8 0.778036 0.265660 0.776612
O O9 0.769931 0.500000 0.186411
O O10 0.588222 0.735730 0.922916
O O11 0.271691 0.225870 0.539903
O O12 0.953411 0.243711 0.125662
O O13 0.090974 0.000000 0.346215
O O14 0.548323 0.000000 0.276468
O O15 0.107786 0.500000 0.015219
#
# Coordination Sequence:
#
# PCOD9145487 Si02
#       6
#     4   4   4   4   4   4
#     4  10  20  37  56  73  96 129 164 202 245 294
#     4   8  14  26  43  68  99 132 165 198 236 284
#     4  11  22  36  53  74  97 127 166 205 243 294
#     4   9  19  32  50  76 103 129 163 202 243 289
#     4  10  19  32  50  75 103 132 163 201 245 288
#     4   8  14  25  44  68  99 133 163 196 239 285
#
# _framework density 17.645068999999999
#
# number of rings (size 3 to 8) (size 9 to 14) (size 15 to 20)
#    0.000    2.667    0.000    4.500    0.000    3.333 
#    0.000    6.667    0.000    1.000    0.000    7.000 
#    0.000    0.000    0.000    0.000    0.000    0.000 
#
# Total GULP energy -133742.215956 kJ/mol
# GULP energy per Si atom -5572.592332 kJ/mol
# Density = 1.760491 g / cm^3
# Si number density = 17.645069 Si / 1000 Ang^3
#
#
#
# Elastic Constant Matrix: (Units=GPa)
#
#
# Indices 1 2 3 4 5 6 
#
# 1 29.0863 33.1306 101.5531 0.0000 -28.6359 0.0000
# 2 33.1306 61.5196 47.9592 0.0000 -18.2307 0.0000
# 3 101.5531 47.9592 99.6755 0.0000 -54.5574 0.0000
# 4 0.0000 0.0000 0.0000 47.6904 0.0000 6.9952
# 5 -28.6359 -18.2307 -54.5574 0.0000 27.0853 0.0000
# 6 0.0000 0.0000 0.0000 6.9952 0.0000 40.1994
#
#
#
# Elastic Compliance Matrix: (Units=1/GPa)
#
#
# Indices 1 2 3 4 5 6 
#
# 1 0.008028 -0.008092 0.025567 0.000000 0.054539 0.000000
# 2 -0.008092 0.024390 -0.007922 0.000000 -0.008097 0.000000
# 3 0.025567 -0.007922 0.003195 0.000000 0.028133 0.000000
# 4 0.000000 0.000000 0.000000 0.021518 0.000000 -0.003744
# 5 0.054539 -0.008097 0.028133 0.000000 0.145800 0.000000
# 6 0.000000 0.000000 0.000000 -0.003744 0.000000 0.025528
#
#
# Mechanical properties :
#
#
# Convention : Reuss Voigt Hill
#
# Bulk Modulus (GPa) = 18.27606 61.72969 40.00287
# Shear Modulus (GPa) = 21.96914 23.50427 22.73671
#
# Velocity S-wave (km/s) = 3.53237 3.65370 3.59354
# Velocity P-wave (km/s) = 5.19778 7.27045 6.31966
#
# Compressibility (1/GPa) = 0.05471640
#
# Stress axis : x y z
#
# Youngs Moduli (GPa) = 124.57116 41.00121 312.99795
#
# Poissons Ratio (x) = 0.33179 -8.00232
# Poissons Ratio (y) = 1.00806 2.47965
# Poissons Ratio (z) = -3.18487 0.32482
#
# Static dielectric constant tensor:
#      x y z
#    x 1.613890 0.000000 -0.020440 
#    y 0.000000 1.590200 0.000000 
#    z -0.020440 0.000000 1.605830 
# 
# From -- ./inp_files/45170.got.cif
#   From: 2010.05.17/outbox.cif.g08.bks.cpg/sg10_23_cif.got.tgz:45170.got - 2010.06.03 11:33:40.
