data_PCOD9145825
_publ_section_title
;
Structure prediction by ZEFSAII (Michael W. Deem and Ramdas Pophale) SiO2 
 PCOD9145825
Probable space group: P 2/M
;
_chemical_formula_sum "Si O2"
_cell_formula_units_Z 32
_cell_length_a 20.773048
_cell_length_b 7.543559
_cell_length_c 26.612477
_cell_angle_alpha 90.000000
_cell_angle_beta 158.361660
_cell_angle_gamma 90.000000
_cell_volume 1537.764693
_symmetry_space_group_name_H-M "P 2/M"
_symmetry_group_IT_number 10
_symmetry_cell_setting 'monoclinic'
loop_
_space_group_symop_operation_xyz
x,y,z
-x,y,-z
-x,-y,-z
x,-y,z
loop_
_atom_site_type_symbol
_atom_site_label
_atom_site_fract_x
_atom_site_fract_y
_atom_site_fract_z
Si Si1 0.123398 0.288337 0.401833
Si Si2 0.196000 0.282825 0.154100
Si Si3 0.493305 0.293352 0.294884
Si Si4 0.694848 0.283660 0.654967
Si Si5 0.224562 0.787763 0.799523
Si Si6 0.612623 0.792958 0.893323
Si Si7 0.990637 0.714990 0.790898
Si Si8 0.493847 0.782991 0.913909
O O1 0.137461 0.500000 0.406766
O O2 0.314652 0.217616 0.554550
O O3 0.975285 0.256951 0.335922
O O4 0.053394 0.221032 0.297285
O O5 0.193052 0.500000 0.150820
O O6 0.337050 0.219421 0.215648
O O7 0.252739 0.229538 0.251026
O O8 0.000000 0.224093 0.000000
O O9 0.503316 0.500000 0.316438
O O10 0.444263 0.285508 0.200909
O O11 0.500000 0.225052 0.500000
O O12 0.693858 0.500000 0.653484
O O13 0.839102 0.227545 0.719160
O O14 0.320880 0.726941 0.818655
O O15 0.238087 0.000000 0.809215
O O16 0.342763 0.726255 0.932583
O O17 0.518382 0.720193 0.874954
O O18 0.570739 0.000000 0.859469
O O19 0.819097 0.773011 0.052851
O O20 0.992690 0.500000 0.792054
O O21 0.497102 0.000000 0.914914
#
# Coordination Sequence:
#
# PCOD9145825 Si02
#       8
#     4   4   4   4   4   4   4   4
#     4  10  20  33  50  78 112 140 166 204 262 320
#     4   9  16  28  48  71  94 128 173 211 245 292
#     4  10  21  36  52  74 109 143 170 210 260 308
#     4   9  16  27  47  75 101 127 166 213 254 297
#     4   9  16  32  56  77 100 133 171 214 257 298
#     4  11  21  35  54  78 103 133 175 217 255 304
#     4  10  19  32  53  80 107 133 167 215 266 308
#     4   8  16  31  53  78 101 129 171 219 256 291
#
# _framework density 20.809425999999998
#
# number of rings (size 3 to 8) (size 9 to 14) (size 15 to 20)
#    0.000    2.500    1.250    2.625    0.000    5.500 
#    0.000    3.125    0.000    7.500    0.000    0.000 
#    0.000    0.000    0.000    0.000    0.000    0.000 
#
# Total GULP energy -178673.731729 kJ/mol
# GULP energy per Si atom -5583.554117 kJ/mol
# Density = 2.076206 g / cm^3
# Si number density = 20.809426 Si / 1000 Ang^3
#
#
#
# Elastic Constant Matrix: (Units=GPa)
#
#
# Indices 1 2 3 4 5 6 
#
# 1 155.3793 -6.0176 82.0631 0.0000 25.9252 0.0000
# 2 -6.0176 47.4777 -5.8406 0.0000 3.5434 0.0000
# 3 82.0631 -5.8406 158.3678 0.0000 12.9765 0.0000
# 4 0.0000 0.0000 0.0000 -4.2235 0.0000 29.0813
# 5 25.9252 3.5434 12.9765 0.0000 28.7059 0.0000
# 6 0.0000 0.0000 0.0000 29.0813 0.0000 -5.7317
#
#
#
# Elastic Compliance Matrix: (Units=1/GPa)
#
#
# Indices 1 2 3 4 5 6 
#
# 1 0.010121 0.001254 -0.004607 0.000000 -0.007213 0.000000
# 2 0.001254 0.021579 0.000475 0.000000 -0.004011 0.000000
# 3 -0.004607 0.000475 0.008706 0.000000 0.000167 0.000000
# 4 0.000000 0.000000 0.000000 0.006977 0.000000 0.035400
# 5 -0.007213 -0.004011 0.000167 0.000000 0.041770 0.000000
# 6 0.000000 0.000000 0.000000 0.035400 0.000000 0.005141
#
#
# Mechanical properties :
#
#
# Convention : Reuss Voigt Hill
#
# Bulk Modulus (GPa) = 28.86067 55.73719 42.29893
# Shear Modulus (GPa) = 44.80256 23.15148 33.97702
#
# Velocity S-wave (km/s) = 4.64507 3.33911 4.04514
# Velocity P-wave (km/s) = 6.53208 6.45824 6.49527
#
# Compressibility (1/GPa) = 0.03464923
#
# Stress axis : x y z
#
# Youngs Moduli (GPa) = 98.80161 46.34082 114.86758
#
# Poissons Ratio (x) = -0.05813 0.52924
# Poissons Ratio (y) = -0.12393 -0.05451
# Poissons Ratio (z) = 0.45522 -0.02199
#
# Static dielectric constant tensor:
#      x y z
#    x 1.736300 0.000000 0.012580 
#    y 0.000000 1.802270 0.000000 
#    z 0.012580 0.000000 1.717370 
# 
# From -- ./inp_files/93812.got.cif
#   From: 2010.05.17/outbox.cif.g08.bks.cpg/sg10_47_cif.got.tgz:93812.got - 2010.06.03 11:33:40.
