data_PCOD9145177
_publ_section_title
;
Structure prediction by ZEFSAII (Michael W. Deem and Ramdas Pophale) SiO2 
 PCOD9145177
Probable space group: P 2/M
;
_chemical_formula_sum "Si O2"
_cell_formula_units_Z 20
_cell_length_a 9.284814
_cell_length_b 9.126151
_cell_length_c 26.907687
_cell_angle_alpha 90.000000
_cell_angle_beta 29.751405
_cell_angle_gamma 90.000000
_cell_volume 1131.428365
_symmetry_space_group_name_H-M "P 2/M"
_symmetry_group_IT_number 10
_symmetry_cell_setting 'monoclinic'
loop_
_space_group_symop_operation_xyz
x,y,z
-x,y,-z
-x,-y,-z
x,-y,z
loop_
_atom_site_type_symbol
_atom_site_label
_atom_site_fract_x
_atom_site_fract_y
_atom_site_fract_z
Si Si1 0.662448 0.323807 0.096449
Si Si2 0.370342 0.323053 0.288393
Si Si3 0.197167 0.668169 0.491139
Si Si4 0.322618 0.174986 0.709709
Si Si5 0.646770 0.823823 0.903887
O O1 0.650171 0.500000 0.094753
O O2 0.494157 0.284813 0.197541
O O3 0.516227 0.249962 0.092977
O O4 0.000000 0.281586 0.000000
O O5 0.388320 0.500000 0.289510
O O6 0.557826 0.247737 0.275486
O O7 0.031942 0.283308 0.398350
O O8 0.286643 0.500000 0.473327
O O9 0.472822 0.766249 0.395878
O O10 0.000000 0.668952 0.500000
O O11 0.987186 0.214487 0.802461
O O12 0.347450 0.000000 0.706118
O O13 0.623491 0.000000 0.906614
O O14 0.500000 0.780319 0.000000
#
# Coordination Sequence:
#
# PCOD9145177 Si02
#       5
#     4   4   4   4   4
#     4  10  21  36  55  79 102 127 167 214 253 295
#     4   9  18  33  52  76 105 134 166 205 251 301
#     4   8  15  29  49  72 101 136 168 201 246 297
#     4  10  19  31  51  78 103 131 171 211 244 289
#     4  10  22  38  53  73 103 136 168 203 250 307
#
# _framework density 17.676770000000001
#
# number of rings (size 3 to 8) (size 9 to 14) (size 15 to 20)
#    0.000    2.600    0.000    3.000    0.000    6.800 
#    0.000    1.000    0.000    6.000    0.000    0.000 
#    0.000    0.000    0.000    0.000    0.000    0.000 
#
# Total GULP energy -111551.039394 kJ/mol
# GULP energy per Si atom -5577.551970 kJ/mol
# Density = 1.763654 g / cm^3
# Si number density = 17.676770 Si / 1000 Ang^3
#
#
#
# Elastic Constant Matrix: (Units=GPa)
#
#
# Indices 1 2 3 4 5 6 
#
# 1 114.3116 46.2998 99.8629 0.0000 2.1710 0.0000
# 2 46.2998 32.4144 59.4551 0.0000 -4.8523 0.0000
# 3 99.8629 59.4551 209.2038 0.0000 6.6713 0.0000
# 4 0.0000 0.0000 0.0000 28.2604 0.0000 -1.7790
# 5 2.1710 -4.8523 6.6713 0.0000 28.4859 0.0000
# 6 0.0000 0.0000 0.0000 -1.7790 0.0000 28.0370
#
#
#
# Elastic Compliance Matrix: (Units=1/GPa)
#
#
# Indices 1 2 3 4 5 6 
#
# 1 0.022657 -0.028800 -0.002437 0.000000 -0.006062 0.000000
# 2 -0.028800 0.108516 -0.017885 0.000000 0.024868 0.000000
# 3 -0.002437 -0.017885 0.011201 0.000000 -0.005484 0.000000
# 4 0.000000 0.000000 0.000000 0.035527 0.000000 0.002254
# 5 -0.006062 0.024868 -0.005484 0.000000 0.041087 0.000000
# 6 0.000000 0.000000 0.000000 0.002254 0.000000 0.035810
#
#
# Mechanical properties :
#
#
# Convention : Reuss Voigt Hill
#
# Bulk Modulus (GPa) = 22.66065 85.24058 53.95061
# Shear Modulus (GPa) = 13.59606 26.97748 20.28677
#
# Velocity S-wave (km/s) = 2.77636 3.91084 3.39138
# Velocity P-wave (km/s) = 4.80883 8.28972 6.77659
#
# Compressibility (1/GPa) = 0.04412937
#
# Stress axis : x y z
#
# Youngs Moduli (GPa) = 44.13614 9.21524 89.27595
#
# Poissons Ratio (x) = 0.26540 0.21758
# Poissons Ratio (y) = 1.27112 1.59673
# Poissons Ratio (z) = 0.10757 0.16482
#
# Static dielectric constant tensor:
#      x y z
#    x 1.562430 0.000000 0.012390 
#    y 0.000000 1.591570 0.000000 
#    z 0.012390 0.000000 1.630250 
# 
# From -- ./inp_files/22384.got.cif
#   From: 2010.05.17/outbox.cif.g08.bks.cpg/sg10_12_cif.got.tgz:22384.got - 2010.06.03 11:33:40.
