data_PCOD9145795
_publ_section_title
;
Structure prediction by ZEFSAII (Michael W. Deem and Ramdas Pophale) SiO2 
 PCOD9145795
Probable space group: P 2/M
;
_chemical_formula_sum "Si O2"
_cell_formula_units_Z 32
_cell_length_a 12.651659
_cell_length_b 7.471467
_cell_length_c 15.686842
_cell_angle_alpha 90.000000
_cell_angle_beta 92.253655
_cell_angle_gamma 90.000000
_cell_volume 1481.674610
_symmetry_space_group_name_H-M "P 2/M"
_symmetry_group_IT_number 10
_symmetry_cell_setting 'monoclinic'
loop_
_space_group_symop_operation_xyz
x,y,z
-x,y,-z
-x,-y,-z
x,-y,z
loop_
_atom_site_type_symbol
_atom_site_label
_atom_site_fract_x
_atom_site_fract_y
_atom_site_fract_z
Si Si1 0.758547 0.216494 0.060788
Si Si2 0.964457 0.781158 0.169997
Si Si3 0.527784 0.709262 0.093745
Si Si4 0.391887 0.288931 0.245336
Si Si5 0.197311 0.784095 0.127306
Si Si6 0.592983 0.712192 0.563147
Si Si7 0.974473 0.781664 0.364952
Si Si8 0.830292 0.784502 0.515858
O O1 0.865205 0.276482 0.110629
O O2 0.653479 0.276506 0.105549
O O3 0.758463 0.000000 0.060113
O O4 0.757611 0.277845 0.962340
O O5 0.956967 0.723462 0.267942
O O6 0.077150 0.723991 0.136101
O O7 0.964189 0.000000 0.169048
O O8 0.497320 0.500000 0.088904
O O9 0.465858 0.787543 0.172408
O O10 0.500000 0.788933 0.000000
O O11 0.415688 0.500000 0.251704
O O12 0.272871 0.269950 0.206912
O O13 0.406395 0.213405 0.340398
O O14 0.196454 0.000000 0.125615
O O15 0.500000 0.785778 0.500000
O O16 0.573817 0.500000 0.569819
O O17 0.709971 0.732108 0.527722
O O18 0.883581 0.725385 0.428578
O O19 0.087793 0.725590 0.407606
O O20 0.974810 0.000000 0.364483
O O21 0.832776 0.000000 0.515896
#
# Coordination Sequence:
#
# PCOD9145795 Si02
#       8
#     4   4   4   4   4   4   4   4
#     4  10  20  32  50  77 106 134 167 211 255 297
#     4   9  17  30  48  74 108 140 166 199 253 308
#     4  10  20  36  55  72  97 135 174 210 251 300
#     4  10  21  37  56  75  98 134 175 210 251 304
#     4  10  19  32  53  78 104 133 169 210 251 299
#     4  10  22  38  53  73 104 137 167 207 259 306
#     4   8  15  29  51  77 104 134 167 206 251 301
#     4   9  17  32  55  79 101 130 171 212 250 296
#
# _framework density 21.597183999999999
#
# number of rings (size 3 to 8) (size 9 to 14) (size 15 to 20)
#    0.000    2.500    1.250    1.875    0.000    5.000 
#    0.000    1.875    0.000    3.000    0.000    0.000 
#    0.000    0.000    0.000    0.000    0.000    0.000 
#
# Total GULP energy -178729.864402 kJ/mol
# GULP energy per Si atom -5585.308263 kJ/mol
# Density = 2.154803 g / cm^3
# Si number density = 21.597184 Si / 1000 Ang^3
#
#
#
# Elastic Constant Matrix: (Units=GPa)
#
#
# Indices 1 2 3 4 5 6 
#
# 1 161.7215 -7.5803 72.0244 0.0000 2.8257 0.0000
# 2 -7.5803 62.0754 3.1133 0.0000 -0.2633 0.0000
# 3 72.0244 3.1133 70.4760 0.0000 13.1580 0.0000
# 4 0.0000 0.0000 0.0000 16.3933 0.0000 9.4022
# 5 2.8257 -0.2633 13.1580 0.0000 27.2546 0.0000
# 6 0.0000 0.0000 0.0000 9.4022 0.0000 31.5199
#
#
#
# Elastic Compliance Matrix: (Units=1/GPa)
#
#
# Indices 1 2 3 4 5 6 
#
# 1 0.012260 0.002203 -0.013621 0.000000 0.005326 0.000000
# 2 0.002203 0.016549 -0.003264 0.000000 0.001507 0.000000
# 3 -0.013621 -0.003264 0.030769 0.000000 -0.013474 0.000000
# 4 0.000000 0.000000 0.000000 0.073591 0.000000 -0.021952
# 5 0.005326 0.001507 -0.013474 0.000000 0.042658 0.000000
# 6 0.000000 0.000000 0.000000 -0.021952 0.000000 0.038274
#
#
# Mechanical properties :
#
#
# Convention : Reuss Voigt Hill
#
# Bulk Modulus (GPa) = 33.09710 47.70974 40.40342
# Shear Modulus (GPa) = 19.72106 30.14793 24.93450
#
# Velocity S-wave (km/s) = 3.02508 3.74025 3.40152
# Velocity P-wave (km/s) = 5.24972 6.38681 5.84598
#
# Compressibility (1/GPa) = 0.03021413
#
# Stress axis : x y z
#
# Youngs Moduli (GPa) = 81.56648 60.42837 32.49985
#
# Poissons Ratio (x) = -0.13312 0.44268
# Poissons Ratio (y) = -0.17968 0.10607
# Poissons Ratio (z) = 1.11102 0.19722
#
# Static dielectric constant tensor:
#      x y z
#    x 1.744120 0.000000 -0.005110 
#    y 0.000000 1.836550 0.000000 
#    z -0.005110 0.000000 1.779900 
# 
# From -- ./inp_files/49951.got.cif
#   From: 2010.05.17/outbox.cif.g08.bks.cpg/sg10_25_cif.got.tgz:49951.got - 2010.06.03 11:33:40.
