data_PCOD9145112
_publ_section_title
;
Structure prediction by ZEFSAII (Michael W. Deem and Ramdas Pophale) SiO2 
 PCOD9145112
Probable space group: P 2/M
;
_chemical_formula_sum "Si O2"
_cell_formula_units_Z 28
_cell_length_a 14.837507
_cell_length_b 9.629643
_cell_length_c 12.771979
_cell_angle_alpha 90.000000
_cell_angle_beta 58.581065
_cell_angle_gamma 90.000000
_cell_volume 1557.295581
_symmetry_space_group_name_H-M "P 2/M"
_symmetry_group_IT_number 10
_symmetry_cell_setting 'monoclinic'
loop_
_space_group_symop_operation_xyz
x,y,z
-x,y,-z
-x,-y,-z
x,-y,z
loop_
_atom_site_type_symbol
_atom_site_label
_atom_site_fract_x
_atom_site_fract_y
_atom_site_fract_z
Si Si1 0.943292 0.838428 0.258186
Si Si2 0.669844 0.336950 0.605764
Si Si3 0.675716 0.665694 0.184521
Si Si4 0.911425 0.653420 0.964004
Si Si5 0.303131 0.832993 0.624302
Si Si6 0.501671 0.668061 0.119621
Si Si7 0.087446 0.650586 0.535315
O O1 0.824255 0.810279 0.288368
O O2 0.938802 0.778485 0.376350
O O3 0.038959 0.762401 0.144104
O O4 0.959804 0.000000 0.242681
O O5 0.645110 0.500000 0.595592
O O6 0.663489 0.243728 0.504208
O O7 0.594622 0.289610 0.745820
O O8 0.791066 0.334155 0.571713
O O9 0.662286 0.500000 0.215464
O O10 0.648467 0.756968 0.303248
O O11 0.605112 0.701246 0.125989
O O12 0.797734 0.688344 0.079658
O O13 0.901975 0.500000 0.920868
O O14 0.000000 0.645935 0.000000
O O15 0.322244 0.000000 0.609461
O O16 0.496407 0.500000 0.116240
O O17 0.500000 0.719358 0.000000
O O18 0.083756 0.500000 0.595531
O O19 0.000000 0.645237 0.500000
#
# Coordination Sequence:
#
# PCOD9145112 Si02
#       7
#     4   4   4   4   4   4   4
#     4  10  20  32  49  74 107 144 173 211 263 316
#     4   9  18  34  57  80 106 140 175 218 267 315
#     4  10  20  34  55  80 107 141 179 221 266 316
#     4  10  19  31  50  77 107 138 171 212 261 312
#     4  10  20  34  53  79 110 140 174 217 266 320
#     4   9  19  36  57  81 106 135 177 225 266 309
#     4   9  18  32  52  78 105 136 176 219 262 310
#
# _framework density 17.979887999999999
#
# number of rings (size 3 to 8) (size 9 to 14) (size 15 to 20)
#    0.000    2.429    1.429    0.857    0.000    4.000 
#    0.000    7.857    0.000    1.714    0.000    0.000 
#    0.000    0.000    0.000    0.000    0.000    0.000 
#
# Total GULP energy -155924.838690 kJ/mol
# GULP energy per Si atom -5568.744239 kJ/mol
# Density = 1.793897 g / cm^3
# Si number density = 17.979888 Si / 1000 Ang^3
#
#
#
# Elastic Constant Matrix: (Units=GPa)
#
#
# Indices 1 2 3 4 5 6 
#
# 1 91.3439 25.8990 67.4459 0.0000 11.3553 0.0000
# 2 25.8990 47.0677 63.3631 0.0000 5.1205 0.0000
# 3 67.4459 63.3631 132.2023 0.0000 2.1699 0.0000
# 4 0.0000 0.0000 0.0000 38.9230 0.0000 -10.8443
# 5 11.3553 5.1205 2.1699 0.0000 21.2837 0.0000
# 6 0.0000 0.0000 0.0000 -10.8443 0.0000 11.0925
#
#
#
# Elastic Compliance Matrix: (Units=1/GPa)
#
#
# Indices 1 2 3 4 5 6 
#
# 1 0.021025 0.011091 -0.015840 0.000000 -0.012270 0.000000
# 2 0.011091 0.068685 -0.038274 0.000000 -0.018539 0.000000
# 3 -0.015840 -0.038274 0.033756 0.000000 0.014218 0.000000
# 4 0.000000 0.000000 0.000000 0.035309 0.000000 0.034519
# 5 -0.012270 -0.018539 0.014218 0.000000 0.056542 0.000000
# 6 0.000000 0.000000 0.000000 0.034519 0.000000 0.123897
#
#
# Mechanical properties :
#
#
# Convention : Reuss Voigt Hill
#
# Bulk Modulus (GPa) = 26.72462 64.89222 45.80842
# Shear Modulus (GPa) = 11.42250 21.85358 16.63804
#
# Velocity S-wave (km/s) = 2.52324 3.49011 3.04529
# Velocity P-wave (km/s) = 4.83579 7.23955 6.15613
#
# Compressibility (1/GPa) = 0.03741867
#
# Stress axis : x y z
#
# Youngs Moduli (GPa) = 47.56351 14.55928 29.62417
#
# Poissons Ratio (x) = -0.16147 0.46926
# Poissons Ratio (y) = -0.52750 1.13382
# Poissons Ratio (z) = 0.75342 0.55724
#
# Static dielectric constant tensor:
#      x y z
#    x 1.635660 0.000000 -0.015100 
#    y 0.000000 1.616730 0.000000 
#    z -0.015100 0.000000 1.657600 
# 
# From -- ./inp_files/49630.got.cif
#   From: 2010.05.17/outbox.cif.g08.bks.cpg/sg10_25_cif.got.tgz:49630.got - 2010.06.03 11:33:40.
