data_PCOD9145469
_publ_section_title
;
Structure prediction by ZEFSAII (Michael W. Deem and Ramdas Pophale) SiO2 
 PCOD9145469
Probable space group: P 2/M
;
_chemical_formula_sum "Si O2"
_cell_formula_units_Z 32
_cell_length_a 22.919534
_cell_length_b 7.778226
_cell_length_c 23.160345
_cell_angle_alpha 90.000000
_cell_angle_beta 159.608728
_cell_angle_gamma 90.000000
_cell_volume 1438.619657
_symmetry_space_group_name_H-M "P 2/M"
_symmetry_group_IT_number 10
_symmetry_cell_setting 'monoclinic'
loop_
_space_group_symop_operation_xyz
x,y,z
-x,y,-z
-x,-y,-z
x,-y,z
loop_
_atom_site_type_symbol
_atom_site_label
_atom_site_fract_x
_atom_site_fract_y
_atom_site_fract_z
Si Si1 0.143817 0.803020 0.453108
Si Si2 0.327982 0.207226 0.185536
Si Si3 0.408851 0.793651 0.473715
Si Si4 0.483810 0.789133 0.209632
Si Si5 0.029653 0.703898 0.092582
Si Si6 0.214995 0.794975 0.870385
Si Si7 0.664854 0.695445 0.139672
Si Si8 0.105281 0.697524 0.545187
O O1 0.324830 0.725207 0.606954
O O2 0.135044 0.797219 0.514679
O O3 0.962115 0.724791 0.269237
O O4 0.145647 0.000000 0.433541
O O5 0.474748 0.269283 0.365404
O O6 0.377752 0.260592 0.167326
O O7 0.332584 0.000000 0.190896
O O8 0.140198 0.256566 0.029950
O O9 0.500000 0.729458 0.500000
O O10 0.209348 0.758437 0.285935
O O11 0.422718 0.000000 0.487087
O O12 0.494974 0.000000 0.217588
O O13 0.379445 0.732261 0.056553
O O14 0.042175 0.500000 0.099203
O O15 0.000000 0.776432 0.000000
O O16 0.227413 0.767558 0.813050
O O17 0.207888 0.000000 0.872712
O O18 0.632895 0.500000 0.089455
O O19 0.729343 0.678710 0.264447
O O20 0.500000 0.801343 0.000000
O O21 0.041359 0.500000 0.474374
O O22 0.000000 0.779682 0.500000
#
# Coordination Sequence:
#
# PCOD9145469 Si02
#       8
#     4   4   4   4   4   4   4   4
#     4  10  20  34  54  78 105 137 177 222 274 332
#     4  10  21  39  63  87 116 156 201 247 287 337
#     4  10  20  35  60  93 122 153 199 246 287 338
#     4   9  20  38  57  80 109 142 184 231 277 326
#     4  11  23  37  58  89 126 163 191 230 292 349
#     4  10  20  34  54  78 104 137 176 222 273 329
#     4  10  20  33  50  73 102 136 174 217 269 329
#     4  10  19  32  50  73 102 134 171 217 271 329
#
# _framework density 22.243545000000001
#
# number of rings (size 3 to 8) (size 9 to 14) (size 15 to 20)
#    0.000    2.000    2.500    1.125    0.000    3.250 
#    0.000    5.000    0.000    1.500    0.000    0.000 
#    0.000    0.000    0.000    0.000    0.000    0.000 
#
# Total GULP energy -178174.353397 kJ/mol
# GULP energy per Si atom -5567.948544 kJ/mol
# Density = 2.219292 g / cm^3
# Si number density = 22.243545 Si / 1000 Ang^3
#
#
#
# Elastic Constant Matrix: (Units=GPa)
#
#
# Indices 1 2 3 4 5 6 
#
# 1 54.4232 -6.4772 16.3758 0.0000 21.2178 0.0000
# 2 -6.4772 37.0249 0.9421 0.0000 -1.3294 0.0000
# 3 16.3758 0.9421 130.8625 0.0000 29.2938 0.0000
# 4 0.0000 0.0000 0.0000 23.3636 0.0000 96.0821
# 5 21.2178 -1.3294 29.2938 0.0000 42.4697 0.0000
# 6 0.0000 0.0000 0.0000 96.0821 0.0000 268.7210
#
#
#
# Elastic Compliance Matrix: (Units=1/GPa)
#
#
# Indices 1 2 3 4 5 6 
#
# 1 0.023325 0.003688 -0.000429 0.000000 -0.011242 0.000000
# 2 0.003688 0.027645 -0.000522 0.000000 -0.000617 0.000000
# 3 -0.000429 -0.000522 0.009052 0.000000 -0.006046 0.000000
# 4 0.000000 0.000000 0.000000 -0.090985 0.000000 0.032532
# 5 -0.011242 -0.000617 -0.006046 0.000000 0.033314 0.000000
# 6 0.000000 0.000000 0.000000 0.032532 0.000000 -0.007911
#
#
# Mechanical properties :
#
#
# Convention : Reuss Voigt Hill
#
# Bulk Modulus (GPa) = 15.26809 27.11022 21.18915
# Shear Modulus (GPa) = 462.95174 81.00887 271.98031
#
# Velocity S-wave (km/s) = 14.44231 6.04137 11.06975
# Velocity P-wave (km/s) = 16.88153 7.80247 13.15037
#
# Compressibility (1/GPa) = 0.06549608
#
# Stress axis : x y z
#
# Youngs Moduli (GPa) = 42.87173 36.17272 110.46716
#
# Poissons Ratio (x) = -0.13340 0.04738
# Poissons Ratio (y) = -0.15811 0.05771
# Poissons Ratio (z) = 0.01839 0.01890
#
# Static dielectric constant tensor:
#      x y z
#    x 1.797880 0.000000 0.037650 
#    y 0.000000 1.843930 0.000000 
#    z 0.037650 0.000000 2.090300 
# 
# From -- ./inp_files/90667.got.cif
#   From: 2010.05.17/outbox.cif.g08.bks.cpg/sg10_46_cif.got.tgz:90667.got - 2010.06.03 11:33:40.
