data_PCOD9145139
_publ_section_title
;
Structure prediction by ZEFSAII (Michael W. Deem and Ramdas Pophale) SiO2 
 PCOD9145139
Probable space group: P 2/M
;
_chemical_formula_sum "Si O2"
_cell_formula_units_Z 20
_cell_length_a 14.555615
_cell_length_b 10.907106
_cell_length_c 11.929862
_cell_angle_alpha 90.000000
_cell_angle_beta 148.617490
_cell_angle_gamma 90.000000
_cell_volume 986.288578
_symmetry_space_group_name_H-M "P 2/M"
_symmetry_group_IT_number 10
_symmetry_cell_setting 'monoclinic'
loop_
_space_group_symop_operation_xyz
x,y,z
-x,y,-z
-x,-y,-z
x,-y,z
loop_
_atom_site_type_symbol
_atom_site_label
_atom_site_fract_x
_atom_site_fract_y
_atom_site_fract_z
Si Si1 0.711140 0.862446 0.231235
Si Si2 0.907923 0.632532 0.525249
Si Si3 0.520194 0.855529 0.386502
Si Si4 0.181057 0.789520 0.905540
Si Si5 0.906504 0.139101 0.795122
O O1 0.782670 0.751063 0.381158
O O2 0.790758 0.844617 0.189165
O O3 0.755876 0.000000 0.319434
O O4 0.500000 0.854804 0.000000
O O5 0.825178 0.500000 0.464381
O O6 0.000000 0.623921 0.500000
O O7 0.070200 0.664668 0.775774
O O8 0.500000 0.847762 0.500000
O O9 0.716857 0.808738 0.564820
O O10 0.499635 0.000000 0.332383
O O11 0.367612 0.784957 0.161825
O O12 0.048856 0.865453 0.845906
O O13 0.859155 0.000000 0.781551
O O14 0.000000 0.199313 0.000000
#
# Coordination Sequence:
#
# PCOD9145139 Si02
#       5
#     4   4   4   4   4
#     4  10  22  37  57  91 125 152 193 246 296 346
#     4   9  21  41  61  81 112 155 202 244 290 352
#     4  10  19  31  50  83 120 153 192 236 288 351
#     4  11  21  35  58  80 117 156 197 237 291 337
#     4  10  19  31  51  82 119 156 192 234 290 349
#
# _framework density 20.278041000000002
#
# number of rings (size 3 to 8) (size 9 to 14) (size 15 to 20)
#    0.000    2.000    2.000    1.800    2.800    5.600 
#    0.000    0.000    0.000    1.200    0.000    0.000 
#    0.000    0.000    0.000    0.000    0.000    0.000 
#
# Total GULP energy -111529.352876 kJ/mol
# GULP energy per Si atom -5576.467644 kJ/mol
# Density = 2.023189 g / cm^3
# Si number density = 20.278041 Si / 1000 Ang^3
#
#
#
# Elastic Constant Matrix: (Units=GPa)
#
#
# Indices 1 2 3 4 5 6 
#
# 1 92.0348 12.7518 34.1209 0.0000 11.3948 0.0000
# 2 12.7518 119.5544 62.4170 0.0000 -0.6630 0.0000
# 3 34.1209 62.4170 170.7217 0.0000 12.3788 0.0000
# 4 0.0000 0.0000 0.0000 9.0397 0.0000 -2.0558
# 5 11.3948 -0.6630 12.3788 0.0000 34.6015 0.0000
# 6 0.0000 0.0000 0.0000 -2.0558 0.0000 3.5933
#
#
#
# Elastic Compliance Matrix: (Units=1/GPa)
#
#
# Indices 1 2 3 4 5 6 
#
# 1 0.012074 -0.000208 -0.002103 0.000000 -0.003228 0.000000
# 2 -0.000208 0.010427 -0.003891 0.000000 0.001660 0.000000
# 3 -0.002103 -0.003891 0.007860 0.000000 -0.002194 0.000000
# 4 0.000000 0.000000 0.000000 0.127169 0.000000 0.072755
# 5 -0.003228 0.001660 -0.002194 0.000000 0.030780 0.000000
# 6 0.000000 0.000000 0.000000 0.072755 0.000000 0.319920
#
#
# Mechanical properties :
#
#
# Convention : Reuss Voigt Hill
#
# Bulk Modulus (GPa) = 55.69034 66.76559 61.22797
# Shear Modulus (GPa) = 9.49454 27.64831 18.57143
#
# Velocity S-wave (km/s) = 2.16618 3.69651 3.02957
# Velocity P-wave (km/s) = 5.81201 7.15650 6.51901
#
# Compressibility (1/GPa) = 0.01795644
#
# Stress axis : x y z
#
# Youngs Moduli (GPa) = 82.82582 95.90257 127.23437
#
# Poissons Ratio (x) = 0.01992 0.26758
# Poissons Ratio (y) = 0.01720 0.49509
# Poissons Ratio (z) = 0.17419 0.37317
#
# Static dielectric constant tensor:
#      x y z
#    x 1.734740 0.000000 -0.012030 
#    y 0.000000 1.748990 0.000000 
#    z -0.012030 0.000000 1.773310 
# 
# From -- ./inp_files/50869.got.cif
#   From: 2010.05.17/outbox.cif.g08.bks.cpg/sg10_26_cif.got.tgz:50869.got - 2010.06.03 11:33:40.
