data_PCOD9145292
_publ_section_title
;
Structure prediction by ZEFSAII (Michael W. Deem and Ramdas Pophale) SiO2 
 PCOD9145292
Probable space group: P 2/M
;
_chemical_formula_sum "Si O2"
_cell_formula_units_Z 21
_cell_length_a 5.355330
_cell_length_b 7.287339
_cell_length_c 23.880840
_cell_angle_alpha 90.000000
_cell_angle_beta 76.878200
_cell_angle_gamma 90.000000
_cell_volume 907.641959
_symmetry_space_group_name_H-M "P 2/M"
_symmetry_group_IT_number 10
_symmetry_cell_setting 'monoclinic'
loop_
_space_group_symop_operation_xyz
x,y,z
-x,y,-z
-x,-y,-z
x,-y,z
loop_
_atom_site_type_symbol
_atom_site_label
_atom_site_fract_x
_atom_site_fract_y
_atom_site_fract_z
Si Si1 0.404805 0.221460 0.860461
Si Si2 0.221208 0.283438 0.528456
Si Si3 0.071932 0.779800 0.664052
Si Si4 0.500000 0.500000 0.000000
Si Si5 0.493121 0.775576 0.271685
Si Si6 0.163864 0.778713 0.070564
O O1 0.453235 0.282733 0.794564
O O2 0.634976 0.275586 0.890034
O O3 0.122323 0.272138 0.895974
O O4 0.409142 0.000000 0.859540
O O5 0.500000 0.206245 0.500000
O O6 0.234599 0.500000 0.515265
O O7 0.150677 0.263758 0.596846
O O8 0.000000 0.206198 0.500000
O O9 0.284859 0.715098 0.697268
O O10 0.786668 0.715501 0.693489
O O11 0.066217 0.000000 0.668924
O O12 0.722451 0.662120 0.985534
O O13 0.494189 0.000000 0.271743
O O14 0.174291 0.000000 0.060817
#
# Coordination Sequence:
#
# PCOD9145292 Si02
#       6
#     4   4   4   1   4   4
#     4   9  18  36  61  86 114 151 194 230 278 353
#     4  10  21  36  52  69 100 145 185 220 269 329
#     4  10  19  31  53  83 108 134 178 227 278 328
#     4  12  26  42  64  88 128 154 194 258 276 336
#     4   9  17  31  55  83 109 140 175 222 277 333
#     4  10  22  39  62  88 116 158 198 235 292 345
#
# _framework density 23.136879
#
# number of rings (size 3 to 8) (size 9 to 14) (size 15 to 20)
#    0.000    2.286    0.000    2.571    0.000    7.619 
#    0.000    2.857   12.571    0.000    0.000    0.000 
#    0.000    0.000    0.000    0.000    0.000    0.000 
#
# Total GULP energy -117226.786150 kJ/mol
# GULP energy per Si atom -5582.227912 kJ/mol
# Density = 2.308422 g / cm^3
# Si number density = 23.136879 Si / 1000 Ang^3
#
#
#
# Elastic Constant Matrix: (Units=GPa)
#
#
# Indices 1 2 3 4 5 6 
#
# 1 222.5332 18.5961 94.2687 0.0000 -6.4525 0.0000
# 2 18.5961 110.5051 -1.6532 0.0000 -8.0890 0.0000
# 3 94.2687 -1.6532 125.7493 0.0000 -7.0688 0.0000
# 4 0.0000 0.0000 0.0000 44.0789 0.0000 -17.5892
# 5 -6.4525 -8.0890 -7.0688 0.0000 51.3837 0.0000
# 6 0.0000 0.0000 0.0000 -17.5892 0.0000 -27.4328
#
#
#
# Elastic Compliance Matrix: (Units=1/GPa)
#
#
# Indices 1 2 3 4 5 6 
#
# 1 0.006743 -0.001214 -0.005073 0.000000 -0.000042 0.000000
# 2 -0.001214 0.009378 0.001116 0.000000 0.001478 0.000000
# 3 -0.005073 0.001116 0.011836 0.000000 0.001167 0.000000
# 4 0.000000 0.000000 0.000000 0.018065 0.000000 -0.011583
# 5 -0.000042 0.001478 0.001167 0.000000 0.019849 0.000000
# 6 0.000000 0.000000 0.000000 -0.011583 0.000000 -0.029026
#
#
# Mechanical properties :
#
#
# Convention : Reuss Voigt Hill
#
# Bulk Modulus (GPa) = 56.76738 75.69009 66.22873
# Shear Modulus (GPa) = 94.23559 36.77769 65.50664
#
# Velocity S-wave (km/s) = 6.38890 3.99127 5.32674
# Velocity P-wave (km/s) = 8.88891 7.35019 8.15592
#
# Compressibility (1/GPa) = 0.01761575
#
# Stress axis : x y z
#
# Youngs Moduli (GPa) = 148.30102 106.62729 84.48929
#
# Poissons Ratio (x) = 0.12942 0.42864
# Poissons Ratio (y) = 0.18000 -0.09431
# Poissons Ratio (z) = 0.75237 -0.11902
#
# Static dielectric constant tensor:
#      x y z
#    x 1.826410 0.000000 0.031640 
#    y 0.000000 1.872670 0.000000 
#    z 0.031640 0.000000 1.847220 
# 
# From -- ./inp_files/13439.got.cif
#   From: 2010.05.17/outbox.cif.g08.bks.cpg/sg10_7_cif.got.tgz:13439.got - 2010.06.03 11:33:40.
