data_PCOD9145347
_publ_section_title
;
Structure prediction by ZEFSAII (Michael W. Deem and Ramdas Pophale) SiO2 
 PCOD9145347
Probable space group: P 2/M
;
_chemical_formula_sum "Si O2"
_cell_formula_units_Z 26
_cell_length_a 18.066861
_cell_length_b 22.538811
_cell_length_c 17.399576
_cell_angle_alpha 90.000000
_cell_angle_beta 163.458113
_cell_angle_gamma 90.000000
_cell_volume 2017.272619
_symmetry_space_group_name_H-M "P 2/M"
_symmetry_group_IT_number 10
_symmetry_cell_setting 'monoclinic'
loop_
_space_group_symop_operation_xyz
x,y,z
-x,y,-z
-x,-y,-z
x,-y,z
loop_
_atom_site_type_symbol
_atom_site_label
_atom_site_fract_x
_atom_site_fract_y
_atom_site_fract_z
Si Si1 0.441855 0.928228 0.625682
Si Si2 0.246660 0.307730 0.801863
Si Si3 0.941778 0.071844 0.028021
Si Si4 0.392576 0.117435 0.746462
Si Si5 0.752450 0.436204 0.196825
Si Si6 0.746202 0.000000 0.300361
Si Si7 0.901673 0.180756 0.313436
O O1 0.670534 0.909937 0.795381
O O2 0.462907 0.897845 0.729099
O O3 0.455829 0.000000 0.650202
O O4 0.171350 0.913750 0.315316
O O5 0.256295 0.371994 0.852826
O O6 0.200498 0.247604 0.802565
O O7 0.000000 0.310868 0.500000
O O8 0.500000 0.300515 0.000000
O O9 0.933040 0.000000 0.014054
O O10 0.000000 0.093926 0.000000
O O11 0.276003 0.058354 0.669679
O O12 0.156745 0.164205 0.518700
O O13 0.654094 0.138784 0.050241
O O14 0.755483 0.500000 0.157309
O O15 0.000000 0.436365 0.500000
O O16 0.500000 0.436132 0.000000
O O17 0.000000 0.000000 0.500000
O O18 0.500000 0.000000 0.000000
O O19 0.000000 0.175786 0.500000
#
# Coordination Sequence:
#
# PCOD9145347 Si02
#       7
#     4   4   4   4   4   2   4
#     4  10  19  32  45  60  81  96 115 146 190 232
#     4   9  16  26  39  53  69  91 119 155 195 230
#     4   9  17  29  48  67  81  95 110 131 172 236
#     4  12  22  34  44  57  73  98 126 165 204 233
#     4   8  13  21  34  52  71  88 108 139 186 237
#     4  12  24  34  44  54  67  92 129 168 204 236
#     4  11  21  32  44  54  72  97 135 169 199 232
#
# _framework density 12.88869
#
# number of rings (size 3 to 8) (size 9 to 14) (size 15 to 20)
#    0.000    2.000    0.769    6.000    0.000    1.846 
#    0.000    0.000    0.000    0.000    0.000    0.000 
#    0.000    0.000    0.000    0.000    0.000    0.000 
#
# Total GULP energy -144802.334584 kJ/mol
# GULP energy per Si atom -5569.320561 kJ/mol
# Density = 1.285935 g / cm^3
# Si number density = 12.888690 Si / 1000 Ang^3
#
#
#
# Elastic Constant Matrix: (Units=GPa)
#
#
# Indices 1 2 3 4 5 6 
#
# 1 24.2368 6.0087 -10.8469 0.0000 -2.0563 0.0000
# 2 6.0087 64.7741 1.4441 0.0000 -4.5185 0.0000
# 3 -10.8469 1.4441 51.6135 0.0000 13.1493 0.0000
# 4 0.0000 0.0000 0.0000 14.0795 0.0000 5.5245
# 5 -2.0563 -4.5185 13.1493 0.0000 14.1621 0.0000
# 6 0.0000 0.0000 0.0000 5.5245 0.0000 3.9476
#
#
#
# Elastic Compliance Matrix: (Units=1/GPa)
#
#
# Indices 1 2 3 4 5 6 
#
# 1 0.047153 -0.005001 0.011411 0.000000 -0.005344 0.000000
# 2 -0.005001 0.016524 -0.003499 0.000000 0.007795 0.000000
# 3 0.011411 -0.003499 0.028467 0.000000 -0.025890 0.000000
# 4 0.000000 0.000000 0.000000 0.157524 0.000000 -0.220445
# 5 -0.005344 0.007795 -0.025890 0.000000 0.096361 0.000000
# 6 0.000000 0.000000 0.000000 -0.220445 0.000000 0.561817
#
#
# Mechanical properties :
#
#
# Convention : Reuss Voigt Hill
#
# Bulk Modulus (GPa) = 10.20781 14.87069 12.53925
# Shear Modulus (GPa) = 5.34943 16.03909 10.69426
#
# Velocity S-wave (km/s) = 2.03948 3.53148 2.88365
# Velocity P-wave (km/s) = 3.67194 5.30954 4.56478
#
# Compressibility (1/GPa) = 0.09796425
#
# Stress axis : x y z
#
# Youngs Moduli (GPa) = 21.20761 60.51817 35.12875
#
# Poissons Ratio (x) = 0.30267 -0.40085
# Poissons Ratio (y) = 0.10606 0.12292
# Poissons Ratio (z) = -0.24200 0.21177
#
# Static dielectric constant tensor:
#      x y z
#    x 1.383930 0.000000 0.002740 
#    y 0.000000 1.479320 0.000000 
#    z 0.002740 0.000000 1.417210 
# 
# From -- ./inp_files/9913.got.cif
#   From: 2010.05.17/outbox.cif.g08.bks.cpg/sg10_5_cif.got.tgz:9913.got - 2010.06.03 11:33:40.
