data_PCOD9145065
_publ_section_title
;
Structure prediction by ZEFSAII (Michael W. Deem and Ramdas Pophale) SiO2 
 PCOD9145065
Probable space group: P 2/M
;
_chemical_formula_sum "Si O2"
_cell_formula_units_Z 32
_cell_length_a 20.816655
_cell_length_b 9.616434
_cell_length_c 11.473553
_cell_angle_alpha 90.000000
_cell_angle_beta 122.003930
_cell_angle_gamma 90.000000
_cell_volume 1947.712242
_symmetry_space_group_name_H-M "P 2/M"
_symmetry_group_IT_number 10
_symmetry_cell_setting 'monoclinic'
loop_
_space_group_symop_operation_xyz
x,y,z
-x,y,-z
-x,-y,-z
x,-y,z
loop_
_atom_site_type_symbol
_atom_site_label
_atom_site_fract_x
_atom_site_fract_y
_atom_site_fract_z
Si Si1 0.790152 0.838035 0.943565
Si Si2 0.697202 0.843119 0.388125
Si Si3 0.410443 0.167439 0.910849
Si Si4 0.932553 0.155694 0.246525
Si Si5 0.175210 0.748666 0.657792
Si Si6 0.077472 0.658830 0.351139
Si Si7 0.193099 0.832298 0.313635
Si Si8 0.701626 0.659884 0.040870
O O1 0.796321 0.808467 0.812796
O O2 0.766940 0.000000 0.937044
O O3 0.872112 0.825499 0.084247
O O4 0.733732 0.737230 0.958029
O O5 0.627258 0.782972 0.247861
O O6 0.766771 0.840774 0.362498
O O7 0.734075 0.782519 0.540449
O O8 0.675240 0.000000 0.396563
O O9 0.366200 0.250904 0.968107
O O10 0.396084 0.000000 0.907798
O O11 0.500000 0.189243 0.000000
O O12 0.883812 0.170295 0.317798
O O13 0.997834 0.268988 0.302334
O O14 0.965144 0.000000 0.271255
O O15 0.127924 0.663980 0.517253
O O16 0.229634 0.665894 0.798403
O O17 0.068482 0.500000 0.304671
O O18 0.121904 0.750989 0.298597
O O19 0.184453 0.000000 0.323433
O O20 0.681193 0.500000 0.000537
#
# Coordination Sequence:
#
# PCOD9145065 Si02
#       8
#     4   4   4   4   4   4   4   4
#     4   9  19  35  52  68  88 119 159 201 238 271
#     4   8  14  27  49  74  94 116 152 192 227 269
#     4   9  17  30  50  77 107 131 149 178 223 272
#     4  10  20  32  47  66  89 120 158 198 240 284
#     4   9  18  31  47  66  92 122 154 191 236 283
#     4  11  22  32  44  65  94 123 152 193 244 290
#     4   9  18  34  53  68  86 118 161 201 233 271
#     4  10  19  31  50  74  98 124 155 190 227 274
#
# _framework density 16.429531000000001
#
# number of rings (size 3 to 8) (size 9 to 14) (size 15 to 20)
#    0.000    2.625    0.000    1.875    0.000    9.250 
#    0.000    2.500    0.000    0.750    0.000    5.250 
#    0.000    0.000    0.000    0.000    0.000    0.000 
#
# Total GULP energy -178228.079373 kJ/mol
# GULP energy per Si atom -5569.627480 kJ/mol
# Density = 1.639214 g / cm^3
# Si number density = 16.429531 Si / 1000 Ang^3
#
#
#
# Elastic Constant Matrix: (Units=GPa)
#
#
# Indices 1 2 3 4 5 6 
#
# 1 84.8413 51.6136 51.5777 0.0000 0.8743 0.0000
# 2 51.6136 83.7858 36.6313 0.0000 0.5523 0.0000
# 3 51.5777 36.6313 77.9734 0.0000 -15.7816 0.0000
# 4 0.0000 0.0000 0.0000 9.1292 0.0000 0.6961
# 5 0.8743 0.5523 -15.7816 0.0000 25.0260 0.0000
# 6 0.0000 0.0000 0.0000 0.6961 0.0000 4.2918
#
#
#
# Elastic Compliance Matrix: (Units=1/GPa)
#
#
# Indices 1 2 3 4 5 6 
#
# 1 0.027497 -0.010043 -0.015613 0.000000 -0.010585 0.000000
# 2 -0.010043 0.019374 -0.002836 0.000000 -0.001865 0.000000
# 3 -0.015613 -0.002836 0.028208 0.000000 0.018396 0.000000
# 4 0.000000 0.000000 0.000000 0.110911 0.000000 -0.017990
# 5 -0.010585 -0.001865 0.018396 0.000000 0.051970 0.000000
# 6 0.000000 0.000000 0.000000 -0.017990 0.000000 0.235921
#
#
# Mechanical properties :
#
#
# Convention : Reuss Voigt Hill
#
# Bulk Modulus (GPa) = 55.26247 58.47174 56.86710
# Shear Modulus (GPa) = 9.31277 14.80791 12.06034
#
# Velocity S-wave (km/s) = 2.38340 3.00542 2.71230
# Velocity P-wave (km/s) = 6.42520 6.90725 6.67058
#
# Compressibility (1/GPa) = 0.01809546
#
# Stress axis : x y z
#
# Youngs Moduli (GPa) = 36.36764 51.61537 35.45072
#
# Poissons Ratio (x) = 0.51837 0.55349
# Poissons Ratio (y) = 0.36524 0.10054
# Poissons Ratio (z) = 0.56780 0.14639
#
# Static dielectric constant tensor:
#      x y z
#    x 1.519190 0.000000 0.007300 
#    y 0.000000 1.561750 0.000000 
#    z 0.007300 0.000000 1.575470 
# 
# From -- ./inp_files/54947.got.cif
#   From: 2010.05.17/outbox.cif.g08.bks.cpg/sg10_28_cif.got.tgz:54947.got - 2010.06.03 11:33:40.
