data_PCOD9145178
_publ_section_title
;
Structure prediction by ZEFSAII (Michael W. Deem and Ramdas Pophale) SiO2 
 PCOD9145178
Probable space group: P 2/M
;
_chemical_formula_sum "Si O2"
_cell_formula_units_Z 22
_cell_length_a 15.331033
_cell_length_b 12.644785
_cell_length_c 6.845430
_cell_angle_alpha 90.000000
_cell_angle_beta 122.342246
_cell_angle_gamma 90.000000
_cell_volume 1121.172048
_symmetry_space_group_name_H-M "P 2/M"
_symmetry_group_IT_number 10
_symmetry_cell_setting 'monoclinic'
loop_
_space_group_symop_operation_xyz
x,y,z
-x,y,-z
-x,-y,-z
x,-y,z
loop_
_atom_site_type_symbol
_atom_site_label
_atom_site_fract_x
_atom_site_fract_y
_atom_site_fract_z
Si Si1 0.612789 0.293205 0.164464
Si Si2 0.401732 0.117029 0.526732
Si Si3 0.156910 0.622896 0.510646
Si Si4 0.093297 0.192432 0.726534
Si Si5 0.000000 0.285412 0.000000
Si Si6 0.311126 0.116961 0.029761
O O1 0.598955 0.208749 0.320457
O O2 0.718019 0.356604 0.341961
O O3 0.634072 0.217108 0.003350
O O4 0.500000 0.347593 0.000000
O O5 0.500000 0.121611 0.500000
O O6 0.397406 0.000000 0.611367
O O7 0.310266 0.128783 0.262136
O O8 0.139527 0.500000 0.530762
O O9 0.117124 0.698063 0.638008
O O10 0.088513 0.653102 0.235252
O O11 0.194441 0.123773 0.823638
O O12 0.000000 0.140733 0.500000
O O13 0.060324 0.218688 0.907296
O O14 0.355694 0.000000 0.039792
#
# Coordination Sequence:
#
# PCOD9145178 Si02
#       6
#     4   4   4   4   2   4
#     4  11  21  35  55  77 110 147 178 216 264 313
#     4  10  19  31  51  78 104 135 179 219 251 298
#     4  10  22  37  56  82 106 136 179 223 269 318
#     4   9  20  36  55  81 108 137 173 219 268 318
#     4  10  19  38  63  78 104 136 173 226 273 316
#     4  10  20  34  53  79 111 143 178 217 258 309
#
# _framework density 19.622323999999999
#
# number of rings (size 3 to 8) (size 9 to 14) (size 15 to 20)
#    0.000    2.000    1.818    1.909    0.000    5.455 
#    0.000    0.455    0.000    0.545    0.000    0.000 
#    0.000    0.000    0.000    0.000    0.000    0.000 
#
# Total GULP energy -122513.665231 kJ/mol
# GULP energy per Si atom -5568.802965 kJ/mol
# Density = 1.957766 g / cm^3
# Si number density = 19.622324 Si / 1000 Ang^3
#
#
#
# Elastic Constant Matrix: (Units=GPa)
#
#
# Indices 1 2 3 4 5 6 
#
# 1 68.5480 -1.9108 27.2937 0.0000 19.8040 0.0000
# 2 -1.9108 47.9569 17.0677 0.0000 -1.5200 0.0000
# 3 27.2937 17.0677 92.9548 0.0000 9.6160 0.0000
# 4 0.0000 0.0000 0.0000 10.7478 0.0000 2.5718
# 5 19.8040 -1.5200 9.6160 0.0000 48.4665 0.0000
# 6 0.0000 0.0000 0.0000 2.5718 0.0000 9.7659
#
#
#
# Elastic Compliance Matrix: (Units=1/GPa)
#
#
# Indices 1 2 3 4 5 6 
#
# 1 0.018615 0.002399 -0.005235 0.000000 -0.006493 0.000000
# 2 0.002399 0.022733 -0.004952 0.000000 0.000715 0.000000
# 3 -0.005235 -0.004952 0.013271 0.000000 -0.000649 0.000000
# 4 0.000000 0.000000 0.000000 0.099300 0.000000 -0.026150
# 5 -0.006493 0.000715 -0.000649 0.000000 0.023437 0.000000
# 6 0.000000 0.000000 0.000000 -0.026150 0.000000 0.109284
#
#
# Mechanical properties :
#
#
# Convention : Reuss Voigt Hill
#
# Bulk Modulus (GPa) = 25.61265 32.70677 29.15971
# Shear Modulus (GPa) = 15.86137 24.92998 20.39568
#
# Velocity S-wave (km/s) = 2.84620 3.56826 3.22749
# Velocity P-wave (km/s) = 4.88695 5.80353 5.36485
#
# Compressibility (1/GPa) = 0.03904320
#
# Stress axis : x y z
#
# Youngs Moduli (GPa) = 53.71945 43.98918 75.34968
#
# Poissons Ratio (x) = -0.10553 0.39443
# Poissons Ratio (y) = -0.12887 0.37316
# Poissons Ratio (z) = 0.28121 0.21785
#
# Static dielectric constant tensor:
#      x y z
#    x 1.730250 0.000000 0.066090 
#    y 0.000000 1.658900 0.000000 
#    z 0.066090 0.000000 1.763100 
# 
# From -- ./inp_files/9332.got.cif
#   From: 2010.05.17/outbox.cif.g08.bks.cpg/sg10_5_cif.got.tgz:9332.got - 2010.06.03 11:33:40.
