data_PCOD9145400
_publ_section_title
;
Structure prediction by ZEFSAII (Michael W. Deem and Ramdas Pophale) SiO2 
 PCOD9145400
Probable space group: P 2/M
;
_chemical_formula_sum "Si O2"
_cell_formula_units_Z 28
_cell_length_a 28.381866
_cell_length_b 7.390093
_cell_length_c 9.790141
_cell_angle_alpha 90.000000
_cell_angle_beta 139.563578
_cell_angle_gamma 90.000000
_cell_volume 1331.862312
_symmetry_space_group_name_H-M "P 2/M"
_symmetry_group_IT_number 10
_symmetry_cell_setting 'monoclinic'
loop_
_space_group_symop_operation_xyz
x,y,z
-x,y,-z
-x,-y,-z
x,-y,z
loop_
_atom_site_type_symbol
_atom_site_label
_atom_site_fract_x
_atom_site_fract_y
_atom_site_fract_z
Si Si1 0.919617 0.278180 0.867731
Si Si2 0.205788 0.712403 0.616385
Si Si3 0.289178 0.784189 0.547937
Si Si4 0.441890 0.780968 0.760848
Si Si5 0.165083 0.298099 0.070468
Si Si6 0.738572 0.722429 0.968973
Si Si7 0.429552 0.707332 0.421621
O O1 0.916482 0.500000 0.865033
O O2 0.860877 0.216339 0.623738
O O3 0.898591 0.215946 0.975350
O O4 0.000000 0.226327 0.000000
O O5 0.191151 0.500000 0.601179
O O6 0.276309 0.737427 0.676596
O O7 0.224821 0.781298 0.808239
O O8 0.364675 0.728276 0.651599
O O9 0.226997 0.692117 0.322726
O O10 0.281672 0.000000 0.516077
O O11 0.449102 0.710138 0.624467
O O12 0.445029 0.000000 0.758766
O O13 0.500000 0.721578 0.000000
O O14 0.141440 0.500000 0.975647
O O15 0.208739 0.216608 0.038708
O O16 0.736753 0.500000 0.957516
O O17 0.653579 0.781513 0.773041
O O18 0.500000 0.788907 0.500000
O O19 0.423704 0.500000 0.358467
#
# Coordination Sequence:
#
# PCOD9145400 Si02
#       7
#     4   4   4   4   4   4   4
#     4   8  14  26  46  73 101 127 159 194 232 286
#     4   9  18  31  50  72  97 129 160 196 244 286
#     4  10  19  32  49  70  94 123 164 205 238 282
#     4  10  22  37  50  68  97 129 162 202 247 294
#     4   9  16  30  52  71  93 128 160 195 243 286
#     4   9  17  31  49  71  98 125 161 201 240 288
#     4  10  21  35  51  73  98 126 163 206 245 286
#
# _framework density 21.023195999999999
#
# number of rings (size 3 to 8) (size 9 to 14) (size 15 to 20)
#    0.000    2.714    1.429    1.286    2.000    1.143 
#    0.000    2.143    0.000   11.143    0.000    0.000 
#    0.000    9.143    0.000    0.000    0.000    0.000 
#
# Total GULP energy -156020.426344 kJ/mol
# GULP energy per Si atom -5572.158084 kJ/mol
# Density = 2.097535 g / cm^3
# Si number density = 21.023196 Si / 1000 Ang^3
#
#
#
# Elastic Constant Matrix: (Units=GPa)
#
#
# Indices 1 2 3 4 5 6 
#
# 1 227.6025 -0.6495 81.2711 0.0000 -10.7561 0.0000
# 2 -0.6495 64.8658 4.0146 0.0000 1.4391 0.0000
# 3 81.2711 4.0146 81.5065 0.0000 -16.8092 0.0000
# 4 0.0000 0.0000 0.0000 179.9549 0.0000 -22.1886
# 5 -10.7561 1.4391 -16.8092 0.0000 38.5866 0.0000
# 6 0.0000 0.0000 0.0000 -22.1886 0.0000 1.8198
#
#
#
# Elastic Compliance Matrix: (Units=1/GPa)
#
#
# Indices 1 2 3 4 5 6 
#
# 1 0.006890 0.000538 -0.007146 0.000000 -0.001213 0.000000
# 2 0.000538 0.015541 -0.001528 0.000000 -0.001095 0.000000
# 3 -0.007146 -0.001528 0.020953 0.000000 0.007193 0.000000
# 4 0.000000 0.000000 0.000000 -0.011039 0.000000 -0.134594
# 5 -0.001213 -0.001095 0.007193 0.000000 0.028752 0.000000
# 6 0.000000 0.000000 0.000000 -0.134594 0.000000 -1.091589
#
#
# Mechanical properties :
#
#
# Convention : Reuss Voigt Hill
#
# Bulk Modulus (GPa) = 36.88484 60.36079 48.62281
# Shear Modulus (GPa) = -4.97422 63.36149 29.19363
#
# Velocity S-wave (km/s) = -1.53987 5.49584 3.73049
# Velocity P-wave (km/s) = 3.79754 8.30941 6.46017
#
# Compressibility (1/GPa) = 0.02711141
#
# Stress axis : x y z
#
# Youngs Moduli (GPa) = 145.14590 64.34716 47.72532
#
# Poissons Ratio (x) = -0.03463 0.34106
# Poissons Ratio (y) = -0.07811 0.07292
# Poissons Ratio (z) = 1.03726 0.09832
#
# Static dielectric constant tensor:
#      x y z
#    x 1.797550 0.000000 0.024320 
#    y 0.000000 1.982010 0.000000 
#    z 0.024320 0.000000 1.731530 
# 
# From -- ./inp_files/37942.got.cif
#   From: 2010.05.17/outbox.cif.g08.bks.cpg/sg10_19_cif.got.tgz:37942.got - 2010.06.03 11:33:40.
