data_PCOD9145355
_publ_section_title
;
Structure prediction by ZEFSAII (Michael W. Deem and Ramdas Pophale) SiO2 
 PCOD9145355
Probable space group: P 2/M
;
_chemical_formula_sum "Si O2"
_cell_formula_units_Z 32
_cell_length_a 15.228182
_cell_length_b 8.554067
_cell_length_c 9.953804
_cell_angle_alpha 90.000000
_cell_angle_beta 83.707165
_cell_angle_gamma 90.000000
_cell_volume 1288.798756
_symmetry_space_group_name_H-M "P 2/M"
_symmetry_group_IT_number 10
_symmetry_cell_setting 'monoclinic'
loop_
_space_group_symop_operation_xyz
x,y,z
-x,y,-z
-x,-y,-z
x,-y,z
loop_
_atom_site_type_symbol
_atom_site_label
_atom_site_fract_x
_atom_site_fract_y
_atom_site_fract_z
Si Si1 0.313264 0.811726 0.649780
Si Si2 0.822386 0.186330 0.715412
Si Si3 0.576502 0.818454 0.604001
Si Si4 0.003630 0.679611 0.174406
Si Si5 0.089729 0.179566 0.567646
Si Si6 0.453663 0.684666 0.839408
Si Si7 0.172260 0.814207 0.884269
Si Si8 0.314762 0.685792 0.070032
O O1 0.340237 0.759681 0.496296
O O2 0.378879 0.728462 0.742341
O O3 0.216819 0.787416 0.728934
O O4 0.329722 0.000000 0.652653
O O5 0.842980 0.233635 0.558923
O O6 0.904021 0.240324 0.797613
O O7 0.822832 0.000000 0.715614
O O8 0.729315 0.242545 0.790244
O O9 0.500000 0.809859 0.500000
O O10 0.540694 0.739690 0.744980
O O11 0.589756 0.000000 0.634483
O O12 0.021051 0.500000 0.139947
O O13 0.944669 0.696469 0.319397
O O14 0.928221 0.755240 0.089998
O O15 0.000000 0.155362 0.500000
O O16 0.109763 0.000000 0.614497
O O17 0.461384 0.500000 0.854178
O O18 0.406926 0.743706 0.985920
O O19 0.238663 0.726798 0.972966
O O20 0.175700 0.000000 0.911722
O O21 0.321426 0.500000 0.084625
#
# Coordination Sequence:
#
# PCOD9145355 Si02
#       8
#     4   4   4   4   4   4   4   4
#     4   8  15  26  39  55  77 109 145 179 212 247
#     4  10  20  34  51  68  86 113 149 183 218 260
#     4   8  13  22  36  54  76 104 141 178 209 246
#     4  11  21  32  48  69  91 114 143 180 223 264
#     4   8  16  32  51  69  87 107 138 180 220 260
#     4   9  16  24  36  56  82 111 140 173 213 254
#     4  10  19  32  47  62  87 122 155 183 216 258
#     4  10  20  32  44  63  92 120 149 184 220 259
#
# _framework density 24.829322000000001
#
# number of rings (size 3 to 8) (size 9 to 14) (size 15 to 20)
#    0.000    2.750    0.000    4.125    0.000    7.500 
#    0.000    2.500    0.000    0.000    0.000    0.000 
#    0.000    1.000    0.000   11.250    0.000    7.000 
#
# Total GULP energy -178647.162398 kJ/mol
# GULP energy per Si atom -5582.723825 kJ/mol
# Density = 2.477281 g / cm^3
# Si number density = 24.829322 Si / 1000 Ang^3
#
#
#
# Elastic Constant Matrix: (Units=GPa)
#
#
# Indices 1 2 3 4 5 6 
#
# 1 131.8849 5.3783 29.4775 0.0000 -39.2343 0.0000
# 2 5.3783 33.1476 10.8860 0.0000 -9.5453 0.0000
# 3 29.4775 10.8860 169.6007 0.0000 -43.5033 0.0000
# 4 0.0000 0.0000 0.0000 32.9112 0.0000 -11.9651
# 5 -39.2343 -9.5453 -43.5033 0.0000 51.4350 0.0000
# 6 0.0000 0.0000 0.0000 -11.9651 0.0000 13.0199
#
#
#
# Elastic Compliance Matrix: (Units=1/GPa)
#
#
# Indices 1 2 3 4 5 6 
#
# 1 0.009828 0.000573 0.000262 0.000000 0.007825 0.000000
# 2 0.000573 0.031965 -0.000661 0.000000 0.005810 0.000000
# 3 0.000262 -0.000661 0.007551 0.000000 0.006464 0.000000
# 4 0.000000 0.000000 0.000000 0.045630 0.000000 0.041934
# 5 0.007825 0.005810 0.006464 0.000000 0.031956 0.000000
# 6 0.000000 0.000000 0.000000 0.041934 0.000000 0.115342
#
#
# Mechanical properties :
#
#
# Convention : Reuss Voigt Hill
#
# Bulk Modulus (GPa) = 20.12397 47.34629 33.73513
# Shear Modulus (GPa) = 19.34311 38.73265 29.03788
#
# Velocity S-wave (km/s) = 2.79416 3.95391 3.42350
# Velocity P-wave (km/s) = 4.30492 6.32097 5.40772
#
# Compressibility (1/GPa) = 0.04969200
#
# Stress axis : x y z
#
# Youngs Moduli (GPa) = 101.74756 31.28399 132.43110
#
# Poissons Ratio (x) = -0.01791 -0.03472
# Poissons Ratio (y) = -0.05825 0.08754
# Poissons Ratio (z) = -0.02668 0.02068
#
# Static dielectric constant tensor:
#      x y z
#    x 2.085700 0.000000 0.078640 
#    y 0.000000 1.854470 0.000000 
#    z 0.078640 0.000000 2.146490 
# 
# From -- ./inp_files/54861.got.cif
#   From: 2010.05.17/outbox.cif.g08.bks.cpg/sg10_28_cif.got.tgz:54861.got - 2010.06.03 11:33:40.
