data_PCOD9145991
_publ_section_title
;
Structure prediction by ZEFSAII (Michael W. Deem and Ramdas Pophale) SiO2 
 PCOD9145991
Probable space group: P 2/M
;
_chemical_formula_sum "Si O2"
_cell_formula_units_Z 32
_cell_length_a 27.081055
_cell_length_b 8.797601
_cell_length_c 21.487941
_cell_angle_alpha 90.000000
_cell_angle_beta 158.975072
_cell_angle_gamma 90.000000
_cell_volume 1836.731692
_symmetry_space_group_name_H-M "P 2/M"
_symmetry_group_IT_number 10
_symmetry_cell_setting 'monoclinic'
loop_
_space_group_symop_operation_xyz
x,y,z
-x,y,-z
-x,-y,-z
x,-y,z
loop_
_atom_site_type_symbol
_atom_site_label
_atom_site_fract_x
_atom_site_fract_y
_atom_site_fract_z
Si Si1 0.487226 0.681474 0.665543
Si Si2 0.899725 0.318469 0.440144
Si Si3 0.608288 0.318208 0.940588
Si Si4 0.090834 0.184791 0.015658
Si Si5 0.795854 0.183761 0.717053
Si Si6 0.890215 0.181861 0.221827
Si Si7 0.767460 0.816725 0.944912
Si Si8 0.398959 0.818257 0.937509
O O1 0.486888 0.500000 0.659605
O O2 0.515602 0.719915 0.771519
O O3 0.344332 0.748038 0.473468
O O4 0.617572 0.747078 0.781138
O O5 0.884706 0.500000 0.425320
O O6 0.752947 0.242738 0.256302
O O7 0.000000 0.282102 0.500000
O O8 0.975408 0.256298 0.590434
O O9 0.623397 0.500000 0.961951
O O10 0.757635 0.245745 0.102630
O O11 0.555321 0.253995 0.943312
O O12 0.931866 0.230786 0.838245
O O13 0.090179 0.000000 0.013775
O O14 0.173320 0.228557 0.175079
O O15 0.162325 0.236448 0.036342
O O16 0.787558 0.000000 0.705377
O O17 0.896065 0.000000 0.235383
O O18 0.861157 0.219232 0.115394
O O19 0.753263 0.000000 0.925995
O O20 0.395648 0.000000 0.939833
O O21 0.500000 0.777553 0.000000
#
# Coordination Sequence:
#
# PCOD9145991 Si02
#       8
#     4   4   4   4   4   4   4   4
#     4  10  21  35  52  78 111 141 176 217 260 315
#     4  11  22  36  58  83 107 143 182 215 262 324
#     4  10  20  36  56  76 106 145 180 215 264 323
#     4   8  16  33  56  80 105 136 177 224 264 311
#     4   9  17  33  57  79 103 140 182 218 262 314
#     4  10  19  32  55  82 108 137 177 228 272 310
#     4   9  18  34  55  79 107 138 176 221 270 312
#     4  11  24  40  58  82 109 137 176 226 272 312
#
# _framework density 17.422249000000001
#
# number of rings (size 3 to 8) (size 9 to 14) (size 15 to 20)
#    0.000    2.250    1.250    2.625    0.000    4.000 
#    2.250    5.000    0.000    0.000    0.000    0.000 
#    0.000    0.000    0.000    0.000    0.000    0.000 
#
# Total GULP energy -178573.569699 kJ/mol
# GULP energy per Si atom -5580.424053 kJ/mol
# Density = 1.738260 g / cm^3
# Si number density = 17.422249 Si / 1000 Ang^3
#
#
#
# Elastic Constant Matrix: (Units=GPa)
#
#
# Indices 1 2 3 4 5 6 
#
# 1 166.7745 44.0016 79.4045 0.0000 -1.1506 0.0000
# 2 44.0016 27.2923 32.7002 0.0000 0.2663 0.0000
# 3 79.4045 32.7002 129.6614 0.0000 -6.0951 0.0000
# 4 0.0000 0.0000 0.0000 -16.6436 0.0000 -23.5774
# 5 -1.1506 0.2663 -6.0951 0.0000 14.7466 0.0000
# 6 0.0000 0.0000 0.0000 -23.5774 0.0000 6.9759
#
#
#
# Elastic Compliance Matrix: (Units=1/GPa)
#
#
# Indices 1 2 3 4 5 6 
#
# 1 0.011369 -0.014289 -0.003370 0.000000 -0.000248 0.000000
# 2 -0.014289 0.071093 -0.009476 0.000000 -0.006315 0.000000
# 3 -0.003370 -0.009476 0.012403 0.000000 0.005034 0.000000
# 4 0.000000 0.000000 0.000000 -0.010381 0.000000 -0.035086
# 5 -0.000248 -0.006315 0.005034 0.000000 0.069988 0.000000
# 6 0.000000 0.000000 0.000000 -0.035086 0.000000 0.024767
#
#
# Mechanical properties :
#
#
# Convention : Reuss Voigt Hill
#
# Bulk Modulus (GPa) = 24.63395 70.66008 47.64702
# Shear Modulus (GPa) = 20.23959 12.19056 16.21507
#
# Velocity S-wave (km/s) = 3.41208 2.64808 3.05406
# Velocity P-wave (km/s) = 5.44914 7.07073 6.31222
#
# Compressibility (1/GPa) = 0.04059438
#
# Stress axis : x y z
#
# Youngs Moduli (GPa) = 87.95721 14.06616 80.62671
#
# Poissons Ratio (x) = 0.20099 0.27175
# Poissons Ratio (y) = 1.25683 0.76399
# Poissons Ratio (z) = 0.29646 0.13329
#
# Static dielectric constant tensor:
#      x y z
#    x 1.594730 0.000000 -0.017090 
#    y 0.000000 1.580100 0.000000 
#    z -0.017090 0.000000 1.566780 
# 
# From -- ./inp_files/86975.got.cif
#   From: 2010.05.17/outbox.cif.g08.bks.cpg/sg10_44_cif.got.tgz:86975.got - 2010.06.03 11:33:40.
