data_PCOD9145218
_publ_section_title
;
Structure prediction by ZEFSAII (Michael W. Deem and Ramdas Pophale) SiO2 
 PCOD9145218
Probable space group: P 2/M
;
_chemical_formula_sum "Si O2"
_cell_formula_units_Z 28
_cell_length_a 5.203925
_cell_length_b 21.422666
_cell_length_c 13.016905
_cell_angle_alpha 90.000000
_cell_angle_beta 101.818588
_cell_angle_gamma 90.000000
_cell_volume 1420.386980
_symmetry_space_group_name_H-M "P 2/M"
_symmetry_group_IT_number 10
_symmetry_cell_setting 'monoclinic'
loop_
_space_group_symop_operation_xyz
x,y,z
-x,y,-z
-x,-y,-z
x,-y,z
loop_
_atom_site_type_symbol
_atom_site_label
_atom_site_fract_x
_atom_site_fract_y
_atom_site_fract_z
Si Si1 0.491479 0.356787 0.122345
Si Si2 0.083153 0.828236 0.243671
Si Si3 0.513717 0.790641 0.124381
Si Si4 0.217441 0.410300 0.435298
Si Si5 0.025380 0.429207 0.193990
Si Si6 0.784857 0.074036 0.570621
Si Si7 0.217170 0.260385 0.435307
O O1 0.509568 0.283498 0.151620
O O2 0.225573 0.388364 0.142105
O O3 0.745849 0.394682 0.181624
O O4 0.500000 0.360627 0.000000
O O5 0.268858 0.823305 0.159852
O O6 0.147414 0.886715 0.322364
O O7 0.154444 0.769433 0.321563
O O8 0.781461 0.821367 0.186943
O O9 0.500000 0.794925 0.000000
O O10 0.500000 0.429072 0.500000
O O11 0.152132 0.432921 0.316933
O O12 0.214603 0.334932 0.427942
O O13 0.000000 0.428698 0.500000
O O14 0.992640 0.500000 0.150923
O O15 0.500000 0.089801 0.500000
O O16 0.000000 0.086336 0.500000
O O17 0.786871 0.000000 0.593233
O O18 0.500000 0.240615 0.500000
O O19 0.000000 0.240692 0.500000
#
# Coordination Sequence:
#
# PCOD9145218 Si02
#       7
#     4   4   4   4   4   4   4
#     4  11  24  43  63  85 115 147 187 247 314 362
#     4  12  21  36  62  88 121 157 197 245 295 345
#     4  11  24  40  61  87 115 153 200 250 301 356
#     4  10  21  36  54  77 109 145 180 225 278 336
#     4  12  25  40  61  86 112 149 197 240 290 365
#     4  10  21  38  61  94 134 170 204 239 284 349
#     4  10  19  31  51  82 112 139 179 229 286 346
#
# _framework density 19.712938999999999
#
# number of rings (size 3 to 8) (size 9 to 14) (size 15 to 20)
#    0.000    1.143    0.000    7.286    0.000    6.857 
#    0.000    0.000    0.000    2.571    0.000    0.000 
#    0.000    0.000    0.000    0.000    0.000    0.000 
#
# Total GULP energy -156677.470492 kJ/mol
# GULP energy per Si atom -5595.623946 kJ/mol
# Density = 1.966807 g / cm^3
# Si number density = 19.712939 Si / 1000 Ang^3
#
#
#
# Elastic Constant Matrix: (Units=GPa)
#
#
# Indices 1 2 3 4 5 6 
#
# 1 93.7548 17.0867 -4.8294 0.0000 -5.3653 0.0000
# 2 17.0867 114.9415 21.5487 0.0000 -3.4339 0.0000
# 3 -4.8294 21.5487 56.9172 0.0000 -5.5677 0.0000
# 4 0.0000 0.0000 0.0000 44.8687 0.0000 22.4503
# 5 -5.3653 -3.4339 -5.5677 0.0000 42.4814 0.0000
# 6 0.0000 0.0000 0.0000 22.4503 0.0000 24.8974
#
#
#
# Elastic Compliance Matrix: (Units=1/GPa)
#
#
# Indices 1 2 3 4 5 6 
#
# 1 0.011205 -0.001966 0.001842 0.000000 0.001498 0.000000
# 2 -0.001966 0.009713 -0.003841 0.000000 0.000033 0.000000
# 3 0.001842 -0.003841 0.019421 0.000000 0.002467 0.000000
# 4 0.000000 0.000000 0.000000 0.040609 0.000000 -0.036618
# 5 0.001498 0.000033 0.002467 0.000000 0.024055 0.000000
# 6 0.000000 0.000000 0.000000 -0.036618 0.000000 0.073184
#
#
# Mechanical properties :
#
#
# Convention : Reuss Voigt Hill
#
# Bulk Modulus (GPa) = 30.85612 37.02505 33.94059
# Shear Modulus (GPa) = 25.39083 37.90333 31.64708
#
# Velocity S-wave (km/s) = 3.59281 4.38969 4.01109
# Velocity P-wave (km/s) = 5.73565 6.67199 6.22146
#
# Compressibility (1/GPa) = 0.03240848
#
# Stress axis : x y z
#
# Youngs Moduli (GPa) = 89.24565 102.94979 51.49004
#
# Poissons Ratio (x) = 0.20242 -0.09483
# Poissons Ratio (y) = 0.17548 0.19778
# Poissons Ratio (z) = -0.16436 0.39544
#
# Static dielectric constant tensor:
#      x y z
#    x 1.677350 0.000000 -0.002420 
#    y 0.000000 1.706490 0.000000 
#    z -0.002420 0.000000 1.657490 
# 
# From -- ./inp_files/39765.got.cif
#   From: 2010.05.17/outbox.cif.g08.bks.cpg/sg10_20_cif.got.tgz:39765.got - 2010.06.03 11:33:40.
