data_PCOD9145389
_publ_section_title
;
Structure prediction by ZEFSAII (Michael W. Deem and Ramdas Pophale) SiO2 
 PCOD9145389
Probable space group: P 2/M
;
_chemical_formula_sum "Si O2"
_cell_formula_units_Z 24
_cell_length_a 20.617462
_cell_length_b 7.886137
_cell_length_c 11.726793
_cell_angle_alpha 90.000000
_cell_angle_beta 136.348963
_cell_angle_gamma 90.000000
_cell_volume 1316.116139
_symmetry_space_group_name_H-M "P 2/M"
_symmetry_group_IT_number 10
_symmetry_cell_setting 'monoclinic'
loop_
_space_group_symop_operation_xyz
x,y,z
-x,y,-z
-x,-y,-z
x,-y,z
loop_
_atom_site_type_symbol
_atom_site_label
_atom_site_fract_x
_atom_site_fract_y
_atom_site_fract_z
Si Si1 0.719287 0.707941 0.686128
Si Si2 0.685281 0.294918 0.903262
Si Si3 0.482597 0.303021 0.614938
Si Si4 0.131578 0.193167 0.738576
Si Si5 0.941158 0.304595 0.592322
Si Si6 0.088333 0.707791 0.188617
O O1 0.716841 0.500000 0.682182
O O2 0.717139 0.758821 0.816431
O O3 0.621950 0.769148 0.504474
O O4 0.813647 0.761264 0.743088
O O5 0.680382 0.500000 0.895053
O O6 0.578922 0.229842 0.788470
O O7 0.764073 0.242499 0.092602
O O8 0.500000 0.302961 0.500000
O O9 0.477727 0.500000 0.645140
O O10 0.110663 0.214397 0.578172
O O11 0.052150 0.298278 0.704516
O O12 0.114329 0.000000 0.749160
O O13 0.910531 0.500000 0.550274
O O14 0.922281 0.236078 0.694220
O O15 0.086975 0.500000 0.187854
O O16 0.000000 0.762327 0.000000
#
# Coordination Sequence:
#
# PCOD9145389 Si02
#       6
#     4   4   4   4   4   4
#     4   8  13  23  42  70  99 119 141 180 225 263
#     4   9  15  26  47  71  92 116 149 183 218 263
#     4   7  11  20  38  66  94 117 142 178 221 259
#     4  11  21  32  46  64  89 118 149 187 227 260
#     4  10  19  32  49  67  88 116 150 182 217 263
#     4   9  16  25  42  70  97 117 139 174 220 266
#
# _framework density 18.235472000000001
#
# number of rings (size 3 to 8) (size 9 to 14) (size 15 to 20)
#    0.000    3.000    0.000    6.000    0.000    2.667 
#    0.000    0.000    0.000   14.500    0.000    7.000 
#    0.000    0.000    0.000    0.000    0.000    0.000 
#
# Total GULP energy -133705.899449 kJ/mol
# GULP energy per Si atom -5571.079144 kJ/mol
# Density = 1.819397 g / cm^3
# Si number density = 18.235472 Si / 1000 Ang^3
#
#
#
# Elastic Constant Matrix: (Units=GPa)
#
#
# Indices 1 2 3 4 5 6 
#
# 1 113.4041 1.3453 73.8996 0.0000 18.5880 0.0000
# 2 1.3453 23.8769 2.7210 0.0000 -0.2891 0.0000
# 3 73.8996 2.7210 152.2254 0.0000 33.0723 0.0000
# 4 0.0000 0.0000 0.0000 -76.8319 0.0000 26.8591
# 5 18.5880 -0.2891 33.0723 0.0000 26.9737 0.0000
# 6 0.0000 0.0000 0.0000 26.8591 0.0000 -19.7499
#
#
#
# Elastic Compliance Matrix: (Units=1/GPa)
#
#
# Indices 1 2 3 4 5 6 
#
# 1 0.012953 -0.000075 -0.005926 0.000000 -0.001661 0.000000
# 2 -0.000075 0.042036 -0.001124 0.000000 0.001880 0.000000
# 3 -0.005926 -0.001124 0.011697 0.000000 -0.010271 0.000000
# 4 0.000000 0.000000 0.000000 -0.024811 0.000000 -0.033742
# 5 -0.001661 0.001880 -0.010271 0.000000 0.050831 0.000000
# 6 0.000000 0.000000 0.000000 -0.033742 0.000000 -0.096521
#
#
# Mechanical properties :
#
#
# Convention : Reuss Voigt Hill
#
# Bulk Modulus (GPa) = 19.06989 49.49313 34.28151
# Shear Modulus (GPa) = 179.12817 0.18109 89.65463
#
# Velocity S-wave (km/s) = 9.92189 0.31547 7.01938
# Velocity P-wave (km/s) = 11.90541 5.22807 9.19433
#
# Compressibility (1/GPa) = 0.05243869
#
# Stress axis : x y z
#
# Youngs Moduli (GPa) = 77.20382 23.78889 85.48876
#
# Poissons Ratio (x) = 0.00177 0.50659
# Poissons Ratio (y) = 0.00576 0.09605
# Poissons Ratio (z) = 0.45750 0.02673
#
# Static dielectric constant tensor:
#      x y z
#    x 1.611530 0.000000 0.028570 
#    y 0.000000 1.634420 0.000000 
#    z 0.028570 0.000000 1.640510 
# 
# From -- ./inp_files/55044.got.cif
#   From: 2010.05.17/outbox.cif.g08.bks.cpg/sg10_28_cif.got.tgz:55044.got - 2010.06.03 11:33:40.
