data_PCOD9145232
_publ_section_title
;
Structure prediction by ZEFSAII (Michael W. Deem and Ramdas Pophale) SiO2 
 PCOD9145232
Probable space group: P 2/M
;
_chemical_formula_sum "Si O2"
_cell_formula_units_Z 32
_cell_length_a 12.585105
_cell_length_b 9.427500
_cell_length_c 24.127068
_cell_angle_alpha 90.000000
_cell_angle_beta 133.717022
_cell_angle_gamma 90.000000
_cell_volume 2068.965074
_symmetry_space_group_name_H-M "P 2/M"
_symmetry_group_IT_number 10
_symmetry_cell_setting 'monoclinic'
loop_
_space_group_symop_operation_xyz
x,y,z
-x,y,-z
-x,-y,-z
x,-y,z
loop_
_atom_site_type_symbol
_atom_site_label
_atom_site_fract_x
_atom_site_fract_y
_atom_site_fract_z
Si Si1 0.305557 0.330771 0.575765
Si Si2 0.567007 0.330854 0.583965
Si Si3 0.938521 0.831958 0.581000
Si Si4 0.576942 0.167927 0.151970
Si Si5 0.828782 0.831420 0.150769
Si Si6 0.282693 0.831425 0.680177
Si Si7 0.133776 0.169760 0.316437
Si Si8 0.371828 0.336682 0.000847
O O1 0.286734 0.500000 0.573037
O O2 0.445383 0.301812 0.586755
O O3 0.164209 0.259923 0.495715
O O4 0.325428 0.260078 0.642646
O O5 0.500000 0.289561 0.500000
O O6 0.594045 0.500000 0.592254
O O7 0.718682 0.249299 0.647321
O O8 0.901891 0.799362 0.631861
O O9 0.110413 0.807434 0.631516
O O10 0.909954 0.000000 0.561510
O O11 0.718218 0.191465 0.162905
O O12 0.624069 0.203209 0.231310
O O13 0.443061 0.256932 0.078672
O O14 0.543751 0.000000 0.136906
O O15 0.991757 0.790720 0.228794
O O16 0.825749 0.000000 0.137969
O O17 0.763780 0.745258 0.075844
O O18 0.299592 0.000000 0.675097
O O19 0.152778 0.000000 0.318933
O O20 0.337605 0.500000 0.000424
O O21 0.500000 0.333522 0.000000
#
# Coordination Sequence:
#
# PCOD9145232 Si02
#       8
#     4   4   4   4   4   4   4   4
#     4  11  23  36  49  68  95 130 170 206 243 290
#     4  10  21  37  51  66  94 130 165 204 250 293
#     4  10  19  33  51  72  98 127 161 203 246 288
#     4   9  16  29  48  68  95 131 161 190 236 288
#     4   9  16  29  47  70  98 126 159 196 237 287
#     4  10  20  34  51  72  99 130 164 201 244 291
#     4  10  19  31  52  77  96 122 165 208 243 285
#     4   9  17  27  41  67 100 131 161 192 229 279
#
# _framework density 15.466669
#
# number of rings (size 3 to 8) (size 9 to 14) (size 15 to 20)
#    0.000    2.250    2.500    1.125    0.000    5.750 
#    0.000    0.000    0.000    0.000    0.000    0.875 
#    0.000    7.000    0.000    0.000    0.000    0.000 
#
# Total GULP energy -178497.730716 kJ/mol
# GULP energy per Si atom -5578.054085 kJ/mol
# Density = 1.543147 g / cm^3
# Si number density = 15.466669 Si / 1000 Ang^3
#
#
#
# Elastic Constant Matrix: (Units=GPa)
#
#
# Indices 1 2 3 4 5 6 
#
# 1 55.3102 43.8684 57.3228 0.0000 -10.6826 0.0000
# 2 43.8684 61.5810 85.1863 0.0000 -4.8951 0.0000
# 3 57.3228 85.1863 167.1598 0.0000 0.5237 0.0000
# 4 0.0000 0.0000 0.0000 -2.9956 0.0000 -5.6610
# 5 -10.6826 -4.8951 0.5237 0.0000 16.1254 0.0000
# 6 0.0000 0.0000 0.0000 -5.6610 0.0000 22.4331
#
#
#
# Elastic Compliance Matrix: (Units=1/GPa)
#
#
# Indices 1 2 3 4 5 6 
#
# 1 0.048147 -0.032587 0.000027 0.000000 0.022003 0.000000
# 2 -0.032587 0.082600 -0.030933 0.000000 0.004492 0.000000
# 3 0.000027 -0.030933 0.021769 0.000000 -0.010080 0.000000
# 4 0.000000 0.000000 0.000000 -0.226034 0.000000 -0.057040
# 5 0.022003 0.004492 -0.010080 0.000000 0.078281 0.000000
# 6 0.000000 0.000000 0.000000 -0.057040 0.000000 0.030183
#
#
# Mechanical properties :
#
#
# Convention : Reuss Voigt Hill
#
# Bulk Modulus (GPa) = 39.16984 72.97845 56.07415
# Shear Modulus (GPa) = 29.33531 13.62416 21.47974
#
# Velocity S-wave (km/s) = 4.35981 2.97117 3.73067
# Velocity P-wave (km/s) = 7.12210 7.68487 7.40883
#
# Compressibility (1/GPa) = 0.02552984
#
# Stress axis : x y z
#
# Youngs Moduli (GPa) = 20.76959 12.10648 45.93759
#
# Poissons Ratio (x) = 0.39451 -0.00123
# Poissons Ratio (y) = 0.67681 1.42100
# Poissons Ratio (z) = -0.00056 0.37449
#
# Static dielectric constant tensor:
#      x y z
#    x 1.488890 0.000000 -0.004470 
#    y 0.000000 1.512380 0.000000 
#    z -0.004470 0.000000 1.502970 
# 
# From -- ./inp_files/54795.got.cif
#   From: 2010.05.17/outbox.cif.g08.bks.cpg/sg10_28_cif.got.tgz:54795.got - 2010.06.03 11:33:40.
