data_PCOD9145404
_publ_section_title
;
Structure prediction by ZEFSAII (Michael W. Deem and Ramdas Pophale) SiO2 
 PCOD9145404
Probable space group: P 2/M
;
_chemical_formula_sum "Si O2"
_cell_formula_units_Z 32
_cell_length_a 19.063617
_cell_length_b 10.137694
_cell_length_c 7.698297
_cell_angle_alpha 90.000000
_cell_angle_beta 76.431732
_cell_angle_gamma 90.000000
_cell_volume 1446.259093
_symmetry_space_group_name_H-M "P 2/M"
_symmetry_group_IT_number 10
_symmetry_cell_setting 'monoclinic'
loop_
_space_group_symop_operation_xyz
x,y,z
-x,y,-z
-x,-y,-z
x,-y,z
loop_
_atom_site_type_symbol
_atom_site_label
_atom_site_fract_x
_atom_site_fract_y
_atom_site_fract_z
Si Si1 0.548853 0.147308 0.641507
Si Si2 0.887068 0.342711 0.049140
Si Si3 0.812485 0.151193 0.843782
Si Si4 0.655211 0.861059 0.049205
Si Si5 0.710789 0.858416 0.404677
Si Si6 0.984099 0.654866 0.312988
Si Si7 0.396450 0.352085 0.139574
Si Si8 0.767447 0.349984 0.603485
O O1 0.500000 0.170079 0.500000
O O2 0.633647 0.141190 0.544864
O O3 0.549942 0.268691 0.771328
O O4 0.530307 0.000000 0.716509
O O5 0.970449 0.500000 0.348256
O O6 0.832991 0.231851 0.006079
O O7 0.948697 0.335469 0.861253
O O8 0.919019 0.303102 0.219816
O O9 0.821408 0.258700 0.685069
O O10 0.842378 0.000000 0.817107
O O11 0.726163 0.134589 0.889449
O O12 0.686771 0.856115 0.221332
O O13 0.616084 0.000000 0.046290
O O14 0.611360 0.733179 0.028999
O O15 0.754636 0.731054 0.435587
O O16 0.747467 0.000000 0.422237
O O17 0.135488 0.500000 0.933642
O O18 0.000000 0.710293 0.500000
O O19 0.419754 0.500000 0.101031
O O20 0.313887 0.358657 0.265986
O O21 0.793507 0.500000 0.571597
#
# Coordination Sequence:
#
# PCOD9145404 Si02
#       8
#     4   4   4   4   4   4   4   4
#     4   9  17  30  49  70  90 117 157 200 241 290
#     4   9  17  31  53  77 101 131 169 212 249 291
#     4  10  19  32  49  70  99 132 161 197 243 289
#     4   9  18  32  49  67  93 130 162 190 235 294
#     4   9  17  31  49  69  94 124 158 198 243 290
#     4   8  15  31  54  76 100 133 171 207 249 296
#     4   9  17  29  47  68  90 120 155 192 236 286
#     4   9  17  30  48  69  93 122 159 197 235 287
#
# _framework density 22.126048999999998
#
# number of rings (size 3 to 8) (size 9 to 14) (size 15 to 20)
#    0.000    3.000    0.000    1.875    0.000    4.250 
#    2.250    1.875    0.000    4.500    0.000    0.000 
#    0.000    0.000    0.000    0.000    0.000    0.000 
#
# Total GULP energy -178167.050863 kJ/mol
# GULP energy per Si atom -5567.720339 kJ/mol
# Density = 2.207569 g / cm^3
# Si number density = 22.126049 Si / 1000 Ang^3
#
#
#
# Elastic Constant Matrix: (Units=GPa)
#
#
# Indices 1 2 3 4 5 6 
#
# 1 66.2667 42.0887 21.6457 0.0000 11.1049 0.0000
# 2 42.0887 221.6531 65.1500 0.0000 39.8725 0.0000
# 3 21.6457 65.1500 92.0994 0.0000 38.5718 0.0000
# 4 0.0000 0.0000 0.0000 -57.0930 0.0000 -47.5612
# 5 11.1049 39.8725 38.5718 0.0000 42.1340 0.0000
# 6 0.0000 0.0000 0.0000 -47.5612 0.0000 -41.9601
#
#
#
# Elastic Compliance Matrix: (Units=1/GPa)
#
#
# Indices 1 2 3 4 5 6 
#
# 1 0.017515 -0.002665 -0.002196 0.000000 -0.000084 0.000000
# 2 -0.002665 0.006306 -0.002643 0.000000 -0.002846 0.000000
# 3 -0.002196 -0.002643 0.019386 0.000000 -0.014668 0.000000
# 4 0.000000 0.000000 0.000000 -0.314156 0.000000 0.356091
# 5 -0.000084 -0.002846 -0.014668 0.000000 0.039877 0.000000
# 6 0.000000 0.000000 0.000000 0.356091 0.000000 -0.427456
#
#
# Mechanical properties :
#
#
# Convention : Reuss Voigt Hill
#
# Bulk Modulus (GPa) = 35.46162 70.86534 53.16348
# Shear Modulus (GPa) = -7.88494 5.35847 -1.26323
#
# Velocity S-wave (km/s) = -1.88981 1.55790 -0.75642
# Velocity P-wave (km/s) = 3.36155 5.94421 4.82875
#
# Compressibility (1/GPa) = 0.02819950
#
# Stress axis : x y z
#
# Youngs Moduli (GPa) = 57.09489 158.56914 51.58299
#
# Poissons Ratio (x) = 0.42263 0.11328
# Poissons Ratio (y) = 0.15217 0.13632
# Poissons Ratio (z) = 0.12538 0.41904
#
# Static dielectric constant tensor:
#      x y z
#    x 1.896750 0.000000 -0.085300 
#    y 0.000000 1.826640 0.000000 
#    z -0.085300 0.000000 1.925350 
# 
# From -- ./inp_files/35700.got.cif
#   From: 2010.05.17/outbox.cif.g08.bks.cpg/sg10_18_cif.got.tgz:35700.got - 2010.06.03 11:33:40.
