data_PCOD9145581
_publ_section_title
;
Structure prediction by ZEFSAII (Michael W. Deem and Ramdas Pophale) SiO2 
 PCOD9145581
Probable space group: P 2/M
;
_chemical_formula_sum "Si O2"
_cell_formula_units_Z 24
_cell_length_a 13.063653
_cell_length_b 22.242172
_cell_length_c 15.273900
_cell_angle_alpha 90.000000
_cell_angle_beta 161.278875
_cell_angle_gamma 90.000000
_cell_volume 1424.444951
_symmetry_space_group_name_H-M "P 2/M"
_symmetry_group_IT_number 10
_symmetry_cell_setting 'monoclinic'
loop_
_space_group_symop_operation_xyz
x,y,z
-x,y,-z
-x,-y,-z
x,-y,z
loop_
_atom_site_type_symbol
_atom_site_label
_atom_site_fract_x
_atom_site_fract_y
_atom_site_fract_z
Si Si1 0.381633 0.564408 0.804273
Si Si2 0.120496 0.872213 0.192872
Si Si3 0.148044 0.000000 0.481586
Si Si4 0.383795 0.303025 0.805487
Si Si5 0.100188 0.000000 0.913697
Si Si6 0.690837 0.814924 0.982704
Si Si7 0.031737 0.868061 0.426000
O O1 0.485290 0.500000 0.847928
O O2 0.467688 0.630085 0.837600
O O3 0.000000 0.563918 0.500000
O O4 0.500000 0.564445 0.000000
O O5 0.500000 0.874704 0.500000
O O6 0.985527 0.827179 0.157377
O O7 0.987311 0.939065 0.106557
O O8 0.000000 0.853853 0.000000
O O9 0.989984 0.060501 0.389018
O O10 0.099361 0.000000 0.337754
O O11 0.524938 0.000000 0.805919
O O12 0.000000 0.296406 0.500000
O O13 0.500000 0.298598 0.000000
O O14 0.554718 0.251604 0.887741
O O15 0.799228 0.839399 0.166020
O O16 0.399654 0.852640 0.704530
O O17 0.000000 0.845988 0.500000
#
# Coordination Sequence:
#
# PCOD9145581 Si02
#       7
#     4   4   2   4   2   4   4
#     4   8  14  25  43  69 102 136 168 197 224 266
#     4  12  24  40  58  75  93 123 162 216 271 311
#     4  12  21  39  54  75  98 127 158 203 247 308
#     4  10  19  32  51  76 105 140 169 193 237 288
#     4  12  22  41  59  73  94 117 161 215 270 314
#     4  12  23  38  53  75 103 128 170 208 245 308
#     4  12  23  37  55  74 102 134 161 198 247 299
#
# _framework density 16.848668
#
# number of rings (size 3 to 8) (size 9 to 14) (size 15 to 20)
#    0.000    1.000    3.333    5.750    0.000    0.000 
#    0.000    2.500    0.000    0.000    0.000    0.000 
#    0.000    1.333    0.000    0.000    0.000    1.667 
#
# Total GULP energy -133951.639021 kJ/mol
# GULP energy per Si atom -5581.318293 kJ/mol
# Density = 1.681032 g / cm^3
# Si number density = 16.848668 Si / 1000 Ang^3
#
#
#
# Elastic Constant Matrix: (Units=GPa)
#
#
# Indices 1 2 3 4 5 6 
#
# 1 58.4464 32.6972 6.3560 0.0000 -1.1424 0.0000
# 2 32.6972 159.0276 18.7111 0.0000 4.8712 0.0000
# 3 6.3560 18.7111 83.8241 0.0000 -13.4180 0.0000
# 4 0.0000 0.0000 0.0000 -25.0645 0.0000 -32.2441
# 5 -1.1424 4.8712 -13.4180 0.0000 28.8055 0.0000
# 6 0.0000 0.0000 0.0000 -32.2441 0.0000 -14.9240
#
#
#
# Elastic Compliance Matrix: (Units=1/GPa)
#
#
# Indices 1 2 3 4 5 6 
#
# 1 0.019404 -0.003984 -0.000379 0.000000 0.001267 0.000000
# 2 -0.003984 0.007374 -0.001695 0.000000 -0.002195 0.000000
# 3 -0.000379 -0.001695 0.013378 0.000000 0.006503 0.000000
# 4 0.000000 0.000000 0.000000 0.022421 0.000000 -0.048442
# 5 0.001267 -0.002195 0.006503 0.000000 0.038166 0.000000
# 6 0.000000 0.000000 0.000000 -0.048442 0.000000 0.037656
#
#
# Mechanical properties :
#
#
# Convention : Reuss Voigt Hill
#
# Bulk Modulus (GPa) = 35.66400 46.31407 40.98903
# Shear Modulus (GPa) = 31.27682 13.99899 22.63791
#
# Velocity S-wave (km/s) = 4.31320 2.88560 3.66949
# Velocity P-wave (km/s) = 6.78366 6.21693 6.50647
#
# Compressibility (1/GPa) = 0.02803948
#
# Stress axis : x y z
#
# Youngs Moduli (GPa) = 51.53462 135.61146 74.75007
#
# Poissons Ratio (x) = 0.54025 0.02836
# Poissons Ratio (y) = 0.20531 0.12672
# Poissons Ratio (z) = 0.01955 0.22989
#
# Static dielectric constant tensor:
#      x y z
#    x 1.564680 0.000000 0.004690 
#    y 0.000000 1.625550 0.000000 
#    z 0.004690 0.000000 1.579390 
# 
# From -- ./inp_files/52090.got.cif
#   From: 2010.05.17/outbox.cif.g08.bks.cpg/sg10_27_cif.got.tgz:52090.got - 2010.06.03 11:33:40.
