data_PCOD9145006
_publ_section_title
;
Structure prediction by ZEFSAII (Michael W. Deem and Ramdas Pophale) SiO2 
 PCOD9145006
Probable space group: P 2/M
;
_chemical_formula_sum "Si O2"
_cell_formula_units_Z 32
_cell_length_a 34.230220
_cell_length_b 9.046276
_cell_length_c 12.648607
_cell_angle_alpha 90.000000
_cell_angle_beta 30.611139
_cell_angle_gamma 90.000000
_cell_volume 1994.426687
_symmetry_space_group_name_H-M "P 2/M"
_symmetry_group_IT_number 10
_symmetry_cell_setting 'monoclinic'
loop_
_space_group_symop_operation_xyz
x,y,z
-x,y,-z
-x,-y,-z
x,-y,z
loop_
_atom_site_type_symbol
_atom_site_label
_atom_site_fract_x
_atom_site_fract_y
_atom_site_fract_z
Si Si1 0.417181 0.823698 0.525238
Si Si2 0.415560 0.676753 0.153135
Si Si3 0.999284 0.170552 0.373208
Si Si4 0.313564 0.176817 0.972169
Si Si5 0.688445 0.823438 0.432355
Si Si6 0.840728 0.324322 0.745625
Si Si7 0.157821 0.324396 0.004463
Si Si8 0.579314 0.676372 0.107851
O O1 0.367161 0.790164 0.745388
O O2 0.366858 0.788144 0.538770
O O3 0.496652 0.736744 0.337058
O O4 0.433132 0.000000 0.487680
O O5 0.406175 0.500000 0.190000
O O6 0.352627 0.761403 0.368097
O O7 0.500000 0.716842 0.000000
O O8 0.412120 0.708855 0.036730
O O9 0.921750 0.254628 0.522289
O O10 0.000000 0.171911 0.500000
O O11 0.077208 0.252098 0.158668
O O12 0.998393 0.000000 0.341217
O O13 0.355511 0.245179 0.975415
O O14 0.307238 0.000000 0.995437
O O15 0.230863 0.247700 0.143818
O O16 0.696733 0.000000 0.417439
O O17 0.770183 0.748897 0.220692
O O18 0.840512 0.500000 0.729046
O O19 0.833076 0.298415 0.890194
O O20 0.156152 0.500000 0.991627
O O21 0.582583 0.500000 0.114647
#
# Coordination Sequence:
#
# PCOD9145006 Si02
#       8
#     4   4   4   4   4   4   4   4
#     4  10  21  35  51  73 103 137 171 212 260 309
#     4  10  21  38  55  73  99 132 172 219 268 310
#     4   9  17  29  47  71 103 139 172 207 252 305
#     4  11  22  36  52  73 106 140 174 213 258 309
#     4  11  21  33  53  78 103 134 175 215 258 310
#     4  10  19  31  49  74 104 138 175 209 252 307
#     4  10  19  31  49  74 106 138 171 212 256 305
#     4  11  23  37  54  74  99 133 177 221 261 309
#
# _framework density 16.044712000000001
#
# number of rings (size 3 to 8) (size 9 to 14) (size 15 to 20)
#    0.000    1.750    2.500    2.625    0.000    6.750 
#    0.000    0.000    0.000    0.000    0.000    0.875 
#    0.000    7.000    0.000    0.000    0.000    0.000 
#
# Total GULP energy -178695.902249 kJ/mol
# GULP energy per Si atom -5584.246945 kJ/mol
# Density = 1.600819 g / cm^3
# Si number density = 16.044712 Si / 1000 Ang^3
#
#
#
# Elastic Constant Matrix: (Units=GPa)
#
#
# Indices 1 2 3 4 5 6 
#
# 1 98.7868 62.3613 67.8412 0.0000 -20.5028 0.0000
# 2 62.3613 78.6923 76.5203 0.0000 -21.6266 0.0000
# 3 67.8412 76.5203 135.0898 0.0000 -37.3275 0.0000
# 4 0.0000 0.0000 0.0000 37.0101 0.0000 -5.9675
# 5 -20.5028 -21.6266 -37.3275 0.0000 20.5870 0.0000
# 6 0.0000 0.0000 0.0000 -5.9675 0.0000 25.6502
#
#
#
# Elastic Compliance Matrix: (Units=1/GPa)
#
#
# Indices 1 2 3 4 5 6 
#
# 1 0.020698 -0.013975 -0.001682 0.000000 0.002884 0.000000
# 2 -0.013975 0.037744 -0.014532 0.000000 -0.000617 0.000000
# 3 -0.001682 -0.014532 0.023643 0.000000 0.025927 0.000000
# 4 0.000000 0.000000 0.000000 0.028073 0.000000 0.006531
# 5 0.002884 -0.000617 0.025927 0.000000 0.097809 0.000000
# 6 0.000000 0.000000 0.000000 0.006531 0.000000 0.040506
#
#
# Mechanical properties :
#
#
# Convention : Reuss Voigt Hill
#
# Bulk Modulus (GPa) = 46.06695 80.66828 63.36762
# Shear Modulus (GPa) = 15.81859 23.70586 19.76223
#
# Velocity S-wave (km/s) = 3.14332 3.84798 3.51336
# Velocity P-wave (km/s) = 6.47672 8.37430 7.48588
#
# Compressibility (1/GPa) = 0.02170753
#
# Stress axis : x y z
#
# Youngs Moduli (GPa) = 48.31352 26.49458 42.29662
#
# Poissons Ratio (x) = 0.37026 0.07113
# Poissons Ratio (y) = 0.67517 0.61465
# Poissons Ratio (z) = 0.08125 0.38501
#
# Static dielectric constant tensor:
#      x y z
#    x 1.516430 0.000000 -0.002850 
#    y 0.000000 1.531730 0.000000 
#    z -0.002850 0.000000 1.509980 
# 
# From -- ./inp_files/55201.got.cif
#   From: 2010.05.17/outbox.cif.g08.bks.cpg/sg10_28_cif.got.tgz:55201.got - 2010.06.03 11:33:40.
