data_PCOD9145705
_publ_section_title
;
Structure prediction by ZEFSAII (Michael W. Deem and Ramdas Pophale) SiO2 
 PCOD9145705
Probable space group: P 2/M
;
_chemical_formula_sum "Si O2"
_cell_formula_units_Z 32
_cell_length_a 27.407920
_cell_length_b 7.533573
_cell_length_c 21.344989
_cell_angle_alpha 90.000000
_cell_angle_beta 161.138325
_cell_angle_gamma 90.000000
_cell_volume 1424.813143
_symmetry_space_group_name_H-M "P 2/M"
_symmetry_group_IT_number 10
_symmetry_cell_setting 'monoclinic'
loop_
_space_group_symop_operation_xyz
x,y,z
-x,y,-z
-x,-y,-z
x,-y,z
loop_
_atom_site_type_symbol
_atom_site_label
_atom_site_fract_x
_atom_site_fract_y
_atom_site_fract_z
Si Si1 0.235051 0.217185 0.686259
Si Si2 0.475614 0.287529 0.541479
Si Si3 0.926672 0.214595 0.742859
Si Si4 0.900868 0.793066 0.251126
Si Si5 0.647563 0.782542 0.035605
Si Si6 0.679742 0.216447 0.345815
Si Si7 0.217483 0.292375 0.027477
Si Si8 0.157174 0.786377 0.221630
O O1 0.302375 0.273547 0.834099
O O2 0.320451 0.270832 0.726885
O O3 0.063813 0.280120 0.467252
O O4 0.237583 0.000000 0.690273
O O5 0.500000 0.220481 0.500000
O O6 0.493814 0.500000 0.560696
O O7 0.617043 0.219628 0.754678
O O8 0.311002 0.256625 0.371513
O O9 0.823831 0.277617 0.560040
O O10 0.852326 0.273833 0.717651
O O11 0.926467 0.000000 0.742400
O O12 0.099387 0.269369 0.941009
O O13 0.766126 0.717469 0.128772
O O14 0.911690 0.000000 0.281419
O O15 0.859548 0.785777 0.128022
O O16 0.647051 0.000000 0.034607
O O17 0.477232 0.727759 0.814655
O O18 0.686417 0.000000 0.354221
O O19 0.232615 0.500000 0.032820
O O20 0.150905 0.000000 0.214615
O O21 0.000000 0.722805 0.000000
#
# Coordination Sequence:
#
# PCOD9145705 Si02
#       8
#     4   4   4   4   4   4   4   4
#     4   9  15  27  46  73 106 139 178 225 274 328
#     4  10  23  42  62  85 114 151 193 230 266 320
#     4  10  20  36  57  82 113 146 184 225 276 337
#     4  10  19  32  52  78 108 142 180 225 282 334
#     4   9  17  26  45  76 108 138 176 227 279 329
#     4   9  16  27  45  74 106 137 173 221 274 324
#     4  11  23  38  57  81 110 146 191 234 274 324
#     4  10  22  38  60  92 123 147 177 223 277 334
#
# _framework density 22.459085000000002
#
# number of rings (size 3 to 8) (size 9 to 14) (size 15 to 20)
#    0.000    2.250    1.250    1.875    1.750    5.000 
#    0.000    0.000    0.000    1.500    0.000    0.875 
#    0.000    0.000    0.000    0.000    0.000    0.000 
#
# Total GULP energy -178714.739023 kJ/mol
# GULP energy per Si atom -5584.835594 kJ/mol
# Density = 2.240797 g / cm^3
# Si number density = 22.459085 Si / 1000 Ang^3
#
#
#
# Elastic Constant Matrix: (Units=GPa)
#
#
# Indices 1 2 3 4 5 6 
#
# 1 104.3718 -13.3459 37.9820 0.0000 19.5689 0.0000
# 2 -13.3459 51.2183 -7.8097 0.0000 -1.8217 0.0000
# 3 37.9820 -7.8097 132.0588 0.0000 21.1786 0.0000
# 4 0.0000 0.0000 0.0000 9.4889 0.0000 2.3603
# 5 19.5689 -1.8217 21.1786 0.0000 39.4026 0.0000
# 6 0.0000 0.0000 0.0000 2.3603 0.0000 81.7674
#
#
#
# Elastic Compliance Matrix: (Units=1/GPa)
#
#
# Indices 1 2 3 4 5 6 
#
# 1 0.011619 0.002493 -0.002503 0.000000 -0.004310 0.000000
# 2 0.002493 0.020240 0.000578 0.000000 -0.000613 0.000000
# 3 -0.002503 0.000578 0.008889 0.000000 -0.003508 0.000000
# 4 0.000000 0.000000 0.000000 0.106149 0.000000 -0.003064
# 5 -0.004310 -0.000613 -0.003508 0.000000 0.029377 0.000000
# 6 0.000000 0.000000 0.000000 -0.003064 0.000000 0.012318
#
#
# Mechanical properties :
#
#
# Convention : Reuss Voigt Hill
#
# Bulk Modulus (GPa) = 23.87572 35.70017 29.78794
# Shear Modulus (GPa) = 24.82411 44.18662 34.50537
#
# Velocity S-wave (km/s) = 3.32822 4.44038 3.92390
# Velocity P-wave (km/s) = 5.04214 6.49765 5.81561
#
# Compressibility (1/GPa) = 0.04188356
#
# Stress axis : x y z
#
# Youngs Moduli (GPa) = 86.06726 49.40681 112.49721
#
# Poissons Ratio (x) = -0.12315 0.28160
# Poissons Ratio (y) = -0.21453 -0.06507
# Poissons Ratio (z) = 0.21544 -0.02858
#
# Static dielectric constant tensor:
#      x y z
#    x 1.804710 0.000000 0.012840 
#    y 0.000000 1.873060 0.000000 
#    z 0.012840 0.000000 1.815390 
# 
# From -- ./inp_files/87056.got.cif
#   From: 2010.05.17/outbox.cif.g08.bks.cpg/sg10_44_cif.got.tgz:87056.got - 2010.06.03 11:33:40.
