data_PCOD9145695
_publ_section_title
;
Structure prediction by ZEFSAII (Michael W. Deem and Ramdas Pophale) SiO2 
 PCOD9145695
Probable space group: P 2/M
;
_chemical_formula_sum "Si O2"
_cell_formula_units_Z 32
_cell_length_a 26.843689
_cell_length_b 7.539224
_cell_length_c 20.903229
_cell_angle_alpha 90.000000
_cell_angle_beta 158.720385
_cell_angle_gamma 90.000000
_cell_volume 1535.298401
_symmetry_space_group_name_H-M "P 2/M"
_symmetry_group_IT_number 10
_symmetry_cell_setting 'monoclinic'
loop_
_space_group_symop_operation_xyz
x,y,z
-x,y,-z
-x,-y,-z
x,-y,z
loop_
_atom_site_type_symbol
_atom_site_label
_atom_site_fract_x
_atom_site_fract_y
_atom_site_fract_z
Si Si1 0.072309 0.288128 0.351839
Si Si2 0.842445 0.282946 0.801480
Si Si3 0.911134 0.212243 0.485636
Si Si4 0.238855 0.284868 0.038037
Si Si5 0.564053 0.793109 0.844150
Si Si6 0.794022 0.217140 0.213471
Si Si7 0.252009 0.706590 0.449585
Si Si8 0.656486 0.716652 0.697468
O O1 0.063982 0.500000 0.334728
O O2 0.129789 0.256072 0.491491
O O3 0.165974 0.217640 0.406229
O O4 0.915651 0.220998 0.160873
O O5 0.837498 0.500000 0.796006
O O6 0.785920 0.219110 0.665471
O O7 0.750062 0.224361 0.750440
O O8 0.000000 0.231632 0.000000
O O9 0.815389 0.273232 0.312526
O O10 0.067026 0.274124 0.657303
O O11 0.915492 0.000000 0.485971
O O12 0.238893 0.500000 0.036888
O O13 0.345187 0.225797 0.111207
O O14 0.285890 0.227768 0.164815
O O15 0.414021 0.713778 0.655888
O O16 0.541066 0.000000 0.829190
O O17 0.659262 0.720124 0.015313
O O18 0.791559 0.000000 0.208631
O O19 0.212298 0.500000 0.398241
O O20 0.500000 0.772700 0.500000
O O21 0.657761 0.500000 0.699156
#
# Coordination Sequence:
#
# PCOD9145695 Si02
#       8
#     4   4   4   4   4   4   4   4
#     4  10  20  33  50  78 110 136 166 209 262 315
#     4   9  16  29  51  75  97 130 176 217 251 294
#     4   9  16  32  56  77 100 132 172 218 259 295
#     4  10  19  32  52  78 106 133 166 215 267 308
#     4  11  21  35  54  78 105 137 177 214 255 312
#     4   8  16  31  53  78 101 130 172 219 256 294
#     4  10  21  36  53  76 110 143 171 212 263 309
#     4   9  16  26  44  71  98 125 163 207 248 295
#
# _framework density 20.842853000000002
#
# number of rings (size 3 to 8) (size 9 to 14) (size 15 to 20)
#    0.000    2.500    1.250    2.625    0.000    5.500 
#    0.000    3.125    0.000    7.500    0.000    0.000 
#    0.000    0.000    0.000    0.000    0.000    0.000 
#
# Total GULP energy -178674.036300 kJ/mol
# GULP energy per Si atom -5583.563634 kJ/mol
# Density = 2.079541 g / cm^3
# Si number density = 20.842853 Si / 1000 Ang^3
#
#
#
# Elastic Constant Matrix: (Units=GPa)
#
#
# Indices 1 2 3 4 5 6 
#
# 1 131.1337 -11.2897 80.5086 0.0000 -9.9632 0.0000
# 2 -11.2897 47.3162 -8.3422 0.0000 -2.1755 0.0000
# 3 80.5086 -8.3422 128.4633 0.0000 -15.3417 0.0000
# 4 0.0000 0.0000 0.0000 -15.3461 0.0000 -16.5082
# 5 -9.9632 -2.1755 -15.3417 0.0000 40.2546 0.0000
# 6 0.0000 0.0000 0.0000 -16.5082 0.0000 16.1476
#
#
#
# Elastic Compliance Matrix: (Units=1/GPa)
#
#
# Indices 1 2 3 4 5 6 
#
# 1 0.012519 0.001639 -0.007710 0.000000 0.000249 0.000000
# 2 0.001639 0.021714 0.000599 0.000000 0.001807 0.000000
# 3 -0.007710 0.000599 0.013024 0.000000 0.003088 0.000000
# 4 0.000000 0.000000 0.000000 -0.031034 0.000000 -0.031727
# 5 0.000249 0.001807 0.003088 0.000000 0.026178 0.000000
# 6 0.000000 0.000000 0.000000 -0.031727 0.000000 0.029493
#
#
# Mechanical properties :
#
#
# Convention : Reuss Voigt Hill
#
# Bulk Modulus (GPa) = 27.53809 47.62963 37.58386
# Shear Modulus (GPa) = 52.66353 24.61366 38.63859
#
# Velocity S-wave (km/s) = 5.03208 3.44017 4.31026
# Velocity P-wave (km/s) = 6.85590 6.21941 6.54540
#
# Compressibility (1/GPa) = 0.03631333
#
# Stress axis : x y z
#
# Youngs Moduli (GPa) = 79.87789 46.05291 76.78366
#
# Poissons Ratio (x) = -0.07549 0.59197
# Poissons Ratio (y) = -0.13094 -0.04596
# Poissons Ratio (z) = 0.61583 -0.02757
#
# Static dielectric constant tensor:
#      x y z
#    x 1.740400 0.000000 -0.013010 
#    y 0.000000 1.808890 0.000000 
#    z -0.013010 0.000000 1.727660 
# 
# From -- ./inp_files/87002.got.cif
#   From: 2010.05.17/outbox.cif.g08.bks.cpg/sg10_44_cif.got.tgz:87002.got - 2010.06.03 11:33:40.
