data_PCOD9145280
_publ_section_title
;
Structure prediction by ZEFSAII (Michael W. Deem and Ramdas Pophale) SiO2 
 PCOD9145280
Probable space group: P 2/M
;
_chemical_formula_sum "Si O2"
_cell_formula_units_Z 32
_cell_length_a 23.457049
_cell_length_b 9.066775
_cell_length_c 12.670733
_cell_angle_alpha 90.000000
_cell_angle_beta 135.246758
_cell_angle_gamma 90.000000
_cell_volume 1897.293345
_symmetry_space_group_name_H-M "P 2/M"
_symmetry_group_IT_number 10
_symmetry_cell_setting 'monoclinic'
loop_
_space_group_symop_operation_xyz
x,y,z
-x,y,-z
-x,-y,-z
x,-y,z
loop_
_atom_site_type_symbol
_atom_site_label
_atom_site_fract_x
_atom_site_fract_y
_atom_site_fract_z
Si Si1 0.646951 0.176406 0.029437
Si Si2 0.773477 0.325111 0.042475
Si Si3 0.041040 0.673363 0.666114
Si Si4 0.820956 0.177141 0.659879
Si Si5 0.001311 0.824371 0.825935
Si Si6 0.167638 0.323510 0.110981
Si Si7 0.681027 0.177142 0.316102
Si Si8 0.482039 0.668848 0.850569
O O1 0.706966 0.236887 0.019684
O O2 0.679312 0.218936 0.189757
O O3 0.642207 0.000000 0.019590
O O4 0.557624 0.245315 0.900366
O O5 0.756274 0.500000 0.026689
O O6 0.862654 0.299884 0.209245
O O7 0.783907 0.285361 0.932654
O O8 0.030350 0.500000 0.681434
O O9 0.000000 0.697953 0.500000
O O10 0.003759 0.775426 0.707260
O O11 0.914096 0.216296 0.757837
O O12 0.796041 0.255938 0.735160
O O13 0.762484 0.216865 0.485701
O O14 0.817241 0.000000 0.668340
O O15 0.012102 0.000000 0.851366
O O16 0.077371 0.742603 0.978337
O O17 0.162799 0.500000 0.110369
O O18 0.603977 0.250964 0.271262
O O19 0.671757 0.000000 0.307804
O O20 0.478565 0.500000 0.809446
O O21 0.500000 0.667904 0.000000
#
# Coordination Sequence:
#
# PCOD9145280 Si02
#       8
#     4   4   4   4   4   4   4   4
#     4  10  19  31  53  79 104 135 169 202 246 307
#     4   9  19  34  50  71 100 132 169 213 253 294
#     4   9  19  34  49  69 102 140 172 210 258 302
#     4  10  21  35  52  75 105 135 168 216 262 302
#     4  10  20  33  51  74 100 134 175 216 259 303
#     4  10  21  37  54  72  99 135 178 220 259 302
#     4   9  19  34  50  75 109 136 162 203 254 304
#     4   9  17  31  51  75 104 135 167 202 245 299
#
# _framework density 16.866130999999999
#
# number of rings (size 3 to 8) (size 9 to 14) (size 15 to 20)
#    0.000    2.500    0.000    2.625    1.750    7.750 
#    0.000    0.000    0.000    0.750    0.000    5.250 
#    0.000    0.000    0.000    0.000    0.000    0.000 
#
# Total GULP energy -178471.424110 kJ/mol
# GULP energy per Si atom -5577.232003 kJ/mol
# Density = 1.682774 g / cm^3
# Si number density = 16.866131 Si / 1000 Ang^3
#
#
#
# Elastic Constant Matrix: (Units=GPa)
#
#
# Indices 1 2 3 4 5 6 
#
# 1 120.9223 49.7458 39.4292 0.0000 7.2175 0.0000
# 2 49.7458 38.9820 21.8823 0.0000 2.0585 0.0000
# 3 39.4292 21.8823 45.9777 0.0000 -2.2540 0.0000
# 4 0.0000 0.0000 0.0000 24.6925 0.0000 -1.2739
# 5 7.2175 2.0585 -2.2540 0.0000 7.8750 0.0000
# 6 0.0000 0.0000 0.0000 -1.2739 0.0000 27.4842
#
#
#
# Elastic Compliance Matrix: (Units=1/GPa)
#
#
# Indices 1 2 3 4 5 6 
#
# 1 0.020387 -0.020376 -0.008561 0.000000 -0.015809 0.000000
# 2 -0.020376 0.056989 -0.009598 0.000000 0.001031 0.000000
# 3 -0.008561 -0.009598 0.034653 0.000000 0.020274 0.000000
# 4 0.000000 0.000000 0.000000 0.040595 0.000000 0.001882
# 5 -0.015809 0.001031 0.020274 0.000000 0.147007 0.000000
# 6 0.000000 0.000000 0.000000 0.001882 0.000000 0.036472
#
#
# Mechanical properties :
#
#
# Convention : Reuss Voigt Hill
#
# Bulk Modulus (GPa) = 28.60514 47.55519 38.08017
# Shear Modulus (GPa) = 11.76947 18.33197 15.05072
#
# Velocity S-wave (km/s) = 2.64449 3.30041 2.99049
# Velocity P-wave (km/s) = 5.13043 6.54068 5.87800
#
# Compressibility (1/GPa) = 0.03495875
#
# Stress axis : x y z
#
# Youngs Moduli (GPa) = 49.04982 17.54714 28.85732
#
# Poissons Ratio (x) = 0.35755 0.24704
# Poissons Ratio (y) = 0.99946 0.27698
# Poissons Ratio (z) = 0.41991 0.16842
#
# Static dielectric constant tensor:
#      x y z
#    x 1.551960 0.000000 -0.007990 
#    y 0.000000 1.565490 0.000000 
#    z -0.007990 0.000000 1.565420 
# 
# From -- ./inp_files/55400.got.cif
#   From: 2010.05.17/outbox.cif.g08.bks.cpg/sg10_28_cif.got.tgz:55400.got - 2010.06.03 11:33:40.
