data_PCOD9145040
_publ_section_title
;
Structure prediction by ZEFSAII (Michael W. Deem and Ramdas Pophale) SiO2 
 PCOD9145040
Probable space group: P 2/M
;
_chemical_formula_sum "Si O2"
_cell_formula_units_Z 32
_cell_length_a 14.871417
_cell_length_b 7.726410
_cell_length_c 24.221723
_cell_angle_alpha 90.000000
_cell_angle_beta 29.231874
_cell_angle_gamma 90.000000
_cell_volume 1359.133304
_symmetry_space_group_name_H-M "P 2/M"
_symmetry_group_IT_number 10
_symmetry_cell_setting 'monoclinic'
loop_
_space_group_symop_operation_xyz
x,y,z
-x,y,-z
-x,-y,-z
x,-y,z
loop_
_atom_site_type_symbol
_atom_site_label
_atom_site_fract_x
_atom_site_fract_y
_atom_site_fract_z
Si Si1 0.408334 0.202925 0.333733
Si Si2 0.960687 0.704680 0.306388
Si Si3 0.565317 0.706240 0.563370
Si Si4 0.013463 0.801562 0.557891
Si Si5 0.815047 0.206646 0.268437
Si Si6 0.993480 0.800327 0.941629
Si Si7 0.405339 0.702914 0.880028
Si Si8 0.708589 0.303961 0.799677
O O1 0.508575 0.218585 0.338436
O O2 0.213055 0.280083 0.457269
O O3 0.486631 0.283177 0.236376
O O4 0.381722 0.000000 0.335134
O O5 0.965669 0.500000 0.316731
O O6 0.768013 0.774267 0.436184
O O7 0.934419 0.727025 0.255591
O O8 0.155663 0.774446 0.226065
O O9 0.577235 0.500000 0.561113
O O10 0.399556 0.748672 0.610601
O O11 0.000000 0.812095 0.500000
O O12 0.852701 0.696072 0.671623
O O13 0.004801 0.000000 0.584084
O O14 0.889085 0.280353 0.170695
O O15 0.834855 0.000000 0.257085
O O16 0.055854 0.000000 0.914926
O O17 0.785552 0.796175 0.030252
O O18 0.000000 0.722603 0.000000
O O19 0.370322 0.500000 0.909053
O O20 0.527200 0.771755 0.866514
O O21 0.659993 0.500000 0.842714
#
# Coordination Sequence:
#
# PCOD9145040 Si02
#       8
#     4   4   4   4   4   4   4   4
#     4  11  21  33  53  84 124 162 197 241 294 350
#     4  10  22  40  60  85 122 164 199 238 292 353
#     4  11  22  37  60  89 121 161 203 243 294 354
#     4  10  19  31  49  78 116 160 201 237 287 346
#     4  11  24  41  63  90 117 151 198 251 304 357
#     4  10  23  45  68  88 115 152 192 243 306 360
#     4  11  23  37  60  91 120 156 203 251 298 352
#     4  10  21  37  56  83 121 161 200 242 291 347
#
# _framework density 23.544416999999999
#
# number of rings (size 3 to 8) (size 9 to 14) (size 15 to 20)
#    0.000    1.500    2.500    2.625    0.000    6.500 
#    0.000    0.625    0.000    3.750    0.000    0.000 
#    0.000    0.000    0.000    0.000    0.000    0.000 
#
# Total GULP energy -178526.131254 kJ/mol
# GULP energy per Si atom -5578.941602 kJ/mol
# Density = 2.349083 g / cm^3
# Si number density = 23.544417 Si / 1000 Ang^3
#
#
#
# Elastic Constant Matrix: (Units=GPa)
#
#
# Indices 1 2 3 4 5 6 
#
# 1 178.5658 -1.9672 50.5228 0.0000 -9.3004 0.0000
# 2 -1.9672 52.7692 -9.7992 0.0000 3.5561 0.0000
# 3 50.5228 -9.7992 60.8894 0.0000 -4.1216 0.0000
# 4 0.0000 0.0000 0.0000 14.7409 0.0000 5.3687
# 5 -9.3004 3.5561 -4.1216 0.0000 40.7452 0.0000
# 6 0.0000 0.0000 0.0000 5.3687 0.0000 7.0232
#
#
#
# Elastic Compliance Matrix: (Units=1/GPa)
#
#
# Indices 1 2 3 4 5 6 
#
# 1 0.007411 -0.000957 -0.006226 0.000000 0.001145 0.000000
# 2 -0.000957 0.019737 0.003866 0.000000 -0.001550 0.000000
# 3 -0.006226 0.003866 0.022244 0.000000 0.000492 0.000000
# 4 0.000000 0.000000 0.000000 0.094012 0.000000 -0.071865
# 5 0.001145 -0.001550 0.000492 0.000000 0.024989 0.000000
# 6 0.000000 0.000000 0.000000 -0.071865 0.000000 0.197321
#
#
# Mechanical properties :
#
#
# Convention : Reuss Voigt Hill
#
# Bulk Modulus (GPa) = 23.38740 41.08191 32.23466
# Shear Modulus (GPa) = 12.93324 29.39972 21.16648
#
# Velocity S-wave (km/s) = 2.34628 3.53752 3.00159
# Velocity P-wave (km/s) = 4.15872 5.84568 5.07281
#
# Compressibility (1/GPa) = 0.04275806
#
# Stress axis : x y z
#
# Youngs Moduli (GPa) = 134.93980 50.66607 44.95551
#
# Poissons Ratio (x) = 0.04849 0.27987
# Poissons Ratio (y) = 0.12914 -0.17378
# Poissons Ratio (z) = 0.84007 -0.19585
#
# Static dielectric constant tensor:
#      x y z
#    x 2.064870 0.000000 -0.036240 
#    y 0.000000 1.890590 0.000000 
#    z -0.036240 0.000000 1.896160 
# 
# From -- ./inp_files/89526.got.cif
#   From: 2010.05.17/outbox.cif.g08.bks.cpg/sg10_45_cif.got.tgz:89526.got - 2010.06.03 11:33:40.
