data_PCOD9145543
_publ_section_title
;
Structure prediction by ZEFSAII (Michael W. Deem and Ramdas Pophale) SiO2 
 PCOD9145543
Probable space group: P 2/M
;
_chemical_formula_sum "Si O2"
_cell_formula_units_Z 28
_cell_length_a 23.715937
_cell_length_b 7.384745
_cell_length_c 20.871333
_cell_angle_alpha 90.000000
_cell_angle_beta 160.336605
_cell_angle_gamma 90.000000
_cell_volume 1229.993801
_symmetry_space_group_name_H-M "P 2/M"
_symmetry_group_IT_number 10
_symmetry_cell_setting 'monoclinic'
loop_
_space_group_symop_operation_xyz
x,y,z
-x,y,-z
-x,-y,-z
x,-y,z
loop_
_atom_site_type_symbol
_atom_site_label
_atom_site_fract_x
_atom_site_fract_y
_atom_site_fract_z
Si Si1 0.545260 0.279629 0.476531
Si Si2 0.268517 0.793879 0.918161
Si Si3 0.554114 0.221198 0.128939
Si Si4 0.909799 0.778130 0.563961
Si Si5 0.170745 0.780261 0.379116
Si Si6 0.073441 0.794436 0.142687
Si Si7 0.562535 0.709684 0.771598
O O1 0.500000 0.226296 0.500000
O O2 0.553647 0.500000 0.483410
O O3 0.727987 0.204527 0.656668
O O4 0.427190 0.222890 0.290850
O O5 0.083217 0.713103 0.719015
O O6 0.249876 0.000000 0.874954
O O7 0.416686 0.714596 0.033505
O O8 0.330970 0.798649 0.058462
O O9 0.740577 0.279374 0.347528
O O10 0.557958 0.000000 0.135530
O O11 0.500000 0.274079 0.000000
O O12 0.896214 0.723379 0.623754
O O13 0.913455 0.000000 0.567731
O O14 0.062385 0.714892 0.202202
O O15 0.365182 0.724839 0.579029
O O16 0.170220 0.000000 0.376081
O O17 0.005460 0.000000 0.072547
O O18 0.000000 0.706130 0.000000
O O19 0.610015 0.500000 0.822828
#
# Coordination Sequence:
#
# PCOD9145543 Si02
#       7
#     4   4   4   4   4   4   4
#     4   9  19  34  49  67  95 132 169 209 254 299
#     4  10  19  32  53  78 104 136 170 206 255 305
#     4   9  17  30  50  78 110 137 165 208 254 298
#     4   9  17  29  49  77 103 132 170 207 249 301
#     4   9  16  31  51  69  98 134 168 210 257 305
#     4   9  18  30  46  70  98 129 164 207 254 300
#     4  10  19  32  51  73  98 131 173 215 255 303
#
# _framework density 22.764343
#
# number of rings (size 3 to 8) (size 9 to 14) (size 15 to 20)
#    0.000    2.714    1.429    0.429    0.000    2.857 
#    0.000    5.000    0.000    0.429    0.000    1.000 
#    0.000    0.000    0.000    0.000    0.000    0.000 
#
# Total GULP energy -156276.321751 kJ/mol
# GULP energy per Si atom -5581.297205 kJ/mol
# Density = 2.271253 g / cm^3
# Si number density = 22.764343 Si / 1000 Ang^3
#
#
#
# Elastic Constant Matrix: (Units=GPa)
#
#
# Indices 1 2 3 4 5 6 
#
# 1 116.8963 3.2300 86.9820 0.0000 -18.4545 0.0000
# 2 3.2300 81.8967 1.3796 0.0000 -2.2632 0.0000
# 3 86.9820 1.3796 158.4793 0.0000 -13.7025 0.0000
# 4 0.0000 0.0000 0.0000 1.3323 0.0000 8.7682
# 5 -18.4545 -2.2632 -13.7025 0.0000 34.3571 0.0000
# 6 0.0000 0.0000 0.0000 8.7682 0.0000 6.6522
#
#
#
# Elastic Compliance Matrix: (Units=1/GPa)
#
#
# Indices 1 2 3 4 5 6 
#
# 1 0.015264 -0.000330 -0.007942 0.000000 0.005010 0.000000
# 2 -0.000330 0.012240 0.000133 0.000000 0.000682 0.000000
# 3 -0.007942 0.000133 0.010667 0.000000 -0.000003 0.000000
# 4 0.000000 0.000000 0.000000 -0.097799 0.000000 0.128909
# 5 0.005010 0.000682 -0.000003 0.000000 0.031841 0.000000
# 6 0.000000 0.000000 0.000000 0.128909 0.000000 -0.019587
#
#
# Mechanical properties :
#
#
# Convention : Reuss Voigt Hill
#
# Bulk Modulus (GPa) = 45.67149 60.05062 52.86105
# Shear Modulus (GPa) = -210.09227 26.18034 -91.95596
#
# Velocity S-wave (km/s) = -9.61719 3.39493 -6.36258
# Velocity P-wave (km/s) = 10.15944 6.46560 5.54122
#
# Compressibility (1/GPa) = 0.02189550
#
# Stress axis : x y z
#
# Youngs Moduli (GPa) = 65.51378 81.69852 93.74351
#
# Poissons Ratio (x) = 0.02694 0.74448
# Poissons Ratio (y) = 0.02161 -0.01251
# Poissons Ratio (z) = 0.52029 -0.01090
#
# Static dielectric constant tensor:
#      x y z
#    x 2.033270 0.000000 -0.030470 
#    y 0.000000 1.851590 0.000000 
#    z -0.030470 0.000000 1.816400 
# 
# From -- ./inp_files/86424.got.cif
#   From: 2010.05.17/outbox.cif.g08.bks.cpg/sg10_44_cif.got.tgz:86424.got - 2010.06.03 11:33:40.
