data_PCOD9145707
_publ_section_title
;
Structure prediction by ZEFSAII (Michael W. Deem and Ramdas Pophale) SiO2 
 PCOD9145707
Probable space group: P 2/M
;
_chemical_formula_sum "Si O2"
_cell_formula_units_Z 32
_cell_length_a 20.914242
_cell_length_b 7.816415
_cell_length_c 14.516655
_cell_angle_alpha 90.000000
_cell_angle_beta 142.999918
_cell_angle_gamma 90.000000
_cell_volume 1428.170781
_symmetry_space_group_name_H-M "P 2/M"
_symmetry_group_IT_number 10
_symmetry_cell_setting 'monoclinic'
loop_
_space_group_symop_operation_xyz
x,y,z
-x,y,-z
-x,-y,-z
x,-y,z
loop_
_atom_site_type_symbol
_atom_site_label
_atom_site_fract_x
_atom_site_fract_y
_atom_site_fract_z
Si Si1 0.337292 0.708946 0.165178
Si Si2 0.122511 0.707678 0.018774
Si Si3 0.568553 0.694979 0.443196
Si Si4 0.773400 0.705412 0.351071
Si Si5 0.431526 0.200567 0.765891
Si Si6 0.199506 0.807667 0.298259
Si Si7 0.663660 0.707209 0.047841
Si Si8 0.922759 0.696155 0.675640
O O1 0.342267 0.500000 0.171279
O O2 0.234531 0.760261 0.103451
O O3 0.452449 0.766989 0.335165
O O4 0.322753 0.763493 0.042144
O O5 0.117857 0.500000 0.016098
O O6 0.124625 0.768414 0.126019
O O7 0.025642 0.771989 0.844497
O O8 0.576307 0.500000 0.485534
O O9 0.566551 0.700524 0.329071
O O10 0.679220 0.782526 0.594234
O O11 0.786478 0.500000 0.362175
O O12 0.665596 0.741720 0.283324
O O13 0.751140 0.767142 0.221865
O O14 0.870813 0.774588 0.524354
O O15 0.419314 0.000000 0.730658
O O16 0.546525 0.232208 0.942724
O O17 0.167970 0.695300 0.349710
O O18 0.185470 0.000000 0.314254
O O19 0.663700 0.500000 0.048252
O O20 0.951612 0.500000 0.686560
#
# Coordination Sequence:
#
# PCOD9145707 Si02
#       8
#     4   4   4   4   4   4   4   4
#     4   8  17  35  58  81 108 143 186 228 267 318
#     4  10  21  39  60  80 105 145 190 229 272 325
#     4  10  19  35  58  82 111 146 179 220 275 332
#     4  10  19  32  52  78 109 146 185 222 269 325
#     4  11  20  30  48  79 114 146 179 222 273 323
#     4  12  24  37  56  84 113 141 178 229 282 330
#     4   9  18  33  53  77 108 148 185 221 268 323
#     4  10  21  37  58  82 110 145 185 227 272 326
#
# _framework density 22.406285
#
# number of rings (size 3 to 8) (size 9 to 14) (size 15 to 20)
#    0.000    2.000    1.250    4.125    0.000    4.500 
#    0.000    6.250    0.000    3.750    0.000    0.000 
#    0.000    7.000    0.000    0.000    0.000    0.000 
#
# Total GULP energy -178750.182427 kJ/mol
# GULP energy per Si atom -5585.943201 kJ/mol
# Density = 2.235529 g / cm^3
# Si number density = 22.406285 Si / 1000 Ang^3
#
#
#
# Elastic Constant Matrix: (Units=GPa)
#
#
# Indices 1 2 3 4 5 6 
#
# 1 40.0317 -5.3273 22.3483 0.0000 4.9611 0.0000
# 2 -5.3273 44.9559 5.1927 0.0000 0.6329 0.0000
# 3 22.3483 5.1927 171.2644 0.0000 -4.3142 0.0000
# 4 0.0000 0.0000 0.0000 -94.1074 0.0000 4.0937
# 5 4.9611 0.6329 -4.3142 0.0000 30.9810 0.0000
# 6 0.0000 0.0000 0.0000 4.0937 0.0000 -29.9095
#
#
#
# Elastic Compliance Matrix: (Units=1/GPa)
#
#
# Indices 1 2 3 4 5 6 
#
# 1 0.028341 0.003887 -0.003946 0.000000 -0.005167 0.000000
# 2 0.003887 0.022865 -0.001232 0.000000 -0.001261 0.000000
# 3 -0.003946 -0.001232 0.006430 0.000000 0.001553 0.000000
# 4 0.000000 0.000000 0.000000 -0.010690 0.000000 -0.001463
# 5 -0.005167 -0.001261 0.001553 0.000000 0.033347 0.000000
# 6 0.000000 0.000000 0.000000 -0.001463 0.000000 -0.033634
#
#
# Mechanical properties :
#
#
# Convention : Reuss Voigt Hill
#
# Bulk Modulus (GPa) = 18.16431 33.40882 25.78657
# Shear Modulus (GPa) = 73.97227 -3.00463 35.48382
#
# Velocity S-wave (km/s) = 5.75202 -1.15926 3.98383
# Velocity P-wave (km/s) = 7.22764 3.62643 5.71794
#
# Compressibility (1/GPa) = 0.05505301
#
# Stress axis : x y z
#
# Youngs Moduli (GPa) = 35.28470 43.73550 155.51277
#
# Poissons Ratio (x) = -0.17000 0.61369
# Poissons Ratio (y) = -0.13715 0.19163
# Poissons Ratio (z) = 0.13924 0.05389
#
# Static dielectric constant tensor:
#      x y z
#    x 1.796830 0.000000 -0.002110 
#    y 0.000000 1.800930 0.000000 
#    z -0.002110 0.000000 1.875430 
# 
# From -- ./inp_files/58116.got.cif
#   From: 2010.05.17/outbox.cif.g08.bks.cpg/sg10_30_cif.got.tgz:58116.got - 2010.06.03 11:33:40.
