data_PCOD9145624
_publ_section_title
;
Structure prediction by ZEFSAII (Michael W. Deem and Ramdas Pophale) SiO2 
 PCOD9145624
Probable space group: P 2/M
;
_chemical_formula_sum "Si O2"
_cell_formula_units_Z 28
_cell_length_a 21.144467
_cell_length_b 8.971884
_cell_length_c 19.024175
_cell_angle_alpha 90.000000
_cell_angle_beta 26.502315
_cell_angle_gamma 90.000000
_cell_volume 1610.455966
_symmetry_space_group_name_H-M "P 2/M"
_symmetry_group_IT_number 10
_symmetry_cell_setting 'monoclinic'
loop_
_space_group_symop_operation_xyz
x,y,z
-x,y,-z
-x,-y,-z
x,-y,z
loop_
_atom_site_type_symbol
_atom_site_label
_atom_site_fract_x
_atom_site_fract_y
_atom_site_fract_z
Si Si1 0.152357 0.678373 0.419935
Si Si2 0.327562 0.672311 0.672772
Si Si3 0.676145 0.822365 0.468573
Si Si4 0.150349 0.322213 0.578079
Si Si5 0.837632 0.178150 0.728294
Si Si6 0.160382 0.179186 0.118616
Si Si7 0.342352 0.821601 0.802415
O O1 0.137342 0.500000 0.427338
O O2 0.211792 0.710045 0.438591
O O3 0.227337 0.745686 0.276422
O O4 0.997067 0.755340 0.574844
O O5 0.500000 0.680501 0.500000
O O6 0.286369 0.500000 0.710297
O O7 0.277513 0.758177 0.653152
O O8 0.284473 0.744468 0.789584
O O9 0.761511 0.751540 0.447539
O O10 0.509119 0.786439 0.643240
O O11 0.330672 0.000000 0.805313
O O12 0.147301 0.500000 0.589432
O O13 0.990538 0.259347 0.738445
O O14 0.775930 0.210926 0.867084
O O15 0.842940 0.000000 0.713224
O O16 0.137493 0.000000 0.138819
O O17 0.260182 0.221869 0.954671
O O18 0.692134 0.000000 0.452860
#
# Coordination Sequence:
#
# PCOD9145624 Si02
#       7
#     4   4   4   4   4   4   4
#     4   9  16  26  41  62  90 122 154 190 230 271
#     4   9  17  30  49  72  96 122 155 194 232 274
#     4  10  19  32  52  73  94 124 159 194 234 279
#     4  10  20  32  47  70  99 127 157 195 237 280
#     4   9  15  24  42  66  90 118 153 191 229 271
#     4   9  18  32  49  71  99 126 154 193 238 281
#     4   9  18  33  52  73  96 123 157 194 233 280
#
# _framework density 17.386382000000001
#
# number of rings (size 3 to 8) (size 9 to 14) (size 15 to 20)
#    0.000    2.714    0.000    3.000    0.000    5.143 
#    0.000    0.714    0.000    5.143    0.000    6.000 
#    0.000    0.000    0.000    0.000    0.000    0.000 
#
# Total GULP energy -155954.542314 kJ/mol
# GULP energy per Si atom -5569.805083 kJ/mol
# Density = 1.734681 g / cm^3
# Si number density = 17.386382 Si / 1000 Ang^3
#
#
#
# Elastic Constant Matrix: (Units=GPa)
#
#
# Indices 1 2 3 4 5 6 
#
# 1 283.7323 121.3255 46.2681 0.0000 44.4182 0.0000
# 2 121.3255 87.0441 31.0134 0.0000 20.2708 0.0000
# 3 46.2681 31.0134 70.5044 0.0000 40.6121 0.0000
# 4 0.0000 0.0000 0.0000 12.1070 0.0000 8.5325
# 5 44.4182 20.2708 40.6121 0.0000 34.4395 0.0000
# 6 0.0000 0.0000 0.0000 8.5325 0.0000 32.0781
#
#
#
# Elastic Compliance Matrix: (Units=1/GPa)
#
#
# Indices 1 2 3 4 5 6 
#
# 1 0.010481 -0.013965 0.007223 0.000000 -0.013815 0.000000
# 2 -0.013965 0.032328 -0.013938 0.000000 0.015419 0.000000
# 3 0.007223 -0.013938 0.050555 0.000000 -0.060728 0.000000
# 4 0.000000 0.000000 0.000000 0.101652 0.000000 -0.027039
# 5 -0.013815 0.015419 -0.060728 0.000000 0.109392 0.000000
# 6 0.000000 0.000000 0.000000 -0.027039 0.000000 0.038366
#
#
# Mechanical properties :
#
#
# Convention : Reuss Voigt Hill
#
# Bulk Modulus (GPa) = 19.22884 93.16608 56.19746
# Shear Modulus (GPa) = 12.45425 31.90318 22.17872
#
# Velocity S-wave (km/s) = 2.67932 4.28828 3.57548
# Velocity P-wave (km/s) = 4.54482 8.84427 7.03124
#
# Compressibility (1/GPa) = 0.05200521
#
# Stress axis : x y z
#
# Youngs Moduli (GPa) = 95.41241 30.93266 19.78029
#
# Poissons Ratio (x) = 0.43197 -0.14287
# Poissons Ratio (y) = 1.33241 0.27569
# Poissons Ratio (z) = -0.68915 0.43113
#
# Static dielectric constant tensor:
#      x y z
#    x 1.608500 0.000000 0.037500 
#    y 0.000000 1.579110 0.000000 
#    z 0.037500 0.000000 1.595200 
# 
# From -- ./inp_files/37912.got.cif
#   From: 2010.05.17/outbox.cif.g08.bks.cpg/sg10_19_cif.got.tgz:37912.got - 2010.06.03 11:33:40.
