data_PCOD9145458
_publ_section_title
;
Structure prediction by ZEFSAII (Michael W. Deem and Ramdas Pophale) SiO2 
 PCOD9145458
Probable space group: P 2/M
;
_chemical_formula_sum "Si O2"
_cell_formula_units_Z 28
_cell_length_a 10.818462
_cell_length_b 8.655571
_cell_length_c 19.610828
_cell_angle_alpha 90.000000
_cell_angle_beta 56.340581
_cell_angle_gamma 90.000000
_cell_volume 1528.486267
_symmetry_space_group_name_H-M "P 2/M"
_symmetry_group_IT_number 10
_symmetry_cell_setting 'monoclinic'
loop_
_space_group_symop_operation_xyz
x,y,z
-x,y,-z
-x,-y,-z
x,-y,z
loop_
_atom_site_type_symbol
_atom_site_label
_atom_site_fract_x
_atom_site_fract_y
_atom_site_fract_z
Si Si1 0.325144 0.183860 0.563343
Si Si2 0.042362 0.187183 0.562805
Si Si3 0.837237 0.318924 0.261290
Si Si4 0.877329 0.815037 0.750595
Si Si5 0.641649 0.320334 0.916924
Si Si6 0.822288 0.180114 0.124089
Si Si7 0.857717 0.677495 0.978062
O O1 0.500000 0.206157 0.500000
O O2 0.273121 0.282331 0.643526
O O3 0.210240 0.223899 0.537139
O O4 0.300763 0.000000 0.584767
O O5 0.930726 0.236241 0.658372
O O6 0.000000 0.244194 0.500000
O O7 0.033687 0.000000 0.563172
O O8 0.862093 0.500000 0.243583
O O9 0.773900 0.246276 0.211388
O O10 0.992172 0.243403 0.238779
O O11 0.720025 0.755471 0.827520
O O12 0.876691 0.000000 0.751799
O O13 0.607038 0.500000 0.911066
O O14 0.500000 0.250645 0.000000
O O15 0.763297 0.314732 0.939296
O O16 0.770238 0.270885 0.072665
O O17 0.791133 0.000000 0.127380
O O18 0.999717 0.213109 0.071314
O O19 0.906741 0.500000 0.970035
#
# Coordination Sequence:
#
# PCOD9145458 Si02
#       7
#     4   4   4   4   4   4   4
#     4   9  18  33  53  78 107 138 172 217 269 320
#     4   8  15  30  53  79 105 135 172 213 264 321
#     4  11  20  32  52  76 104 137 174 215 261 322
#     4  10  19  32  53  78 102 133 179 227 265 311
#     4  10  21  36  53  73 104 145 181 217 266 321
#     4  11  20  31  50  75 102 129 168 219 261 301
#     4  10  19  32  50  72 101 136 171 207 260 314
#
# _framework density 18.318777000000001
#
# number of rings (size 3 to 8) (size 9 to 14) (size 15 to 20)
#    0.000    2.143    1.429    5.143    0.000    1.143 
#    0.000    1.429    0.000   12.429    0.000    0.000 
#    0.000    0.000    0.000    0.000    0.000    0.000 
#
# Total GULP energy -155990.977250 kJ/mol
# GULP energy per Si atom -5571.106330 kJ/mol
# Density = 1.827708 g / cm^3
# Si number density = 18.318777 Si / 1000 Ang^3
#
#
#
# Elastic Constant Matrix: (Units=GPa)
#
#
# Indices 1 2 3 4 5 6 
#
# 1 45.2396 6.7126 48.4483 0.0000 10.5001 0.0000
# 2 6.7126 49.0053 29.3216 0.0000 -0.7100 0.0000
# 3 48.4483 29.3216 117.1959 0.0000 10.0319 0.0000
# 4 0.0000 0.0000 0.0000 27.1000 0.0000 -0.8296
# 5 10.5001 -0.7100 10.0319 0.0000 34.9842 0.0000
# 6 0.0000 0.0000 0.0000 -0.8296 0.0000 12.2235
#
#
#
# Elastic Compliance Matrix: (Units=1/GPa)
#
#
# Indices 1 2 3 4 5 6 
#
# 1 0.042609 0.004954 -0.018215 0.000000 -0.007465 0.000000
# 2 0.004954 0.024751 -0.008361 0.000000 0.001413 0.000000
# 3 -0.018215 -0.008361 0.018147 0.000000 0.000094 0.000000
# 4 0.000000 0.000000 0.000000 0.036977 0.000000 0.002510
# 5 -0.007465 0.001413 0.000094 0.000000 0.030827 0.000000
# 6 0.000000 0.000000 0.000000 0.002510 0.000000 0.081980
#
#
# Mechanical properties :
#
#
# Convention : Reuss Voigt Hill
#
# Bulk Modulus (GPa) = 23.66207 42.26731 32.96469
# Shear Modulus (GPa) = 17.08691 23.32543 20.20617
#
# Velocity S-wave (km/s) = 3.05742 3.57221 3.32479
# Velocity P-wave (km/s) = 5.04069 6.33542 5.72478
#
# Compressibility (1/GPa) = 0.04226173
#
# Stress axis : x y z
#
# Youngs Moduli (GPa) = 23.46936 40.40281 55.10685
#
# Poissons Ratio (x) = -0.20015 1.00376
# Poissons Ratio (y) = -0.11627 0.46077
# Poissons Ratio (z) = 0.42749 0.33782
#
# Static dielectric constant tensor:
#      x y z
#    x 1.634690 0.000000 0.003950 
#    y 0.000000 1.622330 0.000000 
#    z 0.003950 0.000000 1.688730 
# 
# From -- ./inp_files/83309.got.cif
#   From: 2010.05.17/outbox.cif.g08.bks.cpg/sg10_42_cif.got.tgz:83309.got - 2010.06.03 11:33:40.
