data_PCOD9145359
_publ_section_title
;
Structure prediction by ZEFSAII (Michael W. Deem and Ramdas Pophale) SiO2 
 PCOD9145359
Probable space group: P 2/M
;
_chemical_formula_sum "Si O2"
_cell_formula_units_Z 32
_cell_length_a 28.388824
_cell_length_b 9.632250
_cell_length_c 14.435757
_cell_angle_alpha 90.000000
_cell_angle_beta 150.502190
_cell_angle_gamma 90.000000
_cell_volume 1943.677437
_symmetry_space_group_name_H-M "P 2/M"
_symmetry_group_IT_number 10
_symmetry_cell_setting 'monoclinic'
loop_
_space_group_symop_operation_xyz
x,y,z
-x,y,-z
-x,-y,-z
x,-y,z
loop_
_atom_site_type_symbol
_atom_site_label
_atom_site_fract_x
_atom_site_fract_y
_atom_site_fract_z
Si Si1 0.866628 0.834959 0.033060
Si Si2 0.105569 0.156124 0.224913
Si Si3 0.794996 0.661955 0.285074
Si Si4 0.950526 0.340012 0.710285
Si Si5 0.889155 0.834969 0.289051
Si Si6 0.628096 0.667844 0.135577
Si Si7 0.592914 0.333051 0.281980
Si Si8 0.273929 0.838315 0.363167
O O1 0.865515 0.809759 0.140915
O O2 0.953813 0.748257 0.139975
O O3 0.884369 0.000000 0.048366
O O4 0.769689 0.800943 0.811640
O O5 0.110369 0.271120 0.311983
O O6 0.184193 0.173430 0.280164
O O7 0.115913 0.000000 0.281918
O O8 0.000000 0.165488 0.000000
O O9 0.777153 0.500000 0.230780
O O10 0.887730 0.666308 0.510101
O O11 0.819767 0.750966 0.237786
O O12 0.707266 0.715913 0.198088
O O13 0.972137 0.500000 0.768390
O O14 0.000000 0.796367 0.500000
O O15 0.880937 0.000000 0.292648
O O16 0.636913 0.500000 0.154131
O O17 0.637143 0.713865 0.258202
O O18 0.520136 0.698319 0.918353
O O19 0.603369 0.500000 0.306711
O O20 0.644267 0.257312 0.454271
O O21 0.303567 0.000000 0.412535
#
# Coordination Sequence:
#
# PCOD9145359 Si02
#       8
#     4   4   4   4   4   4   4   4
#     4  10  20  36  51  66  98 139 171 202 248 306
#     4  10  19  32  47  64  95 139 172 194 238 299
#     4  10  20  33  51  75 105 132 162 209 264 307
#     4  11  21  30  46  74 102 129 165 209 248 290
#     4  10  20  34  54  74  95 132 180 217 249 299
#     4   8  16  33  55  78 103 136 165 199 255 309
#     4   9  17  33  57  78 102 133 170 205 243 303
#     4  10  20  33  50  71  99 135 169 204 251 299
#
# _framework density 16.463638
#
# number of rings (size 3 to 8) (size 9 to 14) (size 15 to 20)
#    0.000    2.250    2.500    1.875    0.000    3.500 
#    0.000    2.500    0.000    0.750    0.000    5.250 
#    0.000    0.000    0.000    0.000    0.000    0.000 
#
# Total GULP energy -178445.089988 kJ/mol
# GULP energy per Si atom -5576.409062 kJ/mol
# Density = 1.642617 g / cm^3
# Si number density = 16.463638 Si / 1000 Ang^3
#
#
#
# Elastic Constant Matrix: (Units=GPa)
#
#
# Indices 1 2 3 4 5 6 
#
# 1 85.4614 40.2704 38.9452 0.0000 -9.2294 0.0000
# 2 40.2704 45.6585 37.2830 0.0000 -12.0985 0.0000
# 3 38.9452 37.2830 91.7204 0.0000 -14.9758 0.0000
# 4 0.0000 0.0000 0.0000 25.1499 0.0000 -3.1073
# 5 -9.2294 -12.0985 -14.9758 0.0000 24.7300 0.0000
# 6 0.0000 0.0000 0.0000 -3.1073 0.0000 22.7888
#
#
#
# Elastic Compliance Matrix: (Units=1/GPa)
#
#
# Indices 1 2 3 4 5 6 
#
# 1 0.020340 -0.016666 -0.002168 0.000000 -0.001875 0.000000
# 2 -0.016666 0.048280 -0.010773 0.000000 0.010876 0.000000
# 3 -0.002168 -0.010773 0.016878 0.000000 0.004142 0.000000
# 4 0.000000 0.000000 0.000000 0.040443 0.000000 0.005514
# 5 -0.001875 0.010876 0.004142 0.000000 0.047566 0.000000
# 6 0.000000 0.000000 0.000000 0.005514 0.000000 0.044633
#
#
# Mechanical properties :
#
#
# Convention : Reuss Voigt Hill
#
# Bulk Modulus (GPa) = 38.04575 50.64862 44.34718
# Shear Modulus (GPa) = 17.47550 21.62320 19.54935
#
# Velocity S-wave (km/s) = 3.26154 3.62801 3.44964
# Velocity P-wave (km/s) = 6.11086 6.95562 6.54688
#
# Compressibility (1/GPa) = 0.02628415
#
# Stress axis : x y z
#
# Youngs Moduli (GPa) = 49.16413 20.71271 59.24708
#
# Poissons Ratio (x) = 0.34520 0.12846
# Poissons Ratio (y) = 0.81938 0.63824
# Poissons Ratio (z) = 0.10660 0.22313
#
# Static dielectric constant tensor:
#      x y z
#    x 1.552210 0.000000 -0.007800 
#    y 0.000000 1.554330 0.000000 
#    z -0.007800 0.000000 1.555520 
# 
# From -- ./inp_files/66070.got.cif
#   From: 2010.05.17/outbox.cif.g08.bks.cpg/sg10_34_cif.got.tgz:66070.got - 2010.06.03 11:33:40.
