data_PCOD9145986
_publ_section_title
;
Structure prediction by ZEFSAII (Michael W. Deem and Ramdas Pophale) SiO2 
 PCOD9145986
Probable space group: P 2/M
;
_chemical_formula_sum "Si O2"
_cell_formula_units_Z 28
_cell_length_a 21.542595
_cell_length_b 7.411489
_cell_length_c 14.530199
_cell_angle_alpha 90.000000
_cell_angle_beta 146.917794
_cell_angle_gamma 90.000000
_cell_volume 1266.315182
_symmetry_space_group_name_H-M "P 2/M"
_symmetry_group_IT_number 10
_symmetry_cell_setting 'monoclinic'
loop_
_space_group_symop_operation_xyz
x,y,z
-x,y,-z
-x,-y,-z
x,-y,z
loop_
_atom_site_type_symbol
_atom_site_label
_atom_site_fract_x
_atom_site_fract_y
_atom_site_fract_z
Si Si1 0.627827 0.792984 0.668986
Si Si2 0.118601 0.720991 0.691966
Si Si3 0.432722 0.719736 0.776805
Si Si4 0.965783 0.279910 0.854685
Si Si5 0.153060 0.711621 0.942484
Si Si6 0.711776 0.281366 0.570298
Si Si7 0.332679 0.280147 0.842710
O O1 0.500000 0.712066 0.500000
O O2 0.720562 0.722914 0.857230
O O3 0.687573 0.780933 0.643474
O O4 0.610721 0.000000 0.674366
O O5 0.120489 0.500000 0.695463
O O6 0.219036 0.780575 0.749771
O O7 0.000000 0.775841 0.500000
O O8 0.140177 0.783552 0.823166
O O9 0.432806 0.500000 0.774857
O O10 0.385845 0.779710 0.620896
O O11 0.352294 0.774969 0.761806
O O12 0.558544 0.776230 0.962009
O O13 0.968903 0.500000 0.856676
O O14 0.834152 0.226850 0.681466
O O15 0.000000 0.224989 0.000000
O O16 0.058040 0.214643 0.895251
O O17 0.127237 0.500000 0.903085
O O18 0.711925 0.500000 0.574755
O O19 0.333123 0.500000 0.842490
#
# Coordination Sequence:
#
# PCOD9145986 Si02
#       7
#     4   4   4   4   4   4   4
#     4  11  25  41  54  74 107 142 177 223 277 323
#     4   9  18  28  44  74 110 142 171 210 261 312
#     4   8  15  25  43  69 101 136 167 210 257 302
#     4   9  16  29  48  76 107 131 165 215 262 299
#     4  10  20  35  56  80 109 145 181 219 260 315
#     4  10  19  32  55  81 104 137 178 216 260 318
#     4   8  14  26  39  65 105 135 167 209 257 304
#
# _framework density 22.111398999999999
#
# number of rings (size 3 to 8) (size 9 to 14) (size 15 to 20)
#    0.000    2.714    1.429    1.286    4.000    1.143 
#    0.000    1.429    0.000    0.429    0.000    3.000 
#    0.000    0.000    0.000    0.000    0.000    0.000 
#
# Total GULP energy -156313.342334 kJ/mol
# GULP energy per Si atom -5582.619369 kJ/mol
# Density = 2.206107 g / cm^3
# Si number density = 22.111399 Si / 1000 Ang^3
#
#
#
# Elastic Constant Matrix: (Units=GPa)
#
#
# Indices 1 2 3 4 5 6 
#
# 1 115.3636 -2.4246 84.2397 0.0000 12.6025 0.0000
# 2 -2.4246 66.5940 -6.8596 0.0000 0.9398 0.0000
# 3 84.2397 -6.8596 131.4927 0.0000 -8.4030 0.0000
# 4 0.0000 0.0000 0.0000 -25.7436 0.0000 23.9680
# 5 12.6025 0.9398 -8.4030 0.0000 43.8649 0.0000
# 6 0.0000 0.0000 0.0000 23.9680 0.0000 -23.3372
#
#
#
# Elastic Compliance Matrix: (Units=1/GPa)
#
#
# Indices 1 2 3 4 5 6 
#
# 1 0.018559 -0.000494 -0.012407 0.000000 -0.007698 0.000000
# 2 -0.000494 0.015112 0.001107 0.000000 0.000030 0.000000
# 3 -0.012407 0.001107 0.016034 0.000000 0.006612 0.000000
# 4 0.000000 0.000000 0.000000 -0.886622 0.000000 -0.910585
# 5 -0.007698 0.000030 0.006612 0.000000 0.026275 0.000000
# 6 0.000000 0.000000 0.000000 -0.910585 0.000000 -0.978046
#
#
# Mechanical properties :
#
#
# Convention : Reuss Voigt Hill
#
# Bulk Modulus (GPa) = 38.29097 51.48461 44.88779
# Shear Modulus (GPa) = -2.84674 14.85647 6.00486
#
# Velocity S-wave (km/s) = -1.13589 2.59490 1.64974
# Velocity P-wave (km/s) = 3.95406 5.68443 4.89629
#
# Compressibility (1/GPa) = 0.02611582
#
# Stress axis : x y z
#
# Youngs Moduli (GPa) = 53.88315 66.17283 62.36814
#
# Poissons Ratio (x) = 0.03267 0.77381
# Poissons Ratio (y) = 0.02660 -0.06901
# Poissons Ratio (z) = 0.66854 -0.07322
#
# Static dielectric constant tensor:
#      x y z
#    x 1.768030 0.000000 0.016900 
#    y 0.000000 1.854510 0.000000 
#    z 0.016900 0.000000 1.791650 
# 
# From -- ./inp_files/70285.got.cif
#   From: 2010.05.17/outbox.cif.g08.bks.cpg/sg10_36_cif.got.tgz:70285.got - 2010.06.03 11:33:40.
