data_PCOD9145471
_publ_section_title
;
Structure prediction by ZEFSAII (Michael W. Deem and Ramdas Pophale) SiO2 
 PCOD9145471
Probable space group: P 2/M
;
_chemical_formula_sum "Si O2"
_cell_formula_units_Z 32
_cell_length_a 11.490554
_cell_length_b 7.862433
_cell_length_c 20.494794
_cell_angle_alpha 90.000000
_cell_angle_beta 120.206022
_cell_angle_gamma 90.000000
_cell_volume 1600.172360
_symmetry_space_group_name_H-M "P 2/M"
_symmetry_group_IT_number 10
_symmetry_cell_setting 'monoclinic'
loop_
_space_group_symop_operation_xyz
x,y,z
-x,y,-z
-x,-y,-z
x,-y,z
loop_
_atom_site_type_symbol
_atom_site_label
_atom_site_fract_x
_atom_site_fract_y
_atom_site_fract_z
Si Si1 0.292026 0.207367 0.911524
Si Si2 0.560690 0.799699 0.632797
Si Si3 0.749662 0.702175 0.470039
Si Si4 0.072129 0.799335 0.751520
Si Si5 0.809290 0.696397 0.625838
Si Si6 0.213094 0.205015 0.661294
Si Si7 0.526035 0.792554 0.765659
Si Si8 0.426533 0.207227 0.078530
O O1 0.159547 0.269103 0.836435
O O2 0.423938 0.250639 0.905664
O O3 0.288544 0.000000 0.913751
O O4 0.322216 0.266241 0.993720
O O5 0.401923 0.774646 0.576460
O O6 0.657056 0.713203 0.607895
O O7 0.587937 0.736145 0.714359
O O8 0.589235 0.000000 0.637474
O O9 0.736671 0.500000 0.473782
O O10 0.818418 0.770545 0.555235
O O11 0.820969 0.736983 0.421334
O O12 0.124942 0.730519 0.696731
O O13 0.912672 0.778319 0.705638
O O14 0.101825 0.000000 0.758670
O O15 0.846813 0.500000 0.633905
O O16 0.368157 0.255232 0.719179
O O17 0.208712 0.000000 0.658930
O O18 0.589088 0.733807 0.851567
O O19 0.529337 0.000000 0.765933
O O20 0.421781 0.000000 0.078446
#
# Coordination Sequence:
#
# PCOD9145471 Si02
#       8
#     4   4   4   4   4   4   4   4
#     4   8  13  21  40  72 105 132 154 187 237 288
#     4  10  20  34  55  78  97 121 159 208 253 289
#     4  10  21  36  53  72  96 125 161 206 249 294
#     4  10  19  32  50  73 103 133 166 204 240 285
#     4  11  24  38  50  67  94 132 171 204 245 295
#     4   9  17  30  49  74 102 130 160 199 246 289
#     4   8  13  24  44  72 103 126 149 191 244 290
#     4   8  11  19  40  72 106 130 150 184 240 292
#
# _framework density 19.997845999999999
#
# number of rings (size 3 to 8) (size 9 to 14) (size 15 to 20)
#    0.000    2.750    1.250    3.000    0.000    4.500 
#    0.000    2.500    0.000    0.750    0.000   11.375 
#    0.000    0.000    0.000    0.000    0.000    0.000 
#
# Total GULP energy -178401.207233 kJ/mol
# GULP energy per Si atom -5575.037726 kJ/mol
# Density = 1.995233 g / cm^3
# Si number density = 19.997846 Si / 1000 Ang^3
#
#
#
# Elastic Constant Matrix: (Units=GPa)
#
#
# Indices 1 2 3 4 5 6 
#
# 1 8.0403 0.9291 3.2599 0.0000 2.3558 0.0000
# 2 0.9291 23.6251 9.2991 0.0000 -3.1842 0.0000
# 3 3.2599 9.2991 144.5427 0.0000 -1.7806 0.0000
# 4 0.0000 0.0000 0.0000 35.6532 0.0000 -26.0757
# 5 2.3558 -3.1842 -1.7806 0.0000 23.5503 0.0000
# 6 0.0000 0.0000 0.0000 -26.0757 0.0000 16.3740
#
#
#
# Elastic Compliance Matrix: (Units=1/GPa)
#
#
# Indices 1 2 3 4 5 6 
#
# 1 0.130282 -0.005942 -0.002729 0.000000 -0.014042 0.000000
# 2 -0.005942 0.044467 -0.002648 0.000000 0.006407 0.000000
# 3 -0.002729 -0.002648 0.007156 0.000000 0.000456 0.000000
# 4 0.000000 0.000000 0.000000 -0.170282 0.000000 -0.271176
# 5 -0.014042 0.006407 0.000456 0.000000 0.044768 0.000000
# 6 0.000000 0.000000 0.000000 -0.271176 0.000000 -0.370778
#
#
# Mechanical properties :
#
#
# Convention : Reuss Voigt Hill
#
# Bulk Modulus (GPa) = 6.27877 22.57604 14.42741
# Shear Modulus (GPa) = -20.95022 25.96348 2.50663
#
# Velocity S-wave (km/s) = -3.24021 3.60712 1.12079
# Velocity P-wave (km/s) = 3.29425 5.35371 2.98413
#
# Compressibility (1/GPa) = 0.15926687
#
# Stress axis : x y z
#
# Youngs Moduli (GPa) = 7.67567 22.48845 139.74509
#
# Poissons Ratio (x) = 0.13363 0.38136
# Poissons Ratio (y) = 0.04561 0.37003
# Poissons Ratio (z) = 0.02095 0.05955
#
# Static dielectric constant tensor:
#      x y z
#    x 1.674150 0.000000 -0.019490 
#    y 0.000000 1.731670 0.000000 
#    z -0.019490 0.000000 1.756170 
# 
# From -- ./inp_files/54918.got.cif
#   From: 2010.05.17/outbox.cif.g08.bks.cpg/sg10_28_cif.got.tgz:54918.got - 2010.06.03 11:33:40.
