data_PCOD9145634
_publ_section_title
;
Structure prediction by ZEFSAII (Michael W. Deem and Ramdas Pophale) SiO2 
 PCOD9145634
Probable space group: P 2/M
;
_chemical_formula_sum "Si O2"
_cell_formula_units_Z 32
_cell_length_a 14.191603
_cell_length_b 17.952732
_cell_length_c 14.617305
_cell_angle_alpha 90.000000
_cell_angle_beta 148.351507
_cell_angle_gamma 90.000000
_cell_volume 1954.095692
_symmetry_space_group_name_H-M "P 2/M"
_symmetry_group_IT_number 10
_symmetry_cell_setting 'monoclinic'
loop_
_space_group_symop_operation_xyz
x,y,z
-x,y,-z
-x,-y,-z
x,-y,z
loop_
_atom_site_type_symbol
_atom_site_label
_atom_site_fract_x
_atom_site_fract_y
_atom_site_fract_z
Si Si1 0.377356 0.189157 0.772121
Si Si2 0.482113 0.357743 0.875794
Si Si3 0.113913 0.586958 0.001852
Si Si4 0.492045 0.589830 0.597855
Si Si5 0.205613 0.586039 0.512590
Si Si6 0.919395 0.916242 0.536804
Si Si7 0.236820 0.828094 0.864064
Si Si8 0.118869 0.334702 0.827260
O O1 0.421269 0.275535 0.791193
O O2 0.237358 0.145350 0.593744
O O3 0.292883 0.187782 0.804639
O O4 0.573135 0.150763 0.934084
O O5 0.331129 0.408961 0.705997
O O6 0.500000 0.356863 0.000000
O O7 0.685810 0.374111 0.014621
O O8 0.101531 0.500000 0.961726
O O9 0.318485 0.604796 0.197525
O O10 0.047984 0.641605 0.868137
O O11 0.000000 0.593377 0.000000
O O12 0.500000 0.618069 0.500000
O O13 0.474388 0.500000 0.577482
O O14 0.331934 0.613423 0.532798
O O15 0.156550 0.500000 0.456270
O O16 0.025048 0.634566 0.364225
O O17 0.000000 0.917537 0.500000
O O18 0.083223 0.889728 0.735340
O O19 0.857640 0.000000 0.506419
O O20 0.159928 0.751664 0.842604
#
# Coordination Sequence:
#
# PCOD9145634 Si02
#       8
#     4   4   4   4   4   4   4   4
#     4   9  16  31  48  64  87 128 167 195 234 282
#     4  11  21  37  53  66  92 133 174 212 248 291
#     4  10  19  32  52  74  98 126 159 208 264 313
#     4   9  17  31  48  68  93 118 150 196 251 308
#     4  11  23  34  48  69  92 122 164 214 259 299
#     4   9  17  27  44  71 100 126 156 196 237 282
#     4   9  17  30  47  66  91 126 163 197 231 284
#     4  11  20  34  53  72  94 129 170 208 248 304
#
# _framework density 16.375861
#
# number of rings (size 3 to 8) (size 9 to 14) (size 15 to 20)
#    0.000    2.125    3.750    1.875    0.000    3.750 
#    0.000    3.125    0.000    0.000    0.000    0.000 
#    0.000    0.500    0.000    4.500    0.000    0.250 
#
# Total GULP energy -178256.993385 kJ/mol
# GULP energy per Si atom -5570.531043 kJ/mol
# Density = 1.633859 g / cm^3
# Si number density = 16.375861 Si / 1000 Ang^3
#
#
#
# Elastic Constant Matrix: (Units=GPa)
#
#
# Indices 1 2 3 4 5 6 
#
# 1 32.5074 20.6088 28.1348 0.0000 0.7800 0.0000
# 2 20.6088 37.2139 29.2192 0.0000 3.0560 0.0000
# 3 28.1348 29.2192 86.2050 0.0000 8.5378 0.0000
# 4 0.0000 0.0000 0.0000 19.4776 0.0000 1.7113
# 5 0.7800 3.0560 8.5378 0.0000 24.2276 0.0000
# 6 0.0000 0.0000 0.0000 1.7113 0.0000 3.9994
#
#
#
# Elastic Compliance Matrix: (Units=1/GPa)
#
#
# Indices 1 2 3 4 5 6 
#
# 1 0.053613 -0.021765 -0.010591 0.000000 0.004752 0.000000
# 2 -0.021765 0.045454 -0.008087 0.000000 -0.002183 0.000000
# 3 -0.010591 -0.008087 0.018302 0.000000 -0.005089 0.000000
# 4 0.000000 0.000000 0.000000 0.053347 0.000000 -0.022827
# 5 0.004752 -0.002183 -0.005089 0.000000 0.043191 0.000000
# 6 0.000000 0.000000 0.000000 -0.022827 0.000000 0.259802
#
#
# Mechanical properties :
#
#
# Convention : Reuss Voigt Hill
#
# Bulk Modulus (GPa) = 27.41016 34.65020 31.03018
# Shear Modulus (GPa) = 8.82216 14.73848 11.78032
#
# Velocity S-wave (km/s) = 2.32357 3.00328 2.68502
# Velocity P-wave (km/s) = 4.89624 5.76467 5.34811
#
# Compressibility (1/GPa) = 0.03648282
#
# Stress axis : x y z
#
# Youngs Moduli (GPa) = 18.65222 22.00038 54.63903
#
# Poissons Ratio (x) = 0.47883 0.57869
# Poissons Ratio (y) = 0.40596 0.44186
# Poissons Ratio (z) = 0.19755 0.17792
#
# Static dielectric constant tensor:
#      x y z
#    x 1.582050 0.000000 0.001680 
#    y 0.000000 1.538120 0.000000 
#    z 0.001680 0.000000 1.597300 
# 
# From -- ./inp_files/67736.got.cif
#   From: 2010.05.17/outbox.cif.g08.bks.cpg/sg10_34_cif.got.tgz:67736.got - 2010.06.03 11:33:40.
