data_PCOD9145694
_publ_section_title
;
Structure prediction by ZEFSAII (Michael W. Deem and Ramdas Pophale) SiO2 
 PCOD9145694
Probable space group: P 2/M
;
_chemical_formula_sum "Si O2"
_cell_formula_units_Z 28
_cell_length_a 19.704933
_cell_length_b 8.457955
_cell_length_c 14.767708
_cell_angle_alpha 90.000000
_cell_angle_beta 41.921774
_cell_angle_gamma 90.000000
_cell_volume 1644.390237
_symmetry_space_group_name_H-M "P 2/M"
_symmetry_group_IT_number 10
_symmetry_cell_setting 'monoclinic'
loop_
_space_group_symop_operation_xyz
x,y,z
-x,y,-z
-x,-y,-z
x,-y,z
loop_
_atom_site_type_symbol
_atom_site_label
_atom_site_fract_x
_atom_site_fract_y
_atom_site_fract_z
Si Si1 0.605501 0.188208 0.288663
Si Si2 0.200092 0.809416 0.016123
Si Si3 0.200901 0.811139 0.587686
Si Si4 0.616639 0.314251 0.476290
Si Si5 0.118179 0.308949 0.485895
Si Si6 0.998768 0.807148 0.896715
Si Si7 0.118375 0.690407 0.281209
O O1 0.635355 0.224038 0.362992
O O2 0.497090 0.269133 0.380359
O O3 0.592897 0.000000 0.291087
O O4 0.695595 0.244277 0.133871
O O5 0.185026 0.757383 0.134135
O O6 0.102241 0.753459 0.055542
O O7 0.199630 0.000000 0.012787
O O8 0.299508 0.734648 0.534429
O O9 0.183542 0.764040 0.501015
O O10 0.100295 0.758145 0.742961
O O11 0.208514 0.000000 0.588250
O O12 0.621209 0.500000 0.453552
O O13 0.122812 0.500000 0.486493
O O14 0.147455 0.261582 0.354507
O O15 0.999676 0.262358 0.616273
O O16 0.997558 0.000000 0.897780
O O17 0.000000 0.755877 0.000000
O O18 0.121114 0.500000 0.275585
#
# Coordination Sequence:
#
# PCOD9145694 Si02
#       7
#     4   4   4   4   4   4   4
#     4  10  20  36  57  78 103 136 177 219 259 304
#     4  10  19  32  52  78 105 135 171 215 259 305
#     4  11  20  32  53  77 104 138 174 215 260 305
#     4  11  22  36  54  76 105 138 177 219 257 306
#     4   9  18  33  50  73 105 141 175 210 255 306
#     4   9  17  29  45  70 104 136 164 200 251 305
#     4   9  18  32  51  73 105 142 173 209 255 311
#
# _framework density 17.027588999999999
#
# number of rings (size 3 to 8) (size 9 to 14) (size 15 to 20)
#    0.000    2.143    1.429    4.714    0.000    4.000 
#    0.000    1.429    0.000    3.000    0.000    6.000 
#    0.000    0.000    0.000    0.000    0.000    0.000 
#
# Total GULP energy -156271.134085 kJ/mol
# GULP energy per Si atom -5581.111932 kJ/mol
# Density = 1.698883 g / cm^3
# Si number density = 17.027589 Si / 1000 Ang^3
#
#
#
# Elastic Constant Matrix: (Units=GPa)
#
#
# Indices 1 2 3 4 5 6 
#
# 1 96.7551 -4.0880 62.7714 0.0000 7.3395 0.0000
# 2 -4.0880 8.3697 4.5319 0.0000 -1.6439 0.0000
# 3 62.7714 4.5319 122.5361 0.0000 12.4545 0.0000
# 4 0.0000 0.0000 0.0000 23.7669 0.0000 6.1465
# 5 7.3395 -1.6439 12.4545 0.0000 19.3045 0.0000
# 6 0.0000 0.0000 0.0000 6.1465 0.0000 27.2578
#
#
#
# Elastic Compliance Matrix: (Units=1/GPa)
#
#
# Indices 1 2 3 4 5 6 
#
# 1 0.016789 0.013288 -0.009159 0.000000 0.000657 0.000000
# 2 0.013288 0.136199 -0.013388 0.000000 0.015183 0.000000
# 3 -0.009159 -0.013388 0.014030 0.000000 -0.006709 0.000000
# 4 0.000000 0.000000 0.000000 0.044681 0.000000 -0.010075
# 5 0.000657 0.015183 -0.006709 0.000000 0.057173 0.000000
# 6 0.000000 0.000000 0.000000 -0.010075 0.000000 0.038959
#
#
# Mechanical properties :
#
#
# Convention : Reuss Voigt Hill
#
# Bulk Modulus (GPa) = 6.73392 39.34350 23.03871
# Shear Modulus (GPa) = 13.30328 25.02888 19.16608
#
# Velocity S-wave (km/s) = 2.79817 3.83809 3.35862
# Velocity P-wave (km/s) = 3.79512 6.54195 5.34790
#
# Compressibility (1/GPa) = 0.14850184
#
# Stress axis : x y z
#
# Youngs Moduli (GPa) = 59.56372 7.34217 71.27799
#
# Poissons Ratio (x) = -0.09756 0.65281
# Poissons Ratio (y) = -0.79149 0.95424
# Poissons Ratio (z) = 0.54552 0.09829
#
# Static dielectric constant tensor:
#      x y z
#    x 1.556420 0.000000 0.003670 
#    y 0.000000 1.580510 0.000000 
#    z 0.003670 0.000000 1.568350 
# 
# From -- ./inp_files/68566.got.cif
#   From: 2010.05.17/outbox.cif.g08.bks.cpg/sg10_35_cif.got.tgz:68566.got - 2010.06.03 11:33:40.
