data_PCOD9145706
_publ_section_title
;
Structure prediction by ZEFSAII (Michael W. Deem and Ramdas Pophale) SiO2 
 PCOD9145706
Probable space group: P 2/M
;
_chemical_formula_sum "Si O2"
_cell_formula_units_Z 30
_cell_length_a 10.759602
_cell_length_b 18.991720
_cell_length_c 13.200764
_cell_angle_alpha 90.000000
_cell_angle_beta 33.877958
_cell_angle_gamma 90.000000
_cell_volume 1503.649469
_symmetry_space_group_name_H-M "P 2/M"
_symmetry_group_IT_number 10
_symmetry_cell_setting 'monoclinic'
loop_
_space_group_symop_operation_xyz
x,y,z
-x,y,-z
-x,-y,-z
x,-y,z
loop_
_atom_site_type_symbol
_atom_site_label
_atom_site_fract_x
_atom_site_fract_y
_atom_site_fract_z
Si Si1 0.678811 0.215021 0.744266
Si Si2 0.883902 0.918073 0.277956
Si Si3 0.752637 0.419285 0.372818
Si Si4 0.500000 0.192117 0.500000
Si Si5 0.824163 0.203781 0.861689
Si Si6 0.414116 0.304063 0.371888
Si Si7 0.770362 0.072742 0.591562
Si Si8 0.090041 0.317858 0.041900
O O1 0.845688 0.205527 0.725508
O O2 0.722826 0.271414 0.628416
O O3 0.650680 0.141382 0.707177
O O4 0.429244 0.226565 0.951032
O O5 0.706666 0.863454 0.347825
O O6 0.810765 0.924419 0.444958
O O7 0.109693 0.871794 0.136439
O O8 0.895953 0.000000 0.231525
O O9 0.500000 0.417901 0.500000
O O10 0.810072 0.500000 0.356262
O O11 0.722509 0.368026 0.488245
O O12 0.936820 0.385002 0.173290
O O13 0.463738 0.244576 0.426860
O O14 0.949436 0.263669 0.839721
O O15 0.650619 0.329487 0.162741
O O16 0.000000 0.071861 0.500000
O O17 0.648698 0.000000 0.698750
O O18 0.000000 0.283846 0.000000
#
# Coordination Sequence:
#
# PCOD9145706 Si02
#       8
#     4   4   4   2   4   4   4   4
#     4  10  21  37  58  84 111 154 198 252 297 344
#     4  11  22  35  54  80 115 157 200 250 304 353
#     4  11  23  38  60  95 124 151 195 232 283 362
#     4  12  21  38  61  84 116 162 206 244 293 364
#     4  10  22  37  58  85 113 149 206 246 296 356
#     4  11  21  38  62  86 120 157 194 245 295 343
#     4  10  19  32  52  78 108 147 193 242 300 352
#     4  11  21  38  61  88 120 155 187 240 299 347
#
# _framework density 19.951457000000001
#
# number of rings (size 3 to 8) (size 9 to 14) (size 15 to 20)
#    0.000    1.333    4.667    1.800    0.000    1.333 
#    0.000    1.333    0.000    5.200    0.000    3.733 
#    0.000    0.000    0.000    0.000    0.000    0.000 
#
# Total GULP energy -167033.377993 kJ/mol
# GULP energy per Si atom -5567.779266 kJ/mol
# Density = 1.990605 g / cm^3
# Si number density = 19.951457 Si / 1000 Ang^3
#
#
#
# Elastic Constant Matrix: (Units=GPa)
#
#
# Indices 1 2 3 4 5 6 
#
# 1 45.3572 42.3573 11.2416 0.0000 6.4731 0.0000
# 2 42.3573 145.2694 35.9078 0.0000 12.2764 0.0000
# 3 11.2416 35.9078 76.4436 0.0000 -3.3445 0.0000
# 4 0.0000 0.0000 0.0000 21.8167 0.0000 -0.3733
# 5 6.4731 12.2764 -3.3445 0.0000 24.4378 0.0000
# 6 0.0000 0.0000 0.0000 -0.3733 0.0000 19.3207
#
#
#
# Elastic Compliance Matrix: (Units=1/GPa)
#
#
# Indices 1 2 3 4 5 6 
#
# 1 0.030664 -0.008424 -0.000727 0.000000 -0.003990 0.000000
# 2 -0.008424 0.010612 -0.003905 0.000000 -0.003634 0.000000
# 3 -0.000727 -0.003905 0.015208 0.000000 0.004236 0.000000
# 4 0.000000 0.000000 0.000000 0.045852 0.000000 0.000886
# 5 -0.003990 -0.003634 0.004236 0.000000 0.044382 0.000000
# 6 0.000000 0.000000 0.000000 0.000886 0.000000 0.051775
#
#
# Mechanical properties :
#
#
# Convention : Reuss Voigt Hill
#
# Bulk Modulus (GPa) = 32.92492 49.56483 41.24488
# Shear Modulus (GPa) = 21.30113 24.95262 23.12687
#
# Velocity S-wave (km/s) = 3.27103 3.54031 3.40833
# Velocity P-wave (km/s) = 5.55018 6.45046 6.01718
#
# Compressibility (1/GPa) = 0.03037213
#
# Stress axis : x y z
#
# Youngs Moduli (GPa) = 32.61192 94.22929 65.75441
#
# Poissons Ratio (x) = 0.79379 0.04779
# Poissons Ratio (y) = 0.27472 0.25678
# Poissons Ratio (z) = 0.02370 0.36798
#
# Static dielectric constant tensor:
#      x y z
#    x 1.766050 0.000000 -0.014860 
#    y 0.000000 1.713400 0.000000 
#    z -0.014860 0.000000 1.809600 
# 
# From -- ./inp_files/65320.got.cif
#   From: 2010.05.17/outbox.cif.g08.bks.cpg/sg10_33_cif.got.tgz:65320.got - 2010.06.03 11:33:40.
