data_PCOD9145371
_publ_section_title
;
Structure prediction by ZEFSAII (Michael W. Deem and Ramdas Pophale) SiO2 
 PCOD9145371
Probable space group: P 2/M
;
_chemical_formula_sum "Si O2"
_cell_formula_units_Z 28
_cell_length_a 15.337196
_cell_length_b 13.027498
_cell_length_c 14.555146
_cell_angle_alpha 90.000000
_cell_angle_beta 39.840599
_cell_angle_gamma 90.000000
_cell_volume 1863.146677
_symmetry_space_group_name_H-M "P 2/M"
_symmetry_group_IT_number 10
_symmetry_cell_setting 'monoclinic'
loop_
_space_group_symop_operation_xyz
x,y,z
-x,y,-z
-x,-y,-z
x,-y,z
loop_
_atom_site_type_symbol
_atom_site_label
_atom_site_fract_x
_atom_site_fract_y
_atom_site_fract_z
Si Si1 0.898330 0.804609 0.392975
Si Si2 0.857385 0.879866 0.231661
Si Si3 0.660485 0.381345 0.884152
Si Si4 0.138986 0.619201 0.445215
Si Si5 0.860810 0.000000 0.553335
Si Si6 0.775688 0.195388 0.902840
Si Si7 0.660955 0.000000 0.885183
Si Si8 0.815725 0.879862 0.064744
O O1 0.832705 0.820007 0.345695
O O2 0.858897 0.699231 0.474059
O O3 0.860090 0.899607 0.489761
O O4 0.062260 0.807889 0.247931
O O5 0.790727 0.844560 0.189605
O O6 0.822901 0.000000 0.273089
O O7 0.020689 0.876656 0.082851
O O8 0.688312 0.500000 0.887638
O O9 0.738921 0.362631 0.724975
O O10 0.716461 0.300770 0.911948
O O11 0.500000 0.368694 0.000000
O O12 0.140999 0.500000 0.472816
O O13 0.000000 0.635987 0.500000
O O14 0.738983 0.000000 0.724810
O O15 0.000000 0.000000 0.500000
O O16 0.708639 0.100265 0.903009
O O17 0.753541 0.180533 0.029626
O O18 0.500000 0.000000 0.000000
O O19 0.776833 0.000000 0.089488
#
# Coordination Sequence:
#
# PCOD9145371 Si02
#       8
#     4   4   4   4   2   4   2   4
#     4  11  18  28  48  72  95 122 155 193 232 280
#     4   8  14  25  41  68  95 120 152 191 229 271
#     4  10  21  35  49  67  93 126 163 195 224 272
#     4  10  19  32  48  68  92 124 159 190 230 279
#     4  12  20  30  45  67  95 125 156 188 234 274
#     4  11  18  30  48  69  94 127 155 190 236 277
#     4  12  24  32  41  67 101 127 154 190 232 279
#     4   8  14  25  43  65  95 122 153 188 228 279
#
# _framework density 15.028339000000001
#
# number of rings (size 3 to 8) (size 9 to 14) (size 15 to 20)
#    0.000    2.000    4.286    2.571    0.000    0.000 
#    0.000    0.000    0.000    0.857    0.000    9.000 
#    0.000    3.429    0.000    0.000    0.000    0.000 
#
# Total GULP energy -156067.879112 kJ/mol
# GULP energy per Si atom -5573.852825 kJ/mol
# Density = 1.499413 g / cm^3
# Si number density = 15.028339 Si / 1000 Ang^3
#
#
#
# Elastic Constant Matrix: (Units=GPa)
#
#
# Indices 1 2 3 4 5 6 
#
# 1 100.2348 71.1628 58.9384 0.0000 37.0819 0.0000
# 2 71.1628 94.2727 45.4004 0.0000 30.5805 0.0000
# 3 58.9384 45.4004 86.7026 0.0000 14.5194 0.0000
# 4 0.0000 0.0000 0.0000 13.0917 0.0000 5.8927
# 5 37.0819 30.5805 14.5194 0.0000 33.0353 0.0000
# 6 0.0000 0.0000 0.0000 5.8927 0.0000 11.3716
#
#
#
# Elastic Compliance Matrix: (Units=1/GPa)
#
#
# Indices 1 2 3 4 5 6 
#
# 1 0.035015 -0.013066 -0.013389 0.000000 -0.021324 0.000000
# 2 -0.013066 0.023656 -0.002476 0.000000 -0.006143 0.000000
# 3 -0.013389 -0.002476 0.020544 0.000000 0.008293 0.000000
# 4 0.000000 0.000000 0.000000 0.099620 0.000000 -0.051623
# 5 -0.021324 -0.006143 0.008293 0.000000 0.056249 0.000000
# 6 0.000000 0.000000 0.000000 -0.051623 0.000000 0.114689
#
#
# Mechanical properties :
#
#
# Convention : Reuss Voigt Hill
#
# Bulk Modulus (GPa) = 46.83712 70.24592 58.54152
# Shear Modulus (GPa) = 12.05538 18.54693 15.30116
#
# Velocity S-wave (km/s) = 2.83534 3.51683 3.19431
# Velocity P-wave (km/s) = 6.47707 7.95830 7.25558
#
# Compressibility (1/GPa) = 0.02135059
#
# Stress axis : x y z
#
# Youngs Moduli (GPa) = 28.55944 42.27293 48.67719
#
# Poissons Ratio (x) = 0.55233 0.65176
# Poissons Ratio (y) = 0.37315 0.12054
# Poissons Ratio (z) = 0.38240 0.10468
#
# Static dielectric constant tensor:
#      x y z
#    x 1.496150 0.000000 0.011980 
#    y 0.000000 1.488290 0.000000 
#    z 0.011980 0.000000 1.498460 
# 
# From -- ./inp_files/27972.got.cif
#   From: 2010.05.17/outbox.cif.g08.bks.cpg/sg10_14_cif.got.tgz:27972.got - 2010.06.03 11:33:40.
