data_PCOD9145005
_publ_section_title
;
Structure prediction by ZEFSAII (Michael W. Deem and Ramdas Pophale) SiO2 
 PCOD9145005
Probable space group: P 2/M
;
_chemical_formula_sum "Si O2"
_cell_formula_units_Z 32
_cell_length_a 24.402860
_cell_length_b 7.573533
_cell_length_c 13.482409
_cell_angle_alpha 90.000000
_cell_angle_beta 39.735690
_cell_angle_gamma 90.000000
_cell_volume 1592.851976
_symmetry_space_group_name_H-M "P 2/M"
_symmetry_group_IT_number 10
_symmetry_cell_setting 'monoclinic'
loop_
_space_group_symop_operation_xyz
x,y,z
-x,y,-z
-x,-y,-z
x,-y,z
loop_
_atom_site_type_symbol
_atom_site_label
_atom_site_fract_x
_atom_site_fract_y
_atom_site_fract_z
Si Si1 0.093112 0.716007 0.489768
Si Si2 0.426580 0.215404 0.679075
Si Si3 0.770540 0.710792 0.540389
Si Si4 0.102580 0.288554 0.254205
Si Si5 0.554467 0.212834 0.661638
Si Si6 0.744702 0.210716 0.347133
Si Si7 0.235970 0.788077 0.894502
Si Si8 0.415063 0.699796 0.161335
O O1 0.093517 0.500000 0.491374
O O2 0.151875 0.776408 0.499329
O O3 0.125084 0.771135 0.335194
O O4 0.994060 0.773429 0.635298
O O5 0.500000 0.272609 0.500000
O O6 0.468106 0.263621 0.726200
O O7 0.330804 0.278357 0.792424
O O8 0.424652 0.000000 0.676534
O O9 0.765873 0.500000 0.559769
O O10 0.775672 0.735900 0.414110
O O11 0.679666 0.782299 0.708869
O O12 0.098087 0.500000 0.266383
O O13 0.168465 0.246987 0.075216
O O14 0.642864 0.251640 0.480366
O O15 0.565459 0.306622 0.749679
O O16 0.553719 0.000000 0.677068
O O17 0.786147 0.276970 0.186518
O O18 0.752829 0.000000 0.337024
O O19 0.242510 0.000000 0.877822
O O20 0.410087 0.500000 0.125966
O O21 0.500000 0.789172 0.000000
#
# Coordination Sequence:
#
# PCOD9145005 Si02
#       8
#     4   4   4   4   4   4   4   4
#     4   8  16  34  56  73  92 124 165 200 239 293
#     4   9  15  27  47  68  91 126 163 188 221 277
#     4   9  17  31  52  71  90 125 167 198 230 283
#     4   9  18  34  55  75  95 122 158 203 248 290
#     4   9  16  28  47  66  86 121 165 196 220 263
#     4   9  17  30  47  69  98 129 158 192 235 281
#     4  10  19  31  49  74 103 129 159 198 244 292
#     4   9  18  30  43  64  96 127 151 186 239 285
#
# _framework density 20.089751
#
# number of rings (size 3 to 8) (size 9 to 14) (size 15 to 20)
#    0.000    3.000    1.250    0.750    0.000    1.750 
#    0.000    5.000    0.000    4.500    0.000    0.000 
#    0.000    0.000    0.000    0.000    0.000    0.000 
#
# Total GULP energy -178187.142911 kJ/mol
# GULP energy per Si atom -5568.348216 kJ/mol
# Density = 2.004403 g / cm^3
# Si number density = 20.089751 Si / 1000 Ang^3
#
#
#
# Elastic Constant Matrix: (Units=GPa)
#
#
# Indices 1 2 3 4 5 6 
#
# 1 160.6439 9.6565 71.7771 0.0000 -7.4354 0.0000
# 2 9.6565 39.7062 7.3682 0.0000 0.2568 0.0000
# 3 71.7771 7.3682 134.4055 0.0000 3.3094 0.0000
# 4 0.0000 0.0000 0.0000 24.9992 0.0000 -1.0937
# 5 -7.4354 0.2568 3.3094 0.0000 14.3436 0.0000
# 6 0.0000 0.0000 0.0000 -1.0937 0.0000 17.2121
#
#
#
# Elastic Compliance Matrix: (Units=1/GPa)
#
#
# Indices 1 2 3 4 5 6 
#
# 1 0.008656 -0.001271 -0.004691 0.000000 0.005592 0.000000
# 2 -0.001271 0.025631 -0.000703 0.000000 -0.000956 0.000000
# 3 -0.004691 -0.000703 0.010101 0.000000 -0.004749 0.000000
# 4 0.000000 0.000000 0.000000 0.040113 0.000000 0.002549
# 5 0.005592 -0.000956 -0.004749 0.000000 0.073729 0.000000
# 6 0.000000 0.000000 0.000000 0.002549 0.000000 0.058261
#
#
# Mechanical properties :
#
#
# Convention : Reuss Voigt Hill
#
# Bulk Modulus (GPa) = 32.19729 56.92879 44.56304
# Shear Modulus (GPa) = 20.81846 27.70789 24.26318
#
# Velocity S-wave (km/s) = 3.22261 3.71779 3.47902
# Velocity P-wave (km/s) = 5.46886 6.84310 6.19421
#
# Compressibility (1/GPa) = 0.03105852
#
# Stress axis : x y z
#
# Youngs Moduli (GPa) = 115.52723 39.01579 99.00420
#
# Poissons Ratio (x) = 0.04958 0.46439
# Poissons Ratio (y) = 0.14682 0.06959
# Poissons Ratio (z) = 0.54189 0.02742
#
# Static dielectric constant tensor:
#      x y z
#    x 1.722960 0.000000 0.008090 
#    y 0.000000 1.781800 0.000000 
#    z 0.008090 0.000000 1.739760 
# 
# From -- ./inp_files/55699.got.cif
#   From: 2010.05.17/outbox.cif.g08.bks.cpg/sg10_28_cif.got.tgz:55699.got - 2010.06.03 11:33:40.
