data_PCOD9145204
_publ_section_title
;
Structure prediction by ZEFSAII (Michael W. Deem and Ramdas Pophale) SiO2 
 PCOD9145204
Probable space group: P 2/M
;
_chemical_formula_sum "Si O2"
_cell_formula_units_Z 32
_cell_length_a 24.723232
_cell_length_b 13.918594
_cell_length_c 9.644166
_cell_angle_alpha 90.000000
_cell_angle_beta 31.021486
_cell_angle_gamma 90.000000
_cell_volume 1710.312837
_symmetry_space_group_name_H-M "P 2/M"
_symmetry_group_IT_number 10
_symmetry_cell_setting 'monoclinic'
loop_
_space_group_symop_operation_xyz
x,y,z
-x,y,-z
-x,-y,-z
x,-y,z
loop_
_atom_site_type_symbol
_atom_site_label
_atom_site_fract_x
_atom_site_fract_y
_atom_site_fract_z
Si Si1 0.613237 0.611174 0.277919
Si Si2 0.763467 0.613232 0.713375
Si Si3 0.606798 0.889097 0.352048
Si Si4 0.832001 0.110336 0.729128
Si Si5 0.375336 0.608847 0.248833
Si Si6 0.915110 0.259050 0.775604
Si Si7 0.317468 0.287317 0.631282
Si Si8 0.941519 0.768080 0.274841
O O1 0.500000 0.656184 0.500000
O O2 0.608480 0.500000 0.248290
O O3 0.627894 0.625548 0.407701
O O4 0.710407 0.649797 0.973663
O O5 0.791231 0.500000 0.663523
O O6 0.669766 0.621899 0.806520
O O7 0.864860 0.674959 0.447762
O O8 0.500000 0.873810 0.500000
O O9 0.631665 0.809859 0.416548
O O10 0.604663 0.000000 0.409635
O O11 0.707536 0.881933 0.029257
O O12 0.887364 0.172127 0.729796
O O13 0.866837 0.148804 0.502288
O O14 0.862922 0.000000 0.676475
O O15 0.341153 0.500000 0.363899
O O16 0.328809 0.693068 0.445521
O O17 0.500000 0.612816 0.000000
O O18 0.000000 0.319502 0.500000
O O19 0.969698 0.237482 0.801465
O O20 0.802513 0.298169 0.061066
O O21 0.000000 0.781099 0.000000
#
# Coordination Sequence:
#
# PCOD9145204 Si02
#       8
#     4   4   4   4   4   4   4   4
#     4  10  19  31  51  80 108 132 167 218 266 310
#     4  10  21  37  54  74 106 145 177 210 263 322
#     4   9  18  33  55  84 113 138 169 209 257 320
#     4   9  19  36  58  81 106 138 172 211 266 321
#     4  10  21  36  54  78 108 140 174 212 258 316
#     4   9  19  34  52  73 101 135 174 218 259 304
#     4  11  19  32  55  79 103 136 177 216 260 304
#     4  11  22  36  53  75 105 137 179 227 260 297
#
# _framework density 18.710028000000001
#
# number of rings (size 3 to 8) (size 9 to 14) (size 15 to 20)
#    0.000    2.125    0.000    4.500    0.000    5.750 
#    0.000    1.250    0.000    9.000    0.000    0.000 
#    0.000    0.000    0.000    0.000    0.000    0.000 
#
# Total GULP energy -178135.887483 kJ/mol
# GULP energy per Si atom -5566.746484 kJ/mol
# Density = 1.866744 g / cm^3
# Si number density = 18.710028 Si / 1000 Ang^3
#
#
#
# Elastic Constant Matrix: (Units=GPa)
#
#
# Indices 1 2 3 4 5 6 
#
# 1 74.4480 9.7487 23.3022 0.0000 -0.8284 0.0000
# 2 9.7487 60.0946 22.2056 0.0000 1.7287 0.0000
# 3 23.3022 22.2056 66.9089 0.0000 -1.4272 0.0000
# 4 0.0000 0.0000 0.0000 20.5789 0.0000 6.4129
# 5 -0.8284 1.7287 -1.4272 0.0000 39.1695 0.0000
# 6 0.0000 0.0000 0.0000 6.4129 0.0000 5.0024
#
#
#
# Elastic Compliance Matrix: (Units=1/GPa)
#
#
# Indices 1 2 3 4 5 6 
#
# 1 0.015094 -0.000584 -0.005060 0.000000 0.000161 0.000000
# 2 -0.000584 0.019034 -0.006137 0.000000 -0.001076 0.000000
# 3 -0.005060 -0.006137 0.018762 0.000000 0.000847 0.000000
# 4 0.000000 0.000000 0.000000 0.080920 0.000000 -0.103737
# 5 0.000161 -0.001076 0.000847 0.000000 0.025612 0.000000
# 6 0.000000 0.000000 0.000000 -0.103737 0.000000 0.332889
#
#
# Mechanical properties :
#
#
# Convention : Reuss Voigt Hill
#
# Bulk Modulus (GPa) = 34.09420 34.66272 34.37846
# Shear Modulus (GPa) = 9.51208 22.69650 16.10429
#
# Velocity S-wave (km/s) = 2.25721 3.48669 2.93700
# Velocity P-wave (km/s) = 5.00553 5.89710 5.46951
#
# Compressibility (1/GPa) = 0.02933051
#
# Stress axis : x y z
#
# Youngs Moduli (GPa) = 66.25115 52.53878 53.29792
#
# Poissons Ratio (x) = 0.03066 0.26967
# Poissons Ratio (y) = 0.03867 0.32706
# Poissons Ratio (z) = 0.33521 0.32241
#
# Static dielectric constant tensor:
#      x y z
#    x 1.636910 0.000000 -0.018720 
#    y 0.000000 1.673470 0.000000 
#    z -0.018720 0.000000 1.724390 
# 
# From -- ./inp_files/36343.got.cif
#   From: 2010.05.17/outbox.cif.g08.bks.cpg/sg10_19_cif.got.tgz:36343.got - 2010.06.03 11:33:40.
