data_PCOD9145942
_publ_section_title
;
Structure prediction by ZEFSAII (Michael W. Deem and Ramdas Pophale) SiO2 
 PCOD9145942
Probable space group: P 2/M
;
_chemical_formula_sum "Si O2"
_cell_formula_units_Z 18
_cell_length_a 7.632076
_cell_length_b 8.358471
_cell_length_c 20.449865
_cell_angle_alpha 90.000000
_cell_angle_beta 144.804344
_cell_angle_gamma 90.000000
_cell_volume 751.902643
_symmetry_space_group_name_H-M "P 2/M"
_symmetry_group_IT_number 10
_symmetry_cell_setting 'monoclinic'
loop_
_space_group_symop_operation_xyz
x,y,z
-x,y,-z
-x,-y,-z
x,-y,z
loop_
_atom_site_type_symbol
_atom_site_label
_atom_site_fract_x
_atom_site_fract_y
_atom_site_fract_z
Si Si1 0.051668 0.500000 0.936515
Si Si2 0.332143 0.500000 0.302856
Si Si3 0.860301 0.500000 0.623657
Si Si4 0.635494 0.171536 0.382455
Si Si5 0.733202 0.172178 0.973807
Si Si6 0.204614 0.175991 0.710412
O O1 0.759603 0.500000 0.800812
O O2 0.216840 0.333698 0.971246
O O3 0.000000 0.500000 0.000000
O O4 0.071047 0.500000 0.277439
O O5 0.507016 0.335302 0.370379
O O6 0.500000 0.500000 0.500000
O O7 0.002703 0.334233 0.641899
O O8 0.580083 0.173095 0.287736
O O9 0.000000 0.172477 0.500000
O O10 0.522719 0.000000 0.374641
O O11 0.417645 0.184914 0.838454
O O12 0.748326 0.000000 0.013161
O O13 0.000000 0.168927 0.000000
O O14 0.047452 0.000000 0.662607
#
# Coordination Sequence:
#
# PCOD9145942 Si02
#       6
#     2   2   2   4   4   4
#     4  10  19  32  54  82 112 144 181 233 289 343
#     4  12  24  36  58  89 120 157 199 246 296 357
#     4  12  26  42  59  83 125 171 203 239 292 360
#     4  10  20  36  60  87 113 146 198 261 310 349
#     4   9  17  32  57  86 112 142 185 239 296 348
#     4  10  21  39  63  88 118 158 202 248 299 357
#
# _framework density 23.939268999999999
#
# number of rings (size 3 to 8) (size 9 to 14) (size 15 to 20)
#    0.000    1.778    0.000    5.667    0.000    4.000 
#    0.000    2.222    0.000    2.667    0.000    0.000 
#    0.000    0.000    0.000    0.000    0.000    0.000 
#
# Total GULP energy -100484.423819 kJ/mol
# GULP energy per Si atom -5582.467990 kJ/mol
# Density = 2.388478 g / cm^3
# Si number density = 23.939269 Si / 1000 Ang^3
#
#
#
# Elastic Constant Matrix: (Units=GPa)
#
#
# Indices 1 2 3 4 5 6 
#
# 1 41.0761 27.2010 -5.8651 0.0000 -3.7937 0.0000
# 2 27.2010 315.3389 51.3667 0.0000 16.5977 0.0000
# 3 -5.8651 51.3667 69.0539 0.0000 -4.3603 0.0000
# 4 0.0000 0.0000 0.0000 -8.2817 0.0000 -23.2688
# 5 -3.7937 16.5977 -4.3603 0.0000 17.4950 0.0000
# 6 0.0000 0.0000 0.0000 -23.2688 0.0000 -110.6087
#
#
#
# Elastic Compliance Matrix: (Units=1/GPa)
#
#
# Indices 1 2 3 4 5 6 
#
# 1 0.029094 -0.004161 0.006313 0.000000 0.011830 0.000000
# 2 -0.004161 0.004528 -0.004114 0.000000 -0.006223 0.000000
# 3 0.006313 -0.004114 0.018706 0.000000 0.009934 0.000000
# 4 0.000000 0.000000 0.000000 -0.295279 0.000000 0.062118
# 5 0.011830 -0.006223 0.009934 0.000000 0.068105 0.000000
# 6 0.000000 0.000000 0.000000 0.062118 0.000000 -0.022109
#
#
# Mechanical properties :
#
#
# Convention : Reuss Voigt Hill
#
# Bulk Modulus (GPa) = 20.65966 63.43045 42.04505
# Shear Modulus (GPa) = -28.26510 3.23865 -12.51322
#
# Velocity S-wave (km/s) = -3.43986 1.16439 -2.28876
# Velocity P-wave (km/s) = 2.66985 5.32557 3.25834
#
# Compressibility (1/GPa) = 0.04840350
#
# Stress axis : x y z
#
# Youngs Moduli (GPa) = 34.37101 220.85438 53.46015
#
# Poissons Ratio (x) = 0.91890 -0.33750
# Poissons Ratio (y) = 0.14301 0.21996
# Poissons Ratio (z) = -0.21699 0.90870
#
# Static dielectric constant tensor:
#      x y z
#    x 1.942970 0.000000 -0.060670 
#    y 0.000000 1.971300 0.000000 
#    z -0.060670 0.000000 1.954570 
# 
# From -- ./inp_files/87891.got.cif
#   From: 2010.05.17/outbox.cif.g08.bks.cpg/sg10_44_cif.got.tgz:87891.got - 2010.06.03 11:33:40.
