data_PCOD9145345
_publ_section_title
;
Structure prediction by ZEFSAII (Michael W. Deem and Ramdas Pophale) SiO2 
 PCOD9145345
Probable space group: P 2/M
;
_chemical_formula_sum "Si O2"
_cell_formula_units_Z 28
_cell_length_a 26.644834
_cell_length_b 13.970800
_cell_length_c 5.110727
_cell_angle_alpha 90.000000
_cell_angle_beta 101.855977
_cell_angle_gamma 90.000000
_cell_volume 1861.881259
_symmetry_space_group_name_H-M "P 2/M"
_symmetry_group_IT_number 10
_symmetry_cell_setting 'monoclinic'
loop_
_space_group_symop_operation_xyz
x,y,z
-x,y,-z
-x,-y,-z
x,-y,z
loop_
_atom_site_type_symbol
_atom_site_label
_atom_site_fract_x
_atom_site_fract_y
_atom_site_fract_z
Si Si1 0.706596 0.884193 0.268415
Si Si2 0.558017 0.707294 0.447608
Si Si3 0.882237 0.116625 0.786999
Si Si4 0.943653 0.883518 0.352628
Si Si5 0.596977 0.190366 0.978145
Si Si6 0.769709 0.115784 0.835207
Si Si7 0.463599 0.000000 0.211132
Si Si8 0.463012 0.500000 0.709038
O O1 0.727193 0.856660 0.575671
O O2 0.698716 0.000000 0.254670
O O3 0.654274 0.833730 0.130244
O O4 0.750440 0.860133 0.103284
O O5 0.500000 0.715361 0.500000
O O6 0.592783 0.735347 0.733259
O O7 0.566746 0.599763 0.349488
O O8 0.566781 0.774486 0.205142
O O9 0.901497 0.145402 0.522170
O O10 0.825975 0.150339 0.812496
O O11 0.880629 0.000000 0.785003
O O12 0.924430 0.145588 0.046764
O O13 0.000000 0.851024 0.500000
O O14 0.945274 0.000000 0.353149
O O15 0.571346 0.093934 0.839425
O O16 0.772281 0.000000 0.829225
O O17 0.500000 0.000000 0.500000
O O18 0.500000 0.000000 0.000000
O O19 0.500000 0.500000 0.500000
O O20 0.500000 0.500000 0.000000
#
# Coordination Sequence:
#
# PCOD9145345 Si02
#       8
#     4   4   4   4   4   4   2   2
#     4  10  19  32  43  58  80 107 138 168 206 240
#     4  11  22  36  54  71  90 110 138 168 208 253
#     4   9  15  23  33  48  63  85 123 158 197 245
#     4   9  15  21  30  44  66  88 110 149 204 259
#     4  12  22  35  49  68  91 116 141 170 205 255
#     4   9  17  27  42  53  69  98 134 174 202 237
#     4  12  24  34  46  64  90 118 142 164 193 246
#     4  10  20  36  56  74  90 108 134 170 206 248
#
# _framework density 15.038551999999999
#
# number of rings (size 3 to 8) (size 9 to 14) (size 15 to 20)
#    0.000    1.857    0.714    6.429    0.000    5.143 
#    0.000    0.000    0.000    0.000    0.000    0.000 
#    0.000    0.000    0.000    0.000    0.000    0.000 
#
# Total GULP energy -156150.125978 kJ/mol
# GULP energy per Si atom -5576.790214 kJ/mol
# Density = 1.500432 g / cm^3
# Si number density = 15.038552 Si / 1000 Ang^3
#
#
#
# Elastic Constant Matrix: (Units=GPa)
#
#
# Indices 1 2 3 4 5 6 
#
# 1 34.5118 10.1317 -10.9810 0.0000 3.2129 0.0000
# 2 10.1317 37.8519 9.6801 0.0000 0.0324 0.0000
# 3 -10.9810 9.6801 66.8962 0.0000 -4.8588 0.0000
# 4 0.0000 0.0000 0.0000 12.6547 0.0000 1.9227
# 5 3.2129 0.0324 -4.8588 0.0000 23.7866 0.0000
# 6 0.0000 0.0000 0.0000 1.9227 0.0000 2.5753
#
#
#
# Elastic Compliance Matrix: (Units=1/GPa)
#
#
# Indices 1 2 3 4 5 6 
#
# 1 0.034797 -0.011124 0.007086 0.000000 -0.003238 0.000000
# 2 -0.011124 0.031007 -0.006300 0.000000 0.000173 0.000000
# 3 0.007086 -0.006300 0.017210 0.000000 0.002567 0.000000
# 4 0.000000 0.000000 0.000000 0.089133 0.000000 -0.066547
# 5 -0.003238 0.000173 0.002567 0.000000 0.043002 0.000000
# 6 0.000000 0.000000 0.000000 -0.066547 0.000000 0.437989
#
#
# Mechanical properties :
#
#
# Convention : Reuss Voigt Hill
#
# Bulk Modulus (GPa) = 16.04112 17.43572 16.73842
# Shear Modulus (GPa) = 7.19845 16.49857 11.84851
#
# Velocity S-wave (km/s) = 2.19022 3.31582 2.80996
# Velocity P-wave (km/s) = 4.13351 5.12628 4.65643
#
# Compressibility (1/GPa) = 0.06233980
#
# Stress axis : x y z
#
# Youngs Moduli (GPa) = 28.73780 32.25061 58.10620
#
# Poissons Ratio (x) = 0.35874 -0.41177
# Poissons Ratio (y) = 0.31967 0.36608
# Poissons Ratio (z) = -0.20365 0.20318
#
# Static dielectric constant tensor:
#      x y z
#    x 1.510090 0.000000 -0.002450 
#    y 0.000000 1.496690 0.000000 
#    z -0.002450 0.000000 1.509710 
# 
# From -- ./inp_files/13091.got.cif
#   From: 2010.05.17/outbox.cif.g08.bks.cpg/sg10_7_cif.got.tgz:13091.got - 2010.06.03 11:33:40.
