data_PCOD9145311
_publ_section_title
;
Structure prediction by ZEFSAII (Michael W. Deem and Ramdas Pophale) SiO2 
 PCOD9145311
Probable space group: P 2/M
;
_chemical_formula_sum "Si O2"
_cell_formula_units_Z 30
_cell_length_a 20.023020
_cell_length_b 14.228808
_cell_length_c 5.388927
_cell_angle_alpha 90.000000
_cell_angle_beta 60.142211
_cell_angle_gamma 90.000000
_cell_volume 1331.531975
_symmetry_space_group_name_H-M "P 2/M"
_symmetry_group_IT_number 10
_symmetry_cell_setting 'monoclinic'
loop_
_space_group_symop_operation_xyz
x,y,z
-x,y,-z
-x,-y,-z
x,-y,z
loop_
_atom_site_type_symbol
_atom_site_label
_atom_site_fract_x
_atom_site_fract_y
_atom_site_fract_z
Si Si1 0.671478 0.601176 0.928282
Si Si2 0.606759 0.205208 0.456248
Si Si3 0.450881 0.000000 0.336183
Si Si4 0.706669 0.892240 0.930484
Si Si5 0.571439 0.395254 0.616214
Si Si6 0.124301 0.107985 0.231659
Si Si7 0.246697 0.752363 0.511226
Si Si8 0.916803 0.209681 0.178343
O O1 0.711345 0.500000 0.838982
O O2 0.610247 0.604121 0.815254
O O3 0.730823 0.683092 0.755761
O O4 0.626446 0.603250 0.270611
O O5 0.591639 0.101246 0.591880
O O6 0.543815 0.285700 0.636197
O O7 0.684744 0.250709 0.421442
O O8 0.633814 0.173856 0.130387
O O9 0.500000 0.000000 0.500000
O O10 0.500000 0.000000 0.000000
O O11 0.782164 0.882485 0.966783
O O12 0.744702 0.858230 0.606502
O O13 0.682091 0.000000 0.975290
O O14 0.532542 0.500000 0.677020
O O15 0.096025 0.170318 0.518159
O O16 0.109267 0.000000 0.323637
O O17 0.085998 0.133133 0.039552
O O18 0.159877 0.731297 0.743990
O O19 0.000000 0.256395 0.000000
#
# Coordination Sequence:
#
# PCOD9145311 Si02
#       8
#     4   4   2   4   4   4   4   4
#     4   9  17  30  51  82 119 142 182 251 299 336
#     4  11  21  38  66  82 121 160 192 248 282 347
#     4  12  32  48  64  94 129 163 197 233 288 350
#     4  10  19  31  53  85 110 146 196 243 277 336
#     4   9  18  32  56  93 117 143 188 242 301 339
#     4  10  21  35  49  70 104 141 195 237 285 345
#     4  10  21  34  56  85 113 150 209 230 298 349
#     4  11  22  34  49  74 112 149 187 244 291 341
#
# _framework density 22.530436999999999
#
# number of rings (size 3 to 8) (size 9 to 14) (size 15 to 20)
#    0.000    1.867    3.333    0.800    2.800    2.133 
#    0.000    0.000    0.000    1.200    0.000    0.000 
#    0.000    9.333    0.000    0.000    0.000    1.333 
#
# Total GULP energy -167001.637833 kJ/mol
# GULP energy per Si atom -5566.721261 kJ/mol
# Density = 2.247916 g / cm^3
# Si number density = 22.530437 Si / 1000 Ang^3
#
#
#
# Elastic Constant Matrix: (Units=GPa)
#
#
# Indices 1 2 3 4 5 6 
#
# 1 79.0715 15.6159 33.2650 0.0000 0.4534 0.0000
# 2 15.6159 134.3515 29.8233 0.0000 -12.2760 0.0000
# 3 33.2650 29.8233 113.6259 0.0000 1.9867 0.0000
# 4 0.0000 0.0000 0.0000 27.1289 0.0000 -11.1534
# 5 0.4534 -12.2760 1.9867 0.0000 30.0530 0.0000
# 6 0.0000 0.0000 0.0000 -11.1534 0.0000 40.4825
#
#
#
# Elastic Compliance Matrix: (Units=1/GPa)
#
#
# Indices 1 2 3 4 5 6 
#
# 1 0.014504 -0.000818 -0.004026 0.000000 -0.000287 0.000000
# 2 -0.000818 0.008306 -0.002002 0.000000 0.003538 0.000000
# 3 -0.004026 -0.002002 0.010531 0.000000 -0.001453 0.000000
# 4 0.000000 0.000000 0.000000 0.041570 0.000000 0.011453
# 5 -0.000287 0.003538 -0.001453 0.000000 0.034820 0.000000
# 6 0.000000 0.000000 0.000000 0.011453 0.000000 0.027857
#
#
# Mechanical properties :
#
#
# Convention : Reuss Voigt Hill
#
# Bulk Modulus (GPa) = 50.89979 53.82860 52.36419
# Shear Modulus (GPa) = 31.67958 36.08918 33.88438
#
# Velocity S-wave (km/s) = 3.75384 4.00659 3.88227
# Velocity P-wave (km/s) = 6.43654 6.73402 6.58696
#
# Compressibility (1/GPa) = 0.01964645
#
# Stress axis : x y z
#
# Youngs Moduli (GPa) = 68.94703 120.39511 94.96190
#
# Poissons Ratio (x) = 0.09851 0.38235
# Poissons Ratio (y) = 0.05642 0.19015
# Poissons Ratio (z) = 0.27761 0.24108
#
# Static dielectric constant tensor:
#      x y z
#    x 1.960240 0.000000 -0.030450 
#    y 0.000000 1.953760 0.000000 
#    z -0.030450 0.000000 1.919930 
# 
# From -- ./inp_files/12679.got.cif
#   From: 2010.05.17/outbox.cif.g08.bks.cpg/sg10_7_cif.got.tgz:12679.got - 2010.06.03 11:33:40.
