data_PCOD9145018
_publ_section_title
;
Structure prediction by ZEFSAII (Michael W. Deem and Ramdas Pophale) SiO2 
 PCOD9145018
Probable space group: P 2/M
;
_chemical_formula_sum "Si O2"
_cell_formula_units_Z 28
_cell_length_a 20.734735
_cell_length_b 9.020944
_cell_length_c 12.136605
_cell_angle_alpha 90.000000
_cell_angle_beta 55.387062
_cell_angle_gamma 90.000000
_cell_volume 1868.322375
_symmetry_space_group_name_H-M "P 2/M"
_symmetry_group_IT_number 10
_symmetry_cell_setting 'monoclinic'
loop_
_space_group_symop_operation_xyz
x,y,z
-x,y,-z
-x,-y,-z
x,-y,z
loop_
_atom_site_type_symbol
_atom_site_label
_atom_site_fract_x
_atom_site_fract_y
_atom_site_fract_z
Si Si1 0.591909 0.322452 0.417839
Si Si2 0.774754 0.176159 0.851034
Si Si3 0.646929 0.823998 0.587349
Si Si4 0.241133 0.673638 0.355849
Si Si5 0.509914 0.822799 0.118306
Si Si6 0.087671 0.674697 0.390246
Si Si7 0.349155 0.676984 0.883501
O O1 0.500000 0.282058 0.500000
O O2 0.596111 0.500000 0.431808
O O3 0.630762 0.240002 0.482418
O O4 0.631259 0.288460 0.262433
O O5 0.732945 0.239591 0.780314
O O6 0.863515 0.235406 0.748723
O O7 0.771649 0.000000 0.855234
O O8 0.729625 0.246437 0.996832
O O9 0.719194 0.745266 0.577643
O O10 0.570056 0.794394 0.737067
O O11 0.658766 0.000000 0.572194
O O12 0.260846 0.500000 0.327779
O O13 0.146505 0.686895 0.438104
O O14 0.579969 0.737870 0.110438
O O15 0.525891 0.000000 0.106875
O O16 0.500000 0.780869 0.000000
O O17 0.085163 0.500000 0.363043
O O18 0.000000 0.725356 0.500000
O O19 0.343519 0.500000 0.900878
#
# Coordination Sequence:
#
# PCOD9145018 Si02
#       7
#     4   4   4   4   4   4   4
#     4  10  21  37  52  67  91 130 179 223 256 295
#     4  10  19  31  49  75 107 132 160 201 250 299
#     4  11  21  32  49  72  99 132 169 213 257 298
#     4   9  18  32  51  74 103 134 164 199 242 294
#     4  10  21  33  46  66  95 129 163 204 256 301
#     4   8  16  32  53  78 106 135 164 194 238 300
#     4  11  21  34  51  69  92 130 175 214 253 295
#
# _framework density 14.986706999999999
#
# number of rings (size 3 to 8) (size 9 to 14) (size 15 to 20)
#    0.857    1.286    1.429    3.000    0.000    3.714 
#    0.000    0.000    0.000    0.000    0.000    1.000 
#    0.000    8.000    0.000    0.000    0.000    0.000 
#
# Total GULP energy -155985.010172 kJ/mol
# GULP energy per Si atom -5570.893220 kJ/mol
# Density = 1.495260 g / cm^3
# Si number density = 14.986707 Si / 1000 Ang^3
#
#
#
# Elastic Constant Matrix: (Units=GPa)
#
#
# Indices 1 2 3 4 5 6 
#
# 1 69.5605 51.2869 67.8991 0.0000 -6.7708 0.0000
# 2 51.2869 74.4802 67.6028 0.0000 -3.4081 0.0000
# 3 67.8991 67.6028 117.3523 0.0000 0.8146 0.0000
# 4 0.0000 0.0000 0.0000 16.1935 0.0000 2.4860
# 5 -6.7708 -3.4081 0.8146 0.0000 22.8932 0.0000
# 6 0.0000 0.0000 0.0000 2.4860 0.0000 18.3291
#
#
#
# Elastic Compliance Matrix: (Units=1/GPa)
#
#
# Indices 1 2 3 4 5 6 
#
# 1 0.040736 -0.012783 -0.016280 0.000000 0.010724 0.000000
# 2 -0.012783 0.032682 -0.011441 0.000000 0.001492 0.000000
# 3 -0.016280 -0.011441 0.024583 0.000000 -0.007393 0.000000
# 4 0.000000 0.000000 0.000000 0.063066 0.000000 -0.008554
# 5 0.010724 0.001492 -0.007393 0.000000 0.047338 0.000000
# 6 0.000000 0.000000 0.000000 -0.008554 0.000000 0.055718
#
#
# Mechanical properties :
#
#
# Convention : Reuss Voigt Hill
#
# Bulk Modulus (GPa) = 58.85032 70.55229 64.70130
# Shear Modulus (GPa) = 14.25330 16.45676 15.35503
#
# Velocity S-wave (km/s) = 3.08728 3.31734 3.20437
# Velocity P-wave (km/s) = 7.21540 7.86459 7.54698
#
# Compressibility (1/GPa) = 0.01699226
#
# Stress axis : x y z
#
# Youngs Moduli (GPa) = 24.54816 30.59823 40.67885
#
# Poissons Ratio (x) = 0.39115 0.66225
# Poissons Ratio (y) = 0.31381 0.46540
# Poissons Ratio (z) = 0.39964 0.35007
#
# Static dielectric constant tensor:
#      x y z
#    x 1.486140 0.000000 -0.011410 
#    y 0.000000 1.497980 0.000000 
#    z -0.011410 0.000000 1.490580 
# 
# From -- ./inp_files/54457.got.cif
#   From: 2010.05.17/outbox.cif.g08.bks.cpg/sg10_28_cif.got.tgz:54457.got - 2010.06.03 11:33:40.
