data_PCOD9145113
_publ_section_title
;
Structure prediction by ZEFSAII (Michael W. Deem and Ramdas Pophale) SiO2 
 PCOD9145113
Probable space group: P 2/M
;
_chemical_formula_sum "Si O2"
_cell_formula_units_Z 22
_cell_length_a 12.955313
_cell_length_b 18.330135
_cell_length_c 12.955260
_cell_angle_alpha 90.000000
_cell_angle_beta 23.479490
_cell_angle_gamma 90.000000
_cell_volume 1225.749354
_symmetry_space_group_name_H-M "P 2/M"
_symmetry_group_IT_number 10
_symmetry_cell_setting 'monoclinic'
loop_
_space_group_symop_operation_xyz
x,y,z
-x,y,-z
-x,-y,-z
x,-y,z
loop_
_atom_site_type_symbol
_atom_site_label
_atom_site_fract_x
_atom_site_fract_y
_atom_site_fract_z
Si Si1 0.436189 0.586217 0.936117
Si Si2 0.786117 0.338480 0.286121
Si Si3 0.214736 0.500000 0.714732
Si Si4 0.564483 0.084862 0.064504
Si Si5 0.061765 0.835494 0.561788
Si Si6 0.900912 0.325659 0.400831
O O1 0.421095 0.500000 0.921007
O O2 0.664117 0.627224 0.664993
O O3 0.500000 0.589796 0.000000
O O4 0.165074 0.627223 0.164017
O O5 0.500000 0.329832 0.500000
O O6 0.810806 0.421181 0.310820
O O7 0.840554 0.295889 0.340534
O O8 0.000000 0.329834 0.000000
O O9 0.500000 0.500000 0.500000
O O10 0.000000 0.500000 0.000000
O O11 0.336339 0.127486 0.331418
O O12 0.579233 0.000000 0.079333
O O13 0.500000 0.086985 0.000000
O O14 0.831432 0.127468 0.836327
O O15 0.065948 0.748639 0.566062
O O16 0.000000 0.853981 0.500000
#
# Coordination Sequence:
#
# PCOD9145113 Si02
#       6
#     4   4   2   4   4   4
#     4  11  24  39  54  75 105 143 188 227 261 311
#     4  10  21  37  53  76 102 130 172 230 280 330
#     4   8  16  30  48  66  87 116 155 210 270 310
#     4   9  17  30  49  74 107 141 168 201 249 307
#     4  10  19  31  50  77 107 138 173 208 251 312
#     4  12  23  37  58  77 106 143 182 225 276 323
#
# _framework density 17.948205000000002
#
# number of rings (size 3 to 8) (size 9 to 14) (size 15 to 20)
#    0.000    1.818    0.000    4.909    2.545    5.091 
#    3.273    0.000    0.000    0.000    0.000    0.000 
#    0.000   14.545    0.000    0.000    0.000    0.000 
#
# Total GULP energy -122626.101268 kJ/mol
# GULP energy per Si atom -5573.913694 kJ/mol
# Density = 1.790735 g / cm^3
# Si number density = 17.948205 Si / 1000 Ang^3
#
#
#
# Elastic Constant Matrix: (Units=GPa)
#
#
# Indices 1 2 3 4 5 6 
#
# 1 56.2915 -1.4247 38.3848 0.0000 -2.3139 0.0000
# 2 -1.4247 100.7200 77.7622 0.0000 -14.4706 0.0000
# 3 38.3848 77.7622 201.7657 0.0000 -24.2959 0.0000
# 4 0.0000 0.0000 0.0000 24.0081 0.0000 -4.2934
# 5 -2.3139 -14.4706 -24.2959 0.0000 19.2351 0.0000
# 6 0.0000 0.0000 0.0000 -4.2934 0.0000 0.4248
#
#
#
# Elastic Compliance Matrix: (Units=1/GPa)
#
#
# Indices 1 2 3 4 5 6 
#
# 1 0.022129 0.004959 -0.006311 0.000000 -0.001579 0.000000
# 2 0.004959 0.015572 -0.006442 0.000000 0.004174 0.000000
# 3 -0.006311 -0.006442 0.009394 0.000000 0.006259 0.000000
# 4 0.000000 0.000000 0.000000 -0.051586 0.000000 -0.521375
# 5 -0.001579 0.004174 0.006259 0.000000 0.062844 0.000000
# 6 0.000000 0.000000 0.000000 -0.521375 0.000000 -2.915445
#
#
# Mechanical properties :
#
#
# Convention : Reuss Voigt Hill
#
# Bulk Modulus (GPa) = 31.74100 65.35798 48.54949
# Shear Modulus (GPa) = -1.76616 25.00392 11.61888
#
# Velocity S-wave (km/s) = -0.99306 3.73650 2.54708
# Velocity P-wave (km/s) = 4.05071 7.42355 5.97985
#
# Compressibility (1/GPa) = 0.03150499
#
# Stress axis : x y z
#
# Youngs Moduli (GPa) = 45.18992 64.21642 106.45542
#
# Poissons Ratio (x) = -0.31843 0.67186
# Poissons Ratio (y) = -0.22409 0.68583
# Poissons Ratio (z) = 0.28520 0.41371
#
# Static dielectric constant tensor:
#      x y z
#    x 1.611380 0.000000 0.015720 
#    y 0.000000 1.619600 0.000000 
#    z 0.015720 0.000000 1.524940 
# 
# From -- ./inp_files/67698.got.cif
#   From: 2010.05.17/outbox.cif.g08.bks.cpg/sg10_34_cif.got.tgz:67698.got - 2010.06.03 11:33:40.
