data_PCOD9145197
_publ_section_title
;
Structure prediction by ZEFSAII (Michael W. Deem and Ramdas Pophale) SiO2 
 PCOD9145197
Probable space group: P 2/M
;
_chemical_formula_sum "Si O2"
_cell_formula_units_Z 32
_cell_length_a 20.750971
_cell_length_b 7.661919
_cell_length_c 14.444316
_cell_angle_alpha 90.000000
_cell_angle_beta 140.531828
_cell_angle_gamma 90.000000
_cell_volume 1459.790921
_symmetry_space_group_name_H-M "P 2/M"
_symmetry_group_IT_number 10
_symmetry_cell_setting 'monoclinic'
loop_
_space_group_symop_operation_xyz
x,y,z
-x,y,-z
-x,-y,-z
x,-y,z
loop_
_atom_site_type_symbol
_atom_site_label
_atom_site_fract_x
_atom_site_fract_y
_atom_site_fract_z
Si Si1 0.818067 0.203813 0.951559
Si Si2 0.114085 0.710238 0.652116
Si Si3 0.954673 0.798079 0.790461
Si Si4 0.829030 0.289972 0.482330
Si Si5 0.628277 0.288579 0.372115
Si Si6 0.450381 0.798034 0.040022
Si Si7 0.245502 0.296972 0.318549
Si Si8 0.272073 0.200250 0.965455
O O1 0.767484 0.212775 0.795401
O O2 0.832522 0.000000 0.992651
O O3 0.747742 0.279524 0.955261
O O4 0.932705 0.278227 0.072673
O O5 0.118074 0.500000 0.668551
O O6 0.174377 0.764272 0.627209
O O7 0.162990 0.794426 0.795456
O O8 0.000000 0.756886 0.500000
O O9 0.919717 0.784194 0.645028
O O10 0.862111 0.716336 0.746109
O O11 0.956932 0.000000 0.822548
O O12 0.841493 0.500000 0.498174
O O13 0.724573 0.244773 0.415265
O O14 0.617671 0.500000 0.362395
O O15 0.532057 0.212220 0.213504
O O16 0.665514 0.229312 0.515007
O O17 0.426662 0.000000 0.990236
O O18 0.500000 0.721976 0.000000
O O19 0.350017 0.718272 0.977169
O O20 0.265789 0.500000 0.325730
O O21 0.307191 0.000000 0.016837
#
# Coordination Sequence:
#
# PCOD9145197 Si02
#       8
#     4   4   4   4   4   4   4   4
#     4  10  21  36  52  74 107 144 180 219 264 316
#     4  10  20  33  51  77 108 142 179 216 257 311
#     4  10  19  31  51  79 108 141 181 218 257 313
#     4   9  18  32  49  74 108 140 174 218 264 314
#     4   9  19  35  54  77 103 132 170 215 264 315
#     4  10  21  37  58  83 107 134 173 219 265 315
#     4  10  21  36  55  80 108 139 177 220 264 312
#     4  10  22  38  54  77 109 141 178 223 268 318
#
# _framework density 21.920947000000002
#
# number of rings (size 3 to 8) (size 9 to 14) (size 15 to 20)
#    0.000    2.250    0.000    3.375    0.000    7.000 
#    0.000    0.625    0.000    3.750    0.000    0.000 
#    0.000    0.000    0.000    0.000    0.000    0.000 
#
# Total GULP energy -178563.907033 kJ/mol
# GULP energy per Si atom -5580.122095 kJ/mol
# Density = 2.187105 g / cm^3
# Si number density = 21.920947 Si / 1000 Ang^3
#
#
#
# Elastic Constant Matrix: (Units=GPa)
#
#
# Indices 1 2 3 4 5 6 
#
# 1 102.7285 -0.8899 46.8433 0.0000 -19.7635 0.0000
# 2 -0.8899 35.0496 -0.2754 0.0000 4.1062 0.0000
# 3 46.8433 -0.2754 102.8705 0.0000 -12.0501 0.0000
# 4 0.0000 0.0000 0.0000 27.1347 0.0000 -5.9843
# 5 -19.7635 4.1062 -12.0501 0.0000 33.3097 0.0000
# 6 0.0000 0.0000 0.0000 -5.9843 0.0000 5.4207
#
#
#
# Elastic Compliance Matrix: (Units=1/GPa)
#
#
# Indices 1 2 3 4 5 6 
#
# 1 0.013338 -0.000409 -0.005369 0.000000 0.006022 0.000000
# 2 -0.000409 0.028974 -0.000191 0.000000 -0.003884 0.000000
# 3 -0.005369 -0.000191 0.012317 0.000000 0.001294 0.000000
# 4 0.000000 0.000000 0.000000 0.048714 0.000000 0.053779
# 5 0.006022 -0.003884 0.001294 0.000000 0.034541 0.000000
# 6 0.000000 0.000000 0.000000 0.053779 0.000000 0.243850
#
#
# Mechanical properties :
#
#
# Convention : Reuss Voigt Hill
#
# Bulk Modulus (GPa) = 23.42465 36.88939 30.15702
# Shear Modulus (GPa) = 12.25786 26.17104 19.21445
#
# Velocity S-wave (km/s) = 2.36727 3.45901 2.96384
# Velocity P-wave (km/s) = 4.26394 5.72869 5.04971
#
# Compressibility (1/GPa) = 0.04269007
#
# Stress axis : x y z
#
# Youngs Moduli (GPa) = 74.97578 34.51357 81.18921
#
# Poissons Ratio (x) = 0.01412 0.43592
# Poissons Ratio (y) = 0.03067 0.01552
# Poissons Ratio (z) = 0.40256 0.00660
#
# Static dielectric constant tensor:
#      x y z
#    x 1.854810 0.000000 0.016220 
#    y 0.000000 1.813410 0.000000 
#    z 0.016220 0.000000 1.788730 
# 
# From -- ./inp_files/70015.got.cif
#   From: 2010.05.17/outbox.cif.g08.bks.cpg/sg10_36_cif.got.tgz:70015.got - 2010.06.03 11:33:40.
