data_PCOD9145048
_publ_section_title
;
Structure prediction by ZEFSAII (Michael W. Deem and Ramdas Pophale) SiO2 
 PCOD9145048
Probable space group: P 2/M
;
_chemical_formula_sum "Si O2"
_cell_formula_units_Z 32
_cell_length_a 18.330212
_cell_length_b 7.552280
_cell_length_c 24.931481
_cell_angle_alpha 90.000000
_cell_angle_beta 27.286747
_cell_angle_gamma 90.000000
_cell_volume 1582.267615
_symmetry_space_group_name_H-M "P 2/M"
_symmetry_group_IT_number 10
_symmetry_cell_setting 'monoclinic'
loop_
_space_group_symop_operation_xyz
x,y,z
-x,y,-z
-x,-y,-z
x,-y,z
loop_
_atom_site_type_symbol
_atom_site_label
_atom_site_fract_x
_atom_site_fract_y
_atom_site_fract_z
Si Si1 0.772290 0.206731 0.201547
Si Si2 0.166212 0.203813 0.357967
Si Si3 0.972450 0.208372 0.389967
Si Si4 0.975480 0.213921 0.876443
Si Si5 0.099984 0.293446 0.678868
Si Si6 0.545498 0.714766 0.530693
Si Si7 0.700051 0.783251 0.132830
Si Si8 0.342702 0.782558 0.344623
O O1 0.591409 0.221932 0.340023
O O2 0.778233 0.279390 0.137516
O O3 0.886243 0.280628 0.173455
O O4 0.816176 0.000000 0.168519
O O5 0.292862 0.278782 0.317378
O O6 0.000000 0.202531 0.500000
O O7 0.113016 0.283798 0.335762
O O8 0.216936 0.000000 0.316008
O O9 0.986444 0.223711 0.317422
O O10 0.799204 0.275518 0.522791
O O11 0.970574 0.000000 0.404310
O O12 0.009253 0.270495 0.793995
O O13 0.981028 0.000000 0.872187
O O14 0.809033 0.268528 0.011558
O O15 0.120034 0.500000 0.655793
O O16 0.278912 0.218948 0.568935
O O17 0.500000 0.770378 0.500000
O O18 0.545162 0.500000 0.531515
O O19 0.517807 0.724897 0.247048
O O20 0.698710 0.000000 0.135459
O O21 0.343575 0.000000 0.343935
#
# Coordination Sequence:
#
# PCOD9145048 Si02
#       8
#     4   4   4   4   4   4   4   4
#     4  10  19  31  50  73  94 118 154 197 238 278
#     4   7  11  21  41  71 101 124 144 177 227 279
#     4   9  16  28  49  76 101 121 149 187 230 281
#     4  10  20  33  48  66  92 126 161 195 232 272
#     4  11  22  34  48  66  93 126 160 194 231 275
#     4  10  20  34  48  64  92 125 153 187 232 276
#     4   9  17  29  46  70  97 122 152 195 237 272
#     4   8  13  24  46  75 102 123 147 184 232 280
#
# _framework density 20.224139000000001
#
# number of rings (size 3 to 8) (size 9 to 14) (size 15 to 20)
#    0.000    2.750    1.250    3.000    0.000    3.750 
#    0.000    0.625    0.000    6.375    0.000    5.250 
#    0.000    0.000    0.000    0.000    0.000    0.000 
#
# Total GULP energy -178472.359540 kJ/mol
# GULP energy per Si atom -5577.261236 kJ/mol
# Density = 2.017811 g / cm^3
# Si number density = 20.224139 Si / 1000 Ang^3
#
#
#
# Elastic Constant Matrix: (Units=GPa)
#
#
# Indices 1 2 3 4 5 6 
#
# 1 153.7356 -0.0031 34.4857 0.0000 20.3328 0.0000
# 2 -0.0031 45.4427 -9.4772 0.0000 -3.5634 0.0000
# 3 34.4857 -9.4772 56.9295 0.0000 12.8367 0.0000
# 4 0.0000 0.0000 0.0000 74.4431 0.0000 61.9700
# 5 20.3328 -3.5634 12.8367 0.0000 16.4796 0.0000
# 6 0.0000 0.0000 0.0000 61.9700 0.0000 44.9945
#
#
#
# Elastic Compliance Matrix: (Units=1/GPa)
#
#
# Indices 1 2 3 4 5 6 
#
# 1 0.008326 -0.001344 -0.003500 0.000000 -0.007837 0.000000
# 2 -0.001344 0.023092 0.003832 0.000000 0.003667 0.000000
# 3 -0.003500 0.003832 0.023246 0.000000 -0.012960 0.000000
# 4 0.000000 0.000000 0.000000 -0.091685 0.000000 0.126275
# 5 -0.007837 0.003667 -0.012960 0.000000 0.081239 0.000000
# 6 0.000000 0.000000 0.000000 0.126275 0.000000 -0.151692
#
#
# Mechanical properties :
#
#
# Convention : Reuss Voigt Hill
#
# Bulk Modulus (GPa) = 18.99728 34.01319 26.50523
# Shear Modulus (GPa) = -56.88260 42.59027 -7.14617
#
# Velocity S-wave (km/s) = -5.30916 4.59400 -1.88180
# Velocity P-wave (km/s) = 5.30746 6.70779 2.90046
#
# Compressibility (1/GPa) = 0.05263911
#
# Stress axis : x y z
#
# Youngs Moduli (GPa) = 120.10009 43.30451 43.01788
#
# Poissons Ratio (x) = 0.05820 0.15058
# Poissons Ratio (y) = 0.16142 -0.16482
# Poissons Ratio (z) = 0.42040 -0.16592
#
# Static dielectric constant tensor:
#      x y z
#    x 1.759060 0.000000 -0.007850 
#    y 0.000000 1.758020 0.000000 
#    z -0.007850 0.000000 1.674910 
# 
# From -- ./inp_files/88563.got.cif
#   From: 2010.05.17/outbox.cif.g08.bks.cpg/sg10_45_cif.got.tgz:88563.got - 2010.06.03 11:33:40.
