data_PCOD9145899
_publ_section_title
;
Structure prediction by ZEFSAII (Michael W. Deem and Ramdas Pophale) SiO2 
 PCOD9145899
Probable space group: P 2/M
;
_chemical_formula_sum "Si O2"
_cell_formula_units_Z 32
_cell_length_a 5.416278
_cell_length_b 9.835264
_cell_length_c 29.896806
_cell_angle_alpha 90.000000
_cell_angle_beta 81.123876
_cell_angle_gamma 90.000000
_cell_volume 1573.545721
_symmetry_space_group_name_H-M "P 2/M"
_symmetry_group_IT_number 10
_symmetry_cell_setting 'monoclinic'
loop_
_space_group_symop_operation_xyz
x,y,z
-x,y,-z
-x,-y,-z
x,-y,z
loop_
_atom_site_type_symbol
_atom_site_label
_atom_site_fract_x
_atom_site_fract_y
_atom_site_fract_z
Si Si1 0.407644 0.351113 0.086667
Si Si2 0.761986 0.152455 0.130229
Si Si3 0.958654 0.347727 0.820991
Si Si4 0.321110 0.842363 0.694866
Si Si5 0.413339 0.664607 0.605181
Si Si6 0.230834 0.157876 0.246935
Si Si7 0.041365 0.664920 0.448098
Si Si8 0.163153 0.146142 0.040176
O O1 0.524153 0.500000 0.077879
O O2 0.576065 0.241346 0.106453
O O3 0.180542 0.366186 0.127897
O O4 0.320945 0.280818 0.043660
O O5 0.829616 0.237995 0.172448
O O6 0.993198 0.139386 0.089421
O O7 0.675958 0.000000 0.143315
O O8 0.036050 0.500000 0.803925
O O9 0.778334 0.270702 0.791565
O O10 0.368624 0.739677 0.653098
O O11 0.038925 0.825237 0.721174
O O12 0.535530 0.822142 0.726446
O O13 0.343912 0.000000 0.679379
O O14 0.408646 0.500000 0.610583
O O15 0.189264 0.703199 0.577495
O O16 0.686168 0.703408 0.578270
O O17 0.237811 0.000000 0.230487
O O18 0.040434 0.500000 0.449523
O O19 0.000000 0.713446 0.500000
O O20 0.299061 0.000000 0.035998
O O21 0.000000 0.154569 0.000000
#
# Coordination Sequence:
#
# PCOD9145899 Si02
#       8
#     4   4   4   4   4   4   4   4
#     4  10  21  36  54  79 110 141 175 219 279 337
#     4  10  20  35  57  80 105 141 180 220 270 330
#     4  10  22  38  56  80 109 139 175 228 283 331
#     4  10  22  39  57  80 113 150 189 233 286 342
#     4  10  19  32  54  80 108 145 189 233 282 337
#     4  10  22  39  58  82 109 146 192 233 280 346
#     4   9  17  30  51  81 113 145 186 236 284 333
#     4   9  19  36  55  77 105 139 182 225 265 320
#
# _framework density 20.336238999999999
#
# number of rings (size 3 to 8) (size 9 to 14) (size 15 to 20)
#    0.000    2.250    0.000    2.250    1.750    5.250 
#    0.000    2.500    0.000    2.250    0.000    0.000 
#    0.000    0.000    0.000    0.000    0.000    0.000 
#
# Total GULP energy -178484.120650 kJ/mol
# GULP energy per Si atom -5577.628770 kJ/mol
# Density = 2.028995 g / cm^3
# Si number density = 20.336239 Si / 1000 Ang^3
#
#
#
# Elastic Constant Matrix: (Units=GPa)
#
#
# Indices 1 2 3 4 5 6 
#
# 1 106.3949 41.5690 39.0149 0.0000 3.9230 0.0000
# 2 41.5690 140.9360 52.9663 0.0000 19.0391 0.0000
# 3 39.0149 52.9663 96.7479 0.0000 4.5318 0.0000
# 4 0.0000 0.0000 0.0000 32.0420 0.0000 8.8904
# 5 3.9230 19.0391 4.5318 0.0000 36.7109 0.0000
# 6 0.0000 0.0000 0.0000 8.8904 0.0000 13.3296
#
#
#
# Elastic Compliance Matrix: (Units=1/GPa)
#
#
# Indices 1 2 3 4 5 6 
#
# 1 0.011496 -0.002120 -0.003489 0.000000 0.000302 0.000000
# 2 -0.002120 0.009967 -0.004396 0.000000 -0.004400 0.000000
# 3 -0.003489 -0.004396 0.014107 0.000000 0.000911 0.000000
# 4 0.000000 0.000000 0.000000 0.038296 0.000000 -0.025542
# 5 0.000302 -0.004400 0.000911 0.000000 0.029377 0.000000
# 6 0.000000 0.000000 0.000000 -0.025542 0.000000 0.092057
#
#
# Mechanical properties :
#
#
# Convention : Reuss Voigt Hill
#
# Bulk Modulus (GPa) = 64.26784 67.90880 66.08832
# Shear Modulus (GPa) = 22.67614 30.45174 26.56394
#
# Velocity S-wave (km/s) = 3.34288 3.87384 3.61811
# Velocity P-wave (km/s) = 6.82429 7.31261 7.07267
#
# Compressibility (1/GPa) = 0.01555988
#
# Stress axis : x y z
#
# Youngs Moduli (GPa) = 86.98945 100.33037 70.88687
#
# Poissons Ratio (x) = 0.21271 0.24734
# Poissons Ratio (y) = 0.18443 0.31159
# Poissons Ratio (z) = 0.30353 0.44101
#
# Static dielectric constant tensor:
#      x y z
#    x 1.800020 0.000000 -0.018840 
#    y 0.000000 1.764970 0.000000 
#    z -0.018840 0.000000 1.709270 
# 
# From -- ./inp_files/13638.got.cif
#   From: 2010.05.17/outbox.cif.g08.bks.cpg/sg10_7_cif.got.tgz:13638.got - 2010.06.03 11:33:40.
