data_PCOD9145741
_publ_section_title
;
Structure prediction by ZEFSAII (Michael W. Deem and Ramdas Pophale) SiO2 
 PCOD9145741
Probable space group: P 2/M
;
_chemical_formula_sum "Si O2"
_cell_formula_units_Z 28
_cell_length_a 31.484819
_cell_length_b 8.931587
_cell_length_c 10.088201
_cell_angle_alpha 90.000000
_cell_angle_beta 32.212838
_cell_angle_gamma 90.000000
_cell_volume 1512.252928
_symmetry_space_group_name_H-M "P 2/M"
_symmetry_group_IT_number 10
_symmetry_cell_setting 'monoclinic'
loop_
_space_group_symop_operation_xyz
x,y,z
-x,y,-z
-x,-y,-z
x,-y,z
loop_
_atom_site_type_symbol
_atom_site_label
_atom_site_fract_x
_atom_site_fract_y
_atom_site_fract_z
Si Si1 0.844791 0.822691 0.928274
Si Si2 0.082595 0.820941 0.976157
Si Si3 0.510942 0.327567 0.810854
Si Si4 0.203690 0.677761 0.448124
Si Si5 0.902158 0.821124 0.487946
Si Si6 0.318371 0.679287 0.572299
Si Si7 0.349235 0.177832 0.202363
O O1 0.894672 0.792178 0.664305
O O2 0.825391 0.000000 0.979702
O O3 0.892274 0.792843 0.938215
O O4 0.763161 0.730756 0.146443
O O5 0.141667 0.733775 0.724174
O O6 0.090744 0.000000 0.929845
O O7 0.990065 0.780243 0.204228
O O8 0.500935 0.500000 0.794462
O O9 0.602584 0.279504 0.552460
O O10 0.500000 0.325372 0.000000
O O11 0.440420 0.228161 0.939005
O O12 0.210829 0.500000 0.432396
O O13 0.165775 0.735101 0.411823
O O14 0.288110 0.752278 0.259354
O O15 0.892862 0.000000 0.491951
O O16 0.320736 0.500000 0.546887
O O17 0.324554 0.756890 0.411947
O O18 0.342071 0.000000 0.223855
#
# Coordination Sequence:
#
# PCOD9145741 Si02
#       7
#     4   4   4   4   4   4   4
#     4  10  20  35  58  84 111 146 186 227 271 325
#     4  10  20  37  60  83 108 142 185 232 277 325
#     4   8  16  30  48  75 111 144 174 215 270 324
#     4  12  24  37  55  80 112 148 185 228 278 329
#     4  10  22  39  57  80 111 147 187 229 275 326
#     4  10  19  32  52  80 114 147 177 218 271 325
#     4  11  20  32  53  80 108 141 183 228 273 319
#
# _framework density 18.515422000000001
#
# number of rings (size 3 to 8) (size 9 to 14) (size 15 to 20)
#    0.000    1.857    1.429    4.714    0.000    7.714 
#    0.000    0.000    0.000    3.429    0.000    6.000 
#    0.000    0.000    0.000    0.000    0.000    0.000 
#
# Total GULP energy -156358.823447 kJ/mol
# GULP energy per Si atom -5584.243695 kJ/mol
# Density = 1.847328 g / cm^3
# Si number density = 18.515422 Si / 1000 Ang^3
#
#
#
# Elastic Constant Matrix: (Units=GPa)
#
#
# Indices 1 2 3 4 5 6 
#
# 1 64.2410 28.5904 8.6419 0.0000 -14.9784 0.0000
# 2 28.5904 60.1771 11.7409 0.0000 -12.3818 0.0000
# 3 8.6419 11.7409 26.2740 0.0000 -19.6238 0.0000
# 4 0.0000 0.0000 0.0000 7.0222 0.0000 -57.9809
# 5 -14.9784 -12.3818 -19.6238 0.0000 35.7999 0.0000
# 6 0.0000 0.0000 0.0000 -57.9809 0.0000 100.0412
#
#
#
# Elastic Compliance Matrix: (Units=1/GPa)
#
#
# Indices 1 2 3 4 5 6 
#
# 1 0.020837 -0.008928 0.002271 0.000000 0.006875 0.000000
# 2 -0.008928 0.022237 -0.006851 0.000000 0.000200 0.000000
# 3 0.002271 -0.006851 0.066569 0.000000 0.035071 0.000000
# 4 0.000000 0.000000 0.000000 -0.037620 0.000000 -0.021803
# 5 0.006875 0.000200 0.035071 0.000000 0.050103 0.000000
# 6 0.000000 0.000000 0.000000 -0.021803 0.000000 -0.002641
#
#
# Mechanical properties :
#
#
# Convention : Reuss Voigt Hill
#
# Bulk Modulus (GPa) = 12.10259 27.62649 19.86454
# Shear Modulus (GPa) = 28.72810 35.35389 32.04100
#
# Velocity S-wave (km/s) = 3.94328 4.37444 4.16444
# Velocity P-wave (km/s) = 5.22334 6.36141 5.82026
#
# Compressibility (1/GPa) = 0.08262693
#
# Stress axis : x y z
#
# Youngs Moduli (GPa) = 47.99045 44.96926 15.02203
#
# Poissons Ratio (x) = 0.40151 -0.03412
# Poissons Ratio (y) = 0.42848 0.10292
# Poissons Ratio (z) = -0.10899 0.30808
#
# Static dielectric constant tensor:
#      x y z
#    x 1.640580 0.000000 -0.013460 
#    y 0.000000 1.618150 0.000000 
#    z -0.013460 0.000000 1.635970 
# 
# From -- ./inp_files/37070.got.cif
#   From: 2010.05.17/outbox.cif.g08.bks.cpg/sg10_19_cif.got.tgz:37070.got - 2010.06.03 11:33:40.
