data_PCOD9145033
_publ_section_title
;
Structure prediction by ZEFSAII (Michael W. Deem and Ramdas Pophale) SiO2 
 PCOD9145033
Probable space group: P 2/M
;
_chemical_formula_sum "Si O2"
_cell_formula_units_Z 24
_cell_length_a 13.638579
_cell_length_b 12.864371
_cell_length_c 13.439747
_cell_angle_alpha 90.000000
_cell_angle_beta 30.967404
_cell_angle_gamma 90.000000
_cell_volume 1213.323600
_symmetry_space_group_name_H-M "P 2/M"
_symmetry_group_IT_number 10
_symmetry_cell_setting 'monoclinic'
loop_
_space_group_symop_operation_xyz
x,y,z
-x,y,-z
-x,-y,-z
x,-y,z
loop_
_atom_site_type_symbol
_atom_site_label
_atom_site_fract_x
_atom_site_fract_y
_atom_site_fract_z
Si Si1 0.041865 0.617466 0.108772
Si Si2 0.417809 0.380550 0.682172
Si Si3 0.248194 0.731193 0.515794
Si Si4 0.317376 0.381470 0.269124
Si Si5 0.735557 0.310069 0.896018
Si Si6 0.992951 0.121632 0.626238
O O1 0.964080 0.500000 0.168237
O O2 0.179692 0.626835 0.085603
O O3 0.880054 0.699918 0.277800
O O4 0.191555 0.636817 0.889615
O O5 0.500000 0.377724 0.500000
O O6 0.451580 0.500000 0.689768
O O7 0.537105 0.294885 0.639205
O O8 0.203077 0.648744 0.466625
O O9 0.180784 0.837099 0.521890
O O10 0.379748 0.500000 0.218757
O O11 0.217688 0.361635 0.251091
O O12 0.507569 0.311440 0.102992
O O13 0.826623 0.195724 0.813025
O O14 0.000000 0.137568 0.500000
O O15 0.963182 0.000000 0.669461
#
# Coordination Sequence:
#
# PCOD9145033 Si02
#       6
#     4   4   4   4   4   4
#     4  10  19  31  51  79 114 149 183 222 270 336
#     4  10  21  37  56  81 116 152 187 230 279 338
#     4  11  21  35  56  81 112 151 190 226 281 332
#     4  11  19  30  50  79 119 152 180 220 269 341
#     4  10  19  31  49  77 109 151 186 222 273 327
#     4  10  21  39  55  75 111 151 194 241 280 323
#
# _framework density 19.780377999999999
#
# number of rings (size 3 to 8) (size 9 to 14) (size 15 to 20)
#    0.000    1.667    3.333    3.500    0.000    0.667 
#    0.000    7.500    0.000    0.500    0.000    4.667 
#    0.000    0.000    0.000    0.000    0.000    0.000 
#
# Total GULP energy -133903.004277 kJ/mol
# GULP energy per Si atom -5579.291845 kJ/mol
# Density = 1.973536 g / cm^3
# Si number density = 19.780378 Si / 1000 Ang^3
#
#
#
# Elastic Constant Matrix: (Units=GPa)
#
#
# Indices 1 2 3 4 5 6 
#
# 1 48.6389 19.8067 9.5223 0.0000 5.3587 0.0000
# 2 19.8067 113.0467 29.6160 0.0000 1.0656 0.0000
# 3 9.5223 29.6160 84.3917 0.0000 9.5743 0.0000
# 4 0.0000 0.0000 0.0000 21.8999 0.0000 -2.3429
# 5 5.3587 1.0656 9.5743 0.0000 38.6925 0.0000
# 6 0.0000 0.0000 0.0000 -2.3429 0.0000 18.0358
#
#
#
# Elastic Compliance Matrix: (Units=1/GPa)
#
#
# Indices 1 2 3 4 5 6 
#
# 1 0.022549 -0.003679 -0.000937 0.000000 -0.002790 0.000000
# 2 -0.003679 0.010355 -0.003338 0.000000 0.001050 0.000000
# 3 -0.000937 -0.003338 0.013480 0.000000 -0.003114 0.000000
# 4 0.000000 0.000000 0.000000 0.046306 0.000000 0.006015
# 5 -0.002790 0.001050 -0.003114 0.000000 0.026973 0.000000
# 6 0.000000 0.000000 0.000000 0.006015 0.000000 0.056227
#
#
# Mechanical properties :
#
#
# Convention : Reuss Voigt Hill
#
# Bulk Modulus (GPa) = 32.81248 40.44080 36.62664
# Shear Modulus (GPa) = 24.75800 28.20113 26.47956
#
# Velocity S-wave (km/s) = 3.54170 3.77996 3.66276
# Velocity P-wave (km/s) = 5.77488 6.28809 6.03694
#
# Compressibility (1/GPa) = 0.03047621
#
# Stress axis : x y z
#
# Youngs Moduli (GPa) = 44.34870 96.57096 74.18456
#
# Poissons Ratio (x) = 0.35528 0.06949
# Poissons Ratio (y) = 0.16316 0.24763
# Poissons Ratio (z) = 0.04154 0.32235
#
# Static dielectric constant tensor:
#      x y z
#    x 1.789180 0.000000 -0.005940 
#    y 0.000000 1.637560 0.000000 
#    z -0.005940 0.000000 1.790110 
# 
# From -- ./inp_files/67248.got.cif
#   From: 2010.05.17/outbox.cif.g08.bks.cpg/sg10_34_cif.got.tgz:67248.got - 2010.06.03 11:33:40.
