data_PCOD9145811
_publ_section_title
;
Structure prediction by ZEFSAII (Michael W. Deem and Ramdas Pophale) SiO2 
 PCOD9145811
Probable space group: P 2/M
;
_chemical_formula_sum "Si O2"
_cell_formula_units_Z 28
_cell_length_a 17.282831
_cell_length_b 8.425107
_cell_length_c 15.482175
_cell_angle_alpha 90.000000
_cell_angle_beta 45.830339
_cell_angle_gamma 90.000000
_cell_volume 1617.002906
_symmetry_space_group_name_H-M "P 2/M"
_symmetry_group_IT_number 10
_symmetry_cell_setting 'monoclinic'
loop_
_space_group_symop_operation_xyz
x,y,z
-x,y,-z
-x,-y,-z
x,-y,z
loop_
_atom_site_type_symbol
_atom_site_label
_atom_site_fract_x
_atom_site_fract_y
_atom_site_fract_z
Si Si1 0.761537 0.807389 0.653279
Si Si2 0.295184 0.807405 0.984931
Si Si3 0.927839 0.684856 0.173450
Si Si4 0.520279 0.806757 0.885408
Si Si5 0.128515 0.688465 0.258992
Si Si6 0.845746 0.187558 0.064322
Si Si7 0.895701 0.811188 0.383104
O O1 0.637594 0.755672 0.761801
O O2 0.831377 0.740101 0.677851
O O3 0.812706 0.760387 0.522132
O O4 0.765269 0.000000 0.655985
O O5 0.417839 0.757861 0.907998
O O6 0.246147 0.759242 0.930867
O O7 0.289853 0.000000 0.993455
O O8 0.218605 0.741727 0.119892
O O9 0.955830 0.500000 0.149767
O O10 0.852421 0.725745 0.150829
O O11 0.879783 0.730329 0.302968
O O12 0.039033 0.780621 0.071490
O O13 0.521432 0.000000 0.885034
O O14 0.500000 0.755629 0.000000
O O15 0.114628 0.500000 0.265720
O O16 0.015772 0.769589 0.322251
O O17 0.835084 0.000000 0.087896
O O18 0.887073 0.000000 0.378637
#
# Coordination Sequence:
#
# PCOD9145811 Si02
#       7
#     4   4   4   4   4   4   4
#     4  10  21  37  56  76 103 142 182 219 260 312
#     4  10  19  33  56  80 107 139 174 216 262 311
#     4  11  21  33  52  77 108 139 171 216 268 318
#     4   9  16  31  57  81 102 133 177 223 262 302
#     4  12  23  33  50  77 111 143 175 214 261 315
#     4  10  19  32  53  79 107 139 175 214 259 316
#     4  11  22  36  54  76 105 141 181 218 261 317
#
# _framework density 17.315985999999999
#
# number of rings (size 3 to 8) (size 9 to 14) (size 15 to 20)
#    0.000    1.571    2.857    4.714    0.000    3.429 
#    0.000    1.429    0.000    0.857    0.000    6.000 
#    0.000    0.000    0.000    0.000    0.000    0.000 
#
# Total GULP energy -156378.040024 kJ/mol
# GULP energy per Si atom -5584.930001 kJ/mol
# Density = 1.727657 g / cm^3
# Si number density = 17.315986 Si / 1000 Ang^3
#
#
#
# Elastic Constant Matrix: (Units=GPa)
#
#
# Indices 1 2 3 4 5 6 
#
# 1 114.4646 3.6858 46.4950 0.0000 20.7461 0.0000
# 2 3.6858 10.8157 3.5677 0.0000 0.5990 0.0000
# 3 46.4950 3.5677 101.7799 0.0000 14.2366 0.0000
# 4 0.0000 0.0000 0.0000 -25.5670 0.0000 -14.3235
# 5 20.7461 0.5990 14.2366 0.0000 20.6393 0.0000
# 6 0.0000 0.0000 0.0000 -14.3235 0.0000 -21.9296
#
#
#
# Elastic Compliance Matrix: (Units=1/GPa)
#
#
# Indices 1 2 3 4 5 6 
#
# 1 0.012198 -0.002259 -0.004192 0.000000 -0.009304 0.000000
# 2 -0.002259 0.093963 -0.002433 0.000000 0.001221 0.000000
# 3 -0.004192 -0.002433 0.012425 0.000000 -0.004286 0.000000
# 4 0.000000 0.000000 0.000000 -0.061685 0.000000 0.040290
# 5 -0.009304 0.001221 -0.004286 0.000000 0.060725 0.000000
# 6 0.000000 0.000000 0.000000 0.040290 0.000000 -0.071916
#
#
# Mechanical properties :
#
#
# Convention : Reuss Voigt Hill
#
# Bulk Modulus (GPa) = 9.91872 37.17303 23.54587
# Shear Modulus (GPa) = 51.50240 6.18266 28.84253
#
# Velocity S-wave (km/s) = 5.45960 1.89162 4.08568
# Velocity P-wave (km/s) = 6.74415 5.12690 5.99035
#
# Compressibility (1/GPa) = 0.10081943
#
# Stress axis : x y z
#
# Youngs Moduli (GPa) = 81.98024 10.64250 80.48418
#
# Poissons Ratio (x) = 0.02404 0.33736
# Poissons Ratio (y) = 0.18518 0.19579
# Poissons Ratio (z) = 0.34363 0.02589
#
# Static dielectric constant tensor:
#      x y z
#    x 1.586350 0.000000 0.006180 
#    y 0.000000 1.583620 0.000000 
#    z 0.006180 0.000000 1.568800 
# 
# From -- ./inp_files/68561.got.cif
#   From: 2010.05.17/outbox.cif.g08.bks.cpg/sg10_35_cif.got.tgz:68561.got - 2010.06.03 11:33:40.
