data_PCOD9145518
_publ_section_title
;
Structure prediction by ZEFSAII (Michael W. Deem and Ramdas Pophale) SiO2 
 PCOD9145518
Probable space group: P 2/M
;
_chemical_formula_sum "Si O2"
_cell_formula_units_Z 28
_cell_length_a 10.475242
_cell_length_b 18.289219
_cell_length_c 9.423406
_cell_angle_alpha 90.000000
_cell_angle_beta 45.837133
_cell_angle_gamma 90.000000
_cell_volume 1295.107052
_symmetry_space_group_name_H-M "P 2/M"
_symmetry_group_IT_number 10
_symmetry_cell_setting 'monoclinic'
loop_
_space_group_symop_operation_xyz
x,y,z
-x,y,-z
-x,-y,-z
x,-y,z
loop_
_atom_site_type_symbol
_atom_site_label
_atom_site_fract_x
_atom_site_fract_y
_atom_site_fract_z
Si Si1 0.693236 0.080430 0.000232
Si Si2 0.116186 0.919020 0.740531
Si Si3 0.204865 0.125476 0.373550
Si Si4 0.341778 0.188989 0.736074
Si Si5 0.672908 0.712375 0.765905
Si Si6 0.433805 0.348429 0.707444
Si Si7 0.301711 0.579785 0.082181
O O1 0.683683 0.090801 0.839242
O O2 0.907076 0.084200 0.866957
O O3 0.630640 0.000000 0.091542
O O4 0.612862 0.146641 0.153488
O O5 0.228198 0.907241 0.510363
O O6 0.179775 0.854609 0.792497
O O7 0.155016 0.000000 0.768832
O O8 0.229558 0.212636 0.343554
O O9 0.000000 0.108427 0.500000
O O10 0.500000 0.183873 0.500000
O O11 0.316501 0.274835 0.780943
O O12 0.600875 0.678480 0.674445
O O13 0.777770 0.650319 0.775026
O O14 0.500000 0.728846 0.000000
O O15 0.500000 0.372640 0.500000
O O16 0.332570 0.403492 0.891702
O O17 0.217941 0.500000 0.168044
O O18 0.500000 0.576221 0.000000
#
# Coordination Sequence:
#
# PCOD9145518 Si02
#       7
#     4   4   4   4   4   4   4
#     4  10  20  34  50  67  90 123 163 205 245 282
#     4  10  21  35  49  67  94 127 163 205 245 278
#     4  10  19  32  51  72  93 121 162 203 240 284
#     4  11  21  33  48  68  96 126 159 195 238 287
#     4   9  17  31  49  68  96 126 151 187 236 282
#     4   9  17  28  45  68  96 123 150 189 234 273
#     4   8  15  28  47  70  94 122 154 185 225 279
#
# _framework density 21.619833
#
# number of rings (size 3 to 8) (size 9 to 14) (size 15 to 20)
#    0.000    2.714    0.000    4.714    0.000    4.286 
#    0.000    0.000    0.000    3.857    0.000    0.000 
#    0.000   22.857    0.000    0.000    0.000    0.000 
#
# Total GULP energy -156276.243634 kJ/mol
# GULP energy per Si atom -5581.294415 kJ/mol
# Density = 2.157063 g / cm^3
# Si number density = 21.619833 Si / 1000 Ang^3
#
#
#
# Elastic Constant Matrix: (Units=GPa)
#
#
# Indices 1 2 3 4 5 6 
#
# 1 43.1565 7.7415 26.5893 0.0000 15.9308 0.0000
# 2 7.7415 110.3298 22.9447 0.0000 7.2555 0.0000
# 3 26.5893 22.9447 102.0681 0.0000 27.4847 0.0000
# 4 0.0000 0.0000 0.0000 6.5478 0.0000 12.6134
# 5 15.9308 7.2555 27.4847 0.0000 41.9268 0.0000
# 6 0.0000 0.0000 0.0000 12.6134 0.0000 3.3951
#
#
#
# Elastic Compliance Matrix: (Units=1/GPa)
#
#
# Indices 1 2 3 4 5 6 
#
# 1 0.029429 -0.000417 -0.005563 0.000000 -0.007463 0.000000
# 2 -0.000417 0.009517 -0.001979 0.000000 -0.000191 0.000000
# 3 -0.005563 -0.001979 0.013395 0.000000 -0.006324 0.000000
# 4 0.000000 0.000000 0.000000 -0.024805 0.000000 0.092158
# 5 -0.007463 -0.000191 -0.006324 0.000000 0.030866 0.000000
# 6 0.000000 0.000000 0.000000 0.092158 0.000000 -0.047840
#
#
# Mechanical properties :
#
#
# Convention : Reuss Voigt Hill
#
# Bulk Modulus (GPa) = 27.45643 41.12282 34.28963
# Shear Modulus (GPa) = 129.46661 23.59251 76.52956
#
# Velocity S-wave (km/s) = 7.74682 3.30698 5.95606
# Velocity P-wave (km/s) = 9.63042 5.80032 7.94948
#
# Compressibility (1/GPa) = 0.03642133
#
# Stress axis : x y z
#
# Youngs Moduli (GPa) = 33.98052 105.07295 74.65732
#
# Poissons Ratio (x) = 0.04384 0.41531
# Poissons Ratio (y) = 0.01418 0.14777
# Poissons Ratio (z) = 0.18903 0.20798
#
# Static dielectric constant tensor:
#      x y z
#    x 1.845300 0.000000 0.022310 
#    y 0.000000 1.794020 0.000000 
#    z 0.022310 0.000000 1.810790 
# 
# From -- ./inp_files/25962.got.cif
#   From: 2010.05.17/outbox.cif.g08.bks.cpg/sg10_13_cif.got.tgz:25962.got - 2010.06.03 11:33:40.
