data_PCOD9145849
_publ_section_title
;
Structure prediction by ZEFSAII (Michael W. Deem and Ramdas Pophale) SiO2 
 PCOD9145849
Probable space group: P 2/M
;
_chemical_formula_sum "Si O2"
_cell_formula_units_Z 32
_cell_length_a 14.865466
_cell_length_b 7.694483
_cell_length_c 12.793501
_cell_angle_alpha 90.000000
_cell_angle_beta 85.254321
_cell_angle_gamma 90.000000
_cell_volume 1458.330469
_symmetry_space_group_name_H-M "P 2/M"
_symmetry_group_IT_number 10
_symmetry_cell_setting 'monoclinic'
loop_
_space_group_symop_operation_xyz
x,y,z
-x,y,-z
-x,-y,-z
x,-y,z
loop_
_atom_site_type_symbol
_atom_site_label
_atom_site_fract_x
_atom_site_fract_y
_atom_site_fract_z
Si Si1 0.370280 0.289715 0.266181
Si Si2 0.256027 0.790532 0.877190
Si Si3 0.234082 0.212748 0.645945
Si Si4 0.533973 0.291550 0.109306
Si Si5 0.174834 0.704606 0.237661
Si Si6 0.599617 0.793089 0.499333
Si Si7 0.905578 0.795626 0.965743
Si Si8 0.102338 0.210363 0.474270
O O1 0.369682 0.500000 0.263498
O O2 0.462900 0.227144 0.203577
O O3 0.278156 0.228161 0.219361
O O4 0.365633 0.235700 0.387135
O O5 0.223181 0.731169 0.765879
O O6 0.360843 0.745252 0.883382
O O7 0.254061 0.000000 0.878501
O O8 0.184794 0.724017 0.969780
O O9 0.330566 0.273417 0.592703
O O10 0.161531 0.269659 0.567207
O O11 0.232794 0.000000 0.645929
O O12 0.525098 0.500000 0.109406
O O13 0.500000 0.226183 0.000000
O O14 0.177225 0.500000 0.217777
O O15 0.108861 0.780846 0.156769
O O16 0.141715 0.734133 0.358941
O O17 0.500000 0.717052 0.500000
O O18 0.593918 0.000000 0.482605
O O19 0.907430 0.000000 0.991905
O O20 0.000000 0.721426 0.000000
O O21 0.000000 0.268835 0.500000
O O22 0.103739 0.000000 0.474129
#
# Coordination Sequence:
#
# PCOD9145849 Si02
#       8
#     4   4   4   4   4   4   4   4
#     4  10  21  36  55  81 113 152 192 234 285 343
#     4  10  21  38  60  88 119 150 193 247 294 343
#     4   9  18  34  55  84 118 149 185 234 289 341
#     4  10  21  38  58  80 112 155 198 238 289 351
#     4  11  23  40  62  88 122 156 195 246 295 351
#     4  10  19  32  53  81 112 147 187 233 284 338
#     4  10  23  41  64  90 117 152 197 247 296 353
#     4  10  21  37  63  90 115 155 199 241 294 351
#
# _framework density 21.942900999999999
#
# number of rings (size 3 to 8) (size 9 to 14) (size 15 to 20)
#    0.000    2.000    1.250    1.875    1.750    4.500 
#    0.000    1.250    0.000    0.000    0.000    0.000 
#    0.000    0.000    0.000    0.000    0.000    0.000 
#
# Total GULP energy -178771.573069 kJ/mol
# GULP energy per Si atom -5586.611658 kJ/mol
# Density = 2.189296 g / cm^3
# Si number density = 21.942901 Si / 1000 Ang^3
#
#
#
# Elastic Constant Matrix: (Units=GPa)
#
#
# Indices 1 2 3 4 5 6 
#
# 1 132.5290 -2.9418 26.8504 0.0000 6.5743 0.0000
# 2 -2.9418 30.2267 -18.1189 0.0000 -7.6354 0.0000
# 3 26.8504 -18.1189 90.1155 0.0000 2.8640 0.0000
# 4 0.0000 0.0000 0.0000 14.3462 0.0000 5.1785
# 5 6.5743 -7.6354 2.8640 0.0000 36.5378 0.0000
# 6 0.0000 0.0000 0.0000 5.1785 0.0000 11.4517
#
#
#
# Elastic Compliance Matrix: (Units=1/GPa)
#
#
# Indices 1 2 3 4 5 6 
#
# 1 0.008122 -0.001148 -0.002603 0.000000 -0.001497 0.000000
# 2 -0.001148 0.039819 0.008097 0.000000 0.007893 0.000000
# 3 -0.002603 0.008097 0.013465 0.000000 0.001105 0.000000
# 4 0.000000 0.000000 0.000000 0.083302 0.000000 -0.037669
# 5 -0.001497 0.007893 0.001105 0.000000 0.029201 0.000000
# 6 0.000000 0.000000 0.000000 -0.037669 0.000000 0.104357
#
#
# Mechanical properties :
#
#
# Convention : Reuss Voigt Hill
#
# Bulk Modulus (GPa) = 14.26564 29.38341 21.82452
# Shear Modulus (GPa) = 17.06828 28.93925 23.00376
#
# Velocity S-wave (km/s) = 2.79202 3.63553 3.24133
# Velocity P-wave (km/s) = 4.11208 5.57160 4.89652
#
# Compressibility (1/GPa) = 0.07009851
#
# Stress axis : x y z
#
# Youngs Moduli (GPa) = 123.12671 25.11349 74.26395
#
# Poissons Ratio (x) = 0.02884 0.19332
# Poissons Ratio (y) = 0.14138 -0.60135
# Poissons Ratio (z) = 0.32052 -0.20336
#
# Static dielectric constant tensor:
#      x y z
#    x 1.804550 0.000000 0.004200 
#    y 0.000000 1.805120 0.000000 
#    z 0.004200 0.000000 1.760610 
# 
# From -- ./inp_files/49877.got.cif
#   From: 2010.05.17/outbox.cif.g08.bks.cpg/sg10_25_cif.got.tgz:49877.got - 2010.06.03 11:33:40.
