data_PCOD9145273
_publ_section_title
;
Structure prediction by ZEFSAII (Michael W. Deem and Ramdas Pophale) SiO2 
 PCOD9145273
Probable space group: P 2/M
;
_chemical_formula_sum "Si O2"
_cell_formula_units_Z 28
_cell_length_a 9.354030
_cell_length_b 13.411670
_cell_length_c 14.059537
_cell_angle_alpha 90.000000
_cell_angle_beta 116.034381
_cell_angle_gamma 90.000000
_cell_volume 1584.840722
_symmetry_space_group_name_H-M "P 2/M"
_symmetry_group_IT_number 10
_symmetry_cell_setting 'monoclinic'
loop_
_space_group_symop_operation_xyz
x,y,z
-x,y,-z
-x,-y,-z
x,-y,z
loop_
_atom_site_type_symbol
_atom_site_label
_atom_site_fract_x
_atom_site_fract_y
_atom_site_fract_z
Si Si1 0.592302 0.256262 0.933428
Si Si2 0.842939 0.381633 0.889179
Si Si3 0.140788 0.222650 0.263534
Si Si4 0.992364 0.885121 0.611124
Si Si5 0.457688 0.116137 0.382391
Si Si6 0.639853 0.112876 0.249924
Si Si7 0.110862 0.886100 0.938436
O O1 0.688977 0.336421 0.898421
O O2 0.462085 0.193926 0.835943
O O3 0.500000 0.295869 0.000000
O O4 0.731779 0.179537 0.004890
O O5 0.829682 0.500000 0.875101
O O6 0.864241 0.327312 0.793314
O O7 0.000000 0.360114 0.000000
O O8 0.313013 0.176145 0.294999
O O9 0.109272 0.199906 0.365438
O O10 0.005773 0.156676 0.174619
O O11 0.171868 0.878123 0.703072
O O12 0.000000 0.872559 0.500000
O O13 0.934324 0.000000 0.612115
O O14 0.500000 0.151842 0.500000
O O15 0.601358 0.122034 0.350761
O O16 0.411171 0.000000 0.376510
O O17 0.591190 0.000000 0.207054
O O18 0.155067 0.000000 0.932492
O O19 0.000000 0.882685 0.000000
#
# Coordination Sequence:
#
# PCOD9145273 Si02
#       7
#     4   4   4   4   4   4   4
#     4  12  22  36  56  83 116 145 182 228 295 352
#     4  11  24  44  63  83 108 141 197 253 298 346
#     4  12  19  36  59  80 107 155 195 228 280 332
#     4  10  21  35  54  86 124 158 191 224 265 331
#     4  10  19  31  52  83 115 148 186 225 267 328
#     4  10  20  33  49  78 121 155 178 217 271 333
#     4  11  20  32  52  83 120 155 189 224 266 343
#
# _framework density 17.667390000000001
#
# number of rings (size 3 to 8) (size 9 to 14) (size 15 to 20)
#    0.000    1.143    4.286    3.429    0.000    7.143 
#    0.000    0.000    0.000    0.857    0.000    0.000 
#    0.000    0.000    0.000    0.000    0.000    0.000 
#
# Total GULP energy -156281.763727 kJ/mol
# GULP energy per Si atom -5581.491562 kJ/mol
# Density = 1.762718 g / cm^3
# Si number density = 17.667390 Si / 1000 Ang^3
#
#
#
# Elastic Constant Matrix: (Units=GPa)
#
#
# Indices 1 2 3 4 5 6 
#
# 1 98.4771 40.2374 20.4002 0.0000 -17.4669 0.0000
# 2 40.2374 98.2499 33.1810 0.0000 -9.6321 0.0000
# 3 20.4002 33.1810 67.4409 0.0000 -8.1505 0.0000
# 4 0.0000 0.0000 0.0000 19.7098 0.0000 -0.4217
# 5 -17.4669 -9.6321 -8.1505 0.0000 32.3256 0.0000
# 6 0.0000 0.0000 0.0000 -0.4217 0.0000 13.9784
#
#
#
# Elastic Compliance Matrix: (Units=1/GPa)
#
#
# Indices 1 2 3 4 5 6 
#
# 1 0.013197 -0.004487 -0.001118 0.000000 0.005512 0.000000
# 2 -0.004487 0.013884 -0.005432 0.000000 0.000343 0.000000
# 3 -0.001118 -0.005432 0.018122 0.000000 0.002346 0.000000
# 4 0.000000 0.000000 0.000000 0.050769 0.000000 0.001532
# 5 0.005512 0.000343 0.002346 0.000000 0.034607 0.000000
# 6 0.000000 0.000000 0.000000 0.001532 0.000000 0.071585
#
#
# Mechanical properties :
#
#
# Convention : Reuss Voigt Hill
#
# Bulk Modulus (GPa) = 43.23630 50.20058 46.71844
# Shear Modulus (GPa) = 21.55643 24.55938 23.05790
#
# Velocity S-wave (km/s) = 3.49682 3.73244 3.61655
# Velocity P-wave (km/s) = 6.38977 6.85936 6.62872
#
# Compressibility (1/GPa) = 0.02312871
#
# Stress axis : x y z
#
# Youngs Moduli (GPa) = 75.77311 72.02626 55.18054
#
# Poissons Ratio (x) = 0.32316 0.06171
# Poissons Ratio (y) = 0.33997 0.29975
# Poissons Ratio (z) = 0.08475 0.39126
#
# Static dielectric constant tensor:
#      x y z
#    x 1.645480 0.000000 -0.043420 
#    y 0.000000 1.569970 0.000000 
#    z -0.043420 0.000000 1.645000 
# 
# From -- ./inp_files/61266.got.cif
#   From: 2010.05.17/outbox.cif.g08.bks.cpg/sg10_31_cif.got.tgz:61266.got - 2010.06.03 11:33:40.
