data_PCOD9145378
_publ_section_title
;
Structure prediction by ZEFSAII (Michael W. Deem and Ramdas Pophale) SiO2 
 PCOD9145378
Probable space group: P 2/M
;
_chemical_formula_sum "Si O2"
_cell_formula_units_Z 22
_cell_length_a 5.171273
_cell_length_b 11.595838
_cell_length_c 18.742787
_cell_angle_alpha 90.000000
_cell_angle_beta 68.229657
_cell_angle_gamma 90.000000
_cell_volume 1043.755791
_symmetry_space_group_name_H-M "P 2/M"
_symmetry_group_IT_number 10
_symmetry_cell_setting 'monoclinic'
loop_
_space_group_symop_operation_xyz
x,y,z
-x,y,-z
-x,-y,-z
x,-y,z
loop_
_atom_site_type_symbol
_atom_site_label
_atom_site_fract_x
_atom_site_fract_y
_atom_site_fract_z
Si Si1 0.893912 0.723802 0.716800
Si Si2 0.721604 0.368579 0.882051
Si Si3 0.820548 0.000000 0.447424
Si Si4 0.179154 0.777227 0.917755
Si Si5 0.350263 0.868856 0.753399
Si Si6 0.822095 0.739390 0.446229
O O1 0.797887 0.639690 0.790042
O O2 0.618837 0.788253 0.715756
O O3 0.091613 0.814419 0.738201
O O4 0.061330 0.669824 0.633285
O O5 0.667475 0.500000 0.907246
O O6 0.451148 0.288408 0.918666
O O7 0.977774 0.316338 0.900334
O O8 0.500000 0.000000 0.500000
O O9 0.865158 0.871961 0.413162
O O10 0.000000 0.000000 0.500000
O O11 0.276582 0.861892 0.844968
O O12 0.000000 0.830441 0.000000
O O13 0.405267 0.000000 0.725148
O O14 0.500000 0.722643 0.500000
O O15 0.000000 0.724262 0.500000
#
# Coordination Sequence:
#
# PCOD9145378 Si02
#       6
#     4   4   2   4   4   4
#     4  10  21  36  53  76 105 140 180 218 256 316
#     4  10  21  37  57  80 106 137 173 217 270 313
#     4   8  16  26  38  62  90 118 155 190 243 292
#     4  10  21  36  55  83 110 134 174 216 257 315
#     4  10  21  35  53  76 106 146 179 208 253 307
#     4  10  19  32  48  71 101 135 169 216 262 300
#
# _framework density 21.077726999999999
#
# number of rings (size 3 to 8) (size 9 to 14) (size 15 to 20)
#    0.000    2.182    0.000    2.727    2.545    2.545 
#    3.273    0.000    0.000    7.636    0.000    0.000 
#    0.000    0.000    0.000    0.000    0.000    0.000 
#
# Total GULP energy -122782.410509 kJ/mol
# GULP energy per Si atom -5581.018659 kJ/mol
# Density = 2.102975 g / cm^3
# Si number density = 21.077727 Si / 1000 Ang^3
#
#
#
# Elastic Constant Matrix: (Units=GPa)
#
#
# Indices 1 2 3 4 5 6 
#
# 1 98.9762 5.8450 -0.7161 0.0000 -8.5259 0.0000
# 2 5.8450 29.5471 -13.2032 0.0000 4.6180 0.0000
# 3 -0.7161 -13.2032 125.1302 0.0000 -27.4275 0.0000
# 4 0.0000 0.0000 0.0000 -5.3309 0.0000 3.5627
# 5 -8.5259 4.6180 -27.4275 0.0000 27.1667 0.0000
# 6 0.0000 0.0000 0.0000 3.5627 0.0000 9.7282
#
#
#
# Elastic Compliance Matrix: (Units=1/GPa)
#
#
# Indices 1 2 3 4 5 6 
#
# 1 0.010648 -0.002462 0.000803 0.000000 0.004571 0.000000
# 2 -0.002462 0.036266 0.002943 0.000000 -0.003966 0.000000
# 3 0.000803 0.002943 0.010598 0.000000 0.010451 0.000000
# 4 0.000000 0.000000 0.000000 -0.150701 0.000000 0.055190
# 5 0.004571 -0.003966 0.010451 0.000000 0.049470 0.000000
# 6 0.000000 0.000000 0.000000 0.055190 0.000000 0.082582
#
#
# Mechanical properties :
#
#
# Convention : Reuss Voigt Hill
#
# Bulk Modulus (GPa) = 16.64417 26.38944 21.51681
# Shear Modulus (GPa) = 88.77539 23.76132 56.26835
#
# Velocity S-wave (km/s) = 6.49689 3.36120 5.17239
# Velocity P-wave (km/s) = 8.01206 5.25460 6.77510
#
# Compressibility (1/GPa) = 0.06008110
#
# Stress axis : x y z
#
# Youngs Moduli (GPa) = 93.91071 27.57379 94.36077
#
# Poissons Ratio (x) = 0.06789 -0.07578
# Poissons Ratio (y) = 0.23121 -0.27773
# Poissons Ratio (z) = -0.07542 -0.08116
#
# Static dielectric constant tensor:
#      x y z
#    x 1.706050 0.000000 -0.010120 
#    y 0.000000 1.735500 0.000000 
#    z -0.010120 0.000000 1.807820 
# 
# From -- ./inp_files/73159.got.cif
#   From: 2010.05.17/outbox.cif.g08.bks.cpg/sg10_37_cif.got.tgz:73159.got - 2010.06.03 11:33:40.
