data_PCOD9145760
_publ_section_title
;
Structure prediction by ZEFSAII (Michael W. Deem and Ramdas Pophale) SiO2 
 PCOD9145760
Probable space group: P 2/M
;
_chemical_formula_sum "Si O2"
_cell_formula_units_Z 28
_cell_length_a 8.576158
_cell_length_b 13.873678
_cell_length_c 15.260943
_cell_angle_alpha 90.000000
_cell_angle_beta 130.452913
_cell_angle_gamma 90.000000
_cell_volume 1381.706653
_symmetry_space_group_name_H-M "P 2/M"
_symmetry_group_IT_number 10
_symmetry_cell_setting 'monoclinic'
loop_
_space_group_symop_operation_xyz
x,y,z
-x,y,-z
-x,-y,-z
x,-y,z
loop_
_atom_site_type_symbol
_atom_site_label
_atom_site_fract_x
_atom_site_fract_y
_atom_site_fract_z
Si Si1 0.310751 0.109109 0.190470
Si Si2 0.266119 0.389830 0.450352
Si Si3 0.768101 0.313291 0.055883
Si Si4 0.403398 0.712208 0.663706
Si Si5 0.839158 0.891807 0.066250
Si Si6 0.175587 0.613252 0.224435
Si Si7 0.383806 0.611478 0.821545
O O1 0.482481 0.185325 0.283232
O O2 0.087318 0.117429 0.155429
O O3 0.384578 0.000000 0.232060
O O4 0.248376 0.117238 0.065030
O O5 0.500000 0.395945 0.500000
O O6 0.207266 0.500000 0.455572
O O7 0.267647 0.312786 0.529123
O O8 0.152924 0.361520 0.319599
O O9 0.748413 0.202487 0.078656
O O10 0.724158 0.379087 0.123975
O O11 0.998408 0.331304 0.109343
O O12 0.607766 0.344588 0.924297
O O13 0.598940 0.641156 0.723473
O O14 0.292376 0.676680 0.711205
O O15 0.788680 0.000000 0.079431
O O16 0.147289 0.500000 0.204738
O O17 0.391221 0.500000 0.798696
#
# Coordination Sequence:
#
# PCOD9145760 Si02
#       7
#     4   4   4   4   4   4   4
#     4   9  17  30  50  77 102 125 162 217 262 289
#     4   8  16  30  48  73 100 127 164 215 253 281
#     4  11  20  35  49  70 103 141 166 200 249 304
#     4  11  18  32  53  74  99 132 170 204 253 301
#     4   9  17  32  51  73 100 130 168 213 253 293
#     4  10  19  32  53  74  96 133 178 208 240 302
#     4  11  23  34  46  72 112 140 157 203 260 296
#
# _framework density 20.264793000000001
#
# number of rings (size 3 to 8) (size 9 to 14) (size 15 to 20)
#    0.000    2.143    2.857    4.714    0.000    0.571 
#    0.000    4.286    0.000    7.286    0.000    0.000 
#    0.000    2.286    0.000    0.000    0.000    0.000 
#
# Total GULP energy -156113.128915 kJ/mol
# GULP energy per Si atom -5575.468890 kJ/mol
# Density = 2.021867 g / cm^3
# Si number density = 20.264793 Si / 1000 Ang^3
#
#
#
# Elastic Constant Matrix: (Units=GPa)
#
#
# Indices 1 2 3 4 5 6 
#
# 1 11.4861 4.6783 5.8477 0.0000 -5.1262 0.0000
# 2 4.6783 134.2304 15.3910 0.0000 -9.5132 0.0000
# 3 5.8477 15.3910 51.2932 0.0000 -6.0498 0.0000
# 4 0.0000 0.0000 0.0000 8.0183 0.0000 4.5814
# 5 -5.1262 -9.5132 -6.0498 0.0000 25.9944 0.0000
# 6 0.0000 0.0000 0.0000 4.5814 0.0000 17.7083
#
#
#
# Elastic Compliance Matrix: (Units=1/GPa)
#
#
# Indices 1 2 3 4 5 6 
#
# 1 0.099786 -0.001233 -0.008985 0.000000 0.017136 0.000000
# 2 -0.001233 0.007873 -0.001964 0.000000 0.002181 0.000000
# 3 -0.008985 -0.001964 0.021403 0.000000 0.002490 0.000000
# 4 0.000000 0.000000 0.000000 0.146348 0.000000 -0.037862
# 5 0.017136 0.002181 0.002490 0.000000 0.043227 0.000000
# 6 0.000000 0.000000 0.000000 -0.037862 0.000000 0.066266
#
#
# Mechanical properties :
#
#
# Convention : Reuss Voigt Hill
#
# Bulk Modulus (GPa) = 9.55142 27.64932 18.60037
# Shear Modulus (GPa) = 11.25702 21.75038 16.50370
#
# Velocity S-wave (km/s) = 2.35945 3.27969 2.85687
# Velocity P-wave (km/s) = 3.48515 5.29297 4.48117
#
# Compressibility (1/GPa) = 0.10469650
#
# Stress axis : x y z
#
# Youngs Moduli (GPa) = 10.02146 127.02191 46.72177
#
# Poissons Ratio (x) = 0.15663 0.41980
# Poissons Ratio (y) = 0.01236 0.09178
# Poissons Ratio (z) = 0.09004 0.24953
#
# Static dielectric constant tensor:
#      x y z
#    x 1.761150 0.000000 -0.006200 
#    y 0.000000 1.711280 0.000000 
#    z -0.006200 0.000000 1.741080 
# 
# From -- ./inp_files/29195.got.cif
#   From: 2010.05.17/outbox.cif.g08.bks.cpg/sg10_15_cif.got.tgz:29195.got - 2010.06.03 11:33:40.
