data_PCOD9145084
_publ_section_title
;
Structure prediction by ZEFSAII (Michael W. Deem and Ramdas Pophale) SiO2 
 PCOD9145084
Probable space group: P 2/M
;
_chemical_formula_sum "Si O2"
_cell_formula_units_Z 26
_cell_length_a 11.281280
_cell_length_b 7.090756
_cell_length_c 15.136505
_cell_angle_alpha 90.000000
_cell_angle_beta 54.589229
_cell_angle_gamma 90.000000
_cell_volume 986.834216
_symmetry_space_group_name_H-M "P 2/M"
_symmetry_group_IT_number 10
_symmetry_cell_setting 'monoclinic'
loop_
_space_group_symop_operation_xyz
x,y,z
-x,y,-z
-x,-y,-z
x,-y,z
loop_
_atom_site_type_symbol
_atom_site_label
_atom_site_fract_x
_atom_site_fract_y
_atom_site_fract_z
Si Si1 0.226048 0.727598 0.019166
Si Si2 0.194615 0.000000 0.306708
Si Si3 0.371932 0.723195 0.126798
Si Si4 0.598605 0.271523 0.542605
Si Si5 0.931796 0.726815 0.376802
Si Si6 0.916814 0.727165 0.174754
Si Si7 0.383651 0.729183 0.784622
O O1 0.231260 0.500000 0.014406
O O2 0.242373 0.775741 0.114276
O O3 0.353937 0.788606 0.898328
O O4 0.065031 0.788641 0.063530
O O5 0.064173 0.163678 0.364609
O O6 0.322412 0.162645 0.232560
O O7 0.380583 0.500000 0.141466
O O8 0.500000 0.763510 0.000000
O O9 0.500000 0.213794 0.500000
O O10 0.600900 0.500000 0.536654
O O11 0.767651 0.217041 0.476060
O O12 0.513381 0.210342 0.666500
O O13 0.949697 0.500000 0.379206
O O14 0.926965 0.770235 0.273791
O O15 0.914941 0.500000 0.168287
O O16 0.765612 0.787405 0.199154
O O17 0.390790 0.500000 0.782621
#
# Coordination Sequence:
#
# PCOD9145084 Si02
#       7
#     4   2   4   4   4   4   4
#     4   9  16  27  45  74 106 132 169 213 257 316
#     4  12  21  34  55  79 105 134 168 216 264 315
#     4  10  21  37  57  81 107 133 165 211 268 324
#     4   9  15  26  45  71 103 141 187 222 249 293
#     4  10  19  31  50  75 104 140 179 216 250 295
#     4   9  14  24  43  70 104 139 172 206 246 296
#     4   9  15  23  44  74 103 143 181 210 252 300
#
# _framework density 26.346878
#
# number of rings (size 3 to 8) (size 9 to 14) (size 15 to 20)
#    0.000    2.462    3.077    1.154    0.000    1.846 
#    0.000    0.385    0.000    2.769    0.000    2.154 
#    0.000    7.385    0.000    0.000    0.000    0.000 
#
# Total GULP energy -144833.246411 kJ/mol
# GULP energy per Si atom -5570.509477 kJ/mol
# Density = 2.628691 g / cm^3
# Si number density = 26.346878 Si / 1000 Ang^3
#
#
#
# Elastic Constant Matrix: (Units=GPa)
#
#
# Indices 1 2 3 4 5 6 
#
# 1 67.1588 -1.0901 46.0642 0.0000 -12.6099 0.0000
# 2 -1.0901 173.3629 17.7610 0.0000 -11.0751 0.0000
# 3 46.0642 17.7610 172.1278 0.0000 -31.5496 0.0000
# 4 0.0000 0.0000 0.0000 -428.0490 0.0000 373.4486
# 5 -12.6099 -11.0751 -31.5496 0.0000 46.7398 0.0000
# 6 0.0000 0.0000 0.0000 373.4486 0.0000 -461.3411
#
#
#
# Elastic Compliance Matrix: (Units=1/GPa)
#
#
# Indices 1 2 3 4 5 6 
#
# 1 0.018468 0.000721 -0.004647 0.000000 0.002016 0.000000
# 2 0.000721 0.005909 -0.000582 0.000000 0.001202 0.000000
# 3 -0.004647 -0.000582 0.007827 0.000000 0.003891 0.000000
# 4 0.000000 0.000000 0.000000 -0.007952 0.000000 -0.006437
# 5 0.002016 0.001202 0.003891 0.000000 0.024850 0.000000
# 6 0.000000 0.000000 0.000000 -0.006437 0.000000 -0.007379
#
#
# Mechanical properties :
#
#
# Convention : Reuss Voigt Hill
#
# Bulk Modulus (GPa) = 43.12833 59.79109 51.45971
# Shear Modulus (GPa) = 85.51536 -145.20244 -29.84354
#
# Velocity S-wave (km/s) = 5.70333 -7.43179 -3.36924
# Velocity P-wave (km/s) = 7.73147 7.13435 2.10674
#
# Compressibility (1/GPa) = 0.02318662
#
# Stress axis : x y z
#
# Youngs Moduli (GPa) = 54.14821 169.22720 127.76932
#
# Poissons Ratio (x) = -0.12202 0.59375
# Poissons Ratio (y) = -0.03904 0.07442
# Poissons Ratio (z) = 0.25163 0.09857
#
# Static dielectric constant tensor:
#      x y z
#    x 2.148680 0.000000 -0.001030 
#    y 0.000000 2.084000 0.000000 
#    z -0.001030 0.000000 2.049650 
# 
# From -- ./inp_files/84377.got.cif
#   From: 2010.05.17/outbox.cif.g08.bks.cpg/sg10_43_cif.got.tgz:84377.got - 2010.06.03 11:33:40.
