data_PCOD9145267
_publ_section_title
;
Structure prediction by ZEFSAII (Michael W. Deem and Ramdas Pophale) SiO2 
 PCOD9145267
Probable space group: P 2/M
;
_chemical_formula_sum "Si O2"
_cell_formula_units_Z 32
_cell_length_a 16.673239
_cell_length_b 12.145687
_cell_length_c 8.443063
_cell_angle_alpha 90.000000
_cell_angle_beta 96.352880
_cell_angle_gamma 90.000000
_cell_volume 1699.287946
_symmetry_space_group_name_H-M "P 2/M"
_symmetry_group_IT_number 10
_symmetry_cell_setting 'monoclinic'
loop_
_space_group_symop_operation_xyz
x,y,z
-x,y,-z
-x,-y,-z
x,-y,z
loop_
_atom_site_type_symbol
_atom_site_label
_atom_site_fract_x
_atom_site_fract_y
_atom_site_fract_z
Si Si1 0.788906 0.274208 0.285522
Si Si2 0.943166 0.382153 0.337760
Si Si3 0.825962 0.373129 0.962145
Si Si4 0.812460 0.869795 0.591752
Si Si5 0.629254 0.626457 0.363837
Si Si6 0.312024 0.701643 0.287841
Si Si7 0.536105 0.630291 0.832803
Si Si8 0.042551 0.776710 0.160216
O O1 0.850077 0.368075 0.364944
O O2 0.812218 0.174216 0.408995
O O3 0.695443 0.300759 0.289408
O O4 0.804470 0.289353 0.101348
O O5 0.956771 0.500000 0.260733
O O6 0.000000 0.381075 0.500000
O O7 0.970859 0.277049 0.245143
O O8 0.830782 0.500000 0.015372
O O9 0.756404 0.366220 0.816694
O O10 0.906601 0.325686 0.900583
O O11 0.736602 0.808613 0.660121
O O12 0.893551 0.837607 0.710044
O O13 0.803638 0.000000 0.592314
O O14 0.640559 0.500000 0.315984
O O15 0.650965 0.641296 0.551631
O O16 0.537386 0.654202 0.302965
O O17 0.387715 0.707399 0.185965
O O18 0.559137 0.500000 0.821870
O O19 0.500000 0.644040 0.000000
O O20 0.000000 0.835894 0.000000
#
# Coordination Sequence:
#
# PCOD9145267 Si02
#       8
#     4   4   4   4   4   4   4   4
#     4  11  21  36  55  80 112 153 196 235 284 340
#     4  11  21  34  55  83 122 157 187 227 281 356
#     4  11  21  33  55  86 124 155 182 225 286 360
#     4  10  24  45  62  78 106 149 203 258 295 324
#     4  10  19  31  52  82 119 157 190 224 276 346
#     4  10  21  36  57  83 115 152 193 235 283 341
#     4  10  19  32  54  88 128 161 187 219 275 351
#     4  11  22  37  57  85 118 147 192 234 294 352
#
# _framework density 18.831417999999999
#
# number of rings (size 3 to 8) (size 9 to 14) (size 15 to 20)
#    0.000    1.500    2.500    3.750    0.000    2.750 
#    0.000    3.750    0.000    6.375    0.000    0.000 
#    0.000    0.000    0.000    0.000    0.000    0.000 
#
# Total GULP energy -178261.454962 kJ/mol
# GULP energy per Si atom -5570.670468 kJ/mol
# Density = 1.878856 g / cm^3
# Si number density = 18.831418 Si / 1000 Ang^3
#
#
#
# Elastic Constant Matrix: (Units=GPa)
#
#
# Indices 1 2 3 4 5 6 
#
# 1 84.3973 21.3615 18.0847 0.0000 8.2093 0.0000
# 2 21.3615 87.3426 29.7694 0.0000 -0.8034 0.0000
# 3 18.0847 29.7694 82.0196 0.0000 12.3578 0.0000
# 4 0.0000 0.0000 0.0000 43.0493 0.0000 9.6883
# 5 8.2093 -0.8034 12.3578 0.0000 39.8937 0.0000
# 6 0.0000 0.0000 0.0000 9.6883 0.0000 15.2845
#
#
#
# Elastic Compliance Matrix: (Units=1/GPa)
#
#
# Indices 1 2 3 4 5 6 
#
# 1 0.013085 -0.002686 -0.001570 0.000000 -0.002260 0.000000
# 2 -0.002686 0.013744 -0.004742 0.000000 0.002299 0.000000
# 3 -0.001570 -0.004742 0.014922 0.000000 -0.004395 0.000000
# 4 0.000000 0.000000 0.000000 0.027094 0.000000 -0.017174
# 5 -0.002260 0.002299 -0.004395 0.000000 0.026939 0.000000
# 6 0.000000 0.000000 0.000000 -0.017174 0.000000 0.076312
#
#
# Mechanical properties :
#
#
# Convention : Reuss Voigt Hill
#
# Bulk Modulus (GPa) = 42.09795 43.57675 42.83735
# Shear Modulus (GPa) = 25.25133 31.94842 28.59988
#
# Velocity S-wave (km/s) = 3.66582 4.12339 3.90132
# Velocity P-wave (km/s) = 6.34991 6.77203 6.56437
#
# Compressibility (1/GPa) = 0.02375413
#
# Stress axis : x y z
#
# Youngs Moduli (GPa) = 76.42471 72.76113 67.01635
#
# Poissons Ratio (x) = 0.19543 0.10519
# Poissons Ratio (y) = 0.20528 0.31782
# Poissons Ratio (z) = 0.11996 0.34506
#
# Static dielectric constant tensor:
#      x y z
#    x 1.676430 0.000000 -0.004210 
#    y 0.000000 1.606660 0.000000 
#    z -0.004210 0.000000 1.728430 
# 
# From -- ./inp_files/28588.got.cif
#   From: 2010.05.17/outbox.cif.g08.bks.cpg/sg10_15_cif.got.tgz:28588.got - 2010.06.03 11:33:40.
