data_PCOD9145185
_publ_section_title
;
Structure prediction by ZEFSAII (Michael W. Deem and Ramdas Pophale) SiO2 
 PCOD9145185
Probable space group: P 2/M
;
_chemical_formula_sum "Si O2"
_cell_formula_units_Z 32
_cell_length_a 19.429328
_cell_length_b 9.873235
_cell_length_c 11.311787
_cell_angle_alpha 90.000000
_cell_angle_beta 50.094333
_cell_angle_gamma 90.000000
_cell_volume 1664.567535
_symmetry_space_group_name_H-M "P 2/M"
_symmetry_group_IT_number 10
_symmetry_cell_setting 'monoclinic'
loop_
_space_group_symop_operation_xyz
x,y,z
-x,y,-z
-x,-y,-z
x,-y,z
loop_
_atom_site_type_symbol
_atom_site_label
_atom_site_fract_x
_atom_site_fract_y
_atom_site_fract_z
Si Si1 0.429578 0.839476 0.968533
Si Si2 0.450736 0.158285 0.671209
Si Si3 0.721560 0.340976 0.743079
Si Si4 0.996232 0.144335 0.363705
Si Si5 0.150860 0.345447 0.188885
Si Si6 0.198446 0.842851 0.534623
Si Si7 0.101249 0.841133 0.871773
Si Si8 0.244275 0.151304 0.921402
O O1 0.460940 0.798259 0.799525
O O2 0.402772 0.000000 0.989647
O O3 0.500000 0.832176 0.000000
O O4 0.350671 0.740721 0.099526
O O5 0.500000 0.218364 0.500000
O O6 0.344292 0.165734 0.761540
O O7 0.478233 0.000000 0.645203
O O8 0.698361 0.500000 0.752407
O O9 0.815621 0.338900 0.712681
O O10 0.735431 0.255979 0.607829
O O11 0.059179 0.268061 0.262060
O O12 0.000000 0.138953 0.500000
O O13 0.894780 0.152571 0.434610
O O14 0.032601 0.000000 0.276064
O O15 0.144326 0.500000 0.160897
O O16 0.226552 0.266840 0.034302
O O17 0.163690 0.786311 0.697967
O O18 0.231926 0.000000 0.506896
O O19 0.163977 0.836702 0.916479
O O20 0.088352 0.000000 0.853029
O O21 0.000000 0.785728 0.000000
O O22 0.240416 0.000000 0.978574
#
# Coordination Sequence:
#
# PCOD9145185 Si02
#       8
#     4   4   4   4   4   4   4   4
#     4  10  21  38  62  89 115 145 184 237 294 350
#     4   9  18  33  56  87 115 140 181 235 290 347
#     4  11  23  37  55  81 115 152 187 228 281 341
#     4  10  19  31  51  78 106 143 186 228 277 328
#     4  11  22  34  52  78 111 148 187 231 275 326
#     4  10  20  35  56  83 115 147 188 240 285 335
#     4   9  18  33  54  82 112 145 189 238 286 334
#     4  10  19  34  59  81 105 145 187 231 281 336
#
# _framework density 19.224211
#
# number of rings (size 3 to 8) (size 9 to 14) (size 15 to 20)
#    0.000    2.000    2.500    1.500    0.000    5.000 
#    0.000    4.375    0.000    3.000    0.000    0.000 
#    0.000    0.000    0.000    0.000    0.000    0.000 
#
# Total GULP energy -178156.415501 kJ/mol
# GULP energy per Si atom -5567.387984 kJ/mol
# Density = 1.918046 g / cm^3
# Si number density = 19.224211 Si / 1000 Ang^3
#
#
#
# Elastic Constant Matrix: (Units=GPa)
#
#
# Indices 1 2 3 4 5 6 
#
# 1 71.5627 17.0909 17.6908 0.0000 9.3640 0.0000
# 2 17.0909 115.4505 57.6976 0.0000 -4.0818 0.0000
# 3 17.6908 57.6976 130.2685 0.0000 14.5135 0.0000
# 4 0.0000 0.0000 0.0000 15.4197 0.0000 -5.1007
# 5 9.3640 -4.0818 14.5135 0.0000 25.0649 0.0000
# 6 0.0000 0.0000 0.0000 -5.1007 0.0000 9.6842
#
#
#
# Elastic Compliance Matrix: (Units=1/GPa)
#
#
# Indices 1 2 3 4 5 6 
#
# 1 0.015391 -0.002271 -0.000430 0.000000 -0.005871 0.000000
# 2 -0.002271 0.012074 -0.005722 0.000000 0.006128 0.000000
# 3 -0.000430 -0.005722 0.011069 0.000000 -0.007181 0.000000
# 4 0.000000 0.000000 0.000000 0.078535 0.000000 0.041365
# 5 -0.005871 0.006128 -0.007181 0.000000 0.047245 0.000000
# 6 0.000000 0.000000 0.000000 0.041365 0.000000 0.125048
#
#
# Mechanical properties :
#
#
# Convention : Reuss Voigt Hill
#
# Bulk Modulus (GPa) = 46.10938 55.80448 50.95693
# Shear Modulus (GPa) = 15.95210 25.02058 20.48634
#
# Velocity S-wave (km/s) = 2.88374 3.61156 3.26798
# Velocity P-wave (km/s) = 5.92664 6.81780 6.38778
#
# Compressibility (1/GPa) = 0.02168756
#
# Stress axis : x y z
#
# Youngs Moduli (GPa) = 64.97460 82.82061 90.33972
#
# Poissons Ratio (x) = 0.18808 0.03887
# Poissons Ratio (y) = 0.14755 0.51694
# Poissons Ratio (z) = 0.02795 0.47392
#
# Static dielectric constant tensor:
#      x y z
#    x 1.727170 0.000000 0.041490 
#    y 0.000000 1.652750 0.000000 
#    z 0.041490 0.000000 1.739780 
# 
# From -- ./inp_files/55283.got.cif
#   From: 2010.05.17/outbox.cif.g08.bks.cpg/sg10_28_cif.got.tgz:55283.got - 2010.06.03 11:33:40.
