data_PCOD9145970
_publ_section_title
;
Structure prediction by ZEFSAII (Michael W. Deem and Ramdas Pophale) SiO2 
 PCOD9145970
Probable space group: P 2/M
;
_chemical_formula_sum "Si O2"
_cell_formula_units_Z 25
_cell_length_a 7.851320
_cell_length_b 20.641779
_cell_length_c 8.584728
_cell_angle_alpha 90.000000
_cell_angle_beta 125.850613
_cell_angle_gamma 90.000000
_cell_volume 1127.702187
_symmetry_space_group_name_H-M "P 2/M"
_symmetry_group_IT_number 10
_symmetry_cell_setting 'monoclinic'
loop_
_space_group_symop_operation_xyz
x,y,z
-x,y,-z
-x,-y,-z
x,-y,z
loop_
_atom_site_type_symbol
_atom_site_label
_atom_site_fract_x
_atom_site_fract_y
_atom_site_fract_z
Si Si1 0.082238 0.326259 0.282968
Si Si2 0.360795 0.427234 0.586349
Si Si3 0.500000 0.000000 0.000000
Si Si4 0.541097 0.198643 0.838195
Si Si5 0.144976 0.184271 0.431657
Si Si6 0.133155 0.098392 0.931742
Si Si7 0.670762 0.342946 0.901179
O O1 0.183574 0.373169 0.464404
O O2 0.143965 0.251025 0.335604
O O3 0.188889 0.347565 0.178725
O O4 0.832782 0.335102 0.129611
O O5 0.500000 0.427758 0.500000
O O6 0.282776 0.500000 0.568702
O O7 0.512655 0.402438 0.805155
O O8 0.323023 0.944063 0.960859
O O9 0.370795 0.169635 0.628106
O O10 0.549163 0.275229 0.818535
O O11 0.500000 0.189851 0.000000
O O12 0.758973 0.161762 0.932669
O O13 0.000000 0.201480 0.500000
O O14 0.030070 0.125067 0.284252
O O15 0.000000 0.067508 0.000000
#
# Coordination Sequence:
#
# PCOD9145970 Si02
#       7
#     4   4   1   4   4   4   4
#     4  10  19  32  54  87 123 161 216 278 337 399
#     4   9  18  31  49  78 119 168 215 268 338 408
#     4  12  26  56  74 106 156 186 222 268 332 418
#     4  12  22  40  66 101 133 172 223 284 342 395
#     4  12  22  39  67 102 134 175 223 284 347 396
#     4  12  26  46  75 106 142 185 228 279 335 403
#     4  10  19  32  54  86 123 163 213 278 337 399
#
# _framework density 22.168973000000001
#
# number of rings (size 3 to 8) (size 9 to 14) (size 15 to 20)
#    0.000    1.120    5.600    1.200    0.000    2.560 
#    0.000    6.800    0.000    5.760    0.000    0.000 
#    0.000    0.000    0.000    0.000    0.000    0.000 
#
# Total GULP energy -139337.183928 kJ/mol
# GULP energy per Si atom -5573.487357 kJ/mol
# Density = 2.211852 g / cm^3
# Si number density = 22.168973 Si / 1000 Ang^3
#
#
#
# Elastic Constant Matrix: (Units=GPa)
#
#
# Indices 1 2 3 4 5 6 
#
# 1 89.8741 24.4978 34.8498 0.0000 5.3596 0.0000
# 2 24.4978 119.0169 42.8770 0.0000 8.8486 0.0000
# 3 34.8498 42.8770 145.4913 0.0000 33.0338 0.0000
# 4 0.0000 0.0000 0.0000 -27.2467 0.0000 -1.3310
# 5 5.3596 8.8486 33.0338 0.0000 21.2644 0.0000
# 6 0.0000 0.0000 0.0000 -1.3310 0.0000 -2.7502
#
#
#
# Elastic Compliance Matrix: (Units=1/GPa)
#
#
# Indices 1 2 3 4 5 6 
#
# 1 0.012627 -0.001670 -0.003040 0.000000 0.002235 0.000000
# 2 -0.001670 0.009626 -0.002507 0.000000 0.000310 0.000000
# 3 -0.003040 -0.002507 0.012250 0.000000 -0.017221 0.000000
# 4 0.000000 0.000000 0.000000 -0.037590 0.000000 0.018192
# 5 0.002235 0.000310 -0.017221 0.000000 0.073087 0.000000
# 6 0.000000 0.000000 0.000000 0.018192 0.000000 -0.372408
#
#
# Mechanical properties :
#
#
# Convention : Reuss Voigt Hill
#
# Bulk Modulus (GPa) = 49.82705 62.09238 55.95971
# Shear Modulus (GPa) = -17.77570 15.06402 -1.35584
#
# Velocity S-wave (km/s) = -2.83473 2.60957 -0.78289
# Velocity P-wave (km/s) = 3.43665 6.09502 4.94772
#
# Compressibility (1/GPa) = 0.02006942
#
# Stress axis : x y z
#
# Youngs Moduli (GPa) = 79.19285 103.88379 81.63018
#
# Poissons Ratio (x) = 0.17350 0.24814
# Poissons Ratio (y) = 0.13227 0.20467
# Poissons Ratio (z) = 0.24073 0.26046
#
# Static dielectric constant tensor:
#      x y z
#    x 1.897440 0.000000 -0.068240 
#    y 0.000000 1.753220 0.000000 
#    z -0.068240 0.000000 1.649220 
# 
# From -- ./inp_files/20292.got.cif
#   From: 2010.05.17/outbox.cif.g08.bks.cpg/sg10_11_cif.got.tgz:20292.got - 2010.06.03 11:33:40.
