data_PCOD9145716
_publ_section_title
;
Structure prediction by ZEFSAII (Michael W. Deem and Ramdas Pophale) SiO2 
 PCOD9145716
Probable space group: P 2/M
;
_chemical_formula_sum "Si O2"
_cell_formula_units_Z 28
_cell_length_a 22.408554
_cell_length_b 14.935850
_cell_length_c 9.360395
_cell_angle_alpha 90.000000
_cell_angle_beta 150.070563
_cell_angle_gamma 90.000000
_cell_volume 1563.076506
_symmetry_space_group_name_H-M "P 2/M"
_symmetry_group_IT_number 10
_symmetry_cell_setting 'monoclinic'
loop_
_space_group_symop_operation_xyz
x,y,z
-x,y,-z
-x,-y,-z
x,-y,z
loop_
_atom_site_type_symbol
_atom_site_label
_atom_site_fract_x
_atom_site_fract_y
_atom_site_fract_z
Si Si1 0.074274 0.103407 0.879509
Si Si2 0.824723 0.103124 0.237242
Si Si3 0.749355 0.603527 0.183890
Si Si4 0.640768 0.754055 0.769898
Si Si5 0.358511 0.602507 0.729056
Si Si6 0.983516 0.396760 0.295266
Si Si7 0.776012 0.734303 0.759154
O O1 0.124603 0.106454 0.820554
O O2 0.934717 0.128614 0.569313
O O3 0.082059 0.000000 0.943634
O O4 0.153927 0.173751 0.131709
O O5 0.793165 0.000000 0.201064
O O6 0.713093 0.168870 0.004334
O O7 0.754411 0.500000 0.148420
O O8 0.674579 0.610395 0.173479
O O9 0.887061 0.630108 0.498021
O O10 0.689492 0.662276 0.938141
O O11 0.500000 0.762246 0.500000
O O12 0.681466 0.755343 0.689275
O O13 0.325269 0.500000 0.615206
O O14 0.288884 0.678656 0.498369
O O15 0.500000 0.611934 0.000000
O O16 0.957612 0.500000 0.200953
O O17 0.000000 0.392994 0.500000
O O18 0.879033 0.330621 0.034694
#
# Coordination Sequence:
#
# PCOD9145716 Si02
#       7
#     4   4   4   4   4   4   4
#     4   8  15  28  50  77 101 128 166 212 263 318
#     4   8  15  29  48  73 105 133 160 208 268 312
#     4  10  21  36  52  73 106 140 171 215 265 309
#     4  11  21  31  49  77 103 135 180 217 253 306
#     4  10  22  39  54  72 105 147 184 213 249 306
#     4  10  19  32  52  79 107 129 164 220 271 310
#     4  11  20  32  56  78 102 136 176 219 261 311
#
# _framework density 17.91339
#
# number of rings (size 3 to 8) (size 9 to 14) (size 15 to 20)
#    0.000    2.286    1.429    3.000    2.000    1.714 
#    0.000    2.143    0.000    1.286    0.000    3.000 
#    0.000    0.000    0.000    0.000    0.000    0.000 
#
# Total GULP energy -156181.763043 kJ/mol
# GULP energy per Si atom -5577.920109 kJ/mol
# Density = 1.787262 g / cm^3
# Si number density = 17.913390 Si / 1000 Ang^3
#
#
#
# Elastic Constant Matrix: (Units=GPa)
#
#
# Indices 1 2 3 4 5 6 
#
# 1 24.7577 -5.1382 -2.8621 0.0000 17.5364 0.0000
# 2 -5.1382 79.8065 36.8411 0.0000 -0.8341 0.0000
# 3 -2.8621 36.8411 57.7769 0.0000 15.1662 0.0000
# 4 0.0000 0.0000 0.0000 13.7859 0.0000 -19.4767
# 5 17.5364 -0.8341 15.1662 0.0000 29.9520 0.0000
# 6 0.0000 0.0000 0.0000 -19.4767 0.0000 -3.6570
#
#
#
# Elastic Compliance Matrix: (Units=1/GPa)
#
#
# Indices 1 2 3 4 5 6 
#
# 1 0.087580 -0.006869 0.025637 0.000000 -0.064449 0.000000
# 2 -0.006869 0.019745 -0.016297 0.000000 0.012824 0.000000
# 3 0.025637 -0.016297 0.038092 0.000000 -0.034751 0.000000
# 4 0.000000 0.000000 0.000000 0.008510 0.000000 -0.045320
# 5 -0.064449 0.012824 -0.034751 0.000000 0.089074 0.000000
# 6 0.000000 0.000000 0.000000 -0.045320 0.000000 -0.032078
#
#
# Mechanical properties :
#
#
# Convention : Reuss Voigt Hill
#
# Bulk Modulus (GPa) = 6.65081 24.44694 15.54887
# Shear Modulus (GPa) = 19.52349 16.91620 18.21985
#
# Velocity S-wave (km/s) = 3.30492 3.07633 3.19267
# Velocity P-wave (km/s) = 4.27599 5.12790 4.72120
#
# Compressibility (1/GPa) = 0.15035773
#
# Stress axis : x y z
#
# Youngs Moduli (GPa) = 11.41807 50.64523 26.25243
#
# Poissons Ratio (x) = 0.34791 -0.67302
# Poissons Ratio (y) = 0.07844 0.42783
# Poissons Ratio (z) = -0.29272 0.82536
#
# Static dielectric constant tensor:
#      x y z
#    x 1.618900 0.000000 0.012480 
#    y 0.000000 1.633990 0.000000 
#    z 0.012480 0.000000 1.593510 
# 
# From -- ./inp_files/25413.got.cif
#   From: 2010.05.17/outbox.cif.g08.bks.cpg/sg10_13_cif.got.tgz:25413.got - 2010.06.03 11:33:40.
