data_PCOD9145952
_publ_section_title
;
Structure prediction by ZEFSAII (Michael W. Deem and Ramdas Pophale) SiO2 
 PCOD9145952
Probable space group: P 2/M
;
_chemical_formula_sum "Si O2"
_cell_formula_units_Z 32
_cell_length_a 16.850504
_cell_length_b 7.569497
_cell_length_c 25.734927
_cell_angle_alpha 90.000000
_cell_angle_beta 153.829226
_cell_angle_gamma 90.000000
_cell_volume 1447.734171
_symmetry_space_group_name_H-M "P 2/M"
_symmetry_group_IT_number 10
_symmetry_cell_setting 'monoclinic'
loop_
_space_group_symop_operation_xyz
x,y,z
-x,y,-z
-x,-y,-z
x,-y,z
loop_
_atom_site_type_symbol
_atom_site_label
_atom_site_fract_x
_atom_site_fract_y
_atom_site_fract_z
Si Si1 0.636390 0.285730 0.736569
Si Si2 0.778000 0.791422 0.524158
Si Si3 0.046699 0.798393 0.269122
Si Si4 0.680791 0.715835 0.880736
Si Si5 0.595038 0.713279 0.199225
Si Si6 0.360995 0.286561 0.962771
Si Si7 0.955102 0.707252 0.851322
Si Si8 0.998497 0.203895 0.441270
O O1 0.634268 0.500000 0.734632
O O2 0.434747 0.227060 0.605879
O O3 0.688643 0.230134 0.825607
O O4 0.783888 0.220917 0.781969
O O5 0.878387 0.717092 0.531966
O O6 0.847693 0.716517 0.620066
O O7 0.826097 0.000000 0.553652
O O8 0.064029 0.720373 0.221750
O O9 0.107600 0.000000 0.299269
O O10 0.835918 0.791036 0.159124
O O11 0.679473 0.500000 0.881495
O O12 0.495435 0.770269 0.799810
O O13 0.854675 0.778276 0.015385
O O14 0.614027 0.500000 0.210078
O O15 0.451549 0.759910 0.070626
O O16 0.790075 0.789890 0.302537
O O17 0.341379 0.500000 0.949701
O O18 0.500000 0.233734 0.000000
O O19 0.961343 0.500000 0.867784
O O20 0.000000 0.285943 0.500000
O O21 0.058172 0.000000 0.482682
#
# Coordination Sequence:
#
# PCOD9145952 Si02
#       8
#     4   4   4   4   4   4   4   4
#     4  10  21  36  61  89 108 143 193 237 286 344
#     4  10  23  41  56  77 116 156 188 233 286 332
#     4  11  23  38  57  81 113 155 196 231 277 337
#     4   9  17  34  58  86 118 144 177 230 293 348
#     4  10  19  32  54  83 112 144 178 223 281 332
#     4  10  20  35  56  83 113 146 184 230 285 334
#     4  10  20  38  61  85 116 147 183 237 292 340
#     4  10  21  37  56  79 110 151 192 229 276 331
#
# _framework density 22.103504000000001
#
# number of rings (size 3 to 8) (size 9 to 14) (size 15 to 20)
#    0.000    2.000    1.250    2.250    0.000    5.000 
#    0.000    3.125    0.000    1.500    0.000    0.000 
#    0.000    0.000    0.000    0.000    0.000    0.000 
#
# Total GULP energy -178793.352272 kJ/mol
# GULP energy per Si atom -5587.292258 kJ/mol
# Density = 2.205319 g / cm^3
# Si number density = 22.103504 Si / 1000 Ang^3
#
#
#
# Elastic Constant Matrix: (Units=GPa)
#
#
# Indices 1 2 3 4 5 6 
#
# 1 142.7899 -7.6747 46.8247 0.0000 11.0863 0.0000
# 2 -7.6747 42.3549 -8.9699 0.0000 -2.2289 0.0000
# 3 46.8247 -8.9699 99.4990 0.0000 -0.9904 0.0000
# 4 0.0000 0.0000 0.0000 19.8621 0.0000 5.4985
# 5 11.0863 -2.2289 -0.9904 0.0000 40.7921 0.0000
# 6 0.0000 0.0000 0.0000 5.4985 0.0000 5.3741
#
#
#
# Elastic Compliance Matrix: (Units=1/GPa)
#
#
# Indices 1 2 3 4 5 6 
#
# 1 0.008526 0.000576 -0.003984 0.000000 -0.002382 0.000000
# 2 0.000576 0.024185 0.001921 0.000000 0.001212 0.000000
# 3 -0.003984 0.001921 0.012113 0.000000 0.001482 0.000000
# 4 0.000000 0.000000 0.000000 0.070243 0.000000 -0.071869
# 5 -0.002382 0.001212 0.001482 0.000000 0.025264 0.000000
# 6 0.000000 0.000000 0.000000 -0.071869 0.000000 0.259611
#
#
# Mechanical properties :
#
#
# Convention : Reuss Voigt Hill
#
# Bulk Modulus (GPa) = 23.89475 38.33376 31.11425
# Shear Modulus (GPa) = 11.99425 30.16990 21.08207
#
# Velocity S-wave (km/s) = 2.33199 3.69851 3.09170
# Velocity P-wave (km/s) = 4.25262 5.96818 5.18189
#
# Compressibility (1/GPa) = 0.04185020
#
# Stress axis : x y z
#
# Youngs Moduli (GPa) = 117.29269 41.34787 82.55439
#
# Poissons Ratio (x) = -0.02381 0.32890
# Poissons Ratio (y) = -0.06753 -0.15862
# Poissons Ratio (z) = 0.46730 -0.07945
#
# Static dielectric constant tensor:
#      x y z
#    x 1.809660 0.000000 -0.022510 
#    y 0.000000 1.864870 0.000000 
#    z -0.022510 0.000000 1.765130 
# 
# From -- ./inp_files/89589.got.cif
#   From: 2010.05.17/outbox.cif.g08.bks.cpg/sg10_45_cif.got.tgz:89589.got - 2010.06.03 11:33:40.
