data_PCOD9145438
_publ_section_title
;
Structure prediction by ZEFSAII (Michael W. Deem and Ramdas Pophale) SiO2 
 PCOD9145438
Probable space group: P 2/M
;
_chemical_formula_sum "Si O2"
_cell_formula_units_Z 32
_cell_length_a 21.519991
_cell_length_b 8.977292
_cell_length_c 12.855029
_cell_angle_alpha 90.000000
_cell_angle_beta 126.673293
_cell_angle_gamma 90.000000
_cell_volume 1991.884602
_symmetry_space_group_name_H-M "P 2/M"
_symmetry_group_IT_number 10
_symmetry_cell_setting 'monoclinic'
loop_
_space_group_symop_operation_xyz
x,y,z
-x,y,-z
-x,-y,-z
x,-y,z
loop_
_atom_site_type_symbol
_atom_site_label
_atom_site_fract_x
_atom_site_fract_y
_atom_site_fract_z
Si Si1 0.499998 0.171797 0.126344
Si Si2 0.181318 0.177370 0.874499
Si Si3 0.181365 0.177368 0.487906
Si Si4 0.661119 0.323677 0.286295
Si Si5 0.338878 0.323677 0.964093
Si Si6 0.907374 0.323647 0.407545
Si Si7 0.908947 0.323053 0.786981
Si Si8 0.909128 0.323051 0.031371
O O1 0.578470 0.255743 0.236060
O O2 0.500001 0.000000 0.160400
O O3 0.500000 0.172136 0.000000
O O4 0.421523 0.255737 0.079131
O O5 0.267573 0.241185 0.946472
O O6 0.129977 0.249102 0.731106
O O7 0.144044 0.229503 0.945388
O O8 0.181442 0.000000 0.864956
O O9 0.267587 0.241188 0.588721
O O10 0.129830 0.249094 0.528252
O O11 0.144310 0.229505 0.342566
O O12 0.181474 0.000000 0.497677
O O13 0.663644 0.500000 0.308829
O O14 0.669189 0.302543 0.169170
O O15 0.336356 0.500000 0.981579
O O16 0.889249 0.500000 0.389455
O O17 0.000000 0.306185 0.500000
O O18 0.897211 0.500000 0.756610
O O19 0.999895 0.291882 0.857414
O O20 0.894657 0.294736 0.894816
O O21 0.897416 0.500000 0.038337
#
# Coordination Sequence:
#
# PCOD9145438 Si02
#       8
#     4   4   4   4   4   4   4   4
#     4   9  17  29  47  71 102 133 166 209 256 299
#     4  12  23  33  50  76 106 135 168 213 263 306
#     4  12  23  33  50  76 106 135 168 213 263 306
#     4  10  19  32  50  71 100 138 177 209 245 302
#     4  10  19  32  50  71 100 138 177 209 245 302
#     4  11  23  37  51  68  97 138 177 209 249 309
#     4   9  19  37  58  76  97 131 175 218 259 307
#     4   9  19  37  58  76  97 131 175 218 259 307
#
# _framework density 16.065187999999999
#
# number of rings (size 3 to 8) (size 9 to 14) (size 15 to 20)
#    0.000    1.750    1.250    5.250    0.000    7.500 
#    0.000    1.250    0.000    0.000    0.000    0.875 
#    0.000    7.000    0.000    0.000    0.000    0.000 
#
# Total GULP energy -178721.874032 kJ/mol
# GULP energy per Si atom -5585.058563 kJ/mol
# Density = 1.602862 g / cm^3
# Si number density = 16.065188 Si / 1000 Ang^3
#
#
#
# Elastic Constant Matrix: (Units=GPa)
#
#
# Indices 1 2 3 4 5 6 
#
# 1 96.3141 86.5735 72.6806 0.0000 24.8051 0.0000
# 2 86.5735 143.8075 76.8703 0.0000 20.6904 0.0000
# 3 72.6806 76.8703 75.8909 0.0000 18.7981 0.0000
# 4 0.0000 0.0000 0.0000 43.1280 0.0000 36.1841
# 5 24.8051 20.6904 18.7981 0.0000 17.7680 0.0000
# 6 0.0000 0.0000 0.0000 36.1841 0.0000 62.3274
#
#
#
# Elastic Compliance Matrix: (Units=1/GPa)
#
#
# Indices 1 2 3 4 5 6 
#
# 1 0.047727 -0.008784 -0.030951 0.000000 -0.023655 0.000000
# 2 -0.008784 0.016829 -0.009238 0.000000 0.002440 0.000000
# 3 -0.030951 -0.009238 0.052590 0.000000 -0.001672 0.000000
# 4 0.000000 0.000000 0.000000 0.045205 0.000000 -0.026244
# 5 -0.023655 0.002440 -0.001672 0.000000 0.088233 0.000000
# 6 0.000000 0.000000 0.000000 -0.026244 0.000000 0.031280
#
#
# Mechanical properties :
#
#
# Convention : Reuss Voigt Hill
#
# Bulk Modulus (GPa) = 52.08489 87.58457 69.83473
# Shear Modulus (GPa) = 12.94630 29.97055 21.45842
#
# Velocity S-wave (km/s) = 2.84185 4.32390 3.65870
# Velocity P-wave (km/s) = 6.57719 8.91990 7.83659
#
# Compressibility (1/GPa) = 0.01919943
#
# Stress axis : x y z
#
# Youngs Moduli (GPa) = 20.95231 59.42218 19.01506
#
# Poissons Ratio (x) = 0.52198 0.58854
# Poissons Ratio (y) = 0.18405 0.17565
# Poissons Ratio (z) = 0.64850 0.54892
#
# Static dielectric constant tensor:
#      x y z
#    x 1.521640 0.000000 0.006580 
#    y 0.000000 1.531140 0.000000 
#    z 0.006580 0.000000 1.518050 
# 
# From -- ./inp_files/55397.got.cif
#   From: 2010.05.17/outbox.cif.g08.bks.cpg/sg10_28_cif.got.tgz:55397.got - 2010.06.03 11:33:40.
