data_PCOD9145881
_publ_section_title
;
Structure prediction by ZEFSAII (Michael W. Deem and Ramdas Pophale) SiO2 
 PCOD9145881
Probable space group: P 2/M
;
_chemical_formula_sum "Si O2"
_cell_formula_units_Z 24
_cell_length_a 9.742746
_cell_length_b 9.298687
_cell_length_c 20.190507
_cell_angle_alpha 90.000000
_cell_angle_beta 50.382173
_cell_angle_gamma 90.000000
_cell_volume 1409.024420
_symmetry_space_group_name_H-M "P 2/M"
_symmetry_group_IT_number 10
_symmetry_cell_setting 'monoclinic'
loop_
_space_group_symop_operation_xyz
x,y,z
-x,y,-z
-x,-y,-z
x,-y,z
loop_
_atom_site_type_symbol
_atom_site_label
_atom_site_fract_x
_atom_site_fract_y
_atom_site_fract_z
Si Si1 0.969992 0.671629 0.362088
Si Si2 0.397923 0.669796 0.461732
Si Si3 0.406951 0.171137 0.717542
Si Si4 0.664607 0.671331 0.902240
Si Si5 0.974762 0.171765 0.220295
Si Si6 0.374864 0.330316 0.241405
O O1 0.961324 0.500000 0.349541
O O2 0.809596 0.703421 0.461325
O O3 0.943832 0.758454 0.302220
O O4 0.169920 0.700860 0.325528
O O5 0.500000 0.692973 0.500000
O O6 0.413849 0.500000 0.440711
O O7 0.486109 0.761534 0.377088
O O8 0.198556 0.204052 0.770305
O O9 0.488054 0.239187 0.758542
O O10 0.427931 0.000000 0.711340
O O11 0.699455 0.500000 0.897694
O O12 0.618038 0.698139 0.839435
O O13 0.843831 0.758336 0.862303
O O14 0.500000 0.708577 0.000000
O O15 0.992833 0.000000 0.220888
O O16 0.406549 0.500000 0.242216
#
# Coordination Sequence:
#
# PCOD9145881 Si02
#       6
#     4   4   4   4   4   4
#     4   9  18  34  54  77 102 136 183 228 264 306
#     4  10  19  32  54  78 102 138 185 228 266 305
#     4  11  23  35  49  75 112 147 178 215 259 309
#     4   9  19  38  63  86 104 128 169 218 264 316
#     4  10  20  33  52  78 107 141 176 211 258 313
#     4   9  19  35  55  77 105 137 171 215 266 315
#
# _framework density 17.033061
#
# number of rings (size 3 to 8) (size 9 to 14) (size 15 to 20)
#    0.000    2.333    1.667    2.000    0.000    6.667 
#    0.000    4.167    0.000    5.000    0.000    0.000 
#    0.000    0.000    0.000    0.000    0.000    0.000 
#
# Total GULP energy -133909.950927 kJ/mol
# GULP energy per Si atom -5579.581289 kJ/mol
# Density = 1.699429 g / cm^3
# Si number density = 17.033061 Si / 1000 Ang^3
#
#
#
# Elastic Constant Matrix: (Units=GPa)
#
#
# Indices 1 2 3 4 5 6 
#
# 1 126.4511 74.4572 62.8998 0.0000 -23.0130 0.0000
# 2 74.4572 59.8354 54.4797 0.0000 -16.0294 0.0000
# 3 62.8998 54.4797 116.0542 0.0000 -27.5263 0.0000
# 4 0.0000 0.0000 0.0000 8.5918 0.0000 -8.4311
# 5 -23.0130 -16.0294 -27.5263 0.0000 17.7178 0.0000
# 6 0.0000 0.0000 0.0000 -8.4311 0.0000 28.4232
#
#
#
# Elastic Compliance Matrix: (Units=1/GPa)
#
#
# Indices 1 2 3 4 5 6 
#
# 1 0.031291 -0.039989 0.004548 0.000000 0.011529 0.000000
# 2 -0.039989 0.081048 -0.017895 0.000000 -0.006418 0.000000
# 3 0.004548 -0.017895 0.019182 0.000000 0.019518 0.000000
# 4 0.000000 0.000000 0.000000 0.164179 0.000000 0.048700
# 5 0.011529 -0.006418 0.019518 0.000000 0.095931 0.000000
# 6 0.000000 0.000000 0.000000 0.048700 0.000000 0.049628
#
#
# Mechanical properties :
#
#
# Convention : Reuss Voigt Hill
#
# Bulk Modulus (GPa) = 40.24646 76.22377 58.23512
# Shear Modulus (GPa) = 8.98933 18.31351 13.65142
#
# Velocity S-wave (km/s) = 2.29979 3.28254 2.83409
# Velocity P-wave (km/s) = 5.54362 7.69509 6.70620
#
# Compressibility (1/GPa) = 0.02484690
#
# Stress axis : x y z
#
# Youngs Moduli (GPa) = 31.95813 12.33834 52.13288
#
# Poissons Ratio (x) = 0.49340 -0.23708
# Poissons Ratio (y) = 1.27799 0.93293
# Poissons Ratio (z) = -0.14533 0.22080
#
# Static dielectric constant tensor:
#      x y z
#    x 1.572420 0.000000 -0.016080 
#    y 0.000000 1.562200 0.000000 
#    z -0.016080 0.000000 1.564490 
# 
# From -- ./inp_files/33746.got.cif
#   From: 2010.05.17/outbox.cif.g08.bks.cpg/sg10_17_cif.got.tgz:33746.got - 2010.06.03 11:33:40.
