data_PCOD9145999
_publ_section_title
;
Structure prediction by ZEFSAII (Michael W. Deem and Ramdas Pophale) SiO2 
 PCOD9145999
Probable space group: P 2/M
;
_chemical_formula_sum "Si O2"
_cell_formula_units_Z 32
_cell_length_a 20.805218
_cell_length_b 9.668246
_cell_length_c 11.322612
_cell_angle_alpha 90.000000
_cell_angle_beta 38.328234
_cell_angle_gamma 90.000000
_cell_volume 1412.454003
_symmetry_space_group_name_H-M "P 2/M"
_symmetry_group_IT_number 10
_symmetry_cell_setting 'monoclinic'
loop_
_space_group_symop_operation_xyz
x,y,z
-x,y,-z
-x,-y,-z
x,-y,z
loop_
_atom_site_type_symbol
_atom_site_label
_atom_site_fract_x
_atom_site_fract_y
_atom_site_fract_z
Si Si1 0.733823 0.336910 0.772637
Si Si2 0.645506 0.845535 0.229796
Si Si3 0.354453 0.352618 0.350287
Si Si4 0.460943 0.834586 0.846738
Si Si5 0.143585 0.159998 0.231873
Si Si6 0.904503 0.145726 0.228104
Si Si7 0.033295 0.659093 0.196200
Si Si8 0.766356 0.286178 0.254849
O O1 0.736820 0.500000 0.803046
O O2 0.721031 0.329520 0.650900
O O3 0.827916 0.252203 0.695468
O O4 0.630751 0.257344 0.965747
O O5 0.552157 0.812620 0.275778
O O6 0.678556 0.747254 0.286714
O O7 0.631165 0.000000 0.297773
O O8 0.748433 0.847085 0.998187
O O9 0.410704 0.500000 0.247267
O O10 0.433810 0.227560 0.254036
O O11 0.287981 0.367799 0.563485
O O12 0.448985 0.000000 0.884936
O O13 0.065700 0.243058 0.258848
O O14 0.115116 0.000000 0.296833
O O15 0.809814 0.162111 0.274095
O O16 0.938302 0.271344 0.263038
O O17 0.896265 0.000000 0.306774
O O18 0.000000 0.138104 0.000000
O O19 0.012880 0.500000 0.258977
O O20 0.133420 0.660417 0.962094
#
# Coordination Sequence:
#
# PCOD9145999 Si02
#       8
#     4   4   4   4   4   4   4   4
#     4  10  20  36  57  78 104 139 179 222 269 317
#     4   8  16  32  52  75 103 135 172 219 268 309
#     4  11  24  38  52  75 110 146 177 218 269 317
#     4  10  21  37  57  79 103 136 183 231 269 311
#     4   9  17  32  55  81 107 134 173 223 266 309
#     4   9  18  32  52  78 108 142 178 218 263 312
#     4  10  19  32  55  83 110 142 177 214 260 316
#     4  10  20  34  53  77 110 145 180 215 258 318
#
# _framework density 22.655605999999999
#
# number of rings (size 3 to 8) (size 9 to 14) (size 15 to 20)
#    0.000    2.375    0.000    3.375    0.000    9.750 
#    0.000    3.750    0.000    0.750    0.000    4.375 
#    0.000    0.000    0.000    0.000    0.000    0.000 
#
# Total GULP energy -178506.533656 kJ/mol
# GULP energy per Si atom -5578.329177 kJ/mol
# Density = 2.260404 g / cm^3
# Si number density = 22.655606 Si / 1000 Ang^3
#
#
#
# Elastic Constant Matrix: (Units=GPa)
#
#
# Indices 1 2 3 4 5 6 
#
# 1 114.8872 86.3745 31.3781 0.0000 23.4748 0.0000
# 2 86.3745 183.6570 32.9553 0.0000 10.8246 0.0000
# 3 31.3781 32.9553 61.8051 0.0000 -1.4962 0.0000
# 4 0.0000 0.0000 0.0000 -7.2381 0.0000 10.9198
# 5 23.4748 10.8246 -1.4962 0.0000 34.7872 0.0000
# 6 0.0000 0.0000 0.0000 10.9198 0.0000 22.3482
#
#
#
# Elastic Compliance Matrix: (Units=1/GPa)
#
#
# Indices 1 2 3 4 5 6 
#
# 1 0.017033 -0.006462 -0.005437 0.000000 -0.009717 0.000000
# 2 -0.006462 0.008617 -0.001275 0.000000 0.001625 0.000000
# 3 -0.005437 -0.001275 0.019739 0.000000 0.004915 0.000000
# 4 0.000000 0.000000 0.000000 -0.079530 0.000000 0.038860
# 5 -0.009717 0.001625 0.004915 0.000000 0.035009 0.000000
# 6 0.000000 0.000000 0.000000 0.038860 0.000000 0.025758
#
#
# Mechanical properties :
#
#
# Convention : Reuss Voigt Hill
#
# Bulk Modulus (GPa) = 52.51769 73.52946 63.02358
# Shear Modulus (GPa) = 84.28620 23.95555 54.12088
#
# Velocity S-wave (km/s) = 6.10606 3.25526 4.89289
# Velocity P-wave (km/s) = 8.54068 6.83043 7.73298
#
# Compressibility (1/GPa) = 0.01904120
#
# Stress axis : x y z
#
# Youngs Moduli (GPa) = 58.70854 116.04709 50.66161
#
# Poissons Ratio (x) = 0.74995 0.27545
# Poissons Ratio (y) = 0.37940 0.06457
# Poissons Ratio (z) = 0.31920 0.14790
#
# Static dielectric constant tensor:
#      x y z
#    x 1.826240 0.000000 -0.013090 
#    y 0.000000 1.049560 0.000000 
#    z -0.013090 0.000000 1.882840 
# 
# From -- ./inp_files/55271.got.cif
#   From: 2010.05.17/outbox.cif.g08.bks.cpg/sg10_28_cif.got.tgz:55271.got - 2010.06.03 11:33:40.
