data_PCOD9145851
_publ_section_title
;
Structure prediction by ZEFSAII (Michael W. Deem and Ramdas Pophale) SiO2 
 PCOD9145851
Probable space group: P 2/M
;
_chemical_formula_sum "Si O2"
_cell_formula_units_Z 32
_cell_length_a 14.607768
_cell_length_b 7.497106
_cell_length_c 14.617868
_cell_angle_alpha 90.000000
_cell_angle_beta 59.853897
_cell_angle_gamma 90.000000
_cell_volume 1384.365971
_symmetry_space_group_name_H-M "P 2/M"
_symmetry_group_IT_number 10
_symmetry_cell_setting 'monoclinic'
loop_
_space_group_symop_operation_xyz
x,y,z
-x,y,-z
-x,-y,-z
x,-y,z
loop_
_atom_site_type_symbol
_atom_site_label
_atom_site_fract_x
_atom_site_fract_y
_atom_site_fract_z
Si Si1 0.321024 0.280360 0.841081
Si Si2 0.957572 0.711205 0.296682
Si Si3 0.423997 0.702542 0.612234
Si Si4 0.091849 0.282511 0.884004
Si Si5 0.272924 0.211118 0.540410
Si Si6 0.527780 0.708377 0.084597
Si Si7 0.904589 0.206516 0.609778
Si Si8 0.331440 0.216084 0.313527
O O1 0.321759 0.500000 0.838981
O O2 0.401338 0.217412 0.721387
O O3 0.204472 0.224223 0.868821
O O4 0.370248 0.219855 0.912002
O O5 0.973582 0.500000 0.282793
O O6 0.935539 0.779342 0.205042
O O7 0.850641 0.749341 0.407095
O O8 0.054173 0.786282 0.306900
O O9 0.500000 0.792293 0.500000
O O10 0.461476 0.500000 0.607370
O O11 0.313757 0.698398 0.612130
O O12 0.095284 0.500000 0.878658
O O13 0.000000 0.231090 0.000000
O O14 0.336148 0.269062 0.418252
O O15 0.285434 0.000000 0.544515
O O16 0.551998 0.500000 0.056983
O O17 0.426515 0.719110 0.202480
O O18 0.500000 0.788340 0.000000
O O19 0.785595 0.278381 0.659816
O O20 0.000000 0.286568 0.500000
O O21 0.895433 0.000000 0.584731
O O22 0.334768 0.000000 0.308714
#
# Coordination Sequence:
#
# PCOD9145851 Si02
#       8
#     4   4   4   4   4   4   4   4
#     4   9  17  33  54  79 114 150 181 223 288 344
#     4  11  21  34  56  86 113 146 194 240 283 335
#     4  10  19  32  53  81 112 149 188 230 284 342
#     4   9  18  33  55  82 113 149 186 228 284 347
#     4  11  21  35  55  80 115 153 187 231 287 345
#     4  10  22  39  61  87 114 149 194 246 291 331
#     4  10  20  38  58  79 116 161 193 228 292 357
#     4  10  22  39  59  82 113 156 195 230 287 354
#
# _framework density 23.115275
#
# number of rings (size 3 to 8) (size 9 to 14) (size 15 to 20)
#    0.000    2.000    2.500    1.500    0.000    4.250 
#    0.000    3.125    0.000    1.500    0.000    0.000 
#    0.000    0.000    0.000    0.000    0.000    0.000 
#
# Total GULP energy -178780.259572 kJ/mol
# GULP energy per Si atom -5586.883112 kJ/mol
# Density = 2.306266 g / cm^3
# Si number density = 23.115275 Si / 1000 Ang^3
#
#
#
# Elastic Constant Matrix: (Units=GPa)
#
#
# Indices 1 2 3 4 5 6 
#
# 1 134.6763 -3.2492 40.9585 0.0000 25.6440 0.0000
# 2 -3.2492 60.7865 -16.2933 0.0000 4.2111 0.0000
# 3 40.9585 -16.2933 106.6072 0.0000 22.1003 0.0000
# 4 0.0000 0.0000 0.0000 13.1815 0.0000 -7.9122
# 5 25.6440 4.2111 22.1003 0.0000 41.5044 0.0000
# 6 0.0000 0.0000 0.0000 -7.9122 0.0000 -3.8519
#
#
#
# Elastic Compliance Matrix: (Units=1/GPa)
#
#
# Indices 1 2 3 4 5 6 
#
# 1 0.009012 0.000082 -0.002578 0.000000 -0.004203 0.000000
# 2 0.000082 0.017626 0.003421 0.000000 -0.003661 0.000000
# 3 -0.002578 0.003421 0.011955 0.000000 -0.005120 0.000000
# 4 0.000000 0.000000 0.000000 0.033974 0.000000 -0.069787
# 5 -0.004203 -0.003661 -0.005120 0.000000 0.029789 0.000000
# 6 0.000000 0.000000 0.000000 -0.069787 0.000000 -0.116263
#
#
# Mechanical properties :
#
#
# Convention : Reuss Voigt Hill
#
# Bulk Modulus (GPa) = 24.72662 38.32246 31.52454
# Shear Modulus (GPa) = -2196.75145 28.87708 -1083.93719
#
# Velocity S-wave (km/s) = -30.86113 3.53833 -21.67821
# Velocity P-wave (km/s) = 35.48463 5.77130 24.75733
#
# Compressibility (1/GPa) = 0.04044225
#
# Stress axis : x y z
#
# Youngs Moduli (GPa) = 110.96663 56.73422 83.64598
#
# Poissons Ratio (x) = -0.00464 0.21568
# Poissons Ratio (y) = -0.00907 -0.28618
# Poissons Ratio (z) = 0.28612 -0.19411
#
# Static dielectric constant tensor:
#      x y z
#    x 1.911490 0.000000 0.007730 
#    y 0.000000 1.844720 0.000000 
#    z 0.007730 0.000000 1.848460 
# 
# From -- ./inp_files/66520.got.cif
#   From: 2010.05.17/outbox.cif.g08.bks.cpg/sg10_34_cif.got.tgz:66520.got - 2010.06.03 11:33:40.
