data_PCOD9145923
_publ_section_title
;
Structure prediction by ZEFSAII (Michael W. Deem and Ramdas Pophale) SiO2 
 PCOD9145923
Probable space group: P 2/M
;
_chemical_formula_sum "Si O2"
_cell_formula_units_Z 28
_cell_length_a 5.123676
_cell_length_b 22.149871
_cell_length_c 13.893820
_cell_angle_alpha 90.000000
_cell_angle_beta 103.192835
_cell_angle_gamma 90.000000
_cell_volume 1535.176866
_symmetry_space_group_name_H-M "P 2/M"
_symmetry_group_IT_number 10
_symmetry_cell_setting 'monoclinic'
loop_
_space_group_symop_operation_xyz
x,y,z
-x,y,-z
-x,-y,-z
x,-y,z
loop_
_atom_site_type_symbol
_atom_site_label
_atom_site_fract_x
_atom_site_fract_y
_atom_site_fract_z
Si Si1 0.453698 0.928557 0.884611
Si Si2 0.304914 0.569633 0.404081
Si Si3 0.796931 0.929460 0.568208
Si Si4 0.946260 0.250502 0.883854
Si Si5 0.554191 0.669276 0.114772
Si Si6 0.257409 0.430255 0.723889
Si Si7 0.890643 0.874690 0.782194
O O1 0.706930 0.913379 0.839476
O O2 0.198230 0.892977 0.824267
O O3 0.399538 0.000000 0.876326
O O4 0.500000 0.911766 0.000000
O O5 0.500000 0.598874 0.500000
O O6 0.257056 0.500000 0.432881
O O7 0.486648 0.569113 0.324527
O O8 0.008720 0.592797 0.354702
O O9 0.500000 0.926682 0.500000
O O10 0.819201 0.890294 0.666452
O O11 0.000000 0.911725 0.500000
O O12 0.855681 0.000000 0.598392
O O13 0.718826 0.302089 0.867099
O O14 0.857086 0.194250 0.812413
O O15 0.221885 0.278526 0.868825
O O16 0.000000 0.231526 0.000000
O O17 0.668802 0.613389 0.183308
O O18 0.500000 0.651591 0.000000
O O19 0.202749 0.500000 0.748332
#
# Coordination Sequence:
#
# PCOD9145923 Si02
#       7
#     4   4   4   4   4   4   4
#     4  11  22  34  52  84 120 144 169 217 278 333
#     4   9  17  30  50  78 109 138 171 213 263 322
#     4  10  21  37  57  82 110 142 184 228 270 320
#     4  10  21  37  57  79 105 144 187 224 268 330
#     4  10  21  37  55  78 110 143 180 226 272 325
#     4  10  19  32  54  81 108 141 181 225 278 336
#     4  12  22  37  60  81 108 148 189 227 271 325
#
# _framework density 18.238938999999998
#
# number of rings (size 3 to 8) (size 9 to 14) (size 15 to 20)
#    0.000    1.714    0.000    5.571    0.000    5.429 
#    0.000    0.000    0.000   13.714    0.000    0.000 
#    0.000    0.000    0.000    0.000    0.000    0.000 
#
# Total GULP energy -156321.498545 kJ/mol
# GULP energy per Si atom -5582.910662 kJ/mol
# Density = 1.819743 g / cm^3
# Si number density = 18.238939 Si / 1000 Ang^3
#
#
#
# Elastic Constant Matrix: (Units=GPa)
#
#
# Indices 1 2 3 4 5 6 
#
# 1 67.0660 -6.2560 4.2380 0.0000 -0.7527 0.0000
# 2 -6.2560 50.8972 47.7754 0.0000 2.5430 0.0000
# 3 4.2380 47.7754 98.3748 0.0000 -0.5625 0.0000
# 4 0.0000 0.0000 0.0000 29.8556 0.0000 6.4538
# 5 -0.7527 2.5430 -0.5625 0.0000 27.1452 0.0000
# 6 0.0000 0.0000 0.0000 6.4538 0.0000 13.8828
#
#
#
# Elastic Compliance Matrix: (Units=1/GPa)
#
#
# Indices 1 2 3 4 5 6 
#
# 1 0.015531 0.004669 -0.002937 0.000000 -0.000068 0.000000
# 2 0.004669 0.037896 -0.018627 0.000000 -0.003807 0.000000
# 3 -0.002937 -0.018627 0.019350 0.000000 0.002065 0.000000
# 4 0.000000 0.000000 0.000000 0.037237 0.000000 -0.017310
# 5 -0.000068 -0.003807 0.002065 0.000000 0.037236 0.000000
# 6 0.000000 0.000000 0.000000 -0.017310 0.000000 0.080079
#
#
# Mechanical properties :
#
#
# Convention : Reuss Voigt Hill
#
# Bulk Modulus (GPa) = 25.64939 34.20586 29.92762
# Shear Modulus (GPa) = 18.24059 25.54877 21.89468
#
# Velocity S-wave (km/s) = 3.16585 3.74676 3.46849
# Velocity P-wave (km/s) = 5.23994 6.12476 5.69955
#
# Compressibility (1/GPa) = 0.03898728
#
# Stress axis : x y z
#
# Youngs Moduli (GPa) = 64.38701 26.38790 51.68037
#
# Poissons Ratio (x) = -0.12321 0.15179
# Poissons Ratio (y) = -0.30065 0.96265
# Poissons Ratio (z) = 0.18911 0.49153
#
# Static dielectric constant tensor:
#      x y z
#    x 1.622050 0.000000 0.006700 
#    y 0.000000 1.610330 0.000000 
#    z 0.006700 0.000000 1.627580 
# 
# From -- ./inp_files/39762.got.cif
#   From: 2010.05.17/outbox.cif.g08.bks.cpg/sg10_20_cif.got.tgz:39762.got - 2010.06.03 11:33:40.
