data_PCOD9145850
_publ_section_title
;
Structure prediction by ZEFSAII (Michael W. Deem and Ramdas Pophale) SiO2 
 PCOD9145850
Probable space group: P 2/M
;
_chemical_formula_sum "Si O2"
_cell_formula_units_Z 32
_cell_length_a 31.030876
_cell_length_b 7.510233
_cell_length_c 12.754460
_cell_angle_alpha 90.000000
_cell_angle_beta 152.286619
_cell_angle_gamma 90.000000
_cell_volume 1382.318309
_symmetry_space_group_name_H-M "P 2/M"
_symmetry_group_IT_number 10
_symmetry_cell_setting 'monoclinic'
loop_
_space_group_symop_operation_xyz
x,y,z
-x,y,-z
-x,-y,-z
x,-y,z
loop_
_atom_site_type_symbol
_atom_site_label
_atom_site_fract_x
_atom_site_fract_y
_atom_site_fract_z
Si Si1 0.624557 0.782162 0.017233
Si Si2 0.759619 0.709883 0.910859
Si Si3 0.077243 0.202494 0.590033
Si Si4 0.221695 0.293264 0.282367
Si Si5 0.893375 0.715517 0.768362
Si Si6 0.544795 0.215169 0.486400
Si Si7 0.394290 0.784668 0.786721
Si Si8 0.819383 0.209524 0.379329
O O1 0.636066 0.726987 0.162576
O O2 0.714209 0.720554 0.145145
O O3 0.625019 0.000000 0.017568
O O4 0.526783 0.726111 0.758124
O O5 0.780782 0.500000 0.959729
O O6 0.781831 0.781855 0.842055
O O7 0.650556 0.729615 0.698401
O O8 0.826304 0.798614 0.138944
O O9 0.104956 0.286304 0.537987
O O10 0.000000 0.285699 0.500000
O O11 0.043790 0.000000 0.497473
O O12 0.194997 0.500000 0.215147
O O13 0.159589 0.216098 0.242440
O O14 0.326063 0.283343 0.550803
O O15 0.888776 0.500000 0.759575
O O16 0.848901 0.773697 0.563277
O O17 0.000000 0.769983 0.000000
O O18 0.500000 0.273102 0.500000
O O19 0.545279 0.000000 0.487197
O O20 0.390866 0.000000 0.775172
O O21 0.500000 0.729783 0.000000
O O22 0.814133 0.000000 0.342433
#
# Coordination Sequence:
#
# PCOD9145850 Si02
#       8
#     4   4   4   4   4   4   4   4
#     4   9  17  31  53  82 112 144 184 232 285 339
#     4  11  24  40  59  87 123 159 197 244 294 351
#     4  10  23  42  63  88 117 152 196 248 301 353
#     4  10  22  39  56  82 120 158 195 237 286 344
#     4  10  22  39  60  85 116 157 199 238 289 352
#     4  10  20  37  62  87 115 157 200 242 296 349
#     4  10  19  32  53  81 112 148 191 235 281 338
#     4  10  20  38  62  88 117 146 189 245 295 347
#
# _framework density 23.149516999999999
#
# number of rings (size 3 to 8) (size 9 to 14) (size 15 to 20)
#    0.000    2.000    1.250    1.875    1.750    5.500 
#    0.000    1.250    0.000    0.000    0.000    0.000 
#    0.000    0.000    0.000    0.000    0.000    0.000 
#
# Total GULP energy -178856.129471 kJ/mol
# GULP energy per Si atom -5589.254046 kJ/mol
# Density = 2.309683 g / cm^3
# Si number density = 23.149517 Si / 1000 Ang^3
#
#
#
# Elastic Constant Matrix: (Units=GPa)
#
#
# Indices 1 2 3 4 5 6 
#
# 1 153.9725 4.4447 17.9342 0.0000 11.8455 0.0000
# 2 4.4447 66.4345 -10.4419 0.0000 0.1340 0.0000
# 3 17.9342 -10.4419 65.8992 0.0000 9.7765 0.0000
# 4 0.0000 0.0000 0.0000 -19.9463 0.0000 -19.3717
# 5 11.8455 0.1340 9.7765 0.0000 45.8229 0.0000
# 6 0.0000 0.0000 0.0000 -19.3717 0.0000 0.1180
#
#
#
# Elastic Compliance Matrix: (Units=1/GPa)
#
#
# Indices 1 2 3 4 5 6 
#
# 1 0.006828 -0.000732 -0.001769 0.000000 -0.001386 0.000000
# 2 -0.000732 0.015531 0.002725 0.000000 -0.000438 0.000000
# 3 -0.001769 0.002725 0.016545 0.000000 -0.003081 0.000000
# 4 0.000000 0.000000 0.000000 -0.000313 0.000000 -0.051300
# 5 -0.001386 -0.000438 -0.003081 0.000000 0.022840 0.000000
# 6 0.000000 0.000000 0.000000 -0.051300 0.000000 0.052822
#
#
# Mechanical properties :
#
#
# Convention : Reuss Voigt Hill
#
# Bulk Modulus (GPa) = 25.41150 34.46446 29.93798
# Shear Modulus (GPa) = 39.39427 23.49019 31.44223
#
# Velocity S-wave (km/s) = 4.12968 3.18892 3.68941
# Velocity P-wave (km/s) = 5.80861 5.33657 5.57759
#
# Compressibility (1/GPa) = 0.03935226
#
# Stress axis : x y z
#
# Youngs Moduli (GPa) = 146.44672 64.38910 60.44170
#
# Poissons Ratio (x) = 0.04714 0.10691
# Poissons Ratio (y) = 0.10721 -0.16470
# Poissons Ratio (z) = 0.25903 -0.17546
#
# Static dielectric constant tensor:
#      x y z
#    x 1.868710 0.000000 -0.019780 
#    y 0.000000 1.918270 0.000000 
#    z -0.019780 0.000000 1.776030 
# 
# From -- ./inp_files/58323.got.cif
#   From: 2010.05.17/outbox.cif.g08.bks.cpg/sg10_30_cif.got.tgz:58323.got - 2010.06.03 11:33:40.
