data_PCOD9145356
_publ_section_title
;
Structure prediction by ZEFSAII (Michael W. Deem and Ramdas Pophale) SiO2 
 PCOD9145356
Probable space group: P 2/M
;
_chemical_formula_sum "Si O2"
_cell_formula_units_Z 32
_cell_length_a 21.201234
_cell_length_b 8.019607
_cell_length_c 14.636191
_cell_angle_alpha 90.000000
_cell_angle_beta 133.909351
_cell_angle_gamma 90.000000
_cell_volume 1792.828992
_symmetry_space_group_name_H-M "P 2/M"
_symmetry_group_IT_number 10
_symmetry_cell_setting 'monoclinic'
loop_
_space_group_symop_operation_xyz
x,y,z
-x,y,-z
-x,-y,-z
x,-y,z
loop_
_atom_site_type_symbol
_atom_site_label
_atom_site_fract_x
_atom_site_fract_y
_atom_site_fract_z
Si Si1 0.668929 0.202914 0.489841
Si Si2 0.664158 0.808686 0.873216
Si Si3 0.259009 0.799414 0.873094
Si Si4 0.619216 0.805775 0.159580
Si Si5 0.097447 0.695021 0.588264
Si Si6 0.208356 0.193343 0.537470
Si Si7 0.495551 0.690593 0.797286
Si Si8 0.399242 0.796200 0.383938
O O1 0.757396 0.255824 0.526151
O O2 0.586470 0.276134 0.352233
O O3 0.657087 0.247368 0.583519
O O4 0.663842 0.000000 0.476600
O O5 0.573367 0.804759 0.838854
O O6 0.641724 0.733148 0.752132
O O7 0.690638 0.000000 0.882406
O O8 0.732407 0.734736 0.014923
O O9 0.339138 0.731816 0.890816
O O10 0.168935 0.768285 0.729795
O O11 0.270356 0.000000 0.887229
O O12 0.703355 0.800540 0.312146
O O13 0.540475 0.726054 0.137248
O O14 0.597929 0.000000 0.124166
O O15 0.093380 0.500000 0.605142
O O16 0.135172 0.717442 0.523835
O O17 0.000000 0.767024 0.500000
O O18 0.182465 0.000000 0.503383
O O19 0.523731 0.500000 0.817811
O O20 0.500000 0.741452 0.500000
O O21 0.402732 0.000000 0.382161
#
# Coordination Sequence:
#
# PCOD9145356 Si02
#       8
#     4   4   4   4   4   4   4   4
#     4   9  16  29  46  65  90 121 158 195 231 268
#     4  10  19  32  47  63  87 120 159 194 229 271
#     4   9  19  33  49  68  89 117 151 189 226 267
#     4   8  15  29  44  59  84 118 154 187 224 266
#     4  10  20  33  51  74  98 121 143 174 222 281
#     4   8  15  27  46  70  94 119 149 187 225 266
#     4  11  20  27  39  62  88 120 159 196 232 262
#     4   9  15  26  48  69  85 118 162 199 233 266
#
# _framework density 17.848886
#
# number of rings (size 3 to 8) (size 9 to 14) (size 15 to 20)
#    0.000    2.750    1.250    3.000    0.000    6.500 
#    0.000    3.750    0.000    0.000    0.000    0.875 
#    0.000    7.000    0.000    0.000    0.000    0.000 
#
# Total GULP energy -178299.590927 kJ/mol
# GULP energy per Si atom -5571.862216 kJ/mol
# Density = 1.780826 g / cm^3
# Si number density = 17.848886 Si / 1000 Ang^3
#
#
#
# Elastic Constant Matrix: (Units=GPa)
#
#
# Indices 1 2 3 4 5 6 
#
# 1 109.4376 0.9296 67.4405 0.0000 -17.3867 0.0000
# 2 0.9296 22.0864 2.6467 0.0000 -2.6493 0.0000
# 3 67.4405 2.6467 88.3675 0.0000 -20.8372 0.0000
# 4 0.0000 0.0000 0.0000 5.0561 0.0000 9.3078
# 5 -17.3867 -2.6493 -20.8372 0.0000 37.0668 0.0000
# 6 0.0000 0.0000 0.0000 9.3078 0.0000 16.8748
#
#
#
# Elastic Compliance Matrix: (Units=1/GPa)
#
#
# Indices 1 2 3 4 5 6 
#
# 1 0.017290 0.000936 -0.013022 0.000000 0.000857 0.000000
# 2 0.000936 0.045755 -0.001395 0.000000 0.002925 0.000000
# 3 -0.013022 -0.001395 0.022863 0.000000 0.006645 0.000000
# 4 0.000000 0.000000 0.000000-12.830794 0.000000 7.077224
# 5 0.000857 0.002925 0.006645 0.000000 0.031325 0.000000
# 6 0.000000 0.000000 0.000000 7.077224 0.000000 -3.844403
#
#
# Mechanical properties :
#
#
# Convention : Reuss Voigt Hill
#
# Bulk Modulus (GPa) = 16.96438 40.21391 28.58914
# Shear Modulus (GPa) = -0.30282 21.72449 10.71083
#
# Velocity S-wave (km/s) = -0.41234 3.49253 2.45232
# Velocity P-wave (km/s) = 3.04932 6.23240 4.90618
#
# Compressibility (1/GPa) = 0.05894706
#
# Stress axis : x y z
#
# Youngs Moduli (GPa) = 57.83564 21.85536 43.73899
#
# Poissons Ratio (x) = -0.02045 0.56955
# Poissons Ratio (y) = -0.05411 0.06100
# Poissons Ratio (z) = 0.75312 0.03048
#
# Static dielectric constant tensor:
#      x y z
#    x 1.638740 0.000000 -0.033690 
#    y 0.000000 1.632970 0.000000 
#    z -0.033690 0.000000 1.643870 
# 
# From -- ./inp_files/66203.got.cif
#   From: 2010.05.17/outbox.cif.g08.bks.cpg/sg10_34_cif.got.tgz:66203.got - 2010.06.03 11:33:40.
