data_PCOD9145344
_publ_section_title
;
Structure prediction by ZEFSAII (Michael W. Deem and Ramdas Pophale) SiO2 
 PCOD9145344
Probable space group: P 2/M
;
_chemical_formula_sum "Si O2"
_cell_formula_units_Z 30
_cell_length_a 22.032213
_cell_length_b 20.470283
_cell_length_c 22.016260
_cell_angle_alpha 90.000000
_cell_angle_beta 166.429548
_cell_angle_gamma 90.000000
_cell_volume 2329.856128
_symmetry_space_group_name_H-M "P 2/M"
_symmetry_group_IT_number 10
_symmetry_cell_setting 'monoclinic'
loop_
_space_group_symop_operation_xyz
x,y,z
-x,y,-z
-x,-y,-z
x,-y,z
loop_
_atom_site_type_symbol
_atom_site_label
_atom_site_fract_x
_atom_site_fract_y
_atom_site_fract_z
Si Si1 0.558239 0.574807 0.983825
Si Si2 0.767050 0.000000 0.224508
Si Si3 0.662902 0.130239 0.047591
Si Si4 0.126174 0.798651 0.555567
Si Si5 0.939574 0.352696 0.513107
Si Si6 0.884756 0.920892 0.707472
Si Si7 0.424896 0.079078 0.172377
Si Si8 0.232669 0.920339 0.270353
O O1 0.623879 0.500000 0.033061
O O2 0.292494 0.599047 0.695963
O O3 0.500000 0.576989 0.000000
O O4 0.792309 0.623866 0.196749
O O5 0.000000 0.000000 0.500000
O O6 0.500000 0.000000 0.000000
O O7 0.754160 0.064459 0.170873
O O8 0.603614 0.111897 0.920672
O O9 0.398858 0.162850 0.817099
O O10 0.910037 0.176186 0.298337
O O11 0.000000 0.807339 0.500000
O O12 0.153505 0.721548 0.569862
O O13 0.000000 0.358870 0.500000
O O14 0.680598 0.900537 0.457565
O O15 0.809774 0.897876 0.701883
O O16 0.870947 0.000000 0.695923
O O17 0.174732 0.904759 0.969692
O O18 0.431556 0.000000 0.170408
O O19 0.500000 0.899322 0.500000
O O20 0.235549 0.000000 0.274866
O O21 0.000000 0.900950 0.000000
#
# Coordination Sequence:
#
# PCOD9145344 Si02
#       8
#     4   2   4   4   4   4   4   4
#     4   9  15  24  40  60  80  98 116 134 158 196
#     4  12  24  36  48  60  72  84 110 160 214 254
#     4  12  22  35  47  59  71  92 121 160 201 249
#     4  11  22  34  47  58  75  95 121 151 197 248
#     4   9  17  28  40  57  77  98 116 139 169 215
#     4   9  17  27  42  56  74  96 114 138 175 216
#     4  10  19  32  43  56  71  90 119 153 191 231
#     4   9  15  23  36  56  78  96 114 132 156 200
#
# _framework density 12.876331
#
# number of rings (size 3 to 8) (size 9 to 14) (size 15 to 20)
#    0.000    2.000    0.667    5.200    0.000    6.933 
#    0.000    0.000    0.000    0.000    0.000    0.000 
#    0.000    0.000    0.000    0.000    0.000    0.000 
#
# Total GULP energy -167197.551296 kJ/mol
# GULP energy per Si atom -5573.251710 kJ/mol
# Density = 1.284702 g / cm^3
# Si number density = 12.876331 Si / 1000 Ang^3
#
#
#
# Elastic Constant Matrix: (Units=GPa)
#
#
# Indices 1 2 3 4 5 6 
#
# 1 35.5906 8.4300 0.9688 0.0000 -4.0402 0.0000
# 2 8.4300 42.1850 18.0209 0.0000 2.7024 0.0000
# 3 0.9688 18.0209 75.8467 0.0000 0.3090 0.0000
# 4 0.0000 0.0000 0.0000 14.3728 0.0000 -2.1386
# 5 -4.0402 2.7024 0.3090 0.0000 17.3291 0.0000
# 6 0.0000 0.0000 0.0000 -2.1386 0.0000 1.1573
#
#
#
# Elastic Compliance Matrix: (Units=1/GPa)
#
#
# Indices 1 2 3 4 5 6 
#
# 1 0.030709 -0.007217 0.001289 0.000000 0.008262 0.000000
# 2 -0.007217 0.028359 -0.006622 0.000000 -0.005987 0.000000
# 3 0.001289 -0.006622 0.014737 0.000000 0.001070 0.000000
# 4 0.000000 0.000000 0.000000 0.095962 0.000000 0.177334
# 5 0.008262 -0.005987 0.001070 0.000000 0.060547 0.000000
# 6 0.000000 0.000000 0.000000 0.177334 0.000000 1.191811
#
#
# Mechanical properties :
#
#
# Convention : Reuss Voigt Hill
#
# Bulk Modulus (GPa) = 20.53094 23.16242 21.84668
# Shear Modulus (GPa) = 3.41656 14.98534 9.20095
#
# Velocity S-wave (km/s) = 1.63068 3.41514 2.67603
# Velocity P-wave (km/s) = 4.41869 5.79468 5.15282
#
# Compressibility (1/GPa) = 0.04870698
#
# Stress axis : x y z
#
# Youngs Moduli (GPa) = 32.56324 35.26172 67.85685
#
# Poissons Ratio (x) = 0.25447 -0.08745
# Poissons Ratio (y) = 0.23500 0.44931
# Poissons Ratio (z) = -0.04196 0.23349
#
# Static dielectric constant tensor:
#      x y z
#    x 1.402890 0.000000 0.002400 
#    y 0.000000 0.440870 0.000000 
#    z 0.002400 0.000000 1.432050 
# 
# From -- ./inp_files/73662.got.cif
#   From: 2010.05.17/outbox.cif.g08.bks.cpg/sg10_37_cif.got.tgz:73662.got - 2010.06.03 11:33:40.
