data_PCOD9145582
_publ_section_title
;
Structure prediction by ZEFSAII (Michael W. Deem and Ramdas Pophale) SiO2 
 PCOD9145582
Probable space group: P 2/M
;
_chemical_formula_sum "Si O2"
_cell_formula_units_Z 32
_cell_length_a 12.288598
_cell_length_b 7.460866
_cell_length_c 29.308370
_cell_angle_alpha 90.000000
_cell_angle_beta 30.927988
_cell_angle_gamma 90.000000
_cell_volume 1381.060968
_symmetry_space_group_name_H-M "P 2/M"
_symmetry_group_IT_number 10
_symmetry_cell_setting 'monoclinic'
loop_
_space_group_symop_operation_xyz
x,y,z
-x,y,-z
-x,-y,-z
x,-y,z
loop_
_atom_site_type_symbol
_atom_site_label
_atom_site_fract_x
_atom_site_fract_y
_atom_site_fract_z
Si Si1 0.708940 0.708663 0.535151
Si Si2 0.638732 0.282882 0.406696
Si Si3 0.064906 0.209023 0.207970
Si Si4 0.400137 0.780350 0.155793
Si Si5 0.393284 0.204941 0.333719
Si Si6 0.142311 0.783390 0.337059
Si Si7 0.115806 0.218374 0.004906
Si Si8 0.861075 0.219341 0.187415
O O1 0.680575 0.500000 0.554258
O O2 0.496368 0.780266 0.588390
O O3 0.748138 0.794557 0.569950
O O4 0.900679 0.728442 0.431090
O O5 0.500000 0.224504 0.500000
O O6 0.641647 0.500000 0.406393
O O7 0.877804 0.221390 0.313106
O O8 0.971437 0.284854 0.194380
O O9 0.279244 0.281538 0.153595
O O10 0.105603 0.000000 0.184301
O O11 0.256960 0.724203 0.250103
O O12 0.401373 0.000000 0.154530
O O13 0.640877 0.723419 0.077361
O O14 0.272887 0.284708 0.334035
O O15 0.619978 0.282367 0.266783
O O16 0.438207 0.000000 0.304119
O O17 0.141886 0.000000 0.337486
O O18 0.989627 0.268935 0.095856
O O19 0.117183 0.000000 0.002785
O O20 0.000000 0.278070 0.000000
O O21 0.856619 0.000000 0.191840
#
# Coordination Sequence:
#
# PCOD9145582 Si02
#       8
#     4   4   4   4   4   4   4   4
#     4  11  22  34  50  74 101 131 171 216 259 306
#     4  10  21  36  52  71  99 137 178 215 254 306
#     4  10  19  32  51  76 106 135 168 215 261 302
#     4   9  18  31  48  75 106 135 171 210 254 304
#     4  10  19  33  51  72 102 136 171 209 251 306
#     4  10  20  33  50  72 101 137 172 210 254 304
#     4   9  16  28  48  75 108 141 170 206 255 310
#     4   9  17  29  48  74 103 137 172 208 257 308
#
# _framework density 23.170591999999999
#
# number of rings (size 3 to 8) (size 9 to 14) (size 15 to 20)
#    0.000    2.250    1.250    2.250    0.000    6.250 
#    0.000    2.500    0.000    0.000    0.000    4.375 
#    0.000    6.000    0.000    0.000    0.000    0.000 
#
# Total GULP energy -178812.025771 kJ/mol
# GULP energy per Si atom -5587.875805 kJ/mol
# Density = 2.311786 g / cm^3
# Si number density = 23.170592 Si / 1000 Ang^3
#
#
#
# Elastic Constant Matrix: (Units=GPa)
#
#
# Indices 1 2 3 4 5 6 
#
# 1 94.7815 3.9477 28.6404 0.0000 -16.5209 0.0000
# 2 3.9477 70.7191 -7.7420 0.0000 -3.0151 0.0000
# 3 28.6404 -7.7420 110.3289 0.0000 -12.6754 0.0000
# 4 0.0000 0.0000 0.0000 -84.6553 0.0000 -17.8828
# 5 -16.5209 -3.0151 -12.6754 0.0000 41.8500 0.0000
# 6 0.0000 0.0000 0.0000 -17.8828 0.0000 -16.3989
#
#
#
# Elastic Compliance Matrix: (Units=1/GPa)
#
#
# Indices 1 2 3 4 5 6 
#
# 1 0.012092 -0.000811 -0.002750 0.000000 0.003882 0.000000
# 2 -0.000811 0.014381 0.001349 0.000000 0.001125 0.000000
# 3 -0.002750 0.001349 0.010111 0.000000 0.002074 0.000000
# 4 0.000000 0.000000 0.000000 -0.015348 0.000000 0.016737
# 5 0.003882 0.001125 0.002074 0.000000 0.026137 0.000000
# 6 0.000000 0.000000 0.000000 0.016737 0.000000 -0.079231
#
#
# Mechanical properties :
#
#
# Convention : Reuss Voigt Hill
#
# Bulk Modulus (GPa) = 31.09386 36.16905 33.63146
# Shear Modulus (GPa) = -299.12108 4.89140 -147.11484
#
# Velocity S-wave (km/s) = -11.37433 1.45452 -7.97683
# Velocity P-wave (km/s) = 12.61158 4.29705 8.38413
#
# Compressibility (1/GPa) = 0.03216069
#
# Stress axis : x y z
#
# Youngs Moduli (GPa) = 82.69966 69.53475 98.90658
#
# Poissons Ratio (x) = 0.05636 0.27197
# Poissons Ratio (y) = 0.06703 -0.13340
# Poissons Ratio (z) = 0.22741 -0.09379
#
# Static dielectric constant tensor:
#      x y z
#    x 1.870000 0.000000 -0.005810 
#    y 0.000000 1.912420 0.000000 
#    z -0.005810 0.000000 1.823380 
# 
# From -- ./inp_files/49952.got.cif
#   From: 2010.05.17/outbox.cif.g08.bks.cpg/sg10_25_cif.got.tgz:49952.got - 2010.06.03 11:33:40.
