data_PCOD9145652
_publ_section_title
;
Structure prediction by ZEFSAII (Michael W. Deem and Ramdas Pophale) SiO2 
 PCOD9145652
Probable space group: P 2/M
;
_chemical_formula_sum "Si O2"
_cell_formula_units_Z 32
_cell_length_a 27.699729
_cell_length_b 9.363540
_cell_length_c 22.942876
_cell_angle_alpha 90.000000
_cell_angle_beta 17.529548
_cell_angle_gamma 90.000000
_cell_volume 1792.317545
_symmetry_space_group_name_H-M "P 2/M"
_symmetry_group_IT_number 10
_symmetry_cell_setting 'monoclinic'
loop_
_space_group_symop_operation_xyz
x,y,z
-x,y,-z
-x,-y,-z
x,-y,z
loop_
_atom_site_type_symbol
_atom_site_label
_atom_site_fract_x
_atom_site_fract_y
_atom_site_fract_z
Si Si1 0.948900 0.664734 0.425228
Si Si2 0.330777 0.830230 0.665315
Si Si3 0.094548 0.830413 0.154315
Si Si4 0.025033 0.167820 0.098425
Si Si5 0.587472 0.329469 0.171779
Si Si6 0.695973 0.336819 0.924104
Si Si7 0.821084 0.164044 0.676975
Si Si8 0.274700 0.330313 0.609078
O O1 0.904524 0.500000 0.466409
O O2 0.834749 0.742734 0.602869
O O3 0.972231 0.752223 0.338971
O O4 0.126218 0.664746 0.251140
O O5 0.500000 0.794696 0.500000
O O6 0.305387 0.742767 0.635815
O O7 0.330906 0.000000 0.651775
O O8 0.187670 0.803225 0.875537
O O9 0.051149 0.808704 0.136929
O O10 0.099102 0.000000 0.161242
O O11 0.267709 0.760556 0.967573
O O12 0.883926 0.263683 0.235983
O O13 0.985898 0.000000 0.134736
O O14 0.624888 0.500000 0.132570
O O15 0.424847 0.302227 0.393508
O O16 0.581163 0.295914 0.109957
O O17 0.663865 0.500000 0.942914
O O18 0.705237 0.234000 0.858301
O O19 0.000000 0.165887 0.500000
O O20 0.781167 0.000000 0.710723
O O21 0.258913 0.500000 0.634118
#
# Coordination Sequence:
#
# PCOD9145652 Si02
#       8
#     4   4   4   4   4   4   4   4
#     4   9  16  26  41  63  95 133 167 204 256 311
#     4  10  21  39  61  82 106 138 173 209 254 307
#     4  10  19  32  52  76 100 131 174 219 259 303
#     4  10  22  38  55  77 106 139 173 210 255 307
#     4   9  19  34  50  72 103 136 170 211 260 311
#     4   8  14  25  40  59  89 128 164 201 251 307
#     4   9  15  22  35  60  93 126 164 209 252 298
#     4  11  23  37  55  80 108 138 173 213 255 301
#
# _framework density 17.853978999999999
#
# number of rings (size 3 to 8) (size 9 to 14) (size 15 to 20)
#    0.000    2.500    0.000    3.375    0.000    9.750 
#    0.000    0.000    0.000    0.000    0.000    0.875 
#    0.000    7.000    0.000    0.000    0.000    0.000 
#
# Total GULP energy -178534.043211 kJ/mol
# GULP energy per Si atom -5579.188850 kJ/mol
# Density = 1.781334 g / cm^3
# Si number density = 17.853979 Si / 1000 Ang^3
#
#
#
# Elastic Constant Matrix: (Units=GPa)
#
#
# Indices 1 2 3 4 5 6 
#
# 1 86.7087 86.0308 94.0864 0.0000 26.2720 0.0000
# 2 86.0308 117.4831 81.1839 0.0000 24.0648 0.0000
# 3 94.0864 81.1839 71.5525 0.0000 30.4986 0.0000
# 4 0.0000 0.0000 0.0000 20.7149 0.0000 18.9091
# 5 26.2720 24.0648 30.4986 0.0000 31.3959 0.0000
# 6 0.0000 0.0000 0.0000 18.9091 0.0000 11.1568
#
#
#
# Elastic Compliance Matrix: (Units=1/GPa)
#
#
# Indices 1 2 3 4 5 6 
#
# 1 -0.011130 -0.016490 0.040939 0.000000 -0.017816 0.000000
# 2 -0.016490 0.027292 -0.010662 0.000000 0.003237 0.000000
# 3 0.040939 -0.010662 -0.028399 0.000000 0.001502 0.000000
# 4 0.000000 0.000000 0.000000 -0.088235 0.000000 0.149546
# 5 -0.017816 0.003237 0.001502 0.000000 0.042819 0.000000
# 6 0.000000 0.000000 0.000000 0.149546 0.000000 -0.163828
#
#
# Mechanical properties :
#
#
# Convention : Reuss Voigt Hill
#
# Bulk Modulus (GPa) = 65.20522 88.70515 76.95518
# Shear Modulus (GPa) = -20.49663 13.61640 -3.44012
#
# Velocity S-wave (km/s) = -3.39191 2.76461 -1.38960
# Velocity P-wave (km/s) = 4.61092 7.74483 6.37350
#
# Compressibility (1/GPa) = 0.01533619
#
# Stress axis : x y z
#
# Youngs Moduli (GPa) = -89.84568 36.64076 -35.21247
#
# Poissons Ratio (x) = 0.60421 1.44156
# Poissons Ratio (y) = -1.48157 -0.37544
# Poissons Ratio (z) = 3.67819 0.39067
#
# Static dielectric constant tensor:
#      x y z
#    x 1.583180 0.000000 0.015670 
#    y 0.000000 1.597210 0.000000 
#    z 0.015670 0.000000 1.602600 
# 
# From -- ./inp_files/86843.got.cif
#   From: 2010.05.17/outbox.cif.g08.bks.cpg/sg10_44_cif.got.tgz:86843.got - 2010.06.03 11:33:40.
