data_PCOD9145697
_publ_section_title
;
Structure prediction by ZEFSAII (Michael W. Deem and Ramdas Pophale) SiO2 
 PCOD9145697
Probable space group: P 2/M
;
_chemical_formula_sum "Si O2"
_cell_formula_units_Z 28
_cell_length_a 20.383875
_cell_length_b 16.787911
_cell_length_c 10.078107
_cell_angle_alpha 90.000000
_cell_angle_beta 159.512011
_cell_angle_gamma 90.000000
_cell_volume 1207.102323
_symmetry_space_group_name_H-M "P 2/M"
_symmetry_group_IT_number 10
_symmetry_cell_setting 'monoclinic'
loop_
_space_group_symop_operation_xyz
x,y,z
-x,y,-z
-x,-y,-z
x,-y,z
loop_
_atom_site_type_symbol
_atom_site_label
_atom_site_fract_x
_atom_site_fract_y
_atom_site_fract_z
Si Si1 0.271292 0.589204 0.565531
Si Si2 0.729727 0.317865 0.688194
Si Si3 0.788002 0.139024 0.751530
Si Si4 0.234412 0.000000 0.786467
Si Si5 0.279368 0.687570 0.823440
Si Si6 0.773465 0.857901 0.419047
Si Si7 0.774330 0.000000 0.920587
Si Si8 0.271565 0.408792 0.058581
O O1 0.214393 0.500000 0.427033
O O2 0.205427 0.650218 0.330157
O O3 0.211359 0.619985 0.593913
O O4 0.500000 0.590171 0.000000
O O5 0.781962 0.226608 0.802890
O O6 0.793599 0.377590 0.922756
O O7 0.504303 0.317816 0.258108
O O8 0.703089 0.141544 0.440079
O O9 0.713564 0.075823 0.717036
O O10 0.007524 0.121031 0.151839
O O11 0.299117 0.924036 0.821784
O O12 0.290351 0.000000 0.048184
O O13 0.004389 0.000000 0.358579
O O14 0.240777 0.772461 0.681396
O O15 0.213767 0.658486 0.842869
O O16 0.500000 0.409934 0.500000
O O17 0.216622 0.500000 0.923541
#
# Coordination Sequence:
#
# PCOD9145697 Si02
#       8
#     4   4   4   2   4   4   2   4
#     4   9  16  28  49  74  99 132 174 211 241 289
#     4  10  19  32  52  78 106 135 171 213 257 303
#     4  10  20  35  55  78 105 135 169 210 257 305
#     4   9  19  35  56  79 100 132 175 210 244 304
#     4  10  19  32  52  78 106 135 171 213 257 303
#     4  10  20  35  55  78 105 135 169 210 257 305
#     4   9  19  35  56  79 100 132 175 210 244 304
#     4   9  18  32  51  76 105 138 176 217 257 299
#
# _framework density 23.196045999999999
#
# number of rings (size 3 to 8) (size 9 to 14) (size 15 to 20)
#    0.000    2.429    1.429    1.286    2.000    5.143 
#    0.000    0.714    0.000    7.714    0.000    0.000 
#    0.000    0.000    0.000    0.000    0.000    0.000 
#
# Total GULP energy -156347.006021 kJ/mol
# GULP energy per Si atom -5583.821644 kJ/mol
# Density = 2.314325 g / cm^3
# Si number density = 23.196046 Si / 1000 Ang^3
#
#
#
# Elastic Constant Matrix: (Units=GPa)
#
#
# Indices 1 2 3 4 5 6 
#
# 1 88.3218 33.0028 36.8018 0.0000 -32.3167 0.0000
# 2 33.0028 158.8413 16.7391 0.0000 -37.0388 0.0000
# 3 36.8018 16.7391 95.1826 0.0000 -10.3372 0.0000
# 4 0.0000 0.0000 0.0000 21.8341 0.0000 -12.2198
# 5 -32.3167 -37.0388 -10.3372 0.0000 42.3857 0.0000
# 6 0.0000 0.0000 0.0000 -12.2198 0.0000 27.6278
#
#
#
# Elastic Compliance Matrix: (Units=1/GPa)
#
#
# Indices 1 2 3 4 5 6 
#
# 1 0.018311 -0.000343 -0.005686 0.000000 0.012275 0.000000
# 2 -0.000343 0.007953 -0.000554 0.000000 0.006553 0.000000
# 3 -0.005686 -0.000554 0.012613 0.000000 -0.001744 0.000000
# 4 0.000000 0.000000 0.000000 0.060867 0.000000 0.026922
# 5 0.012275 0.006553 -0.001744 0.000000 0.038253 0.000000
# 6 0.000000 0.000000 0.000000 0.026922 0.000000 0.048103
#
#
# Mechanical properties :
#
#
# Convention : Reuss Voigt Hill
#
# Bulk Modulus (GPa) = 38.89609 57.27036 48.08322
# Shear Modulus (GPa) = 24.05725 35.42299 29.74012
#
# Velocity S-wave (km/s) = 3.22394 3.91207 3.58456
# Velocity P-wave (km/s) = 5.53744 6.71930 6.15679
#
# Compressibility (1/GPa) = 0.02570953
#
# Stress axis : x y z
#
# Youngs Moduli (GPa) = 54.61178 125.73235 79.28423
#
# Poissons Ratio (x) = 0.04314 0.45085
# Poissons Ratio (y) = 0.01874 0.04395
# Poissons Ratio (z) = 0.31055 0.06970
#
# Static dielectric constant tensor:
#      x y z
#    x 1.843520 0.000000 0.062550 
#    y 0.000000 1.814370 0.000000 
#    z 0.062550 0.000000 1.969800 
# 
# From -- ./inp_files/35338.got.cif
#   From: 2010.05.17/outbox.cif.g08.bks.cpg/sg10_18_cif.got.tgz:35338.got - 2010.06.03 11:33:40.
