data_PCOD9145612
_publ_section_title
;
Structure prediction by ZEFSAII (Michael W. Deem and Ramdas Pophale) SiO2 
 PCOD9145612
Probable space group: P 2/M
;
_chemical_formula_sum "Si O2"
_cell_formula_units_Z 32
_cell_length_a 28.389248
_cell_length_b 7.675991
_cell_length_c 22.092118
_cell_angle_alpha 90.000000
_cell_angle_beta 161.138917
_cell_angle_gamma 90.000000
_cell_volume 1556.314856
_symmetry_space_group_name_H-M "P 2/M"
_symmetry_group_IT_number 10
_symmetry_cell_setting 'monoclinic'
loop_
_space_group_symop_operation_xyz
x,y,z
-x,y,-z
-x,-y,-z
x,-y,z
loop_
_atom_site_type_symbol
_atom_site_label
_atom_site_fract_x
_atom_site_fract_y
_atom_site_fract_z
Si Si1 0.931389 0.706713 0.506157
Si Si2 0.919024 0.212812 0.841757
Si Si3 0.542204 0.295590 0.230842
Si Si4 0.083787 0.786690 0.921129
Si Si5 0.588565 0.210923 0.426193
Si Si6 0.848571 0.204829 0.540095
Si Si7 0.417959 0.213243 0.338460
Si Si8 0.773652 0.286293 0.192705
O O1 0.939565 0.500000 0.507607
O O2 0.862930 0.736393 0.488406
O O3 0.831515 0.770293 0.329097
O O4 0.098164 0.769463 0.698225
O O5 0.753435 0.270044 0.637033
O O6 0.002979 0.265629 0.884017
O O7 0.918137 0.000000 0.841832
O O8 0.000000 0.273045 0.000000
O O9 0.541992 0.500000 0.218180
O O10 0.541878 0.267604 0.302646
O O11 0.692725 0.232135 0.383289
O O12 0.389075 0.222664 0.019387
O O13 0.982959 0.722462 0.743437
O O14 0.085879 0.000000 0.921526
O O15 0.250578 0.730565 0.128982
O O16 0.496665 0.268701 0.372371
O O17 0.585995 0.000000 0.422677
O O18 0.870758 0.000000 0.565527
O O19 0.500000 0.269165 0.500000
O O20 0.419830 0.000000 0.342249
O O21 0.767714 0.500000 0.184071
#
# Coordination Sequence:
#
# PCOD9145612 Si02
#       8
#     4   4   4   4   4   4   4   4
#     4   9  18  38  63  84 106 138 181 225 266 315
#     4   9  15  26  47  72  99 135 175 214 257 306
#     4  11  22  37  56  79 108 146 186 221 264 321
#     4   9  17  29  44  70 107 138 168 212 262 313
#     4  10  19  32  51  79 109 136 173 224 273 314
#     4  11  22  36  53  81 117 147 177 219 271 323
#     4   9  17  29  48  77 107 135 173 220 270 323
#     4   8  18  37  61  84 107 139 183 225 261 314
#
# _framework density 20.561392000000001
#
# number of rings (size 3 to 8) (size 9 to 14) (size 15 to 20)
#    0.000    2.500    1.250    2.250    1.750    3.500 
#    0.000    5.625    0.000    0.750    0.000    0.000 
#    0.000    0.000    0.000    0.000    0.000    0.000 
#
# Total GULP energy -178535.243159 kJ/mol
# GULP energy per Si atom -5579.226349 kJ/mol
# Density = 2.051459 g / cm^3
# Si number density = 20.561392 Si / 1000 Ang^3
#
#
#
# Elastic Constant Matrix: (Units=GPa)
#
#
# Indices 1 2 3 4 5 6 
#
# 1 168.2984 -13.7558 90.4233 0.0000 6.7404 0.0000
# 2 -13.7558 26.6920 -6.7226 0.0000 -1.6149 0.0000
# 3 90.4233 -6.7226 187.7830 0.0000 6.6634 0.0000
# 4 0.0000 0.0000 0.0000 -48.6641 0.0000 -67.5530
# 5 6.7404 -1.6149 6.6634 0.0000 34.9374 0.0000
# 6 0.0000 0.0000 0.0000 -67.5530 0.0000 -45.2071
#
#
#
# Elastic Compliance Matrix: (Units=1/GPa)
#
#
# Indices 1 2 3 4 5 6 
#
# 1 0.008311 0.003268 -0.003860 0.000000 -0.000716 0.000000
# 2 0.003268 0.039168 -0.000215 0.000000 0.001221 0.000000
# 3 -0.003860 -0.000215 0.007199 0.000000 -0.000638 0.000000
# 4 0.000000 0.000000 0.000000 0.019128 0.000000 -0.028582
# 5 -0.000716 0.001221 -0.000638 0.000000 0.028939 0.000000
# 6 0.000000 0.000000 0.000000 -0.028582 0.000000 0.020590
#
#
# Mechanical properties :
#
#
# Convention : Reuss Voigt Hill
#
# Bulk Modulus (GPa) = 18.84471 58.07370 38.45920
# Shear Modulus (GPa) = 35.05400 9.06848 22.06124
#
# Velocity S-wave (km/s) = 4.13346 2.10238 3.27914
# Velocity P-wave (km/s) = 5.65381 5.84797 5.75171
#
# Compressibility (1/GPa) = 0.05306529
#
# Stress axis : x y z
#
# Youngs Moduli (GPa) = 120.31679 25.53087 138.91083
#
# Poissons Ratio (x) = -0.08343 0.53617
# Poissons Ratio (y) = -0.39318 0.02982
# Poissons Ratio (z) = 0.46440 0.00548
#
# Static dielectric constant tensor:
#      x y z
#    x 2.024080 0.000000 0.394220 
#    y 0.000000 1.775210 0.000000 
#    z 0.394220 0.000000 2.253440 
# 
# From -- ./inp_files/87019.got.cif
#   From: 2010.05.17/outbox.cif.g08.bks.cpg/sg10_44_cif.got.tgz:87019.got - 2010.06.03 11:33:40.
