data_PCOD9145426
_publ_section_title
;
Structure prediction by ZEFSAII (Michael W. Deem and Ramdas Pophale) SiO2 
 PCOD9145426
Probable space group: P 2/M
;
_chemical_formula_sum "Si O2"
_cell_formula_units_Z 25
_cell_length_a 21.911169
_cell_length_b 12.422100
_cell_length_c 13.662221
_cell_angle_alpha 90.000000
_cell_angle_beta 160.244641
_cell_angle_gamma 90.000000
_cell_volume 1256.911429
_symmetry_space_group_name_H-M "P 2/M"
_symmetry_group_IT_number 10
_symmetry_cell_setting 'monoclinic'
loop_
_space_group_symop_operation_xyz
x,y,z
-x,y,-z
-x,-y,-z
x,-y,z
loop_
_atom_site_type_symbol
_atom_site_label
_atom_site_fract_x
_atom_site_fract_y
_atom_site_fract_z
Si Si1 0.243379 0.156407 0.998721
Si Si2 0.398837 0.870551 0.945073
Si Si3 0.059395 0.879514 0.316796
Si Si4 0.919521 0.289611 0.976296
Si Si5 0.288146 0.378337 0.153008
Si Si6 0.000000 0.000000 0.500000
Si Si7 0.604345 0.124264 0.449182
O O1 0.142253 0.119148 0.944908
O O2 0.136310 0.093369 0.752239
O O3 0.234298 0.285830 0.994588
O O4 0.452488 0.127564 0.303949
O O5 0.188796 0.852975 0.604050
O O6 0.414456 0.000000 0.973654
O O7 0.500000 0.833081 0.000000
O O8 0.493732 0.834002 0.186700
O O9 0.108161 0.000000 0.355793
O O10 0.070850 0.786996 0.254665
O O11 0.830899 0.360695 0.928080
O O12 0.766717 0.204083 0.714086
O O13 0.000000 0.342566 0.000000
O O14 0.500000 0.363937 0.500000
O O15 0.263952 0.500000 0.080738
O O16 0.663694 0.000000 0.525478
#
# Coordination Sequence:
#
# PCOD9145426 Si02
#       7
#     4   4   4   4   4   1   4
#     4  11  21  34  59  92 120 159 203 250 318 366
#     4   9  18  30  45  67 105 160 202 231 281 355
#     4  10  19  32  49  76 121 160 198 241 303 366
#     4  11  23  36  56  88 119 158 207 263 313 365
#     4  10  22  44  66  86 118 161 215 268 312 362
#     4  12  20  36  60  96 138 156 196 256 306 392
#     4  11  20  32  52  82 125 162 207 246 304 383
#
# _framework density 19.890025999999999
#
# number of rings (size 3 to 8) (size 9 to 14) (size 15 to 20)
#    0.000    1.600    3.200    2.400    2.240    2.880 
#    0.000    3.200    0.000    0.000    0.000    0.000 
#    0.000    9.920    0.000    0.000    0.000    0.000 
#
# Total GULP energy -139183.082283 kJ/mol
# GULP energy per Si atom -5567.323291 kJ/mol
# Density = 1.984476 g / cm^3
# Si number density = 19.890026 Si / 1000 Ang^3
#
#
#
# Elastic Constant Matrix: (Units=GPa)
#
#
# Indices 1 2 3 4 5 6 
#
# 1 66.8637 6.3743 16.1930 0.0000 2.4910 0.0000
# 2 6.3743 121.4054 28.2978 0.0000 -13.7372 0.0000
# 3 16.1930 28.2978 67.6137 0.0000 -1.8233 0.0000
# 4 0.0000 0.0000 0.0000 6.2639 0.0000 3.3041
# 5 2.4910 -13.7372 -1.8233 0.0000 29.6573 0.0000
# 6 0.0000 0.0000 0.0000 3.3041 0.0000 4.0807
#
#
#
# Elastic Compliance Matrix: (Units=1/GPa)
#
#
# Indices 1 2 3 4 5 6 
#
# 1 0.015952 -0.000135 -0.003808 0.000000 -0.001637 0.000000
# 2 -0.000135 0.009628 -0.003883 0.000000 0.004232 0.000000
# 3 -0.003808 -0.003883 0.017316 0.000000 -0.000414 0.000000
# 4 0.000000 0.000000 0.000000 0.278653 0.000000 -0.225622
# 5 -0.001637 0.004232 -0.000414 0.000000 0.035791 0.000000
# 6 0.000000 0.000000 0.000000 -0.225622 0.000000 0.427742
#
#
# Mechanical properties :
#
#
# Convention : Reuss Voigt Hill
#
# Bulk Modulus (GPa) = 36.70608 39.73479 38.22043
# Shear Modulus (GPa) = 6.17425 21.66822 13.92123
#
# Velocity S-wave (km/s) = 1.76378 3.30419 2.64845
# Velocity P-wave (km/s) = 4.75841 5.88026 5.34883
#
# Compressibility (1/GPa) = 0.02724345
#
# Stress axis : x y z
#
# Youngs Moduli (GPa) = 62.68865 103.86456 57.75062
#
# Poissons Ratio (x) = 0.01404 0.21991
# Poissons Ratio (y) = 0.00847 0.22425
# Poissons Ratio (z) = 0.23871 0.40331
#
# Static dielectric constant tensor:
#      x y z
#    x 1.809370 0.000000 0.027870 
#    y 0.000000 1.653610 0.000000 
#    z 0.027870 0.000000 1.739910 
# 
# From -- ./inp_files/71856.got.cif
#   From: 2010.05.17/outbox.cif.g08.bks.cpg/sg10_36_cif.got.tgz:71856.got - 2010.06.03 11:33:40.
