data_PCOD9145646
_publ_section_title
;
Structure prediction by ZEFSAII (Michael W. Deem and Ramdas Pophale) SiO2 
 PCOD9145646
Probable space group: P 2/M
;
_chemical_formula_sum "Si O2"
_cell_formula_units_Z 28
_cell_length_a 17.297393
_cell_length_b 7.446741
_cell_length_c 22.481061
_cell_angle_alpha 90.000000
_cell_angle_beta 154.626855
_cell_angle_gamma 90.000000
_cell_volume 1240.870260
_symmetry_space_group_name_H-M "P 2/M"
_symmetry_group_IT_number 10
_symmetry_cell_setting 'monoclinic'
loop_
_space_group_symop_operation_xyz
x,y,z
-x,y,-z
-x,-y,-z
x,-y,z
loop_
_atom_site_type_symbol
_atom_site_label
_atom_site_fract_x
_atom_site_fract_y
_atom_site_fract_z
Si Si1 0.287526 0.718104 0.209511
Si Si2 0.260572 0.291900 0.626388
Si Si3 0.687531 0.279481 0.469913
Si Si4 0.965345 0.280561 0.071777
Si Si5 0.829982 0.710198 0.313566
Si Si6 0.330029 0.800764 0.914958
Si Si7 0.017680 0.290993 0.782009
O O1 0.286942 0.500000 0.208714
O O2 0.494074 0.771498 0.362441
O O3 0.146633 0.772659 0.162481
O O4 0.202074 0.774839 0.086627
O O5 0.323210 0.500000 0.671929
O O6 0.318666 0.216535 0.603294
O O7 0.285841 0.218185 0.710845
O O8 0.043572 0.289075 0.472178
O O9 0.700055 0.500000 0.475281
O O10 0.859224 0.218389 0.628403
O O11 0.959834 0.500000 0.068971
O O12 0.968347 0.215596 0.141655
O O13 0.783209 0.500000 0.273886
O O14 0.802380 0.808756 0.233143
O O15 0.212003 0.718841 0.885129
O O16 0.386593 0.000000 0.973232
O O17 0.500000 0.710992 0.000000
O O18 0.971076 0.500000 0.756766
#
# Coordination Sequence:
#
# PCOD9145646 Si02
#       7
#     4   4   4   4   4   4   4
#     4   8  14  25  41  68 108 137 151 190 251 295
#     4   8  14  25  45  72  98 122 153 199 248 285
#     4   9  15  24  43  71 101 129 159 199 245 287
#     4   8  15  27  43  69 104 135 161 191 238 298
#     4   9  16  30  51  71  93 123 162 203 241 287
#     4  11  24  38  49  66  97 133 166 204 253 301
#     4  10  19  32  52  75  96 124 168 210 242 292
#
# _framework density 22.564807999999999
#
# number of rings (size 3 to 8) (size 9 to 14) (size 15 to 20)
#    0.000    3.000    1.429    2.143    0.000    2.857 
#    0.000    7.143    0.000    0.000    0.000    4.000 
#    0.000    0.000    0.000    0.000    0.000    0.000 
#
# Total GULP energy -155943.462163 kJ/mol
# GULP energy per Si atom -5569.409363 kJ/mol
# Density = 2.251345 g / cm^3
# Si number density = 22.564808 Si / 1000 Ang^3
#
#
#
# Elastic Constant Matrix: (Units=GPa)
#
#
# Indices 1 2 3 4 5 6 
#
# 1 164.0117 3.3373 54.6408 0.0000 -13.5937 0.0000
# 2 3.3373 60.8475 3.9054 0.0000 -4.3654 0.0000
# 3 54.6408 3.9054 62.4602 0.0000 18.4452 0.0000
# 4 0.0000 0.0000 0.0000 163.6977 0.0000 -71.0898
# 5 -13.5937 -4.3654 18.4452 0.0000 27.5651 0.0000
# 6 0.0000 0.0000 0.0000 -71.0898 0.0000 18.1387
#
#
#
# Elastic Compliance Matrix: (Units=1/GPa)
#
#
# Indices 1 2 3 4 5 6 
#
# 1 0.013280 0.001681 -0.017118 0.000000 0.018270 0.000000
# 2 0.001681 0.017097 -0.004467 0.000000 0.006525 0.000000
# 3 -0.017118 -0.004467 0.042331 0.000000 -0.037475 0.000000
# 4 0.000000 0.000000 0.000000 -0.008702 0.000000 -0.034104
# 5 0.018270 0.006525 -0.037475 0.000000 0.071397 0.000000
# 6 0.000000 0.000000 0.000000 -0.034104 0.000000 -0.078531
#
#
# Mechanical properties :
#
#
# Convention : Reuss Voigt Hill
#
# Bulk Modulus (GPa) = 30.39392 45.67628 38.03510
# Shear Modulus (GPa) = 46.44855 56.90936 51.67895
#
# Velocity S-wave (km/s) = 4.54194 5.02744 4.79084
# Velocity P-wave (km/s) = 6.40347 7.34754 6.89169
#
# Compressibility (1/GPa) = 0.03290132
#
# Stress axis : x y z
#
# Youngs Moduli (GPa) = 75.30137 58.48923 23.62336
#
# Poissons Ratio (x) = -0.09832 0.40438
# Poissons Ratio (y) = -0.12658 0.10552
# Poissons Ratio (z) = 1.28899 0.26125
#
# Static dielectric constant tensor:
#      x y z
#    x 1.855400 0.000000 -0.035920 
#    y 0.000000 1.915830 0.000000 
#    z -0.035920 0.000000 1.905240 
# 
# From -- ./inp_files/84953.got.cif
#   From: 2010.05.17/outbox.cif.g08.bks.cpg/sg10_43_cif.got.tgz:84953.got - 2010.06.03 11:33:40.
