data_PCOD9145079
_publ_section_title
;
Structure prediction by ZEFSAII (Michael W. Deem and Ramdas Pophale) SiO2 
 PCOD9145079
Probable space group: P 2/M
;
_chemical_formula_sum "Si O2"
_cell_formula_units_Z 28
_cell_length_a 28.814342
_cell_length_b 7.335601
_cell_length_c 8.430072
_cell_angle_alpha 90.000000
_cell_angle_beta 137.004958
_cell_angle_gamma 90.000000
_cell_volume 1215.118737
_symmetry_space_group_name_H-M "P 2/M"
_symmetry_group_IT_number 10
_symmetry_cell_setting 'monoclinic'
loop_
_space_group_symop_operation_xyz
x,y,z
-x,y,-z
-x,-y,-z
x,-y,z
loop_
_atom_site_type_symbol
_atom_site_label
_atom_site_fract_x
_atom_site_fract_y
_atom_site_fract_z
Si Si1 0.072457 0.277857 0.248574
Si Si2 0.645372 0.211696 0.689604
Si Si3 0.072457 0.722143 0.613710
Si Si4 0.420366 0.778535 0.800916
Si Si5 0.215224 0.720295 0.110001
Si Si6 0.215224 0.279705 0.466120
Si Si7 0.645372 0.211696 0.037253
O O1 0.071790 0.500000 0.240456
O O2 0.079052 0.225007 0.447629
O O3 0.139429 0.219163 0.321784
O O4 0.000000 0.216729 0.000000
O O5 0.613020 0.289010 0.446914
O O6 0.726448 0.219868 0.864274
O O7 0.624479 0.000000 0.642226
O O8 0.628586 0.289920 0.821464
O O9 0.071790 0.500000 0.618495
O O10 0.000000 0.783271 0.500000
O O11 0.139429 0.780837 0.875362
O O12 0.386981 0.710990 0.881817
O O13 0.412391 0.000000 0.780978
O O14 0.500000 0.736957 0.000000
O O15 0.215102 0.500000 0.108050
O O16 0.232856 0.780871 0.332139
O O17 0.215102 0.500000 0.467459
O O18 0.273553 0.219868 0.732037
O O19 0.624479 0.000000 0.980169
#
# Coordination Sequence:
#
# PCOD9145079 Si02
#       7
#     4   4   4   4   4   4   4
#     4   9  16  26  41  64  95 129 167 212 257 299
#     4  10  20  34  54  79 105 135 170 208 255 307
#     4   9  16  26  41  64  95 129 167 212 257 299
#     4   9  18  34  55  79 107 135 167 211 257 303
#     4  10  19  31  50  75 102 135 173 213 257 304
#     4  10  19  31  50  75 102 135 173 213 257 304
#     4  10  20  34  54  79 105 135 170 208 255 307
#
# _framework density 23.043016000000001
#
# number of rings (size 3 to 8) (size 9 to 14) (size 15 to 20)
#    0.000    2.429    1.429    1.714    0.000    5.714 
#    0.000    2.857    0.000    2.571    0.000    2.000 
#    0.000    0.000    0.000    0.000    0.000    0.000 
#
# Total GULP energy -156452.730183 kJ/mol
# GULP energy per Si atom -5587.597507 kJ/mol
# Density = 2.299057 g / cm^3
# Si number density = 23.043016 Si / 1000 Ang^3
#
#
#
# Elastic Constant Matrix: (Units=GPa)
#
#
# Indices 1 2 3 4 5 6 
#
# 1 149.8930 3.8152 85.5772 0.0000 -26.3818 0.0000
# 2 3.8152 90.4693 1.4570 0.0000 -7.7683 0.0000
# 3 85.5772 1.4570 135.4844 0.0000 -21.0819 0.0000
# 4 0.0000 0.0000 0.0000 1.2467 0.0000 3.9676
# 5 -26.3818 -7.7683 -21.0819 0.0000 45.6143 0.0000
# 6 0.0000 0.0000 0.0000 3.9676 0.0000 0.0424
#
#
#
# Elastic Compliance Matrix: (Units=1/GPa)
#
#
# Indices 1 2 3 4 5 6 
#
# 1 0.010893 -0.000069 -0.006358 0.000000 0.003350 0.000000
# 2 -0.000069 0.011223 0.000231 0.000000 0.001978 0.000000
# 3 -0.006358 0.000231 0.011668 0.000000 0.001754 0.000000
# 4 0.000000 0.000000 0.000000 -0.002706 0.000000 0.252893
# 5 0.003350 0.001978 0.001754 0.000000 0.025008 0.000000
# 6 0.000000 0.000000 0.000000 0.252893 0.000000 -0.079466
#
#
# Mechanical properties :
#
#
# Convention : Reuss Voigt Hill
#
# Bulk Modulus (GPa) = 46.75242 61.94949 54.35095
# Shear Modulus (GPa) = -1296.19622 28.38050 -633.90786
#
# Velocity S-wave (km/s) = -23.74306 3.51327 -16.60406
# Velocity P-wave (km/s) = 27.04275 6.58787 18.54603
#
# Compressibility (1/GPa) = 0.02138927
#
# Stress axis : x y z
#
# Youngs Moduli (GPa) = 91.80295 89.10661 85.70703
#
# Poissons Ratio (x) = 0.00618 0.54496
# Poissons Ratio (y) = 0.00637 -0.01979
# Poissons Ratio (z) = 0.58372 -0.02057
#
# Static dielectric constant tensor:
#      x y z
#    x 1.830480 0.000000 -0.017800 
#    y 0.000000 1.922340 0.000000 
#    z -0.017800 0.000000 1.825080 
# 
# From -- ./inp_files/38024.got.cif
#   From: 2010.05.17/outbox.cif.g08.bks.cpg/sg10_20_cif.got.tgz:38024.got - 2010.06.03 11:33:40.
