data_PCOD9145936
_publ_section_title
;
Structure prediction by ZEFSAII (Michael W. Deem and Ramdas Pophale) SiO2 
 PCOD9145936
Probable space group: P 2/M
;
_chemical_formula_sum "Si O2"
_cell_formula_units_Z 32
_cell_length_a 14.707025
_cell_length_b 7.384233
_cell_length_c 23.380911
_cell_angle_alpha 90.000000
_cell_angle_beta 147.136037
_cell_angle_gamma 90.000000
_cell_volume 1377.870680
_symmetry_space_group_name_H-M "P 2/M"
_symmetry_group_IT_number 10
_symmetry_cell_setting 'monoclinic'
loop_
_space_group_symop_operation_xyz
x,y,z
-x,y,-z
-x,-y,-z
x,-y,z
loop_
_atom_site_type_symbol
_atom_site_label
_atom_site_fract_x
_atom_site_fract_y
_atom_site_fract_z
Si Si1 0.948524 0.720483 0.266260
Si Si2 0.816478 0.793511 0.404998
Si Si3 0.417829 0.718544 0.897347
Si Si4 0.577292 0.279540 0.601473
Si Si5 0.038291 0.280612 0.186918
Si Si6 0.266128 0.719895 0.510162
Si Si7 0.515224 0.787549 0.824434
Si Si8 0.130657 0.789053 0.023056
O O1 0.948939 0.500000 0.266325
O O2 0.776215 0.778520 0.205144
O O3 0.957652 0.776790 0.204697
O O4 0.114959 0.775841 0.388209
O O5 0.763295 0.793247 0.442649
O O6 0.662686 0.708264 0.289265
O O7 0.000000 0.707087 0.500000
O O8 0.837002 0.000000 0.393804
O O9 0.418997 0.500000 0.898236
O O10 0.519165 0.774821 0.894947
O O11 0.500000 0.779539 0.000000
O O12 0.500000 0.222579 0.500000
O O13 0.580907 0.500000 0.602497
O O14 0.767655 0.221027 0.710574
O O15 0.445261 0.224514 0.579770
O O16 0.035081 0.500000 0.184620
O O17 0.946716 0.219538 0.081272
O O18 0.263125 0.500000 0.511091
O O19 0.681898 0.710457 0.883142
O O20 0.509840 0.000000 0.806301
O O21 0.151192 0.000000 0.049746
O O22 0.000000 0.709988 0.000000
#
# Coordination Sequence:
#
# PCOD9145936 Si02
#       8
#     4   4   4   4   4   4   4   4
#     4   9  17  31  53  81 112 143 171 211 269 327
#     4  10  22  39  57  79 109 144 182 226 272 317
#     4  10  20  34  55  83 111 137 173 222 272 316
#     4   9  16  30  53  83 115 144 173 215 270 326
#     4  10  19  34  58  83 110 142 180 224 268 315
#     4  10  19  32  54  82 109 141 181 216 262 325
#     4  10  22  40  58  77 106 146 185 220 268 326
#     4  10  23  41  57  75 105 146 186 224 270 323
#
# _framework density 23.224242
#
# number of rings (size 3 to 8) (size 9 to 14) (size 15 to 20)
#    0.000    2.250    1.250    1.500    1.750    2.750 
#    0.000    1.250    0.000    0.750    0.000    0.000 
#    0.000    0.000    0.000    0.000    0.000    0.000 
#
# Total GULP energy -178888.608175 kJ/mol
# GULP energy per Si atom -5590.269005 kJ/mol
# Density = 2.317138 g / cm^3
# Si number density = 23.224242 Si / 1000 Ang^3
#
#
#
# Elastic Constant Matrix: (Units=GPa)
#
#
# Indices 1 2 3 4 5 6 
#
# 1 137.0064 -4.2236 41.1574 0.0000 20.3070 0.0000
# 2 -4.2236 83.5781 2.1928 0.0000 8.5794 0.0000
# 3 41.1574 2.1928 111.9462 0.0000 20.4580 0.0000
# 4 0.0000 0.0000 0.0000 0.9869 0.0000 -12.0430
# 5 20.3070 8.5794 20.4580 0.0000 48.2889 0.0000
# 6 0.0000 0.0000 0.0000 -12.0430 0.0000 13.1920
#
#
#
# Elastic Compliance Matrix: (Units=1/GPa)
#
#
# Indices 1 2 3 4 5 6 
#
# 1 0.008508 0.000765 -0.002671 0.000000 -0.002582 0.000000
# 2 0.000765 0.012259 -0.000070 0.000000 -0.002470 0.000000
# 3 -0.002671 -0.000070 0.010523 0.000000 -0.003323 0.000000
# 4 0.000000 0.000000 0.000000 -0.099927 0.000000 -0.091225
# 5 -0.002582 -0.002470 -0.003323 0.000000 0.023641 0.000000
# 6 0.000000 0.000000 0.000000 -0.091225 0.000000 -0.007476
#
#
# Mechanical properties :
#
#
# Convention : Reuss Voigt Hill
#
# Bulk Modulus (GPa) = 36.57893 45.64265 41.11079
# Shear Modulus (GPa) = -126.87872 32.05382 -47.41245
#
# Velocity S-wave (km/s) = -7.39937 3.71912 -4.52321
# Velocity P-wave (km/s) = 7.56415 6.17561 3.08854
#
# Compressibility (1/GPa) = 0.02733814
#
# Stress axis : x y z
#
# Youngs Moduli (GPa) = 117.54195 81.57330 95.02591
#
# Poissons Ratio (x) = -0.06241 0.25381
# Poissons Ratio (y) = -0.08993 0.00665
# Poissons Ratio (z) = 0.31395 0.00571
#
# Static dielectric constant tensor:
#      x y z
#    x 1.833170 0.000000 0.037550 
#    y 0.000000 1.920870 0.000000 
#    z 0.037550 0.000000 1.857820 
# 
# From -- ./inp_files/71566.got.cif
#   From: 2010.05.17/outbox.cif.g08.bks.cpg/sg10_36_cif.got.tgz:71566.got - 2010.06.03 11:33:40.
