data_PCOD9145194
_publ_section_title
;
Structure prediction by ZEFSAII (Michael W. Deem and Ramdas Pophale) SiO2 
 PCOD9145194
Probable space group: P 2/M
;
_chemical_formula_sum "Si O2"
_cell_formula_units_Z 26
_cell_length_a 22.638360
_cell_length_b 13.982850
_cell_length_c 26.043931
_cell_angle_alpha 90.000000
_cell_angle_beta 170.551402
_cell_angle_gamma 90.000000
_cell_volume 1353.386086
_symmetry_space_group_name_H-M "P 2/M"
_symmetry_group_IT_number 10
_symmetry_cell_setting 'monoclinic'
loop_
_space_group_symop_operation_xyz
x,y,z
-x,y,-z
-x,-y,-z
x,-y,z
loop_
_atom_site_type_symbol
_atom_site_label
_atom_site_fract_x
_atom_site_fract_y
_atom_site_fract_z
Si Si1 0.658292 0.107034 0.744653
Si Si2 0.193745 0.609270 0.781816
Si Si3 0.429403 0.500000 0.378330
Si Si4 0.303420 0.272443 0.716128
Si Si5 0.230011 0.884652 0.932019
Si Si6 0.430560 0.294007 0.379809
Si Si7 0.417838 0.885615 0.206962
O O1 0.439650 0.196784 0.535507
O O2 0.764360 0.133039 0.893854
O O3 0.485044 0.000000 0.596574
O O4 0.000000 0.098759 0.000000
O O5 0.085188 0.500000 0.699735
O O6 0.878473 0.673063 0.487517
O O7 0.500000 0.605207 0.000000
O O8 0.383505 0.661059 0.992031
O O9 0.500000 0.500000 0.500000
O O10 0.573519 0.397092 0.482960
O O11 0.000000 0.500000 0.000000
O O12 0.470066 0.171665 0.842669
O O13 0.000000 0.260880 0.500000
O O14 0.272039 0.852496 0.027347
O O15 0.268189 0.000000 0.961087
O O16 0.834669 0.857826 0.572615
O O17 0.500000 0.287717 0.500000
O O18 0.000000 0.296250 0.000000
O O19 0.410602 0.000000 0.196759
#
# Coordination Sequence:
#
# PCOD9145194 Si02
#       7
#     4   4   2   4   4   4   4
#     4   9  18  32  51  77 105 129 163 213 263 309
#     4   9  17  30  49  77 109 135 167 215 263 309
#     4   8  14  26  42  62  88 116 150 186 225 282
#     4  10  19  31  51  79 106 135 177 217 256 300
#     4  10  20  35  52  72 103 140 179 211 248 307
#     4   9  17  28  44  68  95 120 151 193 242 290
#     4   9  19  34  50  69  98 139 174 204 251 312
#
# _framework density 19.211072999999999
#
# number of rings (size 3 to 8) (size 9 to 14) (size 15 to 20)
#    0.000    2.769    0.000    1.385    0.000    4.923 
#    0.000    4.615    0.000    5.538   12.000    0.000 
#    0.000    0.000    0.000    0.000    0.000    0.000 
#
# Total GULP energy -144825.969665 kJ/mol
# GULP energy per Si atom -5570.229603 kJ/mol
# Density = 1.916735 g / cm^3
# Si number density = 19.211073 Si / 1000 Ang^3
#
#
#
# Elastic Constant Matrix: (Units=GPa)
#
#
# Indices 1 2 3 4 5 6 
#
# 1 46.1838 21.3584 35.5854 0.0000 -5.9073 0.0000
# 2 21.3584 131.3904 23.1259 0.0000 -0.1574 0.0000
# 3 35.5854 23.1259 94.1142 0.0000 -22.0459 0.0000
# 4 0.0000 0.0000 0.0000 9.0447 0.0000 -4.1154
# 5 -5.9073 -0.1574 -22.0459 0.0000 31.1678 0.0000
# 6 0.0000 0.0000 0.0000 -4.1154 0.0000 3.8227
#
#
#
# Elastic Compliance Matrix: (Units=1/GPa)
#
#
# Indices 1 2 3 4 5 6 
#
# 1 0.031926 -0.003105 -0.011860 0.000000 -0.002353 0.000000
# 2 -0.003105 0.008325 -0.001198 0.000000 -0.001394 0.000000
# 3 -0.011860 -0.001198 0.017830 0.000000 0.010358 0.000000
# 4 0.000000 0.000000 0.000000 0.216725 0.000000 0.233319
# 5 -0.002353 -0.001394 0.010358 0.000000 0.038958 0.000000
# 6 0.000000 0.000000 0.000000 0.233319 0.000000 0.512778
#
#
# Mechanical properties :
#
#
# Convention : Reuss Voigt Hill
#
# Bulk Modulus (GPa) = 38.82708 47.98089 43.40398
# Shear Modulus (GPa) = 5.76400 21.58161 13.67281
#
# Velocity S-wave (km/s) = 1.73403 3.35534 2.67069
# Velocity P-wave (km/s) = 4.92583 6.32779 5.67031
#
# Compressibility (1/GPa) = 0.02575522
#
# Stress axis : x y z
#
# Youngs Moduli (GPa) = 31.32277 120.12205 56.08420
#
# Poissons Ratio (x) = 0.37300 0.66514
# Poissons Ratio (y) = 0.09726 0.06719
# Poissons Ratio (z) = 0.37148 0.14391
#
# Static dielectric constant tensor:
#      x y z
#    x 1.681140 0.000000 0.000810 
#    y 0.000000 1.717940 0.000000 
#    z 0.000810 0.000000 1.705030 
# 
# From -- ./inp_files/90471.got.cif
#   From: 2010.05.17/outbox.cif.g08.bks.cpg/sg10_46_cif.got.tgz:90471.got - 2010.06.03 11:33:40.
