data_PCOD9145412
_publ_section_title
;
Structure prediction by ZEFSAII (Michael W. Deem and Ramdas Pophale) SiO2 
 PCOD9145412
Probable space group: P 2/M
;
_chemical_formula_sum "Si O2"
_cell_formula_units_Z 28
_cell_length_a 9.932574
_cell_length_b 7.795970
_cell_length_c 32.832860
_cell_angle_alpha 90.000000
_cell_angle_beta 34.250325
_cell_angle_gamma 90.000000
_cell_volume 1430.876637
_symmetry_space_group_name_H-M "P 2/M"
_symmetry_group_IT_number 10
_symmetry_cell_setting 'monoclinic'
loop_
_space_group_symop_operation_xyz
x,y,z
-x,y,-z
-x,-y,-z
x,-y,z
loop_
_atom_site_type_symbol
_atom_site_label
_atom_site_fract_x
_atom_site_fract_y
_atom_site_fract_z
Si Si1 0.542337 0.293360 0.054736
Si Si2 0.881434 0.709616 0.900491
Si Si3 0.666506 0.200033 0.423287
Si Si4 0.384380 0.295241 0.741118
Si Si5 0.228849 0.207469 0.691134
Si Si6 0.307867 0.202408 0.193585
Si Si7 0.801084 0.699102 0.691856
O O1 0.541899 0.500000 0.055102
O O2 0.312091 0.237710 0.085389
O O3 0.505527 0.234515 0.109941
O O4 0.773641 0.237309 0.971056
O O5 0.884445 0.500000 0.899224
O O6 0.143778 0.772059 0.823088
O O7 0.500000 0.277712 0.500000
O O8 0.656640 0.271924 0.379832
O O9 0.944153 0.210610 0.366661
O O10 0.598241 0.000000 0.436619
O O11 0.388091 0.500000 0.747106
O O12 0.355875 0.264645 0.700392
O O13 0.625684 0.227958 0.701362
O O14 0.949697 0.262740 0.759948
O O15 0.229331 0.000000 0.690524
O O16 0.334508 0.288378 0.230800
O O17 0.289112 0.000000 0.205730
O O18 0.854280 0.500000 0.670144
#
# Coordination Sequence:
#
# PCOD9145412 Si02
#       7
#     4   4   4   4   4   4   4
#     4   9  15  27  49  72  95 129 174 220 260 295
#     4   8  15  27  46  72  99 130 169 214 259 300
#     4   9  19  38  60  80 104 133 165 202 244 295
#     4  10  19  33  51  74 104 135 168 208 255 302
#     4   9  18  31  51  77  99 127 168 205 244 296
#     4  10  19  32  49  72 101 134 174 216 255 301
#     4  10  21  34  52  77 103 134 169 205 250 302
#
# _framework density 19.568422000000002
#
# number of rings (size 3 to 8) (size 9 to 14) (size 15 to 20)
#    0.000    2.714    1.429    2.571    0.000    3.714 
#    0.000    3.571    0.000    8.571    0.000    0.000 
#    0.000    0.000    0.000    0.000    0.000    0.000 
#
# Total GULP energy -156115.207057 kJ/mol
# GULP energy per Si atom -5575.543109 kJ/mol
# Density = 1.952388 g / cm^3
# Si number density = 19.568422 Si / 1000 Ang^3
#
#
#
# Elastic Constant Matrix: (Units=GPa)
#
#
# Indices 1 2 3 4 5 6 
#
# 1 106.7862 -8.7381 43.9371 0.0000 14.0174 0.0000
# 2 -8.7381 22.6999 -6.3463 0.0000 -0.7443 0.0000
# 3 43.9371 -6.3463 127.7136 0.0000 26.9160 0.0000
# 4 0.0000 0.0000 0.0000 16.1883 0.0000 3.8810
# 5 14.0174 -0.7443 26.9160 0.0000 17.9854 0.0000
# 6 0.0000 0.0000 0.0000 3.8810 0.0000 14.5701
#
#
#
# Elastic Compliance Matrix: (Units=1/GPa)
#
#
# Indices 1 2 3 4 5 6 
#
# 1 0.011393 0.003457 -0.002785 0.000000 -0.004569 0.000000
# 2 0.003457 0.045780 0.001832 0.000000 -0.003541 0.000000
# 3 -0.002785 0.001832 0.012278 0.000000 -0.016129 0.000000
# 4 0.000000 0.000000 0.000000 0.065987 0.000000 -0.017577
# 5 -0.004569 -0.003541 -0.016129 0.000000 0.083152 0.000000
# 6 0.000000 0.000000 0.000000 -0.017577 0.000000 0.073316
#
#
# Mechanical properties :
#
#
# Convention : Reuss Voigt Hill
#
# Bulk Modulus (GPa) = 13.43007 34.98944 24.20976
# Shear Modulus (GPa) = 16.04018 24.97190 20.50604
#
# Velocity S-wave (km/s) = 2.86614 3.57618 3.24066
# Velocity P-wave (km/s) = 4.22268 5.91366 5.13821
#
# Compressibility (1/GPa) = 0.07445975
#
# Stress axis : x y z
#
# Youngs Moduli (GPa) = 87.77373 21.84360 81.44457
#
# Poissons Ratio (x) = -0.07552 0.22681
# Poissons Ratio (y) = -0.30345 -0.14920
# Poissons Ratio (z) = 0.24444 -0.04001
#
# Static dielectric constant tensor:
#      x y z
#    x 1.676890 0.000000 0.013360 
#    y 0.000000 1.726130 0.000000 
#    z 0.013360 0.000000 1.700470 
# 
# From -- ./inp_files/37918.got.cif
#   From: 2010.05.17/outbox.cif.g08.bks.cpg/sg10_19_cif.got.tgz:37918.got - 2010.06.03 11:33:40.
