data_PCOD9145416
_publ_section_title
;
Structure prediction by ZEFSAII (Michael W. Deem and Ramdas Pophale) SiO2 
 PCOD9145416
Probable space group: P 2/M
;
_chemical_formula_sum "Si O2"
_cell_formula_units_Z 28
_cell_length_a 10.293315
_cell_length_b 12.948784
_cell_length_c 15.010897
_cell_angle_alpha 90.000000
_cell_angle_beta 63.699145
_cell_angle_gamma 90.000000
_cell_volume 1793.624023
_symmetry_space_group_name_H-M "P 2/M"
_symmetry_group_IT_number 10
_symmetry_cell_setting 'monoclinic'
loop_
_space_group_symop_operation_xyz
x,y,z
-x,y,-z
-x,-y,-z
x,-y,z
loop_
_atom_site_type_symbol
_atom_site_label
_atom_site_fract_x
_atom_site_fract_y
_atom_site_fract_z
Si Si1 0.841712 0.881046 0.500964
Si Si2 0.979384 0.379934 0.154872
Si Si3 0.763975 0.000000 0.039066
Si Si4 0.448945 0.805491 0.913872
Si Si5 0.271613 0.875031 0.279680
Si Si6 0.758190 0.620236 0.059288
Si Si7 0.965727 0.807988 0.288798
Si Si8 0.946218 0.000000 0.164163
O O1 0.735918 0.848085 0.612820
O O2 0.859469 0.816094 0.406045
O O3 0.000000 0.881656 0.500000
O O4 0.810183 0.000000 0.485585
O O5 0.978558 0.500000 0.182422
O O6 0.852624 0.365569 0.120233
O O7 0.962187 0.300232 0.239618
O O8 0.129331 0.360252 0.056032
O O9 0.893251 0.000000 0.927828
O O10 0.665958 0.101072 0.057006
O O11 0.836537 0.000000 0.114575
O O12 0.586170 0.834012 0.811573
O O13 0.370964 0.700752 0.907314
O O14 0.500000 0.795770 0.000000
O O15 0.127599 0.831677 0.275901
O O16 0.265301 0.000000 0.275597
O O17 0.713785 0.500000 0.068417
O O18 0.929328 0.898861 0.230053
#
# Coordination Sequence:
#
# PCOD9145416 Si02
#       8
#     4   4   2   4   4   4   4   2
#     4   8  15  29  48  72  97 127 165 203 241 283
#     4   9  18  33  54  74  97 128 163 211 252 282
#     4  11  23  32  41  69 107 130 153 193 253 298
#     4  12  22  32  49  72 102 138 161 190 242 303
#     4  10  19  32  49  72 106 137 159 194 245 298
#     4   9  19  36  52  71  98 130 170 206 242 286
#     4  11  17  30  54  77  95 121 170 209 242 291
#     4  11  20  30  48  71  95 125 163 209 240 279
#
# _framework density 15.610853000000001
#
# number of rings (size 3 to 8) (size 9 to 14) (size 15 to 20)
#    0.000    2.000    2.143    5.357    0.000    2.571 
#    0.000    0.714    0.000    9.000    0.000    2.000 
#    0.000    0.000    0.000    0.000    0.000    0.000 
#
# Total GULP energy -156208.048370 kJ/mol
# GULP energy per Si atom -5578.858870 kJ/mol
# Density = 1.557532 g / cm^3
# Si number density = 15.610853 Si / 1000 Ang^3
#
#
#
# Elastic Constant Matrix: (Units=GPa)
#
#
# Indices 1 2 3 4 5 6 
#
# 1 48.7568 36.8764 34.9202 0.0000 -3.3375 0.0000
# 2 36.8764 91.8163 68.4269 0.0000 7.2474 0.0000
# 3 34.9202 68.4269 129.1796 0.0000 4.9952 0.0000
# 4 0.0000 0.0000 0.0000 24.1330 0.0000 2.7042
# 5 -3.3375 7.2474 4.9952 0.0000 19.2071 0.0000
# 6 0.0000 0.0000 0.0000 2.7042 0.0000 41.7125
#
#
#
# Elastic Compliance Matrix: (Units=1/GPa)
#
#
# Indices 1 2 3 4 5 6 
#
# 1 0.032083 -0.011496 -0.002997 0.000000 0.010692 0.000000
# 2 -0.011496 0.022483 -0.008481 0.000000 -0.008275 0.000000
# 3 -0.002997 -0.008481 0.013072 0.000000 -0.000720 0.000000
# 4 0.000000 0.000000 0.000000 0.041740 0.000000 -0.002706
# 5 0.010692 -0.008275 -0.000720 0.000000 0.057232 0.000000
# 6 0.000000 0.000000 0.000000 -0.002706 0.000000 0.024149
#
#
# Mechanical properties :
#
#
# Convention : Reuss Voigt Hill
#
# Bulk Modulus (GPa) = 46.10691 61.13330 53.62011
# Shear Modulus (GPa) = 20.49711 25.64579 23.07145
#
# Velocity S-wave (km/s) = 3.62747 4.05757 3.84853
# Velocity P-wave (km/s) = 6.86615 7.82289 7.36008
#
# Compressibility (1/GPa) = 0.02168872
#
# Stress axis : x y z
#
# Youngs Moduli (GPa) = 31.16908 44.47866 76.50115
#
# Poissons Ratio (x) = 0.51134 0.22924
# Poissons Ratio (y) = 0.35833 0.64884
# Poissons Ratio (z) = 0.09340 0.37724
#
# Static dielectric constant tensor:
#      x y z
#    x 1.510070 0.000000 0.000500 
#    y 0.000000 1.501600 0.000000 
#    z 0.000500 0.000000 1.527500 
# 
# From -- ./inp_files/28372.got.cif
#   From: 2010.05.17/outbox.cif.g08.bks.cpg/sg10_15_cif.got.tgz:28372.got - 2010.06.03 11:33:40.
