data_PCOD9145925
_publ_section_title
;
Structure prediction by ZEFSAII (Michael W. Deem and Ramdas Pophale) SiO2 
 PCOD9145925
Probable space group: P 2/M
;
_chemical_formula_sum "Si O2"
_cell_formula_units_Z 28
_cell_length_a 15.477319
_cell_length_b 7.435179
_cell_length_c 12.260300
_cell_angle_alpha 90.000000
_cell_angle_beta 116.921017
_cell_angle_gamma 90.000000
_cell_volume 1257.979799
_symmetry_space_group_name_H-M "P 2/M"
_symmetry_group_IT_number 10
_symmetry_cell_setting 'monoclinic'
loop_
_space_group_symop_operation_xyz
x,y,z
-x,y,-z
-x,-y,-z
x,-y,z
loop_
_atom_site_type_symbol
_atom_site_label
_atom_site_fract_x
_atom_site_fract_y
_atom_site_fract_z
Si Si1 0.720082 0.783251 0.479026
Si Si2 0.891242 0.706657 0.414343
Si Si3 0.200632 0.218014 0.253544
Si Si4 0.197402 0.212392 0.866641
Si Si5 0.008420 0.780985 0.878659
Si Si6 0.492106 0.779934 0.623893
Si Si7 0.326604 0.781057 0.126258
O O1 0.815486 0.720763 0.470285
O O2 0.727942 0.729911 0.610007
O O3 0.612047 0.726822 0.384948
O O4 0.723423 0.000000 0.474422
O O5 0.909761 0.500000 0.398666
O O6 0.828015 0.773469 0.275040
O O7 0.000000 0.786100 0.500000
O O8 0.238362 0.270952 0.156903
O O9 0.094151 0.278327 0.227044
O O10 0.198214 0.000000 0.248537
O O11 0.102267 0.288254 0.872099
O O12 0.199579 0.000000 0.889624
O O13 0.293375 0.279052 0.985977
O O14 0.012191 0.000000 0.875423
O O15 0.000000 0.733335 0.000000
O O16 0.500000 0.725196 0.500000
O O17 0.577778 0.719565 0.754123
O O18 0.495431 0.000000 0.622588
O O19 0.334737 0.000000 0.130136
#
# Coordination Sequence:
#
# PCOD9145925 Si02
#       7
#     4   4   4   4   4   4   4
#     4  10  19  32  56  85 110 141 183 225 264 315
#     4  11  25  43  58  72 101 145 188 231 278 326
#     4   9  14  22  41  75 112 137 162 206 263 317
#     4  10  19  32  54  81 110 142 180 225 267 319
#     4   9  14  21  38  71 107 131 158 205 263 314
#     4   9  15  26  48  84 124 149 169 211 272 327
#     4   9  15  25  45  80 119 145 166 206 269 325
#
# _framework density 22.257906999999999
#
# number of rings (size 3 to 8) (size 9 to 14) (size 15 to 20)
#    0.000    2.429    2.857    1.286    0.000    2.286 
#    0.000    0.714    0.000    6.857    0.000    0.000 
#    0.000    0.000    0.000    0.000    0.000    0.000 
#
# Total GULP energy -155987.311688 kJ/mol
# GULP energy per Si atom -5570.975417 kJ/mol
# Density = 2.220725 g / cm^3
# Si number density = 22.257907 Si / 1000 Ang^3
#
#
#
# Elastic Constant Matrix: (Units=GPa)
#
#
# Indices 1 2 3 4 5 6 
#
# 1 80.0363 -5.2680 46.2625 0.0000 21.3450 0.0000
# 2 -5.2680 62.4222 2.9159 0.0000 6.5823 0.0000
# 3 46.2625 2.9159 157.8515 0.0000 29.9044 0.0000
# 4 0.0000 0.0000 0.0000 600.0821 0.0000 -322.4753
# 5 21.3450 6.5823 29.9044 0.0000 38.2270 0.0000
# 6 0.0000 0.0000 0.0000 -322.4753 0.0000 155.6700
#
#
#
# Elastic Compliance Matrix: (Units=1/GPa)
#
#
# Indices 1 2 3 4 5 6 
#
# 1 0.016542 0.002283 -0.003599 0.000000 -0.006814 0.000000
# 2 0.002283 0.016641 -0.000226 0.000000 -0.003964 0.000000
# 3 -0.003599 -0.000226 0.008225 0.000000 -0.004386 0.000000
# 4 0.000000 0.000000 0.000000 -0.014720 0.000000 -0.030493
# 5 -0.006814 -0.003964 -0.004386 0.000000 0.034078 0.000000
# 6 0.000000 0.000000 0.000000 -0.030493 0.000000 -0.056743
#
#
# Mechanical properties :
#
#
# Convention : Reuss Voigt Hill
#
# Bulk Modulus (GPa) = 26.09331 43.12565 34.60948
# Shear Modulus (GPa) = 251.47420 175.88912 213.68166
#
# Velocity S-wave (km/s) = 10.64083 8.89914 9.80872
# Velocity P-wave (km/s) = 12.75611 11.18081 11.99435
#
# Compressibility (1/GPa) = 0.03832400
#
# Stress axis : x y z
#
# Youngs Moduli (GPa) = 60.45074 60.09224 121.58078
#
# Poissons Ratio (x) = -0.13717 0.43762
# Poissons Ratio (y) = -0.13799 0.02742
# Poissons Ratio (z) = 0.21759 0.01355
#
# Static dielectric constant tensor:
#      x y z
#    x 1.795580 0.000000 0.050800 
#    y 0.000000 1.879330 0.000000 
#    z 0.050800 0.000000 1.880870 
# 
# From -- ./inp_files/50097.got.cif
#   From: 2010.05.17/outbox.cif.g08.bks.cpg/sg10_26_cif.got.tgz:50097.got - 2010.06.03 11:33:40.
