data_PCOD9145110
_publ_section_title
;
Structure prediction by ZEFSAII (Michael W. Deem and Ramdas Pophale) SiO2 
 PCOD9145110
Probable space group: P 2/M
;
_chemical_formula_sum "Si O2"
_cell_formula_units_Z 24
_cell_length_a 24.760356
_cell_length_b 8.959441
_cell_length_c 9.397753
_cell_angle_alpha 90.000000
_cell_angle_beta 43.803981
_cell_angle_gamma 90.000000
_cell_volume 1443.076085
_symmetry_space_group_name_H-M "P 2/M"
_symmetry_group_IT_number 10
_symmetry_cell_setting 'monoclinic'
loop_
_space_group_symop_operation_xyz
x,y,z
-x,y,-z
-x,-y,-z
x,-y,z
loop_
_atom_site_type_symbol
_atom_site_label
_atom_site_fract_x
_atom_site_fract_y
_atom_site_fract_z
Si Si1 0.124379 0.678546 0.922979
Si Si2 0.256255 0.673960 0.894031
Si Si3 0.584797 0.676058 0.293803
Si Si4 0.714785 0.824040 0.881019
Si Si5 0.984365 0.178736 0.365444
Si Si6 0.156965 0.321421 0.534745
O O1 0.108560 0.500000 0.960814
O O2 0.204393 0.707668 0.856981
O O3 0.133675 0.718439 0.740380
O O4 0.055818 0.765078 0.132655
O O5 0.241832 0.500000 0.960913
O O6 0.350202 0.689499 0.704028
O O7 0.238141 0.777212 0.064140
O O8 0.500000 0.731811 0.500000
O O9 0.578185 0.500000 0.272067
O O10 0.628884 0.759924 0.081499
O O11 0.759385 0.744219 0.668609
O O12 0.713742 0.000000 0.865559
O O13 0.000000 0.220878 0.500000
O O14 0.907220 0.254079 0.448958
O O15 0.977117 0.000000 0.371733
O O16 0.158384 0.500000 0.520323
#
# Coordination Sequence:
#
# PCOD9145110 Si02
#       6
#     4   4   4   4   4   4
#     4  10  21  36  54  75 101 135 174 213 254 300
#     4   8  16  32  52  75 102 131 167 210 252 295
#     4   8  15  30  54  80 104 132 168 209 252 299
#     4  10  19  31  50  77 106 134 168 207 255 302
#     4  11  24  38  53  75 103 133 170 213 257 303
#     4  11  22  36  53  74 101 136 176 212 252 301
#
# _framework density 16.631139000000001
#
# number of rings (size 3 to 8) (size 9 to 14) (size 15 to 20)
#    1.000    1.333    0.000    3.500    0.000    8.333 
#    0.000    0.000    0.000    1.000    0.000    7.000 
#    0.000    0.000    0.000    0.000    0.000    0.000 
#
# Total GULP energy -133620.797740 kJ/mol
# GULP energy per Si atom -5567.533239 kJ/mol
# Density = 1.659329 g / cm^3
# Si number density = 16.631139 Si / 1000 Ang^3
#
#
#
# Elastic Constant Matrix: (Units=GPa)
#
#
# Indices 1 2 3 4 5 6 
#
# 1 35.1110 27.0506 49.1766 0.0000 -7.3024 0.0000
# 2 27.0506 57.6300 58.5732 0.0000 -0.3642 0.0000
# 3 49.1766 58.5732 148.3379 0.0000 -7.5657 0.0000
# 4 0.0000 0.0000 0.0000 -19.8612 0.0000 -13.3801
# 5 -7.3024 -0.3642 -7.5657 0.0000 27.6821 0.0000
# 6 0.0000 0.0000 0.0000 -13.3801 0.0000 7.7287
#
#
#
# Elastic Compliance Matrix: (Units=1/GPa)
#
#
# Indices 1 2 3 4 5 6 
#
# 1 0.062291 -0.014720 -0.014208 0.000000 0.012355 0.000000
# 2 -0.014720 0.032676 -0.008315 0.000000 -0.005726 0.000000
# 3 -0.014208 -0.008315 0.014744 0.000000 0.000172 0.000000
# 4 0.000000 0.000000 0.000000 -0.023242 0.000000 -0.040237
# 5 0.012355 -0.005726 0.000172 0.000000 0.039355 0.000000
# 6 0.000000 0.000000 0.000000 -0.040237 0.000000 0.059728
#
#
# Mechanical properties :
#
#
# Convention : Reuss Voigt Hill
#
# Bulk Modulus (GPa) = 28.38846 56.74218 42.56532
# Shear Modulus (GPa) = 18.39732 10.19516 14.29624
#
# Velocity S-wave (km/s) = 3.32956 2.47860 2.93509
# Velocity P-wave (km/s) = 5.64693 6.51025 6.09390
#
# Compressibility (1/GPa) = 0.03522558
#
# Stress axis : x y z
#
# Youngs Moduli (GPa) = 16.05357 30.60369 67.82612
#
# Poissons Ratio (x) = 0.45048 0.96369
# Poissons Ratio (y) = 0.23630 0.56395
# Poissons Ratio (z) = 0.22809 0.25446
#
# Static dielectric constant tensor:
#      x y z
#    x 1.563210 0.000000 -0.015810 
#    y 0.000000 1.554880 0.000000 
#    z -0.015810 0.000000 1.562470 
# 
# From -- ./inp_files/35634.got.cif
#   From: 2010.05.17/outbox.cif.g08.bks.cpg/sg10_18_cif.got.tgz:35634.got - 2010.06.03 11:33:40.
