data_PCOD9145393
_publ_section_title
;
Structure prediction by ZEFSAII (Michael W. Deem and Ramdas Pophale) SiO2 
 PCOD9145393
Probable space group: P 2/M
;
_chemical_formula_sum "Si O2"
_cell_formula_units_Z 28
_cell_length_a 13.337617
_cell_length_b 7.498625
_cell_length_c 15.184070
_cell_angle_alpha 90.000000
_cell_angle_beta 124.283043
_cell_angle_gamma 90.000000
_cell_volume 1254.779605
_symmetry_space_group_name_H-M "P 2/M"
_symmetry_group_IT_number 10
_symmetry_cell_setting 'monoclinic'
loop_
_space_group_symop_operation_xyz
x,y,z
-x,y,-z
-x,-y,-z
x,-y,z
loop_
_atom_site_type_symbol
_atom_site_label
_atom_site_fract_x
_atom_site_fract_y
_atom_site_fract_z
Si Si1 0.742605 0.799126 0.778011
Si Si2 0.018008 0.781892 0.408847
Si Si3 0.470169 0.703944 0.630010
Si Si4 0.287822 0.218523 0.045648
Si Si5 0.787003 0.217960 0.180689
Si Si6 0.242146 0.785055 0.404820
Si Si7 0.566755 0.785352 0.193418
O O1 0.595813 0.809856 0.694948
O O2 0.761328 0.718354 0.884016
O O3 0.783523 0.715539 0.706221
O O4 0.793362 0.000000 0.806416
O O5 0.142957 0.723046 0.425900
O O6 0.000000 0.722603 0.500000
O O7 0.905690 0.726828 0.292422
O O8 0.019454 0.000000 0.411085
O O9 0.508084 0.500000 0.643076
O O10 0.376053 0.742996 0.506320
O O11 0.404946 0.735987 0.691666
O O12 0.429014 0.274090 0.107045
O O13 0.287960 0.000000 0.049279
O O14 0.218521 0.273713 0.923607
O O15 0.667094 0.277475 0.174277
O O16 0.785415 0.000000 0.179963
O O17 0.234918 0.000000 0.396512
O O18 0.566186 0.000000 0.188267
#
# Coordination Sequence:
#
# PCOD9145393 Si02
#       7
#     4   4   4   4   4   4   4
#     4   9  18  32  49  69  95 125 155 191 236 285
#     4   9  17  28  44  69  97 123 156 197 234 270
#     4  11  21  31  47  72  98 123 154 195 240 283
#     4   8  14  25  43  70  98 122 154 194 234 276
#     4   9  15  25  46  73  97 124 160 198 231 269
#     4  10  19  32  49  68  93 127 162 193 232 281
#     4   9  16  28  48  72  98 127 156 189 233 284
#
# _framework density 22.314675999999999
#
# number of rings (size 3 to 8) (size 9 to 14) (size 15 to 20)
#    0.000    2.714    0.000    3.857    0.000    6.286 
#    0.000    0.714    0.000   15.000    0.000    0.000 
#    0.000    5.714    0.000    0.000    0.000    0.000 
#
# Total GULP energy -156341.345954 kJ/mol
# GULP energy per Si atom -5583.619498 kJ/mol
# Density = 2.226389 g / cm^3
# Si number density = 22.314676 Si / 1000 Ang^3
#
#
#
# Elastic Constant Matrix: (Units=GPa)
#
#
# Indices 1 2 3 4 5 6 
#
# 1 81.8604 0.6971 42.3268 0.0000 -31.8083 0.0000
# 2 0.6971 67.7662 -1.3232 0.0000 -1.7862 0.0000
# 3 42.3268 -1.3232 148.7330 0.0000 -30.1255 0.0000
# 4 0.0000 0.0000 0.0000 -39.2667 0.0000 -0.6101
# 5 -31.8083 -1.7862 -30.1255 0.0000 32.7844 0.0000
# 6 0.0000 0.0000 0.0000 -0.6101 0.0000 -18.3978
#
#
#
# Elastic Compliance Matrix: (Units=1/GPa)
#
#
# Indices 1 2 3 4 5 6 
#
# 1 0.020172 0.000213 -0.002177 0.000000 0.017582 0.000000
# 2 0.000213 0.014796 0.000339 0.000000 0.001325 0.000000
# 3 -0.002177 0.000339 0.008505 0.000000 0.005721 0.000000
# 4 0.000000 0.000000 0.000000 -0.025480 0.000000 0.000845
# 5 0.017582 0.001325 0.005721 0.000000 0.052890 0.000000
# 6 0.000000 0.000000 0.000000 0.000845 0.000000 -0.054382
#
#
# Mechanical properties :
#
#
# Convention : Reuss Voigt Hill
#
# Bulk Modulus (GPa) = 24.86134 42.41788 33.63961
# Shear Modulus (GPa) = 150.79554 12.13457 81.46506
#
# Velocity S-wave (km/s) = 8.22943 2.33447 6.04869
# Velocity P-wave (km/s) = 10.07291 5.12997 7.99312
#
# Compressibility (1/GPa) = 0.04022310
#
# Stress axis : x y z
#
# Youngs Moduli (GPa) = 49.57428 67.58596 117.57905
#
# Poissons Ratio (x) = -0.01442 0.25602
# Poissons Ratio (y) = -0.01058 -0.03989
# Poissons Ratio (z) = 0.10795 -0.02293
#
# Static dielectric constant tensor:
#      x y z
#    x 1.808180 0.000000 -0.038810 
#    y 0.000000 1.844220 0.000000 
#    z -0.038810 0.000000 1.794620 
# 
# From -- ./inp_files/49605.got.cif
#   From: 2010.05.17/outbox.cif.g08.bks.cpg/sg10_25_cif.got.tgz:49605.got - 2010.06.03 11:33:40.
