data_PCOD9145321
_publ_section_title
;
Structure prediction by ZEFSAII (Michael W. Deem and Ramdas Pophale) SiO2 
 PCOD9145321
Probable space group: P 2/M
;
_chemical_formula_sum "Si O2"
_cell_formula_units_Z 32
_cell_length_a 15.438395
_cell_length_b 13.650200
_cell_length_c 12.479906
_cell_angle_alpha 90.000000
_cell_angle_beta 140.423890
_cell_angle_gamma 90.000000
_cell_volume 1675.567380
_symmetry_space_group_name_H-M "P 2/M"
_symmetry_group_IT_number 10
_symmetry_cell_setting 'monoclinic'
loop_
_space_group_symop_operation_xyz
x,y,z
-x,y,-z
-x,-y,-z
x,-y,z
loop_
_atom_site_type_symbol
_atom_site_label
_atom_site_fract_x
_atom_site_fract_y
_atom_site_fract_z
Si Si1 0.337346 0.186150 0.178871
Si Si2 0.146963 0.887276 0.170587
Si Si3 0.514049 0.391504 0.858839
Si Si4 0.772228 0.727745 0.135259
Si Si5 0.592383 0.607752 0.693047
Si Si6 0.648626 0.881992 0.450068
Si Si7 0.279242 0.750099 0.675214
Si Si8 0.034115 0.612516 0.404830
O O1 0.243891 0.116205 0.159461
O O2 0.319732 0.294479 0.214269
O O3 0.496465 0.157098 0.331804
O O4 0.284810 0.198257 0.007725
O O5 0.240726 0.847052 0.356368
O O6 0.119224 0.000000 0.175414
O O7 0.000000 0.842476 0.000000
O O8 0.475270 0.500000 0.856736
O O9 0.506812 0.388190 0.722380
O O10 0.420412 0.307896 0.816530
O O11 0.668121 0.364307 0.035030
O O12 0.771065 0.773211 0.252917
O O13 0.916740 0.681002 0.244513
O O14 0.500000 0.613522 0.500000
O O15 0.660325 0.500000 0.758136
O O16 0.696650 0.839532 0.381808
O O17 0.642428 0.000000 0.444677
O O18 0.174571 0.670374 0.527570
O O19 0.037406 0.500000 0.369564
O O20 0.000000 0.608387 0.500000
#
# Coordination Sequence:
#
# PCOD9145321 Si02
#       8
#     4   4   4   4   4   4   4   4
#     4  11  21  37  62  88 117 156 194 237 298 349
#     4  10  23  42  66  91 112 142 196 253 298 349
#     4  10  19  31  54  84 115 154 199 244 288 340
#     4  10  21  35  54  85 124 158 194 238 286 352
#     4   9  17  30  49  78 115 150 187 230 281 343
#     4  11  23  40  62  88 118 152 195 249 300 348
#     4  11  21  36  56  84 122 156 202 241 293 347
#     4   9  19  35  56  81 115 160 202 242 286 339
#
# _framework density 19.098009000000001
#
# number of rings (size 3 to 8) (size 9 to 14) (size 15 to 20)
#    0.000    1.875    2.500    2.625    1.750    3.500 
#    0.000    1.875    0.000    3.750    0.000    0.000 
#    0.000    0.000    0.000    0.000    0.000    0.000 
#
# Total GULP energy -178372.802833 kJ/mol
# GULP energy per Si atom -5574.150089 kJ/mol
# Density = 1.905454 g / cm^3
# Si number density = 19.098009 Si / 1000 Ang^3
#
#
#
# Elastic Constant Matrix: (Units=GPa)
#
#
# Indices 1 2 3 4 5 6 
#
# 1 48.3734 12.0869 41.8417 0.0000 -6.6672 0.0000
# 2 12.0869 56.7628 19.2997 0.0000 -1.6822 0.0000
# 3 41.8417 19.2997 121.3846 0.0000 1.9024 0.0000
# 4 0.0000 0.0000 0.0000 13.5911 0.0000 10.4911
# 5 -6.6672 -1.6822 1.9024 0.0000 35.6010 0.0000
# 6 0.0000 0.0000 0.0000 10.4911 0.0000 4.7664
#
#
#
# Elastic Compliance Matrix: (Units=1/GPa)
#
#
# Indices 1 2 3 4 5 6 
#
# 1 0.031278 -0.002934 -0.010414 0.000000 0.006276 0.000000
# 2 -0.002934 0.018938 -0.002007 0.000000 0.000453 0.000000
# 3 -0.010414 -0.002007 0.012189 0.000000 -0.002696 0.000000
# 4 0.000000 0.000000 0.000000 -0.105259 0.000000 0.231683
# 5 0.006276 0.000453 -0.002696 0.000000 0.029430 0.000000
# 6 0.000000 0.000000 0.000000 0.231683 0.000000 -0.300145
#
#
# Mechanical properties :
#
#
# Convention : Reuss Voigt Hill
#
# Bulk Modulus (GPa) = 31.54899 41.44194 36.49546
# Shear Modulus (GPa) = -18.36238 21.01119 1.32440
#
# Velocity S-wave (km/s) = -3.10414 3.32049 0.83366
# Velocity P-wave (km/s) = 1.92556 6.03718 4.48081
#
# Compressibility (1/GPa) = 0.03169674
#
# Stress axis : x y z
#
# Youngs Moduli (GPa) = 31.97142 52.80498 82.03976
#
# Poissons Ratio (x) = 0.15491 0.85432
# Poissons Ratio (y) = 0.09379 0.16465
# Poissons Ratio (z) = 0.33294 0.10597
#
# Static dielectric constant tensor:
#      x y z
#    x 1.675340 0.000000 -0.024700 
#    y 0.000000 1.682210 0.000000 
#    z -0.024700 0.000000 1.694460 
# 
# From -- ./inp_files/51636.got.cif
#   From: 2010.05.17/outbox.cif.g08.bks.cpg/sg10_26_cif.got.tgz:51636.got - 2010.06.03 11:33:40.
