data_PCOD9145984
_publ_section_title
;
Structure prediction by ZEFSAII (Michael W. Deem and Ramdas Pophale) SiO2 
 PCOD9145984
Probable space group: P 2/M
;
_chemical_formula_sum "Si O2"
_cell_formula_units_Z 32
_cell_length_a 12.327083
_cell_length_b 9.107401
_cell_length_c 23.134918
_cell_angle_alpha 90.000000
_cell_angle_beta 133.514431
_cell_angle_gamma 90.000000
_cell_volume 1883.567212
_symmetry_space_group_name_H-M "P 2/M"
_symmetry_group_IT_number 10
_symmetry_cell_setting 'monoclinic'
loop_
_space_group_symop_operation_xyz
x,y,z
-x,y,-z
-x,-y,-z
x,-y,z
loop_
_atom_site_type_symbol
_atom_site_label
_atom_site_fract_x
_atom_site_fract_y
_atom_site_fract_z
Si Si1 0.946612 0.824674 0.220821
Si Si2 0.691580 0.676119 0.322050
Si Si3 0.671286 0.671361 0.063950
Si Si4 0.987139 0.675791 0.357059
Si Si5 0.847038 0.168394 0.481584
Si Si6 0.162545 0.670885 0.997133
Si Si7 0.110142 0.174837 0.161130
Si Si8 0.351456 0.676614 0.178755
O O1 0.781863 0.765533 0.143882
O O2 0.997462 0.746871 0.297967
O O3 0.051112 0.787972 0.203827
O O4 0.945009 0.000000 0.227039
O O5 0.697243 0.500000 0.332289
O O6 0.824320 0.712569 0.325596
O O7 0.728541 0.754180 0.396166
O O8 0.526073 0.716523 0.240023
O O9 0.675278 0.500000 0.084431
O O10 0.500000 0.720419 0.000000
O O11 0.735560 0.677927 0.022715
O O12 0.998859 0.500000 0.358630
O O13 0.110797 0.741827 0.445735
O O14 0.000000 0.167366 0.500000
O O15 0.807211 0.000000 0.479900
O O16 0.118280 0.500000 0.988889
O O17 0.260586 0.718571 0.087650
O O18 0.016139 0.764513 0.929213
O O19 0.265004 0.249590 0.200155
O O20 0.120280 0.000000 0.160290
O O21 0.342932 0.500000 0.180598
#
# Coordination Sequence:
#
# PCOD9145984 Si02
#       8
#     4   4   4   4   4   4   4   4
#     4  10  21  35  50  71 101 134 170 210 253 299
#     4   9  19  33  51  78 108 133 163 205 253 300
#     4   9  18  31  50  71  98 134 170 208 250 299
#     4  10  19  32  55  80 104 133 169 206 245 300
#     4   9  17  31  51  75 107 139 166 197 243 301
#     4   9  18  32  50  72  97 130 172 213 254 295
#     4  10  21  36  51  69  98 134 174 215 254 298
#     4  10  20  33  52  75 101 131 167 214 256 296
#
# _framework density 16.989039999999999
#
# number of rings (size 3 to 8) (size 9 to 14) (size 15 to 20)
#    0.000    2.500    0.000    1.875    1.750    6.250 
#    0.000    0.000    0.000    0.750    0.000    5.250 
#    0.000    0.000    0.000    0.000    0.000    0.000 
#
# Total GULP energy -178494.262540 kJ/mol
# GULP energy per Si atom -5577.945704 kJ/mol
# Density = 1.695037 g / cm^3
# Si number density = 16.989040 Si / 1000 Ang^3
#
#
#
# Elastic Constant Matrix: (Units=GPa)
#
#
# Indices 1 2 3 4 5 6 
#
# 1 39.8251 22.4473 34.7331 0.0000 -2.3234 0.0000
# 2 22.4473 43.8593 42.4729 0.0000 -11.5330 0.0000
# 3 34.7331 42.4729 103.4497 0.0000 -22.3705 0.0000
# 4 0.0000 0.0000 0.0000 -0.3115 0.0000 -12.7307
# 5 -2.3234 -11.5330 -22.3705 0.0000 21.1405 0.0000
# 6 0.0000 0.0000 0.0000 -12.7307 0.0000 18.3514
#
#
#
# Elastic Compliance Matrix: (Units=1/GPa)
#
#
# Indices 1 2 3 4 5 6 
#
# 1 0.042639 -0.014605 -0.011708 0.000000 -0.015671 0.000000
# 2 -0.014605 0.043342 -0.010536 0.000000 0.010891 0.000000
# 3 -0.011708 -0.010536 0.021269 0.000000 0.015472 0.000000
# 4 0.000000 0.000000 0.000000 -0.109373 0.000000 -0.075874
# 5 -0.015671 0.010891 0.015472 0.000000 0.067894 0.000000
# 6 0.000000 0.000000 0.000000 -0.075874 0.000000 0.001857
#
#
# Mechanical properties :
#
#
# Convention : Reuss Voigt Hill
#
# Bulk Modulus (GPa) = 29.80561 42.93785 36.37173
# Shear Modulus (GPa) = 32.78462 13.66813 23.22638
#
# Velocity S-wave (km/s) = 4.39766 2.83949 3.70150
# Velocity P-wave (km/s) = 6.58544 6.00658 6.30266
#
# Compressibility (1/GPa) = 0.03355073
#
# Stress axis : x y z
#
# Youngs Moduli (GPa) = 23.45261 23.07246 47.01669
#
# Poissons Ratio (x) = 0.33698 0.55049
# Poissons Ratio (y) = 0.34253 0.49536
# Poissons Ratio (z) = 0.27459 0.24309
#
# Static dielectric constant tensor:
#      x y z
#    x 1.571510 0.000000 -0.005330 
#    y 0.000000 1.569120 0.000000 
#    z -0.005330 0.000000 1.557270 
# 
# From -- ./inp_files/83529.got.cif
#   From: 2010.05.17/outbox.cif.g08.bks.cpg/sg10_42_cif.got.tgz:83529.got - 2010.06.03 11:33:40.
