data_PCOD9145523
_publ_section_title
;
Structure prediction by ZEFSAII (Michael W. Deem and Ramdas Pophale) SiO2 
 PCOD9145523
Probable space group: P 2/M
;
_chemical_formula_sum "Si O2"
_cell_formula_units_Z 32
_cell_length_a 14.485744
_cell_length_b 8.988826
_cell_length_c 23.136296
_cell_angle_alpha 90.000000
_cell_angle_beta 37.210296
_cell_angle_gamma 90.000000
_cell_volume 1821.830281
_symmetry_space_group_name_H-M "P 2/M"
_symmetry_group_IT_number 10
_symmetry_cell_setting 'monoclinic'
loop_
_space_group_symop_operation_xyz
x,y,z
-x,y,-z
-x,-y,-z
x,-y,z
loop_
_atom_site_type_symbol
_atom_site_label
_atom_site_fract_x
_atom_site_fract_y
_atom_site_fract_z
Si Si1 0.022028 0.177647 0.748462
Si Si2 0.325678 0.678624 0.281672
Si Si3 0.337108 0.680812 0.874069
Si Si4 0.955759 0.321957 0.659988
Si Si5 0.710826 0.322032 0.232716
Si Si6 0.939945 0.321414 0.906805
Si Si7 0.852487 0.170074 0.530943
Si Si8 0.630237 0.821386 0.390383
O O1 0.201558 0.214592 0.668556
O O2 0.964486 0.251047 0.718454
O O3 0.935313 0.241836 0.847400
O O4 0.008119 0.000000 0.752666
O O5 0.317925 0.500000 0.292305
O O6 0.499002 0.720750 0.181081
O O7 0.200819 0.719477 0.295589
O O8 0.276584 0.751748 0.366682
O O9 0.328105 0.500000 0.876808
O O10 0.332247 0.730772 0.809861
O O11 0.193015 0.729895 0.983693
O O12 0.964087 0.500000 0.658802
O O13 0.093752 0.259377 0.551960
O O14 0.687981 0.500000 0.247142
O O15 0.623303 0.248092 0.329930
O O16 0.891725 0.293046 0.151235
O O17 0.926643 0.500000 0.905565
O O18 0.000000 0.169155 0.500000
O O19 0.814297 0.000000 0.535518
O O20 0.500000 0.770970 0.500000
O O21 0.619618 0.000000 0.390427
#
# Coordination Sequence:
#
# PCOD9145523 Si02
#       8
#     4   4   4   4   4   4   4   4
#     4  10  20  34  52  72  96 128 165 203 243 289
#     4   9  18  32  49  72 101 130 163 203 242 283
#     4   9  17  31  52  76 100 126 159 202 247 288
#     4  10  19  32  51  72  96 130 169 204 239 284
#     4   9  17  30  51  77 100 125 159 197 239 288
#     4   9  17  32  53  74  97 126 161 200 243 292
#     4   9  17  30  48  69  95 127 160 196 239 285
#     4   9  19  35  51  70 100 132 159 193 239 289
#
# _framework density 17.564754000000001
#
# number of rings (size 3 to 8) (size 9 to 14) (size 15 to 20)
#    0.000    2.750    0.000    1.500    0.000    5.250 
#    0.000    5.000    0.000    6.750    0.000    0.000 
#    0.000    0.000    0.000    0.000    0.000    0.000 
#
# Total GULP energy -178423.587502 kJ/mol
# GULP energy per Si atom -5575.737109 kJ/mol
# Density = 1.752478 g / cm^3
# Si number density = 17.564754 Si / 1000 Ang^3
#
#
#
# Elastic Constant Matrix: (Units=GPa)
#
#
# Indices 1 2 3 4 5 6 
#
# 1 77.1870 32.3706 59.0178 0.0000 24.4649 0.0000
# 2 32.3706 23.6101 30.1302 0.0000 6.3140 0.0000
# 3 59.0178 30.1302 147.2607 0.0000 11.2864 0.0000
# 4 0.0000 0.0000 0.0000 -5.3513 0.0000 -14.8007
# 5 24.4649 6.3140 11.2864 0.0000 24.6842 0.0000
# 6 0.0000 0.0000 0.0000 -14.8007 0.0000 1.9566
#
#
#
# Elastic Compliance Matrix: (Units=1/GPa)
#
#
# Indices 1 2 3 4 5 6 
#
# 1 0.050699 -0.051214 -0.007247 0.000000 -0.033835 0.000000
# 2 -0.051214 0.111358 -0.004110 0.000000 0.024154 0.000000
# 3 -0.007247 -0.004110 0.010265 0.000000 0.003540 0.000000
# 4 0.000000 0.000000 0.000000 -0.008524 0.000000 -0.064482
# 5 -0.033835 0.024154 0.003540 0.000000 0.066249 0.000000
# 6 0.000000 0.000000 0.000000 -0.064482 0.000000 0.023314
#
#
# Mechanical properties :
#
#
# Convention : Reuss Voigt Hill
#
# Bulk Modulus (GPa) = 21.19604 54.56611 37.88107
# Shear Modulus (GPa) = 12.68301 12.69385 12.68843
#
# Velocity S-wave (km/s) = 2.69005 2.69120 2.69063
# Velocity P-wave (km/s) = 4.66284 6.38670 5.59160
#
# Compressibility (1/GPa) = 0.04717863
#
# Stress axis : x y z
#
# Youngs Moduli (GPa) = 19.72440 8.98006 97.42203
#
# Poissons Ratio (x) = 0.45991 0.70599
# Poissons Ratio (y) = 1.01017 0.40044
# Poissons Ratio (z) = 0.14294 0.03691
#
# Static dielectric constant tensor:
#      x y z
#    x 1.599790 0.000000 -0.015730 
#    y 0.000000 1.587990 0.000000 
#    z -0.015730 0.000000 1.584030 
# 
# From -- ./inp_files/84741.got.cif
#   From: 2010.05.17/outbox.cif.g08.bks.cpg/sg10_43_cif.got.tgz:84741.got - 2010.06.03 11:33:40.
