data_PCOD9145316
_publ_section_title
;
Structure prediction by ZEFSAII (Michael W. Deem and Ramdas Pophale) SiO2 
 PCOD9145316
Probable space group: P 2/M
;
_chemical_formula_sum "Si O2"
_cell_formula_units_Z 30
_cell_length_a 15.504105
_cell_length_b 7.341844
_cell_length_c 12.696353
_cell_angle_alpha 90.000000
_cell_angle_beta 88.419692
_cell_angle_gamma 90.000000
_cell_volume 1444.659932
_symmetry_space_group_name_H-M "P 2/M"
_symmetry_group_IT_number 10
_symmetry_cell_setting 'monoclinic'
loop_
_space_group_symop_operation_xyz
x,y,z
-x,y,-z
-x,-y,-z
x,-y,z
loop_
_atom_site_type_symbol
_atom_site_label
_atom_site_fract_x
_atom_site_fract_y
_atom_site_fract_z
Si Si1 0.366509 0.219978 0.469934
Si Si2 0.877053 0.778425 0.313388
Si Si3 0.469260 0.220395 0.674098
Si Si4 0.903933 0.290123 0.983986
Si Si5 0.932743 0.220199 0.749361
Si Si6 0.609605 0.500000 0.162575
Si Si7 0.749989 0.206129 0.139500
Si Si8 0.171238 0.222422 0.452531
O O1 0.398980 0.269487 0.585635
O O2 0.439087 0.269366 0.382510
O O3 0.270552 0.282522 0.447863
O O4 0.364905 0.000000 0.470543
O O5 0.795395 0.723934 0.245895
O O6 0.869269 0.721810 0.434580
O O7 0.967637 0.719180 0.260812
O O8 0.876741 0.000000 0.311155
O O9 0.447192 0.339362 0.775412
O O10 0.467310 0.000000 0.689919
O O11 0.906157 0.500000 0.018287
O O12 0.890378 0.280181 0.859539
O O13 0.827513 0.202347 0.052546
O O14 0.000000 0.211911 0.000000
O O15 0.882252 0.281101 0.647141
O O16 0.933069 0.000000 0.749281
O O17 0.674469 0.341293 0.112790
O O18 0.719217 0.000000 0.157960
O O19 0.170346 0.000000 0.452040
#
# Coordination Sequence:
#
# PCOD9145316 Si02
#       8
#     4   4   4   4   4   2   4   4
#     4   8  15  30  51  78 111 150 191 225 268 331
#     4   9  17  30  50  77 113 150 186 224 268 326
#     4   9  18  33  54  78 112 153 185 225 281 339
#     4  11  22  38  57  75 106 148 195 242 282 324
#     4  10  19  31  54  81 106 146 193 231 273 323
#     4  12  22  33  51  84 112 136 178 236 285 340
#     4  11  22  36  56  82 111 149 189 232 285 329
#     4   9  16  28  50  82 115 147 185 227 268 326
#
# _framework density 20.766131999999999
#
# number of rings (size 3 to 8) (size 9 to 14) (size 15 to 20)
#    0.000    2.267    2.000    2.800    0.000    5.333 
#    0.000    0.000    7.333    0.800    0.000    1.867 
#    0.000    5.333    0.000    0.000    0.000    0.000 
#
# Total GULP energy -167082.162111 kJ/mol
# GULP energy per Si atom -5569.405404 kJ/mol
# Density = 2.071887 g / cm^3
# Si number density = 20.766132 Si / 1000 Ang^3
#
#
#
# Elastic Constant Matrix: (Units=GPa)
#
#
# Indices 1 2 3 4 5 6 
#
# 1 36.6664 6.2635 5.1662 0.0000 -19.6191 0.0000
# 2 6.2635 111.7882 0.6680 0.0000 -18.3843 0.0000
# 3 5.1662 0.6680 84.8676 0.0000 -14.6808 0.0000
# 4 0.0000 0.0000 0.0000 45.4967 0.0000 -21.9853
# 5 -19.6191 -18.3843 -14.6808 0.0000 52.3225 0.0000
# 6 0.0000 0.0000 0.0000 -21.9853 0.0000 3.0387
#
#
#
# Elastic Compliance Matrix: (Units=1/GPa)
#
#
# Indices 1 2 3 4 5 6 
#
# 1 0.034125 0.000211 0.000155 0.000000 0.012913 0.000000
# 2 0.000211 0.009518 0.000530 0.000000 0.003572 0.000000
# 3 0.000155 0.000530 0.012414 0.000000 0.003728 0.000000
# 4 0.000000 0.000000 0.000000 -0.008805 0.000000 -0.063706
# 5 0.012913 0.003572 0.003728 0.000000 0.026255 0.000000
# 6 0.000000 0.000000 0.000000 -0.063706 0.000000 -0.131834
#
#
# Mechanical properties :
#
#
# Convention : Reuss Voigt Hill
#
# Bulk Modulus (GPa) = 17.28666 28.61307 22.94986
# Shear Modulus (GPa) = -122.44212 34.91985 -43.76114
#
# Velocity S-wave (km/s) = -7.68703 4.10515 -4.59555
# Velocity P-wave (km/s) = 8.39313 6.02315 4.13318
#
# Compressibility (1/GPa) = 0.05784808
#
# Stress axis : x y z
#
# Youngs Moduli (GPa) = 29.30446 105.06453 80.55241
#
# Poissons Ratio (x) = -0.02214 -0.01247
# Poissons Ratio (y) = -0.00617 -0.04271
# Poissons Ratio (z) = -0.00454 -0.05570
#
# Static dielectric constant tensor:
#      x y z
#    x 1.731620 0.000000 0.001490 
#    y 0.000000 1.800800 0.000000 
#    z 0.001490 0.000000 1.721690 
# 
# From -- ./inp_files/52687.got.cif
#   From: 2010.05.17/outbox.cif.g08.bks.cpg/sg10_27_cif.got.tgz:52687.got - 2010.06.03 11:33:40.
