data_PCOD9145912
_publ_section_title
;
Structure prediction by ZEFSAII (Michael W. Deem and Ramdas Pophale) SiO2 
 PCOD9145912
Probable space group: P 2/M
;
_chemical_formula_sum "Si O2"
_cell_formula_units_Z 32
_cell_length_a 20.878642
_cell_length_b 7.712357
_cell_length_c 25.653290
_cell_angle_alpha 90.000000
_cell_angle_beta 23.133946
_cell_angle_gamma 90.000000
_cell_volume 1622.910575
_symmetry_space_group_name_H-M "P 2/M"
_symmetry_group_IT_number 10
_symmetry_cell_setting 'monoclinic'
loop_
_space_group_symop_operation_xyz
x,y,z
-x,y,-z
-x,-y,-z
x,-y,z
loop_
_atom_site_type_symbol
_atom_site_label
_atom_site_fract_x
_atom_site_fract_y
_atom_site_fract_z
Si Si1 0.338182 0.298976 0.157930
Si Si2 0.358471 0.289595 0.864096
Si Si3 0.150178 0.210268 0.851056
Si Si4 0.014641 0.295612 0.841217
Si Si5 0.834513 0.799823 0.380543
Si Si6 0.547909 0.712774 0.092929
Si Si7 0.848206 0.294608 0.797312
Si Si8 0.475685 0.203681 0.662492
O O1 0.295568 0.500000 0.200652
O O2 0.400929 0.224981 0.165817
O O3 0.199883 0.221871 0.223669
O O4 0.500000 0.298209 0.000000
O O5 0.360135 0.500000 0.860075
O O6 0.449507 0.235361 0.848911
O O7 0.434211 0.220668 0.754390
O O8 0.169793 0.233165 0.010453
O O9 0.116338 0.265666 0.817471
O O10 0.321480 0.275463 0.745878
O O11 0.150102 0.000000 0.852673
O O12 0.000000 0.269237 0.000000
O O13 0.003330 0.500000 0.838320
O O14 0.095673 0.213183 0.730007
O O15 0.654105 0.719755 0.518211
O O16 0.970616 0.727160 0.317562
O O17 0.818485 0.000000 0.407294
O O18 0.546519 0.500000 0.093279
O O19 0.717313 0.768944 0.938327
O O20 0.817151 0.500000 0.816687
O O21 0.482690 0.000000 0.643157
#
# Coordination Sequence:
#
# PCOD9145912 Si02
#       8
#     4   4   4   4   4   4   4   4
#     4   7  11  20  42  73 103 134 166 206 259 307
#     4  10  19  32  54  81 107 134 169 217 264 306
#     4  10  20  37  60  80 102 137 176 216 260 310
#     4  11  22  36  57  84 109 134 170 217 263 312
#     4  11  23  37  53  75 107 145 178 213 257 310
#     4   8  13  25  46  77 108 132 166 213 262 308
#     4   9  15  28  50  76 105 136 172 215 260 307
#     4  10  23  40  55  75 104 139 180 216 255 313
#
# _framework density 19.717661
#
# number of rings (size 3 to 8) (size 9 to 14) (size 15 to 20)
#    0.000    2.500    2.500    2.250    0.000    2.750 
#    0.000    2.500    0.000    4.875    0.000    5.250 
#    0.000    0.000    0.000    0.000    0.000    0.000 
#
# Total GULP energy -178427.453713 kJ/mol
# GULP energy per Si atom -5575.857929 kJ/mol
# Density = 1.967278 g / cm^3
# Si number density = 19.717661 Si / 1000 Ang^3
#
#
#
# Elastic Constant Matrix: (Units=GPa)
#
#
# Indices 1 2 3 4 5 6 
#
# 1 141.9603 -11.6187 43.3926 0.0000 -28.9322 0.0000
# 2 -11.6187 25.7375 -4.3854 0.0000 -4.6291 0.0000
# 3 43.3926 -4.3854 97.9272 0.0000 -16.0084 0.0000
# 4 0.0000 0.0000 0.0000 13.3030 0.0000 -0.5348
# 5 -28.9322 -4.6291 -16.0084 0.0000 23.6718 0.0000
# 6 0.0000 0.0000 0.0000 -0.5348 0.0000 36.4501
#
#
#
# Elastic Compliance Matrix: (Units=1/GPa)
#
#
# Indices 1 2 3 4 5 6 
#
# 1 0.011050 0.006954 -0.002423 0.000000 0.013227 0.000000
# 2 0.006954 0.045727 0.002043 0.000000 0.018823 0.000000
# 3 -0.002423 0.002043 0.012320 0.000000 0.005770 0.000000
# 4 0.000000 0.000000 0.000000 0.075215 0.000000 0.001103
# 5 0.013227 0.018823 0.005770 0.000000 0.065993 0.000000
# 6 0.000000 0.000000 0.000000 0.001103 0.000000 0.027451
#
#
# Mechanical properties :
#
#
# Convention : Reuss Voigt Hill
#
# Bulk Modulus (GPa) = 12.15859 35.60022 23.87941
# Shear Modulus (GPa) = 19.83960 30.56743 25.20352
#
# Velocity S-wave (km/s) = 3.17548 3.94160 3.57910
# Velocity P-wave (km/s) = 4.42997 6.22970 5.40527
#
# Compressibility (1/GPa) = 0.08224635
#
# Stress axis : x y z
#
# Youngs Moduli (GPa) = 90.50163 21.86899 81.16951
#
# Poissons Ratio (x) = -0.15208 0.19664
# Poissons Ratio (y) = -0.62937 -0.16586
# Poissons Ratio (z) = 0.21924 -0.04469
#
# Static dielectric constant tensor:
#      x y z
#    x 1.705370 0.000000 -0.039630 
#    y 0.000000 1.710370 0.000000 
#    z -0.039630 0.000000 1.686910 
# 
# From -- ./inp_files/93591.got.cif
#   From: 2010.05.17/outbox.cif.g08.bks.cpg/sg10_47_cif.got.tgz:93591.got - 2010.06.03 11:33:40.
