data_PCOD9145217
_publ_section_title
;
Structure prediction by ZEFSAII (Michael W. Deem and Ramdas Pophale) SiO2 
 PCOD9145217
Probable space group: P 2/M
;
_chemical_formula_sum "Si O2"
_cell_formula_units_Z 32
_cell_length_a 17.132667
_cell_length_b 9.366163
_cell_length_c 26.424389
_cell_angle_alpha 90.000000
_cell_angle_beta 157.317545
_cell_angle_gamma 90.000000
_cell_volume 1635.140823
_symmetry_space_group_name_H-M "P 2/M"
_symmetry_group_IT_number 10
_symmetry_cell_setting 'monoclinic'
loop_
_space_group_symop_operation_xyz
x,y,z
-x,y,-z
-x,-y,-z
x,-y,z
loop_
_atom_site_type_symbol
_atom_site_label
_atom_site_fract_x
_atom_site_fract_y
_atom_site_fract_z
Si Si1 0.231413 0.335033 0.585375
Si Si2 0.796560 0.666722 0.981561
Si Si3 0.320314 0.663416 0.196341
Si Si4 0.091143 0.169650 0.675418
Si Si5 0.821061 0.334331 0.716528
Si Si6 0.564543 0.166177 0.637947
Si Si7 0.899763 0.833560 0.662538
Si Si8 0.595169 0.169292 0.218469
O O1 0.179041 0.500000 0.563685
O O2 0.451600 0.334049 0.690154
O O3 0.260496 0.246433 0.654254
O O4 0.070326 0.259871 0.452951
O O5 0.729750 0.500000 0.941616
O O6 0.815357 0.705053 0.933324
O O7 0.623512 0.761862 0.903638
O O8 0.999349 0.676539 0.134852
O O9 0.271706 0.500000 0.182696
O O10 0.329367 0.764656 0.249891
O O11 0.307624 0.192522 0.778560
O O12 0.064097 0.204700 0.718242
O O13 0.043617 0.000000 0.642001
O O14 0.770559 0.500000 0.678854
O O15 0.637289 0.248971 0.631743
O O16 0.894916 0.263708 0.708874
O O17 0.321683 0.179166 0.496029
O O18 0.615739 0.000000 0.664234
O O19 0.925065 0.000000 0.692239
O O20 0.589334 0.000000 0.224867
#
# Coordination Sequence:
#
# PCOD9145217 Si02
#       8
#     4   4   4   4   4   4   4   4
#     4  10  19  31  51  81 118 154 186 226 278 333
#     4   9  21  41  59  80 114 152 189 233 282 331
#     4   9  18  34  56  82 113 148 184 226 278 334
#     4  10  20  35  54  81 115 150 187 231 281 332
#     4  11  24  41  61  82 109 148 192 237 284 337
#     4  11  22  37  60  87 115 146 182 230 286 337
#     4  10  22  40  59  82 116 149 185 234 283 333
#     4  10  20  33  55  83 112 149 190 230 277 333
#
# _framework density 19.570179
#
# number of rings (size 3 to 8) (size 9 to 14) (size 15 to 20)
#    0.000    2.000    1.250    3.000    0.000    9.000 
#    0.000    3.125    0.000    3.750    0.000    0.000 
#    0.000    0.000    0.000    0.000    0.000    0.000 
#
# Total GULP energy -178774.358169 kJ/mol
# GULP energy per Si atom -5586.698693 kJ/mol
# Density = 1.952564 g / cm^3
# Si number density = 19.570179 Si / 1000 Ang^3
#
#
#
# Elastic Constant Matrix: (Units=GPa)
#
#
# Indices 1 2 3 4 5 6 
#
# 1 138.6958 73.8848 13.4986 0.0000 -7.5776 0.0000
# 2 73.8848 96.4160 22.4224 0.0000 -7.7247 0.0000
# 3 13.4986 22.4224 31.4111 0.0000 -9.1392 0.0000
# 4 0.0000 0.0000 0.0000 6.6325 0.0000 -19.1345
# 5 -7.5776 -7.7247 -9.1392 0.0000 22.1915 0.0000
# 6 0.0000 0.0000 0.0000 -19.1345 0.0000 22.9050
#
#
#
# Elastic Compliance Matrix: (Units=1/GPa)
#
#
# Indices 1 2 3 4 5 6 
#
# 1 0.012317 -0.009816 0.002208 0.000000 0.001698 0.000000
# 2 -0.009816 0.020271 -0.010423 0.000000 -0.000588 0.000000
# 3 0.002208 -0.010423 0.042595 0.000000 0.014668 0.000000
# 4 0.000000 0.000000 0.000000 -0.106927 0.000000 -0.089325
# 5 0.001698 -0.000588 0.014668 0.000000 0.051478 0.000000
# 6 0.000000 0.000000 0.000000 -0.089325 0.000000 -0.030962
#
#
# Mechanical properties :
#
#
# Convention : Reuss Voigt Hill
#
# Bulk Modulus (GPa) = 25.56170 54.01495 39.78833
# Shear Modulus (GPa) = 132.01790 20.79363 76.40577
#
# Velocity S-wave (km/s) = 8.22224 3.26316 6.25513
# Velocity P-wave (km/s) = 10.16022 6.46979 8.51729
#
# Compressibility (1/GPa) = 0.03912103
#
# Stress axis : x y z
#
# Youngs Moduli (GPa) = 81.18795 49.33208 23.47704
#
# Poissons Ratio (x) = 0.48425 -0.05184
# Poissons Ratio (y) = 0.79696 0.24470
# Poissons Ratio (z) = -0.17928 0.51418
#
# Static dielectric constant tensor:
#      x y z
#    x 1.702600 0.000000 0.017640 
#    y 0.000000 1.656660 0.000000 
#    z 0.017640 0.000000 1.692010 
# 
# From -- ./inp_files/89642.got.cif
#   From: 2010.05.17/outbox.cif.g08.bks.cpg/sg10_45_cif.got.tgz:89642.got - 2010.06.03 11:33:40.
