data_PCOD9145672
_publ_section_title
;
Structure prediction by ZEFSAII (Michael W. Deem and Ramdas Pophale) SiO2 
 PCOD9145672
Probable space group: P 2/M
;
_chemical_formula_sum "Si O2"
_cell_formula_units_Z 32
_cell_length_a 26.251827
_cell_length_b 13.868853
_cell_length_c 9.696277
_cell_angle_alpha 90.000000
_cell_angle_beta 150.902736
_cell_angle_gamma 90.000000
_cell_volume 1716.736717
_symmetry_space_group_name_H-M "P 2/M"
_symmetry_group_IT_number 10
_symmetry_cell_setting 'monoclinic'
loop_
_space_group_symop_operation_xyz
x,y,z
-x,y,-z
-x,-y,-z
x,-y,z
loop_
_atom_site_type_symbol
_atom_site_label
_atom_site_fract_x
_atom_site_fract_y
_atom_site_fract_z
Si Si1 0.115109 0.110808 0.742435
Si Si2 0.616159 0.224922 0.253365
Si Si3 0.105484 0.293820 0.333415
Si Si4 0.339675 0.884491 0.366249
Si Si5 0.788767 0.610308 0.660538
Si Si6 0.567393 0.113691 0.859621
Si Si7 0.003412 0.614184 0.670869
Si Si8 0.210045 0.106773 0.671220
O O1 0.136131 0.106354 0.629490
O O2 0.000000 0.152783 0.500000
O O3 0.110609 0.000000 0.786184
O O4 0.223952 0.155616 0.055780
O O5 0.638606 0.146467 0.425146
O O6 0.699542 0.309895 0.461426
O O7 0.500000 0.266324 0.000000
O O8 0.608661 0.170362 0.090466
O O9 0.162165 0.374934 0.376072
O O10 0.172957 0.196841 0.495455
O O11 0.076064 0.328228 0.417652
O O12 0.000000 0.272443 0.000000
O O13 0.448566 0.853057 0.547695
O O14 0.331949 0.000000 0.329519
O O15 0.753697 0.500000 0.595375
O O16 0.881725 0.629752 0.990484
O O17 0.556373 0.000000 0.864788
O O18 0.667890 0.119599 0.996659
O O19 0.980720 0.500000 0.632961
O O20 0.000000 0.635333 0.500000
O O21 0.202893 0.000000 0.588494
#
# Coordination Sequence:
#
# PCOD9145672 Si02
#       8
#     4   4   4   4   4   4   4   4
#     4   9  19  34  48  70 107 144 175 210 257 312
#     4  10  19  32  52  77 103 129 172 217 264 312
#     4  10  20  34  53  77 106 141 178 215 264 318
#     4   9  18  32  53  76 102 140 177 215 262 307
#     4  10  20  35  54  77 106 137 171 215 269 322
#     4   9  17  32  52  75 102 133 177 224 257 297
#     4   9  19  36  58  82 104 132 176 226 266 308
#     4  10  20  33  50  73 106 142 177 218 257 307
#
# _framework density 18.640015999999999
#
# number of rings (size 3 to 8) (size 9 to 14) (size 15 to 20)
#    0.000    2.500    1.250    0.750    0.000    7.500 
#    0.000    2.500    0.000    0.000    0.000    0.000 
#    0.000    6.250    0.000    0.000    0.000    0.000 
#
# Total GULP energy -178163.364763 kJ/mol
# GULP energy per Si atom -5567.605149 kJ/mol
# Density = 1.859759 g / cm^3
# Si number density = 18.640016 Si / 1000 Ang^3
#
#
#
# Elastic Constant Matrix: (Units=GPa)
#
#
# Indices 1 2 3 4 5 6 
#
# 1 81.9186 12.3102 33.9677 0.0000 17.3311 0.0000
# 2 12.3102 56.9379 27.5646 0.0000 4.7714 0.0000
# 3 33.9677 27.5646 64.3389 0.0000 26.5113 0.0000
# 4 0.0000 0.0000 0.0000 19.5186 0.0000 9.7546
# 5 17.3311 4.7714 26.5113 0.0000 37.6305 0.0000
# 6 0.0000 0.0000 0.0000 9.7546 0.0000 16.3209
#
#
#
# Elastic Compliance Matrix: (Units=1/GPa)
#
#
# Indices 1 2 3 4 5 6 
#
# 1 0.015742 0.000514 -0.007774 0.000000 -0.001839 0.000000
# 2 0.000514 0.023003 -0.012438 0.000000 0.005609 0.000000
# 3 -0.007774 -0.012438 0.032197 0.000000 -0.017526 0.000000
# 4 0.000000 0.000000 0.000000 0.073054 0.000000 -0.043663
# 5 -0.001839 0.005609 -0.017526 0.000000 0.039057 0.000000
# 6 0.000000 0.000000 0.000000 -0.043663 0.000000 0.087368
#
#
# Mechanical properties :
#
#
# Convention : Reuss Voigt Hill
#
# Bulk Modulus (GPa) = 31.69808 38.98671 35.34240
# Shear Modulus (GPa) = 15.60873 23.31751 19.46312
#
# Velocity S-wave (km/s) = 2.89689 3.54070 3.23485
# Velocity P-wave (km/s) = 5.31334 6.13811 5.74056
#
# Compressibility (1/GPa) = 0.03154765
#
# Stress axis : x y z
#
# Youngs Moduli (GPa) = 63.52271 43.47214 31.05846
#
# Poissons Ratio (x) = -0.02234 0.24144
# Poissons Ratio (y) = -0.03264 0.38630
# Poissons Ratio (z) = 0.49380 0.54070
#
# Static dielectric constant tensor:
#      x y z
#    x 1.693980 0.000000 0.027540 
#    y 0.000000 1.624560 0.000000 
#    z 0.027540 0.000000 1.663950 
# 
# From -- ./inp_files/36386.got.cif
#   From: 2010.05.17/outbox.cif.g08.bks.cpg/sg10_19_cif.got.tgz:36386.got - 2010.06.03 11:33:40.
