data_PCOD9145596
_publ_section_title
;
Structure prediction by ZEFSAII (Michael W. Deem and Ramdas Pophale) SiO2 
 PCOD9145596
Probable space group: P 2/M
;
_chemical_formula_sum "Si O2"
_cell_formula_units_Z 28
_cell_length_a 9.096737
_cell_length_b 7.586925
_cell_length_c 25.880102
_cell_angle_alpha 90.000000
_cell_angle_beta 45.108553
_cell_angle_gamma 90.000000
_cell_volume 1265.387896
_symmetry_space_group_name_H-M "P 2/M"
_symmetry_group_IT_number 10
_symmetry_cell_setting 'monoclinic'
loop_
_space_group_symop_operation_xyz
x,y,z
-x,y,-z
-x,-y,-z
x,-y,z
loop_
_atom_site_type_symbol
_atom_site_label
_atom_site_fract_x
_atom_site_fract_y
_atom_site_fract_z
Si Si1 0.525401 0.797058 0.659821
Si Si2 0.670751 0.784490 0.095050
Si Si3 0.376537 0.713351 0.478783
Si Si4 0.212758 0.205803 0.231363
Si Si5 0.067844 0.216442 0.791575
Si Si6 0.065967 0.214397 0.064806
Si Si7 0.073473 0.297626 0.378975
O O1 0.526159 0.786666 0.597704
O O2 0.306762 0.723892 0.734077
O O3 0.732391 0.710469 0.630699
O O4 0.539353 0.000000 0.673278
O O5 0.444056 0.719643 0.166955
O O6 0.852133 0.731509 0.089625
O O7 0.670237 0.000000 0.096484
O O8 0.746527 0.730519 0.019064
O O9 0.500000 0.761845 0.500000
O O10 0.382519 0.500000 0.472444
O O11 0.138081 0.774331 0.543920
O O12 0.136266 0.216404 0.308835
O O13 0.047466 0.278395 0.231455
O O14 0.231575 0.000000 0.213330
O O15 0.943532 0.270296 0.873603
O O16 0.078026 0.000000 0.788251
O O17 0.069277 0.000000 0.064174
O O18 0.026629 0.500000 0.378445
#
# Coordination Sequence:
#
# PCOD9145596 Si02
#       7
#     4   4   4   4   4   4   4
#     4  11  22  36  56  81 107 136 172 214 258 302
#     4   8  14  24  43  70 101 137 172 208 251 301
#     4  10  22  40  59  79 106 138 171 209 254 306
#     4  10  19  32  51  77 106 135 171 215 260 302
#     4   9  18  30  47  75 109 138 167 210 260 307
#     4   8  13  24  41  67 104 139 169 204 252 305
#     4  11  23  38  56  77 102 136 175 211 253 308
#
# _framework density 22.127603000000001
#
# number of rings (size 3 to 8) (size 9 to 14) (size 15 to 20)
#    0.000    2.429    0.000    3.857    0.000    6.000 
#    0.000    3.571    0.000    0.000    0.000   11.000 
#    0.000    0.000    0.000    0.000    0.000    0.000 
#
# Total GULP energy -156393.144662 kJ/mol
# GULP energy per Si atom -5585.469452 kJ/mol
# Density = 2.207724 g / cm^3
# Si number density = 22.127603 Si / 1000 Ang^3
#
#
#
# Elastic Constant Matrix: (Units=GPa)
#
#
# Indices 1 2 3 4 5 6 
#
# 1 36.4421 -4.6979 -26.2121 0.0000 21.6121 0.0000
# 2 -4.6979 43.8988 -3.0795 0.0000 -8.2390 0.0000
# 3 -26.2121 -3.0795 50.5702 0.0000 13.2327 0.0000
# 4 0.0000 0.0000 0.0000 44.2162 0.0000 19.9754
# 5 21.6121 -8.2390 13.2327 0.0000 34.2199 0.0000
# 6 0.0000 0.0000 0.0000 19.9754 0.0000 18.9464
#
#
#
# Elastic Compliance Matrix: (Units=1/GPa)
#
#
# Indices 1 2 3 4 5 6 
#
# 1 -0.285126 0.003990 -0.216862 0.000000 0.264895 0.000000
# 2 0.003990 0.023802 0.002979 0.000000 0.002059 0.000000
# 3 -0.216862 0.002979 -0.142940 0.000000 0.192954 0.000000
# 4 0.000000 0.000000 0.000000 0.043186 0.000000 -0.045531
# 5 0.264895 0.002059 0.192954 0.000000 -0.212194 0.000000
# 6 0.000000 0.000000 0.000000 -0.045531 0.000000 0.100784
#
#
# Mechanical properties :
#
#
# Convention : Reuss Voigt Hill
#
# Bulk Modulus (GPa) = -1.21352 6.99246 2.88947
# Shear Modulus (GPa) = -15.27252 30.46987 7.59868
#
# Velocity S-wave (km/s) = -2.63002 3.71483 1.85512
# Velocity P-wave (km/s) = 3.12606 4.64402 2.42844
#
# Compressibility (1/GPa) = -0.82405083
#
# Stress axis : x y z
#
# Youngs Moduli (GPa) = -3.50722 42.01322 -6.99593
#
# Poissons Ratio (x) = -0.16762 -1.51715
# Poissons Ratio (y) = 0.01399 0.02084
# Poissons Ratio (z) = -0.76058 -0.12514
#
# Static dielectric constant tensor:
#      x y z
#    x 1.772170 0.000000 -0.017080 
#    y 0.000000 1.867180 0.000000 
#    z -0.017080 0.000000 1.788140 
# 
# From -- ./inp_files/94507.got.cif
#   From: 2010.05.17/outbox.cif.g08.bks.cpg/sg10_48_cif.got.tgz:94507.got - 2010.06.03 11:33:40.
