data_PCOD9145713
_publ_section_title
;
Structure prediction by ZEFSAII (Michael W. Deem and Ramdas Pophale) SiO2 
 PCOD9145713
Probable space group: P 2/M
;
_chemical_formula_sum "Si O2"
_cell_formula_units_Z 28
_cell_length_a 8.377999
_cell_length_b 32.925662
_cell_length_c 5.371819
_cell_angle_alpha 90.000000
_cell_angle_beta 111.770467
_cell_angle_gamma 90.000000
_cell_volume 1376.134677
_symmetry_space_group_name_H-M "P 2/M"
_symmetry_group_IT_number 10
_symmetry_cell_setting 'monoclinic'
loop_
_space_group_symop_operation_xyz
x,y,z
-x,y,-z
-x,-y,-z
x,-y,z
loop_
_atom_site_type_symbol
_atom_site_label
_atom_site_fract_x
_atom_site_fract_y
_atom_site_fract_z
Si Si1 0.832024 0.655548 0.031110
Si Si2 0.701116 0.580036 0.679589
Si Si3 0.295735 0.739848 0.879708
Si Si4 0.117018 0.956252 0.317759
Si Si5 0.384382 0.500000 0.175968
Si Si6 0.292725 0.782395 0.379435
Si Si7 0.115970 0.132567 0.317098
Si Si8 0.000000 0.591764 0.500000
O O1 0.732749 0.692032 0.099637
O O2 0.900774 0.621915 0.258973
O O3 0.733932 0.626409 0.782304
O O4 0.000000 0.674226 0.000000
O O5 0.500000 0.580029 0.500000
O O6 0.718815 0.542389 0.881059
O O7 0.846726 0.569912 0.559127
O O8 0.227543 0.756490 0.578283
O O9 0.500000 0.746918 0.000000
O O10 0.227335 0.764099 0.080561
O O11 0.205240 0.912062 0.370537
O O12 0.000000 0.956334 0.500000
O O13 0.211867 0.000000 0.372409
O O14 0.000000 0.956275 0.000000
O O15 0.500000 0.500000 0.500000
O O16 0.500000 0.500000 0.000000
O O17 0.500000 0.779368 0.500000
O O18 0.239209 0.828890 0.380984
O O19 0.000000 0.135260 0.500000
O O20 0.000000 0.134313 0.000000
#
# Coordination Sequence:
#
# PCOD9145713 Si02
#       8
#     4   4   4   4   2   4   4   2
#     4  10  24  41  60  92 121 155 199 248 300 355
#     4  10  24  42  71  94 130 168 204 256 304 359
#     4  10  23  38  61  81 109 150 197 232 285 350
#     4   8  14  25  43  69 101 133 173 226 276 330
#     4  10  24  43  69 105 128 165 217 249 301 368
#     4  10  22  39  53  80 111 148 188 233 288 348
#     4  10  19  32  52  79 105 141 187 229 284 339
#     4  10  24  43  60 100 128 160 212 246 307 372
#
# _framework density 20.346844999999998
#
# number of rings (size 3 to 8) (size 9 to 14) (size 15 to 20)
#    0.000    2.286    0.000    0.857   10.000    2.571 
#    0.000    3.214    0.000    0.429    0.000    0.000 
#    0.000   14.857    0.000    0.000    0.000    2.286 
#
# Total GULP energy -155960.440706 kJ/mol
# GULP energy per Si atom -5570.015739 kJ/mol
# Density = 2.030053 g / cm^3
# Si number density = 20.346845 Si / 1000 Ang^3
#
#
#
# Elastic Constant Matrix: (Units=GPa)
#
#
# Indices 1 2 3 4 5 6 
#
# 1 75.7846 45.6517 42.2429 0.0000 -25.8773 0.0000
# 2 45.6517 133.5288 17.8587 0.0000 -16.2658 0.0000
# 3 42.2429 17.8587 84.7377 0.0000 -33.3197 0.0000
# 4 0.0000 0.0000 0.0000 32.6309 0.0000 -14.7559
# 5 -25.8773 -16.2658 -33.3197 0.0000 26.8197 0.0000
# 6 0.0000 0.0000 0.0000 -14.7559 0.0000 23.4674
#
#
#
# Elastic Compliance Matrix: (Units=1/GPa)
#
#
# Indices 1 2 3 4 5 6 
#
# 1 0.024430 -0.006032 -0.006016 0.000000 0.012438 0.000000
# 2 -0.006032 0.009584 0.001924 0.000000 0.002383 0.000000
# 3 -0.006016 0.001924 0.024577 0.000000 0.025896 0.000000
# 4 0.000000 0.000000 0.000000 0.042822 0.000000 0.026926
# 5 0.012438 0.002383 0.025896 0.000000 0.082905 0.000000
# 6 0.000000 0.000000 0.000000 0.026926 0.000000 0.059543
#
#
# Mechanical properties :
#
#
# Convention : Reuss Voigt Hill
#
# Bulk Modulus (GPa) = 26.08056 56.17308 41.12682
# Shear Modulus (GPa) = 18.05765 29.13679 23.59722
#
# Velocity S-wave (km/s) = 2.98231 3.78829 3.40920
# Velocity P-wave (km/s) = 4.97038 6.84124 5.97943
#
# Compressibility (1/GPa) = 0.03834274
#
# Stress axis : x y z
#
# Youngs Moduli (GPa) = 40.93346 104.33683 40.68772
#
# Poissons Ratio (x) = 0.62940 0.24480
# Poissons Ratio (y) = 0.24693 -0.07830
# Poissons Ratio (z) = 0.24627 -0.20078
#
# Static dielectric constant tensor:
#      x y z
#    x 1.718370 0.000000 -0.048980 
#    y 0.000000 1.730910 0.000000 
#    z -0.048980 0.000000 1.678370 
# 
# From -- ./inp_files/5479.got.cif
#   From: 2010.05.17/outbox.cif.g08.bks.cpg/sg10_3_cif.got.tgz:5479.got - 2010.06.03 11:33:40.
