data_PCOD9145800
_publ_section_title
;
Structure prediction by ZEFSAII (Michael W. Deem and Ramdas Pophale) SiO2 
 PCOD9145800
Probable space group: P 2/M
;
_chemical_formula_sum "Si O2"
_cell_formula_units_Z 24
_cell_length_a 21.620697
_cell_length_b 7.625445
_cell_length_c 29.752142
_cell_angle_alpha 90.000000
_cell_angle_beta 15.999217
_cell_angle_gamma 90.000000
_cell_volume 1351.980720
_symmetry_space_group_name_H-M "P 2/M"
_symmetry_group_IT_number 10
_symmetry_cell_setting 'monoclinic'
loop_
_space_group_symop_operation_xyz
x,y,z
-x,y,-z
-x,-y,-z
x,-y,z
loop_
_atom_site_type_symbol
_atom_site_label
_atom_site_fract_x
_atom_site_fract_y
_atom_site_fract_z
Si Si1 0.859845 0.000000 0.772718
Si Si2 0.222697 0.296384 0.517336
Si Si3 0.345208 0.212247 0.736744
Si Si4 0.487380 0.707296 0.242860
Si Si5 0.613493 0.000000 0.849512
Si Si6 0.265717 0.293169 0.305587
Si Si7 0.078492 0.210390 0.013933
O O1 0.764755 0.000000 0.788484
O O2 0.015166 0.170210 0.670957
O O3 0.645042 0.000000 0.954907
O O4 0.159833 0.500000 0.555213
O O5 0.406943 0.283672 0.428493
O O6 0.350242 0.228950 0.382665
O O7 0.210596 0.263519 0.876204
O O8 0.360918 0.000000 0.724850
O O9 0.179016 0.269712 0.812563
O O10 0.448316 0.500000 0.269960
O O11 0.392161 0.772334 0.262276
O O12 0.752718 0.735937 0.064737
O O13 0.668165 0.171087 0.781865
O O14 0.316971 0.500000 0.262170
O O15 0.000000 0.279646 0.500000
O O16 0.071510 0.000000 0.018889
#
# Coordination Sequence:
#
# PCOD9145800 Si02
#       7
#     2   4   4   4   2   4   4
#     4  11  24  40  54  76 103 131 179 222 244 305
#     4  10  19  32  53  78 107 142 172 210 259 300
#     4   8  13  25  41  67 106 140 172 207 244 300
#     4   9  18  29  47  78 109 137 171 210 256 314
#     4  11  25  40  58  77 100 139 173 209 265 303
#     4  10  21  38  58  82 109 133 167 213 258 312
#     4   8  14  22  40  68 104 143 168 200 252 304
#
# _framework density 17.751732000000001
#
# number of rings (size 3 to 8) (size 9 to 14) (size 15 to 20)
#    0.000    2.667    0.833    2.250    2.333    3.333 
#    0.000    5.000    0.000    0.000    0.000    2.333 
#    0.000    4.000    0.000    0.000    0.000    0.000 
#
# Total GULP energy -133695.127780 kJ/mol
# GULP energy per Si atom -5570.630324 kJ/mol
# Density = 1.771133 g / cm^3
# Si number density = 17.751732 Si / 1000 Ang^3
#
#
#
# Elastic Constant Matrix: (Units=GPa)
#
#
# Indices 1 2 3 4 5 6 
#
# 1 89.4396 29.9692 50.5912 0.0000 -23.6974 0.0000
# 2 29.9692 82.4869 48.4238 0.0000 -5.8871 0.0000
# 3 50.5912 48.4238 94.5657 0.0000 -21.1741 0.0000
# 4 0.0000 0.0000 0.0000 10.9044 0.0000 -15.2537
# 5 -23.6974 -5.8871 -21.1741 0.0000 26.2466 0.0000
# 6 0.0000 0.0000 0.0000 -15.2537 0.0000 28.9324
#
#
#
# Elastic Compliance Matrix: (Units=1/GPa)
#
#
# Indices 1 2 3 4 5 6 
#
# 1 0.018378 -0.002247 -0.006198 0.000000 0.011088 0.000000
# 2 -0.002247 0.017958 -0.009210 0.000000 -0.005430 0.000000
# 3 -0.006198 -0.009210 0.020615 0.000000 0.008969 0.000000
# 4 0.000000 0.000000 0.000000 0.349357 0.000000 0.184188
# 5 0.011088 -0.005430 0.008969 0.000000 0.054129 0.000000
# 6 0.000000 0.000000 0.000000 0.184188 0.000000 0.131671
#
#
# Mechanical properties :
#
#
# Convention : Reuss Voigt Hill
#
# Bulk Modulus (GPa) = 46.20904 58.27342 52.24123
# Shear Modulus (GPa) = 7.87859 22.38389 15.13124
#
# Velocity S-wave (km/s) = 2.10899 3.55483 2.92272
# Velocity P-wave (km/s) = 5.65842 7.05317 6.39394
#
# Compressibility (1/GPa) = 0.02164079
#
# Stress axis : x y z
#
# Youngs Moduli (GPa) = 54.41411 55.68398 48.50848
#
# Poissons Ratio (x) = 0.12511 0.30068
# Poissons Ratio (y) = 0.12226 0.44676
# Poissons Ratio (z) = 0.33729 0.51284
#
# Static dielectric constant tensor:
#      x y z
#    x 1.650050 0.000000 -0.038430 
#    y 0.000000 1.628690 0.000000 
#    z -0.038430 0.000000 1.589370 
# 
# From -- ./inp_files/90021.got.cif
#   From: 2010.05.17/outbox.cif.g08.bks.cpg/sg10_46_cif.got.tgz:90021.got - 2010.06.03 11:33:40.
