data_PCOD9145360
_publ_section_title
;
Structure prediction by ZEFSAII (Michael W. Deem and Ramdas Pophale) SiO2 
 PCOD9145360
Probable space group: P 2/M
;
_chemical_formula_sum "Si O2"
_cell_formula_units_Z 32
_cell_length_a 15.048293
_cell_length_b 7.444723
_cell_length_c 14.541916
_cell_angle_alpha 90.000000
_cell_angle_beta 87.535475
_cell_angle_gamma 90.000000
_cell_volume 1627.629383
_symmetry_space_group_name_H-M "P 2/M"
_symmetry_group_IT_number 10
_symmetry_cell_setting 'monoclinic'
loop_
_space_group_symop_operation_xyz
x,y,z
-x,y,-z
-x,-y,-z
x,-y,z
loop_
_atom_site_type_symbol
_atom_site_label
_atom_site_fract_x
_atom_site_fract_y
_atom_site_fract_z
Si Si1 0.285308 0.793121 0.853229
Si Si2 0.869682 0.220487 0.264938
Si Si3 0.806132 0.219684 0.657717
Si Si4 0.480037 0.779178 0.895920
Si Si5 0.346272 0.793255 0.210320
Si Si6 0.785970 0.708586 0.948072
Si Si7 0.058485 0.783699 0.187237
Si Si8 0.901526 0.780965 0.472578
O O1 0.220002 0.714765 0.779640
O O2 0.383093 0.716935 0.867892
O O3 0.300554 0.000000 0.826102
O O4 0.232270 0.789787 0.951949
O O5 0.879943 0.276217 0.370293
O O6 0.957625 0.277218 0.204809
O O7 0.869243 0.000000 0.263470
O O8 0.713104 0.284617 0.704623
O O9 0.883539 0.273004 0.726226
O O10 0.832560 0.275673 0.554486
O O11 0.804635 0.000000 0.659238
O O12 0.560223 0.716429 0.827079
O O13 0.480472 0.000000 0.896657
O O14 0.500000 0.725218 0.000000
O O15 0.280281 0.790904 0.125051
O O16 0.364000 0.000000 0.234044
O O17 0.763604 0.500000 0.954836
O O18 0.885427 0.727824 0.904279
O O19 0.057913 0.000000 0.187326
O O20 0.000000 0.725280 0.500000
O O21 0.902154 0.000000 0.471622
#
# Coordination Sequence:
#
# PCOD9145360 Si02
#       8
#     4   4   4   4   4   4   4   4
#     4  10  19  32  47  65  90 121 157 192 223 264
#     4   9  17  27  44  68  92 120 155 191 222 259
#     4   8  13  21  40  66  92 116 140 180 224 266
#     4   9  15  26  47  68  86 117 155 191 226 263
#     4   9  16  29  48  69  90 118 155 187 224 271
#     4  11  21  31  44  66  93 122 151 186 230 272
#     4   9  16  29  46  66  90 121 155 183 216 265
#     4   9  13  21  39  68  98 115 140 187 234 263
#
# _framework density 19.660494
#
# number of rings (size 3 to 8) (size 9 to 14) (size 15 to 20)
#    0.000    2.750    2.500    1.875    0.000    0.500 
#    0.000    4.375    0.000    0.750    0.000   15.750 
#    0.000    0.000    0.000    5.625    0.000    6.250 
#
# Total GULP energy -178519.245474 kJ/mol
# GULP energy per Si atom -5578.726421 kJ/mol
# Density = 1.961575 g / cm^3
# Si number density = 19.660494 Si / 1000 Ang^3
#
#
#
# Elastic Constant Matrix: (Units=GPa)
#
#
# Indices 1 2 3 4 5 6 
#
# 1 180.5392 6.0972 95.6077 0.0000 -8.0676 0.0000
# 2 6.0972 61.7182 -6.8840 0.0000 -0.6176 0.0000
# 3 95.6077 -6.8840 113.9875 0.0000 -8.1185 0.0000
# 4 0.0000 0.0000 0.0000 -27.1529 0.0000 5.3304
# 5 -8.0676 -0.6176 -8.1185 0.0000 27.7002 0.0000
# 6 0.0000 0.0000 0.0000 5.3304 0.0000 -33.4482
#
#
#
# Elastic Compliance Matrix: (Units=1/GPa)
#
#
# Indices 1 2 3 4 5 6 
#
# 1 0.010203 -0.001969 -0.008649 0.000000 0.000393 0.000000
# 2 -0.001969 0.016704 0.002702 0.000000 0.000591 0.000000
# 3 -0.008649 0.002702 0.016357 0.000000 0.002335 0.000000
# 4 0.000000 0.000000 0.000000 -0.038018 0.000000 -0.006059
# 5 0.000393 0.000591 0.002335 0.000000 0.036913 0.000000
# 6 0.000000 0.000000 0.000000 -0.006059 0.000000 -0.030862
#
#
# Mechanical properties :
#
#
# Convention : Reuss Voigt Hill
#
# Bulk Modulus (GPa) = 36.45169 60.65408 48.55289
# Shear Modulus (GPa) = 137.84592 10.84807 74.34700
#
# Velocity S-wave (km/s) = 8.38244 2.35153 6.15610
# Velocity P-wave (km/s) = 10.59566 6.18794 8.67636
#
# Compressibility (1/GPa) = 0.02743357
#
# Stress axis : x y z
#
# Youngs Moduli (GPa) = 98.00850 59.86411 61.13687
#
# Poissons Ratio (x) = 0.11786 0.52877
# Poissons Ratio (y) = 0.19296 -0.16521
# Poissons Ratio (z) = 0.84767 -0.16177
#
# Static dielectric constant tensor:
#      x y z
#    x 1.693410 0.000000 -0.021610 
#    y 0.000000 1.726080 0.000000 
#    z -0.021610 0.000000 1.665340 
# 
# From -- ./inp_files/66106.got.cif
#   From: 2010.05.17/outbox.cif.g08.bks.cpg/sg10_34_cif.got.tgz:66106.got - 2010.06.03 11:33:40.
