data_PCOD9145947
_publ_section_title
;
Structure prediction by ZEFSAII (Michael W. Deem and Ramdas Pophale) SiO2 
 PCOD9145947
Probable space group: P 2/M
;
_chemical_formula_sum "Si O2"
_cell_formula_units_Z 32
_cell_length_a 14.806398
_cell_length_b 21.650048
_cell_length_c 14.806414
_cell_angle_alpha 90.000000
_cell_angle_beta 159.478165
_cell_angle_gamma 90.000000
_cell_volume 1663.894847
_symmetry_space_group_name_H-M "P 2/M"
_symmetry_group_IT_number 10
_symmetry_cell_setting 'monoclinic'
loop_
_space_group_symop_operation_xyz
x,y,z
-x,y,-z
-x,-y,-z
x,-y,z
loop_
_atom_site_type_symbol
_atom_site_label
_atom_site_fract_x
_atom_site_fract_y
_atom_site_fract_z
Si Si1 0.870598 0.704910 0.129406
Si Si2 0.109445 0.567498 0.890556
Si Si3 0.778251 0.909687 0.221750
Si Si4 0.226427 0.237966 0.773572
Si Si5 0.427136 0.732431 0.572872
Si Si6 0.445751 0.124169 0.554251
Si Si7 0.891104 0.073491 0.108896
Si Si8 0.550794 0.592710 0.449205
O O1 0.824890 0.742185 0.175118
O O2 0.144728 0.725423 0.349184
O O3 0.862121 0.631147 0.137877
O O4 0.650821 0.725424 0.855277
O O5 0.132432 0.500000 0.867564
O O6 0.328107 0.572855 0.171973
O O7 0.828031 0.572856 0.671898
O O8 0.772202 0.835859 0.227800
O O9 0.834296 0.919888 0.165705
O O10 0.000000 0.931468 0.500000
O O11 0.500000 0.931468 0.000000
O O12 0.000000 0.262373 0.500000
O O13 0.500000 0.262373 0.000000
O O14 0.447886 0.800859 0.552119
O O15 0.453468 0.667286 0.546547
O O16 0.500000 0.102769 0.500000
O O17 0.167344 0.102035 0.334414
O O18 0.665587 0.102035 0.832657
O O19 0.899554 0.000000 0.100448
O O20 0.500000 0.567211 0.500000
#
# Coordination Sequence:
#
# PCOD9145947 Si02
#       8
#     4   4   4   4   4   4   4   4
#     4  10  20  35  56  81 114 146 179 232 280 333
#     4  10  21  34  50  73 104 149 188 215 261 320
#     4  10  21  38  63  92 119 148 185 237 299 361
#     4  10  19  32  54  83 110 135 171 221 281 340
#     4  10  20  36  58  83 109 142 186 233 290 336
#     4  12  25  42  65  88 118 160 204 252 295 339
#     4  12  27  44  63  89 121 160 203 240 286 354
#     4  10  20  33  51  77 107 136 176 230 276 321
#
# _framework density 19.231984000000001
#
# number of rings (size 3 to 8) (size 9 to 14) (size 15 to 20)
#    0.000    1.500    0.000    5.625    0.000    5.500 
#    0.000    3.750    0.000    0.750    0.000    0.000 
#    0.000    0.000    0.000    0.000    0.000    0.000 
#
# Total GULP energy -178333.074895 kJ/mol
# GULP energy per Si atom -5572.908590 kJ/mol
# Density = 1.918821 g / cm^3
# Si number density = 19.231984 Si / 1000 Ang^3
#
#
#
# Elastic Constant Matrix: (Units=GPa)
#
#
# Indices 1 2 3 4 5 6 
#
# 1 115.2584 15.9276 70.2532 0.0000 6.7440 0.0000
# 2 15.9276 93.0892 37.9764 0.0000 4.0126 0.0000
# 3 70.2532 37.9764 186.8866 0.0000 6.2864 0.0000
# 4 0.0000 0.0000 0.0000 -5.5670 0.0000 -1.4448
# 5 6.7440 4.0126 6.2864 0.0000 40.9500 0.0000
# 6 0.0000 0.0000 0.0000 -1.4448 0.0000 2.3837
#
#
#
# Elastic Compliance Matrix: (Units=1/GPa)
#
#
# Indices 1 2 3 4 5 6 
#
# 1 0.011318 -0.000180 -0.004177 0.000000 -0.001205 0.000000
# 2 -0.000180 0.011742 -0.002292 0.000000 -0.000769 0.000000
# 3 -0.004177 -0.002292 0.007394 0.000000 -0.000223 0.000000
# 4 0.000000 0.000000 0.000000 -0.155214 0.000000 -0.094079
# 5 -0.001205 -0.000769 -0.000223 0.000000 0.024728 0.000000
# 6 0.000000 0.000000 0.000000 -0.094079 0.000000 0.362486
#
#
# Mechanical properties :
#
#
# Convention : Reuss Voigt Hill
#
# Bulk Modulus (GPa) = 58.29606 71.50541 64.90074
# Shear Modulus (GPa) = 17.76378 25.62516 21.69447
#
# Velocity S-wave (km/s) = 3.04247 3.65420 3.36228
# Velocity P-wave (km/s) = 6.53606 7.42061 6.99233
#
# Compressibility (1/GPa) = 0.01715382
#
# Stress axis : x y z
#
# Youngs Moduli (GPa) = 88.35660 85.16771 135.23681
#
# Poissons Ratio (x) = 0.01536 0.56493
# Poissons Ratio (y) = 0.01594 0.31000
# Poissons Ratio (z) = 0.36909 0.19523
#
# Static dielectric constant tensor:
#      x y z
#    x 1.735560 0.000000 -0.013990 
#    y 0.000000 1.690720 0.000000 
#    z -0.013990 0.000000 1.658700 
# 
# From -- ./inp_files/67974.got.cif
#   From: 2010.05.17/outbox.cif.g08.bks.cpg/sg10_34_cif.got.tgz:67974.got - 2010.06.03 11:33:40.
