data_PCOD9145213
_publ_section_title
;
Structure prediction by ZEFSAII (Michael W. Deem and Ramdas Pophale) SiO2 
 PCOD9145213
Probable space group: P 2/M
;
_chemical_formula_sum "Si O2"
_cell_formula_units_Z 32
_cell_length_a 11.992877
_cell_length_b 9.059260
_cell_length_c 15.316330
_cell_angle_alpha 90.000000
_cell_angle_beta 93.670310
_cell_angle_gamma 90.000000
_cell_volume 1660.653912
_symmetry_space_group_name_H-M "P 2/M"
_symmetry_group_IT_number 10
_symmetry_cell_setting 'monoclinic'
loop_
_space_group_symop_operation_xyz
x,y,z
-x,y,-z
-x,-y,-z
x,-y,z
loop_
_atom_site_type_symbol
_atom_site_label
_atom_site_fract_x
_atom_site_fract_y
_atom_site_fract_z
Si Si1 0.822184 0.673794 0.036168
Si Si2 0.698597 0.176256 0.178486
Si Si3 0.932950 0.674465 0.864198
Si Si4 0.304810 0.673213 0.367354
Si Si5 0.849795 0.328762 0.334490
Si Si6 0.494153 0.826046 0.283590
Si Si7 0.364870 0.331213 0.565281
Si Si8 0.076753 0.824980 0.322472
O O1 0.794575 0.500000 0.038670
O O2 0.731944 0.766366 0.084953
O O3 0.942372 0.691440 0.090232
O O4 0.846555 0.713954 0.936994
O O5 0.783867 0.253724 0.250637
O O6 0.573508 0.212911 0.205598
O O7 0.711907 0.000000 0.185335
O O8 0.918536 0.500000 0.843020
O O9 0.921802 0.771872 0.778213
O O10 0.283575 0.500000 0.354515
O O11 0.380975 0.736318 0.293363
O O12 0.369567 0.692234 0.462507
O O13 0.189512 0.760132 0.368184
O O14 0.871734 0.500000 0.313504
O O15 0.764212 0.324155 0.410774
O O16 0.965149 0.246334 0.356679
O O17 0.570281 0.783334 0.371140
O O18 0.471060 0.000000 0.281001
O O19 0.403445 0.500000 0.587405
O O20 0.072945 0.000000 0.328779
#
# Coordination Sequence:
#
# PCOD9145213 Si02
#       8
#     4   4   4   4   4   4   4   4
#     4   9  17  30  53  81 109 139 175 214 257 308
#     4  10  19  31  51  81 113 140 171 214 265 314
#     4   9  18  33  52  78 109 142 175 213 257 308
#     4  11  23  39  57  76 101 140 186 224 262 314
#     4  10  19  34  54  76 106 141 176 216 263 313
#     4  10  21  36  55  81 111 139 172 221 272 313
#     4   9  20  37  58  81 103 134 179 226 267 311
#     4  12  24  36  52  77 110 144 177 215 264 321
#
# _framework density 19.269518000000001
#
# number of rings (size 3 to 8) (size 9 to 14) (size 15 to 20)
#    0.000    2.000    1.250    3.750    0.000    5.500 
#    0.000    3.750    0.000    0.750    0.000    5.250 
#    0.000    0.000    0.000    0.000    0.000    0.000 
#
# Total GULP energy -178699.524580 kJ/mol
# GULP energy per Si atom -5584.360143 kJ/mol
# Density = 1.922566 g / cm^3
# Si number density = 19.269518 Si / 1000 Ang^3
#
#
#
# Elastic Constant Matrix: (Units=GPa)
#
#
# Indices 1 2 3 4 5 6 
#
# 1 60.8034 21.7714 4.0808 0.0000 -26.4316 0.0000
# 2 21.7714 72.5450 13.4095 0.0000 -16.9030 0.0000
# 3 4.0808 13.4095 35.8108 0.0000 -27.0037 0.0000
# 4 0.0000 0.0000 0.0000 35.3635 0.0000 -8.7447
# 5 -26.4316 -16.9030 -27.0037 0.0000 35.8285 0.0000
# 6 0.0000 0.0000 0.0000 -8.7447 0.0000 34.9993
#
#
#
# Elastic Compliance Matrix: (Units=1/GPa)
#
#
# Indices 1 2 3 4 5 6 
#
# 1 0.042505 -0.006578 0.043841 0.000000 0.061297 0.000000
# 2 -0.006578 0.016512 -0.007456 0.000000 -0.002682 0.000000
# 3 0.043841 -0.007456 0.109938 0.000000 0.111684 0.000000
# 4 0.000000 0.000000 0.000000 0.030140 0.000000 0.007531
# 5 0.061297 -0.002682 0.111684 0.000000 0.156041 0.000000
# 6 0.000000 0.000000 0.000000 0.007531 0.000000 0.030454
#
#
# Mechanical properties :
#
#
# Convention : Reuss Voigt Hill
#
# Bulk Modulus (GPa) = 4.37504 27.52030 15.94767
# Shear Modulus (GPa) = 12.43271 29.89808 21.16539
#
# Velocity S-wave (km/s) = 2.54284 3.94328 3.31779
# Velocity P-wave (km/s) = 3.30102 5.91991 4.79281
#
# Compressibility (1/GPa) = 0.22856913
#
# Stress axis : x y z
#
# Youngs Moduli (GPa) = 23.52645 60.56251 9.09605
#
# Poissons Ratio (x) = 0.39838 -0.39878
# Poissons Ratio (y) = 0.15476 0.06782
# Poissons Ratio (z) = -1.03142 0.45156
#
# Static dielectric constant tensor:
#      x y z
#    x 1.701650 0.000000 -0.021520 
#    y 0.000000 1.638900 0.000000 
#    z -0.021520 0.000000 1.674920 
# 
# From -- ./inp_files/63824.got.cif
#   From: 2010.05.17/outbox.cif.g08.bks.cpg/sg10_32_cif.got.tgz:63824.got - 2010.06.03 11:33:40.
