data_PCOD9145439
_publ_section_title
;
Structure prediction by ZEFSAII (Michael W. Deem and Ramdas Pophale) SiO2 
 PCOD9145439
Probable space group: P 2/M
;
_chemical_formula_sum "Si O2"
_cell_formula_units_Z 32
_cell_length_a 14.857763
_cell_length_b 13.874136
_cell_length_c 7.708785
_cell_angle_alpha 90.000000
_cell_angle_beta 109.800200
_cell_angle_gamma 90.000000
_cell_volume 1495.131368
_symmetry_space_group_name_H-M "P 2/M"
_symmetry_group_IT_number 10
_symmetry_cell_setting 'monoclinic'
loop_
_space_group_symop_operation_xyz
x,y,z
-x,y,-z
-x,-y,-z
x,-y,z
loop_
_atom_site_type_symbol
_atom_site_label
_atom_site_fract_x
_atom_site_fract_y
_atom_site_fract_z
Si Si1 0.904931 0.819759 0.697060
Si Si2 0.679963 0.195351 0.051854
Si Si3 0.109849 0.115599 0.909055
Si Si4 0.407840 0.885001 0.336963
Si Si5 0.940903 0.613042 0.303364
Si Si6 0.873233 0.391669 0.752014
Si Si7 0.753079 0.610542 0.029841
Si Si8 0.277382 0.111814 0.566647
O O1 0.607669 0.853018 0.869682
O O2 0.020265 0.831552 0.753729
O O3 0.857690 0.712717 0.656844
O O4 0.837572 0.878913 0.523650
O O5 0.785351 0.150320 0.079483
O O6 0.675398 0.307791 0.996489
O O7 0.672342 0.173579 0.250351
O O8 0.105194 0.142952 0.110608
O O9 0.099698 0.000000 0.883598
O O10 0.500000 0.846701 0.500000
O O11 0.318141 0.861232 0.403296
O O12 0.414752 0.000000 0.337048
O O13 0.925898 0.500000 0.328488
O O14 0.835133 0.648980 0.213542
O O15 0.000000 0.654605 0.500000
O O16 0.010469 0.613603 0.183271
O O17 0.852943 0.500000 0.663218
O O18 0.812589 0.389559 0.888369
O O19 0.724588 0.500000 0.044323
O O20 0.301347 0.000000 0.615926
#
# Coordination Sequence:
#
# PCOD9145439 Si02
#       8
#     4   4   4   4   4   4   4   4
#     4  11  21  35  52  81 117 165 209 240 287 343
#     4  12  23  39  61  90 121 156 201 247 296 352
#     4  11  21  35  55  77 116 167 207 242 284 344
#     4  10  22  43  69  94 122 150 183 241 312 370
#     4   9  18  29  44  67 101 146 198 252 295 329
#     4  10  19  32  50  71 101 150 209 254 292 336
#     4  10  20  35  52  76 112 154 197 245 296 346
#     4  11  23  39  62  91 122 155 196 241 292 358
#
# _framework density 21.402802999999999
#
# number of rings (size 3 to 8) (size 9 to 14) (size 15 to 20)
#    0.000    1.500    2.500    3.750    3.500    2.500 
#    0.000    3.125    0.000    0.375    0.000    0.875 
#    0.000    0.000    0.000    0.000    0.000    0.000 
#
# Total GULP energy -178316.595105 kJ/mol
# GULP energy per Si atom -5572.393597 kJ/mol
# Density = 2.135409 g / cm^3
# Si number density = 21.402803 Si / 1000 Ang^3
#
#
#
# Elastic Constant Matrix: (Units=GPa)
#
#
# Indices 1 2 3 4 5 6 
#
# 1 22.1870 2.9832 6.6155 0.0000 19.5860 0.0000
# 2 2.9832 118.8818 15.3351 0.0000 -2.9566 0.0000
# 3 6.6155 15.3351 100.9221 0.0000 11.7092 0.0000
# 4 0.0000 0.0000 0.0000 18.8954 0.0000 -2.9797
# 5 19.5860 -2.9566 11.7092 0.0000 24.8526 0.0000
# 6 0.0000 0.0000 0.0000 -2.9797 0.0000 9.7400
#
#
#
# Elastic Compliance Matrix: (Units=1/GPa)
#
#
# Indices 1 2 3 4 5 6 
#
# 1 0.156448 -0.007811 0.005653 0.000000 -0.126888 0.000000
# 2 -0.007811 0.009041 -0.001799 0.000000 0.008079 0.000000
# 3 0.005653 -0.001799 0.010952 0.000000 -0.009829 0.000000
# 4 0.000000 0.000000 0.000000 0.055605 0.000000 0.017011
# 5 -0.126888 0.008079 -0.009829 0.000000 0.145828 0.000000
# 6 0.000000 0.000000 0.000000 0.017011 0.000000 0.107874
#
#
# Mechanical properties :
#
#
# Convention : Reuss Voigt Hill
#
# Bulk Modulus (GPa) = 5.93373 32.42873 19.18123
# Shear Modulus (GPa) = 9.09360 25.16807 17.13084
#
# Velocity S-wave (km/s) = 2.06350 3.43290 2.83221
# Velocity P-wave (km/s) = 2.90788 5.55856 4.43584
#
# Compressibility (1/GPa) = 0.16852797
#
# Stress axis : x y z
#
# Youngs Moduli (GPa) = 6.39188 110.61079 91.30895
#
# Poissons Ratio (x) = 0.86396 -0.51620
# Poissons Ratio (y) = 0.04993 0.16427
# Poissons Ratio (z) = -0.03614 0.19899
#
# Static dielectric constant tensor:
#      x y z
#    x 1.820500 0.000000 -0.018120 
#    y 0.000000 1.824030 0.000000 
#    z -0.018120 0.000000 1.843440 
# 
# From -- ./inp_files/34428.got.cif
#   From: 2010.05.17/outbox.cif.g08.bks.cpg/sg10_18_cif.got.tgz:34428.got - 2010.06.03 11:33:40.
