data_PCOD9145813
_publ_section_title
;
Structure prediction by ZEFSAII (Michael W. Deem and Ramdas Pophale) SiO2 
 PCOD9145813
Probable space group: P 2/M
;
_chemical_formula_sum "Si O2"
_cell_formula_units_Z 28
_cell_length_a 28.837384
_cell_length_b 7.757899
_cell_length_c 12.504396
_cell_angle_alpha 90.000000
_cell_angle_beta 151.699196
_cell_angle_gamma 90.000000
_cell_volume 1326.273746
_symmetry_space_group_name_H-M "P 2/M"
_symmetry_group_IT_number 10
_symmetry_cell_setting 'monoclinic'
loop_
_space_group_symop_operation_xyz
x,y,z
-x,y,-z
-x,-y,-z
x,-y,z
loop_
_atom_site_type_symbol
_atom_site_label
_atom_site_fract_x
_atom_site_fract_y
_atom_site_fract_z
Si Si1 0.762043 0.199795 0.422294
Si Si2 0.053641 0.208790 0.781849
Si Si3 0.635554 0.790256 0.530593
Si Si4 0.164201 0.696190 0.648765
Si Si5 0.173969 0.790655 0.223562
Si Si6 0.542247 0.789324 0.969211
Si Si7 0.240954 0.792223 0.024425
O O1 0.817403 0.202779 0.422874
O O2 0.819868 0.272247 0.642179
O O3 0.745332 0.000000 0.417669
O O4 0.653288 0.274266 0.186179
O O5 0.140095 0.263899 0.877582
O O6 0.946262 0.272090 0.536885
O O7 0.050839 0.000000 0.773087
O O8 0.087752 0.267774 0.969499
O O9 0.723379 0.747770 0.626451
O O10 0.533149 0.728727 0.274822
O O11 0.632116 0.000000 0.526528
O O12 0.671183 0.732342 0.720101
O O13 0.176827 0.500000 0.644042
O O14 0.236565 0.738687 0.892888
O O15 0.165516 0.000000 0.205327
O O16 0.542590 0.000000 0.963636
O O17 0.500000 0.745025 0.000000
O O18 0.241375 0.000000 0.027242
#
# Coordination Sequence:
#
# PCOD9145813 Si02
#       7
#     4   4   4   4   4   4   4
#     4  10  19  32  53  79 108 138 167 200 248 307
#     4   9  18  34  57  80 100 126 167 214 259 305
#     4   8  13  25  49  84 112 125 152 206 261 302
#     4  12  25  37  48  67 102 143 179 215 252 293
#     4   8  14  27  50  81 108 129 157 202 256 308
#     4   9  14  24  50  87 114 127 152 203 259 303
#     4   9  18  34  57  79 101 130 168 212 255 302
#
# _framework density 21.111778000000001
#
# number of rings (size 3 to 8) (size 9 to 14) (size 15 to 20)
#    0.000    2.714    1.429    3.429    0.000    2.857 
#    0.000    4.286    0.000    6.429    0.000    0.000 
#    0.000    0.000    0.000    0.000    0.000    0.000 
#
# Total GULP energy -156162.469447 kJ/mol
# GULP energy per Si atom -5577.231052 kJ/mol
# Density = 2.106373 g / cm^3
# Si number density = 21.111778 Si / 1000 Ang^3
#
#
#
# Elastic Constant Matrix: (Units=GPa)
#
#
# Indices 1 2 3 4 5 6 
#
# 1 40.4959 -2.4445 17.2328 0.0000 -30.7431 0.0000
# 2 -2.4445 25.3128 7.9865 0.0000 -2.1354 0.0000
# 3 17.2328 7.9865 101.5866 0.0000 -37.9243 0.0000
# 4 0.0000 0.0000 0.0000 -43.2885 0.0000 -3.0862
# 5 -30.7431 -2.1354 -37.9243 0.0000 38.0640 0.0000
# 6 0.0000 0.0000 0.0000 -3.0862 0.0000 -44.9600
#
#
#
# Elastic Compliance Matrix: (Units=1/GPa)
#
#
# Indices 1 2 3 4 5 6 
#
# 1 0.079986 0.009535 0.015920 0.000000 0.080999 0.000000
# 2 0.009535 0.041696 -0.001827 0.000000 0.008220 0.000000
# 3 0.015920 -0.001827 0.019184 0.000000 0.031870 0.000000
# 4 0.000000 0.000000 0.000000 -0.023214 0.000000 0.001593
# 5 0.080999 0.008220 0.031870 0.000000 0.123906 0.000000
# 6 0.000000 0.000000 0.000000 0.001593 0.000000 -0.022351
#
#
# Mechanical properties :
#
#
# Convention : Reuss Voigt Hill
#
# Bulk Modulus (GPa) = 5.31566 23.66053 14.48809
# Shear Modulus (GPa) = 21.30752 -0.39553 10.45600
#
# Velocity S-wave (km/s) = 3.18035 -0.43331 2.22788
# Velocity P-wave (km/s) = 4.00119 3.31380 3.67361
#
# Compressibility (1/GPa) = 0.18812347
#
# Stress axis : x y z
#
# Youngs Moduli (GPa) = 12.50211 23.98292 52.12568
#
# Poissons Ratio (x) = -0.22867 -0.82986
# Poissons Ratio (y) = -0.11920 0.09523
# Poissons Ratio (z) = -0.19904 0.04381
#
# Static dielectric constant tensor:
#      x y z
#    x 1.746580 0.000000 -0.031390 
#    y 0.000000 1.794210 0.000000 
#    z -0.031390 0.000000 1.778550 
# 
# From -- ./inp_files/57482.got.cif
#   From: 2010.05.17/outbox.cif.g08.bks.cpg/sg10_29_cif.got.tgz:57482.got - 2010.06.03 11:33:40.
