data_PCOD9145908
_publ_section_title
;
Structure prediction by ZEFSAII (Michael W. Deem and Ramdas Pophale) SiO2 
 PCOD9145908
Probable space group: P 2/M
;
_chemical_formula_sum "Si O2"
_cell_formula_units_Z 28
_cell_length_a 28.762956
_cell_length_b 8.880513
_cell_length_c 10.039389
_cell_angle_alpha 90.000000
_cell_angle_beta 37.529907
_cell_angle_gamma 90.000000
_cell_volume 1562.144671
_symmetry_space_group_name_H-M "P 2/M"
_symmetry_group_IT_number 10
_symmetry_cell_setting 'monoclinic'
loop_
_space_group_symop_operation_xyz
x,y,z
-x,y,-z
-x,-y,-z
x,-y,z
loop_
_atom_site_type_symbol
_atom_site_label
_atom_site_fract_x
_atom_site_fract_y
_atom_site_fract_z
Si Si1 0.052528 0.676905 0.752137
Si Si2 0.202072 0.179594 0.328789
Si Si3 0.373425 0.819025 0.641207
Si Si4 0.197402 0.179715 0.030965
Si Si5 0.633378 0.319815 0.053052
Si Si6 0.049860 0.319188 0.258062
Si Si7 0.503349 0.681382 0.836625
O O1 0.070027 0.500000 0.687718
O O2 0.132250 0.763483 0.576013
O O3 0.999219 0.735889 0.754597
O O4 0.000000 0.687294 0.000000
O O5 0.211004 0.000000 0.315735
O O6 0.181708 0.219893 0.221380
O O7 0.283081 0.256752 0.172340
O O8 0.285525 0.778500 0.806752
O O9 0.389764 0.751203 0.751195
O O10 0.429074 0.756549 0.401784
O O11 0.378637 0.000000 0.638382
O O12 0.191233 0.000000 0.032823
O O13 0.134335 0.255024 0.082300
O O14 0.636219 0.500000 0.062024
O O15 0.573370 0.283448 0.072748
O O16 0.055400 0.500000 0.237283
O O17 0.000000 0.279149 0.500000
O O18 0.513349 0.500000 0.811267
O O19 0.500000 0.727301 0.000000
#
# Coordination Sequence:
#
# PCOD9145908 Si02
#       7
#     4   4   4   4   4   4   4
#     4  10  21  37  54  76 109 145 183 226 274 326
#     4  10  20  35  56  82 111 142 183 228 274 327
#     4  10  21  37  58  86 116 146 185 228 275 331
#     4   9  19  34  53  80 110 140 176 223 273 318
#     4  10  20  36  61  86 110 144 186 231 277 325
#     4  10  19  32  54  81 104 136 184 226 265 317
#     4  10  22  40  59  83 114 148 186 226 275 333
#
# _framework density 17.924075999999999
#
# number of rings (size 3 to 8) (size 9 to 14) (size 15 to 20)
#    0.000    2.143    1.429    2.571    0.000    7.143 
#    2.571    0.000    0.000    0.000    0.000    0.000 
#    0.000    0.000    0.000    0.000    0.000    0.000 
#
# Total GULP energy -156233.919578 kJ/mol
# GULP energy per Si atom -5579.782842 kJ/mol
# Density = 1.788328 g / cm^3
# Si number density = 17.924076 Si / 1000 Ang^3
#
#
#
# Elastic Constant Matrix: (Units=GPa)
#
#
# Indices 1 2 3 4 5 6 
#
# 1 109.5265 39.3495 62.9382 0.0000 -9.1035 0.0000
# 2 39.3495 36.2094 45.6624 0.0000 -4.3040 0.0000
# 3 62.9382 45.6624 101.0100 0.0000 -16.0523 0.0000
# 4 0.0000 0.0000 0.0000 21.1841 0.0000 1.4006
# 5 -9.1035 -4.3040 -16.0523 0.0000 19.0015 0.0000
# 6 0.0000 0.0000 0.0000 1.4006 0.0000 0.9546
#
#
#
# Elastic Compliance Matrix: (Units=1/GPa)
#
#
# Indices 1 2 3 4 5 6 
#
# 1 0.015976 -0.011406 -0.004611 0.000000 0.001175 0.000000
# 2 -0.011406 0.074645 -0.028667 0.000000 -0.012774 0.000000
# 3 -0.004611 -0.028667 0.028125 0.000000 0.015057 0.000000
# 4 0.000000 0.000000 0.000000 0.052276 0.000000 -0.076701
# 5 0.001175 -0.012774 0.015057 0.000000 0.063017 0.000000
# 6 0.000000 0.000000 0.000000 -0.076701 0.000000 1.160115
#
#
# Mechanical properties :
#
#
# Convention : Reuss Voigt Hill
#
# Bulk Modulus (GPa) = 34.04021 60.29400 47.16710
# Shear Modulus (GPa) = 3.34826 14.81443 9.08134
#
# Velocity S-wave (km/s) = 1.36824 2.87803 2.25334
# Velocity P-wave (km/s) = 4.63990 6.68997 5.75692
#
# Compressibility (1/GPa) = 0.02937702
#
# Stress axis : x y z
#
# Youngs Moduli (GPa) = 62.59553 13.39678 35.55550
#
# Poissons Ratio (x) = 0.15281 0.16395
# Poissons Ratio (y) = 0.71399 1.01926
# Poissons Ratio (z) = 0.28864 0.38404
#
# Static dielectric constant tensor:
#      x y z
#    x 1.608100 0.000000 0.000570 
#    y 0.000000 1.606060 0.000000 
#    z 0.000570 0.000000 1.604240 
# 
# From -- ./inp_files/36981.got.cif
#   From: 2010.05.17/outbox.cif.g08.bks.cpg/sg10_19_cif.got.tgz:36981.got - 2010.06.03 11:33:40.
