data_PCOD9145135
_publ_section_title
;
Structure prediction by ZEFSAII (Michael W. Deem and Ramdas Pophale) SiO2 
 PCOD9145135
Probable space group: P 2/M
;
_chemical_formula_sum "Si O2"
_cell_formula_units_Z 32
_cell_length_a 10.987598
_cell_length_b 10.288364
_cell_length_c 21.905719
_cell_angle_alpha 90.000000
_cell_angle_beta 132.777766
_cell_angle_gamma 90.000000
_cell_volume 1817.602000
_symmetry_space_group_name_H-M "P 2/M"
_symmetry_group_IT_number 10
_symmetry_cell_setting 'monoclinic'
loop_
_space_group_symop_operation_xyz
x,y,z
-x,y,-z
-x,-y,-z
x,-y,z
loop_
_atom_site_type_symbol
_atom_site_label
_atom_site_fract_x
_atom_site_fract_y
_atom_site_fract_z
Si Si1 0.822397 0.850552 0.579398
Si Si2 0.893237 0.852916 0.145592
Si Si3 0.471176 0.649023 0.301200
Si Si4 0.273764 0.848526 0.315168
Si Si5 0.173141 0.348987 0.526733
Si Si6 0.793803 0.855554 0.252070
Si Si7 0.653220 0.347286 0.005548
Si Si8 0.514582 0.347861 0.181470
O O1 0.737570 0.823741 0.615944
O O2 0.786335 0.746292 0.515293
O O3 0.020285 0.844643 0.658975
O O4 0.781672 0.000000 0.548022
O O5 0.810881 0.847296 0.184721
O O6 0.088252 0.833133 0.224479
O O7 0.869264 0.000000 0.113683
O O8 0.804433 0.745439 0.074761
O O9 0.425058 0.500000 0.300983
O O10 0.391304 0.750290 0.320095
O O11 0.670742 0.657323 0.374666
O O12 0.423626 0.674976 0.214784
O O13 0.321233 0.000000 0.323462
O O14 0.157000 0.500000 0.501142
O O15 0.000000 0.312188 0.500000
O O16 0.673470 0.743995 0.233106
O O17 0.730553 0.000000 0.246401
O O18 0.696071 0.500000 0.026687
O O19 0.591889 0.324192 0.915656
O O20 0.500000 0.322029 0.000000
O O21 0.563585 0.500000 0.197289
#
# Coordination Sequence:
#
# PCOD9145135 Si02
#       8
#     4   4   4   4   4   4   4   4
#     4   9  19  35  55  80 107 138 177 220 265 310
#     4   9  18  33  53  77 106 138 172 216 264 311
#     4  10  22  38  55  76 104 142 182 218 260 314
#     4   9  20  39  58  77 105 141 183 224 261 307
#     4  10  21  37  56  81 112 141 173 215 265 318
#     4   9  17  30  50  77 106 135 171 213 260 317
#     4  10  19  31  50  81 112 137 172 217 266 320
#     4  10  20  34  51  74 108 142 174 215 266 319
#
# _framework density 17.605613999999999
#
# number of rings (size 3 to 8) (size 9 to 14) (size 15 to 20)
#    0.000    2.500    1.250    2.250    0.000    5.000 
#    0.000    5.625    0.000    3.750    0.000    0.000 
#    0.000    0.000    0.000    0.000    0.000    0.000 
#
# Total GULP energy -178454.899736 kJ/mol
# GULP energy per Si atom -5576.715617 kJ/mol
# Density = 1.756554 g / cm^3
# Si number density = 17.605614 Si / 1000 Ang^3
#
#
#
# Elastic Constant Matrix: (Units=GPa)
#
#
# Indices 1 2 3 4 5 6 
#
# 1 69.7418 53.2557 24.3338 0.0000 -9.9971 0.0000
# 2 53.2557 73.6962 48.2446 0.0000 -13.3315 0.0000
# 3 24.3338 48.2446 73.5918 0.0000 -21.5292 0.0000
# 4 0.0000 0.0000 0.0000 28.6507 0.0000 2.9115
# 5 -9.9971 -13.3315 -21.5292 0.0000 17.1523 0.0000
# 6 0.0000 0.0000 0.0000 2.9115 0.0000 31.0727
#
#
#
# Elastic Compliance Matrix: (Units=1/GPa)
#
#
# Indices 1 2 3 4 5 6 
#
# 1 0.036442 -0.032538 0.012794 0.000000 0.012009 0.000000
# 2 -0.032538 0.052854 -0.027530 0.000000 -0.012439 0.000000
# 3 0.012794 -0.027530 0.036864 0.000000 0.032330 0.000000
# 4 0.000000 0.000000 0.000000 0.035239 0.000000 -0.003302
# 5 0.012009 -0.012439 0.032330 0.000000 0.096213 0.000000
# 6 0.000000 0.000000 0.000000 -0.003302 0.000000 0.032492
#
#
# Mechanical properties :
#
#
# Convention : Reuss Voigt Hill
#
# Bulk Modulus (GPa) = 31.63172 52.07755 41.85463
# Shear Modulus (GPa) = 12.65219 21.45484 17.05352
#
# Velocity S-wave (km/s) = 2.68366 3.49468 3.11568
# Velocity P-wave (km/s) = 5.25439 6.77702 6.06369
#
# Compressibility (1/GPa) = 0.03161383
#
# Stress axis : x y z
#
# Youngs Moduli (GPa) = 27.44072 18.92000 27.12688
#
# Poissons Ratio (x) = 0.61561 -0.34706
# Poissons Ratio (y) = 0.89286 0.74679
# Poissons Ratio (z) = -0.35108 0.52086
#
# Static dielectric constant tensor:
#      x y z
#    x 1.581930 0.000000 0.000860 
#    y 0.000000 1.591290 0.000000 
#    z 0.000860 0.000000 1.603280 
# 
# From -- ./inp_files/83617.got.cif
#   From: 2010.05.17/outbox.cif.g08.bks.cpg/sg10_42_cif.got.tgz:83617.got - 2010.06.03 11:33:40.
