data_PCOD9145186
_publ_section_title
;
Structure prediction by ZEFSAII (Michael W. Deem and Ramdas Pophale) SiO2 
 PCOD9145186
Probable space group: P 2/M
;
_chemical_formula_sum "Si O2"
_cell_formula_units_Z 26
_cell_length_a 17.628597
_cell_length_b 9.786265
_cell_length_c 9.428919
_cell_angle_alpha 90.000000
_cell_angle_beta 52.152749
_cell_angle_gamma 90.000000
_cell_volume 1284.490435
_symmetry_space_group_name_H-M "P 2/M"
_symmetry_group_IT_number 10
_symmetry_cell_setting 'monoclinic'
loop_
_space_group_symop_operation_xyz
x,y,z
-x,y,-z
-x,-y,-z
x,-y,z
loop_
_atom_site_type_symbol
_atom_site_label
_atom_site_fract_x
_atom_site_fract_y
_atom_site_fract_z
Si Si1 0.206300 0.337540 0.421231
Si Si2 0.674306 0.655929 0.985302
Si Si3 0.904436 0.839836 0.032995
Si Si4 0.026986 0.153317 0.632024
Si Si5 0.500000 0.751195 0.000000
Si Si6 0.361695 0.845184 0.394928
Si Si7 0.311164 0.162932 0.755520
O O1 0.204978 0.500000 0.442095
O O2 0.106145 0.266449 0.571416
O O3 0.285969 0.264443 0.425315
O O4 0.237434 0.309398 0.221828
O O5 0.685141 0.500000 0.021740
O O6 0.665050 0.755462 0.129526
O O7 0.581888 0.666943 0.987986
O O8 0.933233 0.830178 0.835581
O O9 0.900656 0.000000 0.079025
O O10 0.795845 0.789981 0.173487
O O11 0.000000 0.781343 0.000000
O O12 0.000000 0.159982 0.500000
O O13 0.065508 0.000000 0.618365
O O14 0.550793 0.835337 0.815699
O O15 0.380198 0.817961 0.540133
O O16 0.322136 0.000000 0.433552
O O17 0.307106 0.000000 0.791337
#
# Coordination Sequence:
#
# PCOD9145186 Si02
#       7
#     4   4   4   4   2   4   4
#     4  10  21  36  55  80 112 152 192 232 280 335
#     4  10  22  40  60  82 114 152 190 232 282 342
#     4   9  17  31  52  78 110 147 186 228 274 325
#     4  10  19  31  51  78 107 144 191 237 280 328
#     4  10  22  40  62  88 112 144 188 234 284 342
#     4  10  21  38  61  86 112 143 183 232 284 339
#     4  10  21  37  59  87 116 148 188 236 286 335
#
# _framework density 20.241489999999999
#
# number of rings (size 3 to 8) (size 9 to 14) (size 15 to 20)
#    0.000    2.154    0.000    2.769    0.000    9.538 
#    0.000    3.077    0.000    1.846    0.000    0.000 
#    0.000    0.000    0.000    0.000    0.000    0.000 
#
# Total GULP energy -144988.476311 kJ/mol
# GULP energy per Si atom -5576.479858 kJ/mol
# Density = 2.019542 g / cm^3
# Si number density = 20.241490 Si / 1000 Ang^3
#
#
#
# Elastic Constant Matrix: (Units=GPa)
#
#
# Indices 1 2 3 4 5 6 
#
# 1 49.8977 11.0226 24.1819 0.0000 6.8068 0.0000
# 2 11.0226 82.6754 41.7506 0.0000 9.3091 0.0000
# 3 24.1819 41.7506 123.9708 0.0000 15.9054 0.0000
# 4 0.0000 0.0000 0.0000 15.4972 0.0000 -0.4706
# 5 6.8068 9.3091 15.9054 0.0000 32.1030 0.0000
# 6 0.0000 0.0000 0.0000 -0.4706 0.0000 22.1292
#
#
#
# Elastic Compliance Matrix: (Units=1/GPa)
#
#
# Indices 1 2 3 4 5 6 
#
# 1 0.022401 -0.000787 -0.003764 0.000000 -0.002657 0.000000
# 2 -0.000787 0.014713 -0.004566 0.000000 -0.001837 0.000000
# 3 -0.003764 -0.004566 0.010749 0.000000 -0.003204 0.000000
# 4 0.000000 0.000000 0.000000 0.064569 0.000000 0.001373
# 5 -0.002657 -0.001837 -0.003204 0.000000 0.033833 0.000000
# 6 0.000000 0.000000 0.000000 0.001373 0.000000 0.045218
#
#
# Mechanical properties :
#
#
# Convention : Reuss Voigt Hill
#
# Bulk Modulus (GPa) = 33.74864 45.60603 39.67733
# Shear Modulus (GPa) = 22.76928 25.91847 24.34387
#
# Velocity S-wave (km/s) = 3.35756 3.58224 3.47172
# Velocity P-wave (km/s) = 5.63384 6.29998 5.97620
#
# Compressibility (1/GPa) = 0.02963083
#
# Stress axis : x y z
#
# Youngs Moduli (GPa) = 44.64034 67.96722 93.02958
#
# Poissons Ratio (x) = 0.05348 0.35014
# Poissons Ratio (y) = 0.03512 0.42475
# Poissons Ratio (z) = 0.16802 0.31032
#
# Static dielectric constant tensor:
#      x y z
#    x 1.740060 0.000000 -0.006380 
#    y 0.000000 1.679530 0.000000 
#    z -0.006380 0.000000 1.748460 
# 
# From -- ./inp_files/34208.got.cif
#   From: 2010.05.17/outbox.cif.g08.bks.cpg/sg10_18_cif.got.tgz:34208.got - 2010.06.03 11:33:40.
