data_PCOD9145675
_publ_section_title
;
Structure prediction by ZEFSAII (Michael W. Deem and Ramdas Pophale) SiO2 
 PCOD9145675
Probable space group: P 2/M
;
_chemical_formula_sum "Si O2"
_cell_formula_units_Z 28
_cell_length_a 18.941855
_cell_length_b 13.946057
_cell_length_c 15.889032
_cell_angle_alpha 90.000000
_cell_angle_beta 20.837987
_cell_angle_gamma 90.000000
_cell_volume 1493.096278
_symmetry_space_group_name_H-M "P 2/M"
_symmetry_group_IT_number 10
_symmetry_cell_setting 'monoclinic'
loop_
_space_group_symop_operation_xyz
x,y,z
-x,y,-z
-x,-y,-z
x,-y,z
loop_
_atom_site_type_symbol
_atom_site_label
_atom_site_fract_x
_atom_site_fract_y
_atom_site_fract_z
Si Si1 0.740609 0.723839 0.004259
Si Si2 0.702863 0.233039 0.448919
Si Si3 0.253465 0.387026 0.357566
Si Si4 0.271584 0.386234 0.153679
Si Si5 0.771339 0.106618 0.224069
Si Si6 0.963712 0.614291 0.227503
Si Si7 0.958183 0.111959 0.840285
O O1 0.507842 0.743814 0.275096
O O2 0.781714 0.669217 0.871333
O O3 0.865952 0.821842 0.871030
O O4 0.820354 0.657178 0.992408
O O5 0.670681 0.186749 0.392933
O O6 0.844334 0.327002 0.289988
O O7 0.835835 0.157091 0.354641
O O8 0.211344 0.500000 0.398956
O O9 0.489347 0.377698 0.105467
O O10 0.151837 0.356794 0.557177
O O11 0.195621 0.349661 0.329358
O O12 0.226202 0.500000 0.194991
O O13 0.798108 0.120505 0.095122
O O14 0.691634 0.000000 0.331153
O O15 0.000000 0.106437 0.000000
O O16 0.961950 0.500000 0.218543
O O17 0.981795 0.000000 0.794735
#
# Coordination Sequence:
#
# PCOD9145675 Si02
#       7
#     4   4   4   4   4   4   4
#     4  11  21  30  49  80 108 134 169 206 255 307
#     4  10  19  32  52  77 104 136 168 206 256 304
#     4   8  15  29  50  73 102 138 172 210 250 289
#     4   9  16  29  50  77 107 136 169 207 249 296
#     4   8  15  32  57  79  99 124 158 209 266 310
#     4  10  20  33  49  74 109 143 174 207 246 294
#     4   9  20  37  55  79 104 125 162 214 264 313
#
# _framework density 18.752977999999999
#
# number of rings (size 3 to 8) (size 9 to 14) (size 15 to 20)
#    0.000    2.714    1.429    2.571    0.000    2.857 
#    0.000    3.571    0.000   11.571    0.000   37.000 
#    0.000    0.143    0.000    0.000    0.000    0.000 
#
# Total GULP energy -156055.027967 kJ/mol
# GULP energy per Si atom -5573.393856 kJ/mol
# Density = 1.871030 g / cm^3
# Si number density = 18.752978 Si / 1000 Ang^3
#
#
#
# Elastic Constant Matrix: (Units=GPa)
#
#
# Indices 1 2 3 4 5 6 
#
# 1 52.4217 32.6104 18.2695 0.0000 -0.7837 0.0000
# 2 32.6104 123.2075 27.8944 0.0000 -1.2493 0.0000
# 3 18.2695 27.8944 70.1739 0.0000 -11.0983 0.0000
# 4 0.0000 0.0000 0.0000 -28.7674 0.0000 39.3550
# 5 -0.7837 -1.2493 -11.0983 0.0000 29.6763 0.0000
# 6 0.0000 0.0000 0.0000 39.3550 0.0000 -20.8113
#
#
#
# Elastic Compliance Matrix: (Units=1/GPa)
#
#
# Indices 1 2 3 4 5 6 
#
# 1 0.023886 -0.005367 -0.004274 0.000000 -0.001194 0.000000
# 2 -0.005367 0.010153 -0.002757 0.000000 -0.000745 0.000000
# 3 -0.004274 -0.002757 0.017455 0.000000 0.006299 0.000000
# 4 0.000000 0.000000 0.000000 0.021904 0.000000 0.041421
# 5 -0.001194 -0.000745 0.006299 0.000000 0.035990 0.000000
# 6 0.000000 0.000000 0.000000 0.041421 0.000000 0.030277
#
#
# Mechanical properties :
#
#
# Convention : Reuss Voigt Hill
#
# Bulk Modulus (GPa) = 37.45360 44.81686 41.13523
# Shear Modulus (GPa) = 28.84163 7.15476 17.99820
#
# Velocity S-wave (km/s) = 3.92596 1.95539 3.10135
# Velocity P-wave (km/s) = 6.36917 5.38966 5.89978
#
# Compressibility (1/GPa) = 0.02669970
#
# Stress axis : x y z
#
# Youngs Moduli (GPa) = 41.86497 98.48931 57.28984
#
# Poissons Ratio (x) = 0.52855 0.24487
# Poissons Ratio (y) = 0.22467 0.15793
# Poissons Ratio (z) = 0.17894 0.27151
#
# Static dielectric constant tensor:
#      x y z
#    x 1.704650 0.000000 -0.017640 
#    y 0.000000 1.647770 0.000000 
#    z -0.017640 0.000000 1.727170 
# 
# From -- ./inp_files/79504.got.cif
#   From: 2010.05.17/outbox.cif.g08.bks.cpg/sg10_40_cif.got.tgz:79504.got - 2010.06.03 11:33:40.
