data_PCOD9145576
_publ_section_title
;
Structure prediction by ZEFSAII (Michael W. Deem and Ramdas Pophale) SiO2 
 PCOD9145576
Probable space group: P 2/M
;
_chemical_formula_sum "Si O2"
_cell_formula_units_Z 32
_cell_length_a 29.001203
_cell_length_b 7.501996
_cell_length_c 22.728794
_cell_angle_alpha 90.000000
_cell_angle_beta 18.593800
_cell_angle_gamma 90.000000
_cell_volume 1576.757291
_symmetry_space_group_name_H-M "P 2/M"
_symmetry_group_IT_number 10
_symmetry_cell_setting 'monoclinic'
loop_
_space_group_symop_operation_xyz
x,y,z
-x,y,-z
-x,-y,-z
x,-y,z
loop_
_atom_site_type_symbol
_atom_site_label
_atom_site_fract_x
_atom_site_fract_y
_atom_site_fract_z
Si Si1 0.214550 0.787630 0.108674
Si Si2 0.408051 0.216369 0.553886
Si Si3 0.059739 0.715152 0.116225
Si Si4 0.927219 0.707672 0.029825
Si Si5 0.360997 0.212376 0.815788
Si Si6 0.911652 0.284851 0.412391
Si Si7 0.831927 0.783645 0.706133
Si Si8 0.658685 0.707655 0.798362
O O1 0.230381 0.720780 0.155811
O O2 0.049924 0.759931 0.285815
O O3 0.237213 0.000000 0.083598
O O4 0.317038 0.714593 0.932966
O O5 0.500000 0.269526 0.500000
O O6 0.245308 0.282502 0.754615
O O7 0.497235 0.279213 0.388952
O O8 0.402896 0.000000 0.559682
O O9 0.051903 0.500000 0.124205
O O10 0.951765 0.778171 0.298238
O O11 0.035102 0.783899 0.080117
O O12 0.221400 0.759949 0.942869
O O13 0.971769 0.500000 0.973832
O O14 0.000000 0.787689 0.000000
O O15 0.378840 0.000000 0.800356
O O16 0.904103 0.500000 0.419795
O O17 0.765525 0.216088 0.619260
O O18 0.745157 0.717490 0.754918
O O19 0.000000 0.730456 0.500000
O O20 0.828043 0.000000 0.709375
O O21 0.637022 0.500000 0.808580
O O22 0.500000 0.787709 0.000000
#
# Coordination Sequence:
#
# PCOD9145576 Si02
#       8
#     4   4   4   4   4   4   4   4
#     4   9  17  30  49  73 101 129 159 201 248 292
#     4  10  19  32  51  76 101 126 163 204 246 294
#     4   9  17  30  49  71  95 126 165 205 243 288
#     4  10  21  35  50  72 102 134 168 204 246 294
#     4   9  17  30  49  73 101 129 159 201 248 292
#     4   9  17  30  49  71  95 126 165 205 243 288
#     4  10  19  32  51  76 101 126 163 204 246 294
#     4  10  21  35  50  72 102 134 168 204 246 294
#
# _framework density 20.294816999999998
#
# number of rings (size 3 to 8) (size 9 to 14) (size 15 to 20)
#    0.000    2.500    2.500    0.000    0.000    2.000 
#    0.000    1.250    0.000    1.500    0.000    0.000 
#    0.000    0.000    0.000    0.000    0.000    0.000 
#
# Total GULP energy -178524.006925 kJ/mol
# GULP energy per Si atom -5578.875216 kJ/mol
# Density = 2.024862 g / cm^3
# Si number density = 20.294817 Si / 1000 Ang^3
#
#
#
# Elastic Constant Matrix: (Units=GPa)
#
#
# Indices 1 2 3 4 5 6 
#
# 1 112.3462 -6.4058 65.9284 0.0000 26.3746 0.0000
# 2 -6.4058 54.2479 -5.6035 0.0000 5.2892 0.0000
# 3 65.9284 -5.6035 120.5793 0.0000 28.3888 0.0000
# 4 0.0000 0.0000 0.0000 34.4255 0.0000 -21.7678
# 5 26.3746 5.2892 28.3888 0.0000 38.5917 0.0000
# 6 0.0000 0.0000 0.0000 -21.7678 0.0000 37.7073
#
#
#
# Elastic Compliance Matrix: (Units=1/GPa)
#
#
# Indices 1 2 3 4 5 6 
#
# 1 0.013886 0.001475 -0.006340 0.000000 -0.005029 0.000000
# 2 0.001475 0.019161 0.001136 0.000000 -0.004470 0.000000
# 3 -0.006340 0.001136 0.013098 0.000000 -0.005458 0.000000
# 4 0.000000 0.000000 0.000000 0.045747 0.000000 0.026409
# 5 -0.005029 -0.004470 -0.005458 0.000000 0.033976 0.000000
# 6 0.000000 0.000000 0.000000 0.026409 0.000000 0.041766
#
#
# Mechanical properties :
#
#
# Convention : Reuss Voigt Hill
#
# Bulk Modulus (GPa) = 25.84783 43.89019 34.86901
# Shear Modulus (GPa) = 26.59754 37.69518 32.14636
#
# Velocity S-wave (km/s) = 3.62409 4.31441 3.98423
# Velocity P-wave (km/s) = 5.50235 6.81851 6.19548
#
# Compressibility (1/GPa) = 0.03868797
#
# Stress axis : x y z
#
# Youngs Moduli (GPa) = 72.01387 52.18848 76.35031
#
# Poissons Ratio (x) = -0.07698 0.48406
# Poissons Ratio (y) = -0.10623 -0.08676
# Poissons Ratio (z) = 0.45657 -0.05930
#
# Static dielectric constant tensor:
#      x y z
#    x 1.712920 0.000000 0.058000 
#    y 0.000000 1.753660 0.000000 
#    z 0.058000 0.000000 1.721690 
# 
# From -- ./inp_files/86855.got.cif
#   From: 2010.05.17/outbox.cif.g08.bks.cpg/sg10_44_cif.got.tgz:86855.got - 2010.06.03 11:33:40.
