data_PCOD9145475
_publ_section_title
;
Structure prediction by ZEFSAII (Michael W. Deem and Ramdas Pophale) SiO2 
 PCOD9145475
Probable space group: P 2/M
;
_chemical_formula_sum "Si O2"
_cell_formula_units_Z 32
_cell_length_a 17.743329
_cell_length_b 18.803741
_cell_length_c 13.521379
_cell_angle_alpha 90.000000
_cell_angle_beta 154.105725
_cell_angle_gamma 90.000000
_cell_volume 1970.132252
_symmetry_space_group_name_H-M "P 2/M"
_symmetry_group_IT_number 10
_symmetry_cell_setting 'monoclinic'
loop_
_space_group_symop_operation_xyz
x,y,z
-x,y,-z
-x,-y,-z
x,-y,z
loop_
_atom_site_type_symbol
_atom_site_label
_atom_site_fract_x
_atom_site_fract_y
_atom_site_fract_z
Si Si1 0.993569 0.918360 0.375558
Si Si2 0.594795 0.823717 0.401103
Si Si3 0.247126 0.325064 0.371839
Si Si4 0.877587 0.325064 0.002299
Si Si5 0.562978 0.418491 0.688933
Si Si6 0.788486 0.823717 0.982178
Si Si7 0.198108 0.917789 0.198108
Si Si8 0.611580 0.918360 0.229591
O O1 0.000000 0.903821 0.500000
O O2 0.187066 0.915202 0.561198
O O3 0.930225 0.000000 0.288007
O O4 0.877421 0.863675 0.178291
O O5 0.702733 0.751181 0.524469
O O6 0.407812 0.805461 0.223435
O O7 0.688313 0.877222 0.587025
O O8 0.576550 0.863674 0.275680
O O9 0.199252 0.313627 0.199252
O O10 0.412026 0.376802 0.568480
O O11 0.072217 0.352816 0.216652
O O12 0.744428 0.376801 0.900882
O O13 0.880996 0.248819 0.059259
O O14 0.500000 0.419751 0.500000
O O15 0.581006 0.500000 0.743017
O O16 0.789601 0.877223 0.890888
O O17 0.250275 0.000000 0.250276
O O18 0.000000 0.915495 0.000000
O O19 0.572443 0.000000 0.214662
O O20 0.500000 0.903821 0.000000
#
# Coordination Sequence:
#
# PCOD9145475 Si02
#       8
#     4   4   4   4   4   4   4   4
#     4  10  21  37  54  72  97 133 176 224 273 316
#     4  12  22  33  51  73 101 137 177 219 265 315
#     4  10  19  32  50  73 104 140 174 211 261 309
#     4  10  19  32  50  73 104 140 174 211 261 309
#     4   9  18  32  50  74 104 138 174 208 250 313
#     4  12  22  33  51  73 101 137 177 219 265 315
#     4  11  23  35  47  69  99 134 179 223 263 313
#     4  10  21  37  54  72  97 133 176 224 273 316
#
# _framework density 16.242564000000002
#
# number of rings (size 3 to 8) (size 9 to 14) (size 15 to 20)
#    0.000    1.500    2.500    4.125    0.000    6.000 
#    0.000    2.500    0.000    0.000    0.000    0.000 
#    0.000    1.000    0.500    0.000    0.000    0.000 
#
# Total GULP energy -178696.908994 kJ/mol
# GULP energy per Si atom -5584.278406 kJ/mol
# Density = 1.620560 g / cm^3
# Si number density = 16.242564 Si / 1000 Ang^3
#
#
#
# Elastic Constant Matrix: (Units=GPa)
#
#
# Indices 1 2 3 4 5 6 
#
# 1 65.4227 37.8042 24.6464 0.0000 13.4246 0.0000
# 2 37.8042 105.0233 38.4846 0.0000 4.4354 0.0000
# 3 24.6464 38.4846 69.7137 0.0000 14.5535 0.0000
# 4 0.0000 0.0000 0.0000 14.2126 0.0000 2.7107
# 5 13.4246 4.4354 14.5535 0.0000 28.7818 0.0000
# 6 0.0000 0.0000 0.0000 2.7107 0.0000 13.7971
#
#
#
# Elastic Compliance Matrix: (Units=1/GPa)
#
#
# Indices 1 2 3 4 5 6 
#
# 1 0.021586 -0.006573 -0.002362 0.000000 -0.007861 0.000000
# 2 -0.006573 0.014010 -0.006260 0.000000 0.004072 0.000000
# 3 -0.002362 -0.006260 0.020352 0.000000 -0.008225 0.000000
# 4 0.000000 0.000000 0.000000 0.073099 0.000000 -0.014362
# 5 -0.007861 0.004072 -0.008225 0.000000 0.041942 0.000000
# 6 0.000000 0.000000 0.000000 -0.014362 0.000000 0.075301
#
#
# Mechanical properties :
#
#
# Convention : Reuss Voigt Hill
#
# Bulk Modulus (GPa) = 39.12647 49.11447 44.12047
# Shear Modulus (GPa) = 17.53160 20.63993 19.08576
#
# Velocity S-wave (km/s) = 3.28893 3.56860 3.43161
# Velocity P-wave (km/s) = 6.20998 6.87631 6.55162
#
# Compressibility (1/GPa) = 0.02555815
#
# Stress axis : x y z
#
# Youngs Moduli (GPa) = 46.32616 71.37959 49.13428
#
# Poissons Ratio (x) = 0.46915 0.11606
# Poissons Ratio (y) = 0.30448 0.30760
# Poissons Ratio (z) = 0.10943 0.44686
#
# Static dielectric constant tensor:
#      x y z
#    x 1.539740 0.000000 0.032720 
#    y 0.000000 1.527840 0.000000 
#    z 0.032720 0.000000 1.544760 
# 
# From -- ./inp_files/52002.got.cif
#   From: 2010.05.17/outbox.cif.g08.bks.cpg/sg10_27_cif.got.tgz:52002.got - 2010.06.03 11:33:40.
