data_PCOD9145202
_publ_section_title
;
Structure prediction by ZEFSAII (Michael W. Deem and Ramdas Pophale) SiO2 
 PCOD9145202
Probable space group: P 2/M
;
_chemical_formula_sum "Si O2"
_cell_formula_units_Z 30
_cell_length_a 11.667093
_cell_length_b 14.426597
_cell_length_c 22.279877
_cell_angle_alpha 90.000000
_cell_angle_beta 27.169718
_cell_angle_gamma 90.000000
_cell_volume 1712.386069
_symmetry_space_group_name_H-M "P 2/M"
_symmetry_group_IT_number 10
_symmetry_cell_setting 'monoclinic'
loop_
_space_group_symop_operation_xyz
x,y,z
-x,y,-z
-x,-y,-z
x,-y,z
loop_
_atom_site_type_symbol
_atom_site_label
_atom_site_fract_x
_atom_site_fract_y
_atom_site_fract_z
Si Si1 0.159652 0.896276 0.335099
Si Si2 0.500000 0.346109 0.000000
Si Si3 0.276482 0.296398 0.228041
Si Si4 0.591836 0.292721 0.310661
Si Si5 0.234978 0.606934 0.565664
Si Si6 0.290656 0.611019 0.345441
Si Si7 0.953624 0.601411 0.213922
Si Si8 0.403800 0.103913 0.349460
O O1 0.196279 0.809158 0.275800
O O2 0.343049 0.884639 0.307141
O O3 0.873794 0.892362 0.491920
O O4 0.200691 0.000000 0.291234
O O5 0.564618 0.297122 0.906910
O O6 0.759962 0.395833 0.897040
O O7 0.375386 0.337047 0.245082
O O8 0.041655 0.364826 0.327062
O O9 0.411577 0.319680 0.450422
O O10 0.475930 0.355179 0.311456
O O11 0.563218 0.187201 0.302780
O O12 0.864815 0.323140 0.207168
O O13 0.292167 0.500000 0.521956
O O14 0.212541 0.610895 0.648031
O O15 0.295619 0.500000 0.335924
O O16 0.000000 0.636968 0.500000
O O17 0.902793 0.500000 0.211445
O O18 0.505324 0.000000 0.312017
#
# Coordination Sequence:
#
# PCOD9145202 Si02
#       8
#     4   2   4   4   4   4   4   4
#     4   9  16  30  53  82 114 145 179 218 270 333
#     4  10  25  42  59  72 102 156 203 228 263 318
#     4  11  19  35  55  80 110 150 187 225 268 327
#     4  12  19  31  54  84 117 140 173 229 285 329
#     4  10  19  31  51  79 112 147 182 220 270 333
#     4  11  20  29  49  85 120 142 168 221 288 338
#     4  10  22  38  55  76 106 151 198 229 261 319
#     4   9  17  29  51  86 119 144 168 209 280 351
#
# _framework density 17.519414000000001
#
# number of rings (size 3 to 8) (size 9 to 14) (size 15 to 20)
#    0.000    1.733    4.000    3.000    0.000    2.667 
#    0.000    1.000    0.000    7.200    0.000    1.867 
#    0.000    0.000    0.000    0.000    0.000    0.000 
#
# Total GULP energy -167092.988465 kJ/mol
# GULP energy per Si atom -5569.766282 kJ/mol
# Density = 1.747954 g / cm^3
# Si number density = 17.519414 Si / 1000 Ang^3
#
#
#
# Elastic Constant Matrix: (Units=GPa)
#
#
# Indices 1 2 3 4 5 6 
#
# 1 88.0279 41.8311 15.8861 0.0000 -6.7425 0.0000
# 2 41.8311 110.3765 11.2724 0.0000 2.3077 0.0000
# 3 15.8861 11.2724 45.6402 0.0000 9.6634 0.0000
# 4 0.0000 0.0000 0.0000 1.2905 0.0000 3.5511
# 5 -6.7425 2.3077 9.6634 0.0000 24.7682 0.0000
# 6 0.0000 0.0000 0.0000 3.5511 0.0000 15.5720
#
#
#
# Elastic Compliance Matrix: (Units=1/GPa)
#
#
# Indices 1 2 3 4 5 6 
#
# 1 0.015463 -0.005443 -0.005490 0.000000 0.006858 0.000000
# 2 -0.005443 0.011210 -0.000370 0.000000 -0.002382 0.000000
# 3 -0.005490 -0.000370 0.026403 0.000000 -0.011761 0.000000
# 4 0.000000 0.000000 0.000000 2.080439 0.000000 -0.474427
# 5 0.006858 -0.002382 -0.011761 0.000000 0.047052 0.000000
# 6 0.000000 0.000000 0.000000 -0.474427 0.000000 0.172407
#
#
# Mechanical properties :
#
#
# Convention : Reuss Voigt Hill
#
# Bulk Modulus (GPa) = 32.81870 42.44708 37.63289
# Shear Modulus (GPa) = 2.09579 19.99647 11.04613
#
# Velocity S-wave (km/s) = 1.09493 3.38211 2.51372
# Velocity P-wave (km/s) = 4.51353 6.28751 5.47287
#
# Compressibility (1/GPa) = 0.03047043
#
# Stress axis : x y z
#
# Youngs Moduli (GPa) = 64.67247 89.20423 37.87446
#
# Poissons Ratio (x) = 0.48552 0.20793
# Poissons Ratio (y) = 0.35200 0.01401
# Poissons Ratio (z) = 0.35505 0.03300
#
# Static dielectric constant tensor:
#      x y z
#    x 1.633190 0.000000 -0.009710 
#    y 0.000000 1.593550 0.000000 
#    z -0.009710 0.000000 1.622630 
# 
# From -- ./inp_files/84111.got.cif
#   From: 2010.05.17/outbox.cif.g08.bks.cpg/sg10_43_cif.got.tgz:84111.got - 2010.06.03 11:33:40.
