data_PCOD9145230
_publ_section_title
;
Structure prediction by ZEFSAII (Michael W. Deem and Ramdas Pophale) SiO2 
 PCOD9145230
Probable space group: P 2/M
;
_chemical_formula_sum "Si O2"
_cell_formula_units_Z 32
_cell_length_a 22.936923
_cell_length_b 7.504601
_cell_length_c 14.939748
_cell_angle_alpha 90.000000
_cell_angle_beta 31.005272
_cell_angle_gamma 90.000000
_cell_volume 1324.682720
_symmetry_space_group_name_H-M "P 2/M"
_symmetry_group_IT_number 10
_symmetry_cell_setting 'monoclinic'
loop_
_space_group_symop_operation_xyz
x,y,z
-x,y,-z
-x,-y,-z
x,-y,z
loop_
_atom_site_type_symbol
_atom_site_label
_atom_site_fract_x
_atom_site_fract_y
_atom_site_fract_z
Si Si1 0.866998 0.782938 0.512731
Si Si2 0.301385 0.215944 0.116503
Si Si3 0.607323 0.718279 0.416873
Si Si4 0.155599 0.290566 0.978394
Si Si5 0.324925 0.709932 0.483364
Si Si6 0.105564 0.796243 0.246307
Si Si7 0.459764 0.296296 0.146427
Si Si8 0.086179 0.787508 0.750294
O O1 0.755102 0.734648 0.713743
O O2 0.880623 0.719987 0.393328
O O3 0.978967 0.720207 0.418776
O O4 0.871175 0.000000 0.505198
O O5 0.211156 0.279611 0.161432
O O6 0.311669 0.000000 0.098418
O O7 0.425579 0.294272 0.945918
O O8 0.500000 0.775537 0.500000
O O9 0.607014 0.500000 0.418308
O O10 0.608918 0.779906 0.517581
O O11 0.727081 0.774524 0.217022
O O12 0.167568 0.500000 0.979840
O O13 0.131441 0.203865 0.106412
O O14 0.043712 0.266297 0.064750
O O15 0.349596 0.500000 0.445008
O O16 0.365231 0.787938 0.335048
O O17 0.190406 0.728149 0.673904
O O18 0.097174 0.000000 0.289860
O O19 0.426357 0.500000 0.169230
O O20 0.500000 0.210317 0.000000
O O21 0.087374 0.000000 0.748552
#
# Coordination Sequence:
#
# PCOD9145230 Si02
#       8
#     4   4   4   4   4   4   4   4
#     4   8  15  30  51  75 105 146 185 220 264 321
#     4  10  19  31  52  77 104 144 191 232 269 328
#     4   9  20  38  60  84 109 146 194 233 268 324
#     4  10  20  35  59  85 110 143 188 233 276 330
#     4  10  21  38  60  82 110 148 190 234 276 328
#     4   9  18  32  51  78 112 144 182 230 280 329
#     4  10  22  37  53  79 113 145 178 228 289 335
#     4  10  20  36  59  84 115 146 181 229 282 338
#
# _framework density 24.156728000000001
#
# number of rings (size 3 to 8) (size 9 to 14) (size 15 to 20)
#    0.000    2.500    0.000    2.625    1.750    3.250 
#    0.000    6.250    0.000    5.625    0.000    0.000 
#    0.000    0.000    0.000    0.000    0.000    0.000 
#
# Total GULP energy -178791.274652 kJ/mol
# GULP energy per Si atom -5587.227333 kJ/mol
# Density = 2.410175 g / cm^3
# Si number density = 24.156728 Si / 1000 Ang^3
#
#
#
# Elastic Constant Matrix: (Units=GPa)
#
#
# Indices 1 2 3 4 5 6 
#
# 1 126.9861 -2.1405 45.7686 0.0000 -20.9209 0.0000
# 2 -2.1405 77.9778 -1.3117 0.0000 2.8701 0.0000
# 3 45.7686 -1.3117 138.7249 0.0000 -14.2943 0.0000
# 4 0.0000 0.0000 0.0000 9.1798 0.0000 -8.0202
# 5 -20.9209 2.8701 -14.2943 0.0000 39.8412 0.0000
# 6 0.0000 0.0000 0.0000 -8.0202 0.0000 15.3623
#
#
#
# Elastic Compliance Matrix: (Units=1/GPa)
#
#
# Indices 1 2 3 4 5 6 
#
# 1 0.009520 0.000068 -0.002727 0.000000 0.004016 0.000000
# 2 0.000068 0.012859 0.000008 0.000000 -0.000888 0.000000
# 3 -0.002727 0.000008 0.008266 0.000000 0.001533 0.000000
# 4 0.000000 0.000000 0.000000 0.200292 0.000000 0.104566
# 5 0.004016 -0.000888 0.001533 0.000000 0.027823 0.000000
# 6 0.000000 0.000000 0.000000 0.104566 0.000000 0.119685
#
#
# Mechanical properties :
#
#
# Convention : Reuss Voigt Hill
#
# Bulk Modulus (GPa) = 39.45843 47.59126 43.52485
# Shear Modulus (GPa) = 12.74876 32.96816 22.85846
#
# Velocity S-wave (km/s) = 2.29978 3.69828 3.07947
# Velocity P-wave (km/s) = 4.83960 6.16280 5.54084
#
# Compressibility (1/GPa) = 0.02534312
#
# Stress axis : x y z
#
# Youngs Moduli (GPa) = 105.03788 77.76758 120.97544
#
# Poissons Ratio (x) = -0.00526 0.32984
# Poissons Ratio (y) = -0.00711 -0.00094
# Poissons Ratio (z) = 0.28639 -0.00060
#
# Static dielectric constant tensor:
#      x y z
#    x 1.952340 0.000000 0.013750 
#    y 0.000000 1.892950 0.000000 
#    z 0.013750 0.000000 1.919360 
# 
# From -- ./inp_files/71486.got.cif
#   From: 2010.05.17/outbox.cif.g08.bks.cpg/sg10_36_cif.got.tgz:71486.got - 2010.06.03 11:33:40.
