data_PCOD9145428
_publ_section_title
;
Structure prediction by ZEFSAII (Michael W. Deem and Ramdas Pophale) SiO2 
 PCOD9145428
Probable space group: P 2/M
;
_chemical_formula_sum "Si O2"
_cell_formula_units_Z 32
_cell_length_a 13.187165
_cell_length_b 8.387271
_cell_length_c 27.005084
_cell_angle_alpha 90.000000
_cell_angle_beta 145.794636
_cell_angle_gamma 90.000000
_cell_volume 1679.106380
_symmetry_space_group_name_H-M "P 2/M"
_symmetry_group_IT_number 10
_symmetry_cell_setting 'monoclinic'
loop_
_space_group_symop_operation_xyz
x,y,z
-x,y,-z
-x,-y,-z
x,-y,z
loop_
_atom_site_type_symbol
_atom_site_label
_atom_site_fract_x
_atom_site_fract_y
_atom_site_fract_z
Si Si1 0.830311 0.193125 0.398962
Si Si2 0.794759 0.805412 0.922854
Si Si3 0.554716 0.188551 0.917723
Si Si4 0.014207 0.815114 0.737483
Si Si5 0.567661 0.194317 0.734934
Si Si6 0.857559 0.192308 0.773007
Si Si7 0.770003 0.684566 0.090473
Si Si8 0.804168 0.314797 0.277361
O O1 0.639073 0.246845 0.344821
O O2 0.841642 0.250825 0.347104
O O3 0.000000 0.246617 0.500000
O O4 0.829706 0.000000 0.398022
O O5 0.700991 0.756717 0.935881
O O6 0.673481 0.755719 0.827225
O O7 0.795766 0.000000 0.923147
O O8 0.000000 0.751537 0.000000
O O9 0.364635 0.223816 0.815269
O O10 0.574058 0.000000 0.933506
O O11 0.602497 0.272735 0.988556
O O12 0.189967 0.785692 0.843819
O O13 0.034250 0.714567 0.696233
O O14 0.857204 0.774320 0.713742
O O15 0.003172 0.000000 0.719950
O O16 0.686495 0.243716 0.735640
O O17 0.565766 0.000000 0.733679
O O18 0.045200 0.273723 0.865323
O O19 0.879462 0.000000 0.787279
O O20 0.767853 0.500000 0.103236
O O21 0.759563 0.500000 0.261679
#
# Coordination Sequence:
#
# PCOD9145428 Si02
#       8
#     4   4   4   4   4   4   4   4
#     4  10  21  39  64  90 114 145 187 234 283 339
#     4   9  16  25  47  78 107 142 184 230 274 320
#     4  11  20  33  52  75 109 151 197 236 275 329
#     4   9  19  36  57  80 106 146 196 236 275 331
#     4   9  15  30  55  84 112 142 187 236 279 327
#     4   8  16  31  54  79 107 146 189 227 269 325
#     4  10  19  32  49  77 114 149 187 231 282 330
#     4  12  24  38  57  81 113 148 184 232 291 342
#
# _framework density 19.057756000000001
#
# number of rings (size 3 to 8) (size 9 to 14) (size 15 to 20)
#    0.750    1.500    1.250    3.375    0.000    2.750 
#    0.000    3.125    0.000    2.250    0.000    5.250 
#    0.000    0.000    0.000    0.000    0.000    0.000 
#
# Total GULP energy -178380.055909 kJ/mol
# GULP energy per Si atom -5574.376747 kJ/mol
# Density = 1.901438 g / cm^3
# Si number density = 19.057756 Si / 1000 Ang^3
#
#
#
# Elastic Constant Matrix: (Units=GPa)
#
#
# Indices 1 2 3 4 5 6 
#
# 1 98.3637 -1.1744 45.3286 0.0000 -8.3740 0.0000
# 2 -1.1744 13.3106 -4.2356 0.0000 -1.4235 0.0000
# 3 45.3286 -4.2356 80.1595 0.0000 2.3448 0.0000
# 4 0.0000 0.0000 0.0000 -5.5729 0.0000 -3.7107
# 5 -8.3740 -1.4235 2.3448 0.0000 22.5449 0.0000
# 6 0.0000 0.0000 0.0000 -3.7107 0.0000 -0.4796
#
#
#
# Elastic Compliance Matrix: (Units=1/GPa)
#
#
# Indices 1 2 3 4 5 6 
#
# 1 0.014596 -0.000740 -0.008476 0.000000 0.006256 0.000000
# 2 -0.000740 0.076892 0.004361 0.000000 0.004127 0.000000
# 3 -0.008476 0.004361 0.017636 0.000000 -0.004707 0.000000
# 4 0.000000 0.000000 0.000000 0.043218 0.000000 -0.334395
# 5 0.006256 0.004127 -0.004707 0.000000 0.047430 0.000000
# 6 0.000000 0.000000 0.000000 -0.334395 0.000000 0.502207
#
#
# Mechanical properties :
#
#
# Convention : Reuss Voigt Hill
#
# Bulk Modulus (GPa) = 10.05903 30.18567 20.12235
# Shear Modulus (GPa) = 6.71296 13.42616 10.06956
#
# Velocity S-wave (km/s) = 1.87885 2.65712 2.30113
# Velocity P-wave (km/s) = 3.16171 5.02863 4.20021
#
# Compressibility (1/GPa) = 0.09941319
#
# Stress axis : x y z
#
# Youngs Moduli (GPa) = 68.51169 13.00532 56.70160
#
# Poissons Ratio (x) = 0.00963 0.48060
# Poissons Ratio (y) = 0.05071 -0.24726
# Poissons Ratio (z) = 0.58070 -0.05671
#
# Static dielectric constant tensor:
#      x y z
#    x 1.730480 0.000000 0.011760 
#    y 0.000000 1.638870 0.000000 
#    z 0.011760 0.000000 1.634640 
# 
# From -- ./inp_files/89628.got.cif
#   From: 2010.05.17/outbox.cif.g08.bks.cpg/sg10_45_cif.got.tgz:89628.got - 2010.06.03 11:33:40.
