data_PCOD9145216
_publ_section_title
;
Structure prediction by ZEFSAII (Michael W. Deem and Ramdas Pophale) SiO2 
 PCOD9145216
Probable space group: P 2/M
;
_chemical_formula_sum "Si O2"
_cell_formula_units_Z 32
_cell_length_a 21.034102
_cell_length_b 7.823465
_cell_length_c 13.850214
_cell_angle_alpha 90.000000
_cell_angle_beta 145.084310
_cell_angle_gamma 90.000000
_cell_volume 1304.538207
_symmetry_space_group_name_H-M "P 2/M"
_symmetry_group_IT_number 10
_symmetry_cell_setting 'monoclinic'
loop_
_space_group_symop_operation_xyz
x,y,z
-x,y,-z
-x,-y,-z
x,-y,z
loop_
_atom_site_type_symbol
_atom_site_label
_atom_site_fract_x
_atom_site_fract_y
_atom_site_fract_z
Si Si1 0.129952 0.199867 0.251025
Si Si2 0.308245 0.197560 0.004679
Si Si3 0.276898 0.206054 0.254273
Si Si4 0.056725 0.700046 0.667555
Si Si5 0.073570 0.296850 0.896263
Si Si6 0.375183 0.697299 0.883496
Si Si7 0.472399 0.202010 0.626272
Si Si8 0.315870 0.696513 0.608880
O O1 0.192347 0.264752 0.233721
O O2 0.192931 0.296106 0.414488
O O3 0.000572 0.219419 0.110489
O O4 0.157213 0.000000 0.289778
O O5 0.190600 0.286700 0.837316
O O6 0.365150 0.202963 0.969762
O O7 0.286277 0.000000 0.003864
O O8 0.404912 0.270852 0.195995
O O9 0.396908 0.267492 0.442588
O O10 0.283373 0.000000 0.259270
O O11 0.204908 0.258934 0.072069
O O12 0.024964 0.500000 0.630386
O O13 0.028567 0.773394 0.738158
O O14 0.000000 0.773086 0.500000
O O15 0.061001 0.500000 0.883713
O O16 0.340170 0.500000 0.858755
O O17 0.312530 0.770528 0.712206
O O18 0.500000 0.695540 0.000000
O O19 0.395853 0.222279 0.627155
O O20 0.488245 0.000000 0.629025
O O21 0.353939 0.500000 0.665226
#
# Coordination Sequence:
#
# PCOD9145216 Si02
#       8
#     4   4   4   4   4   4   4   4
#     4  10  21  36  57  86 124 161 192 234 297 358
#     4  11  23  38  61  89 116 150 198 251 293 343
#     4   9  19  37  60  87 123 162 189 225 295 365
#     4  10  25  48  66  81 112 157 200 246 301 355
#     4  11  23  39  61  88 114 151 204 254 295 344
#     4  10  20  34  53  82 120 160 196 233 291 358
#     4   9  19  36  56  84 122 155 184 229 293 353
#     4  10  19  31  51  81 117 157 198 235 280 345
#
# _framework density 24.529751999999998
#
# number of rings (size 3 to 8) (size 9 to 14) (size 15 to 20)
#    0.000    2.000    1.250    2.625    1.750    7.000 
#    0.000    0.625    0.000    3.750    0.000    0.000 
#    0.000    0.000    0.000    0.000    0.000    0.000 
#
# Total GULP energy -178612.547081 kJ/mol
# GULP energy per Si atom -5581.642096 kJ/mol
# Density = 2.447392 g / cm^3
# Si number density = 24.529752 Si / 1000 Ang^3
#
#
#
# Elastic Constant Matrix: (Units=GPa)
#
#
# Indices 1 2 3 4 5 6 
#
# 1 84.2786 -2.6271 32.6963 0.0000 8.4678 0.0000
# 2 -2.6271 39.6021 -2.8175 0.0000 -7.8798 0.0000
# 3 32.6963 -2.8175 179.5445 0.0000 -14.9991 0.0000
# 4 0.0000 0.0000 0.0000 24.7638 0.0000 0.8049
# 5 8.4678 -7.8798 -14.9991 0.0000 38.2918 0.0000
# 6 0.0000 0.0000 0.0000 0.8049 0.0000 13.6433
#
#
#
# Elastic Compliance Matrix: (Units=1/GPa)
#
#
# Indices 1 2 3 4 5 6 
#
# 1 0.013345 -0.000120 -0.002771 0.000000 -0.004061 0.000000
# 2 -0.000120 0.026470 0.000925 0.000000 0.005836 0.000000
# 3 -0.002771 0.000925 0.006364 0.000000 0.003296 0.000000
# 4 0.000000 0.000000 0.000000 0.040459 0.000000 -0.002387
# 5 -0.004061 0.005836 0.003296 0.000000 0.029505 0.000000
# 6 0.000000 0.000000 0.000000 -0.002387 0.000000 0.073437
#
#
# Mechanical properties :
#
#
# Convention : Reuss Voigt Hill
#
# Bulk Modulus (GPa) = 23.67084 39.76985 31.72034
# Shear Modulus (GPa) = 24.08523 33.75133 28.91828
#
# Velocity S-wave (km/s) = 3.13689 3.71338 3.43725
# Velocity P-wave (km/s) = 4.77398 5.88504 5.35839
#
# Compressibility (1/GPa) = 0.04224607
#
# Stress axis : x y z
#
# Youngs Moduli (GPa) = 74.93515 37.77837 157.12916
#
# Poissons Ratio (x) = 0.00453 0.43546
# Poissons Ratio (y) = 0.00899 -0.14531
# Poissons Ratio (z) = 0.20767 -0.03494
#
# Static dielectric constant tensor:
#      x y z
#    x 1.989680 0.000000 -0.045340 
#    y 0.000000 1.882100 0.000000 
#    z -0.045340 0.000000 2.042310 
# 
# From -- ./inp_files/71592.got.cif
#   From: 2010.05.17/outbox.cif.g08.bks.cpg/sg10_36_cif.got.tgz:71592.got - 2010.06.03 11:33:40.
