data_PCOD9145806
_publ_section_title
;
Structure prediction by ZEFSAII (Michael W. Deem and Ramdas Pophale) SiO2 
 PCOD9145806
Probable space group: P 2/M
;
_chemical_formula_sum "Si O2"
_cell_formula_units_Z 32
_cell_length_a 17.559975
_cell_length_b 7.573522
_cell_length_c 23.843553
_cell_angle_alpha 90.000000
_cell_angle_beta 28.466064
_cell_angle_gamma 90.000000
_cell_volume 1511.407466
_symmetry_space_group_name_H-M "P 2/M"
_symmetry_group_IT_number 10
_symmetry_cell_setting 'monoclinic'
loop_
_space_group_symop_operation_xyz
x,y,z
-x,y,-z
-x,-y,-z
x,-y,z
loop_
_atom_site_type_symbol
_atom_site_label
_atom_site_fract_x
_atom_site_fract_y
_atom_site_fract_z
Si Si1 0.090066 0.205772 0.678194
Si Si2 0.597161 0.215132 0.853678
Si Si3 0.357436 0.214798 0.420705
Si Si4 0.123053 0.299857 0.781329
Si Si5 0.214830 0.797437 0.959021
Si Si6 0.724077 0.292984 0.204911
Si Si7 0.576906 0.784472 0.744435
Si Si8 0.739731 0.784341 0.878303
O O1 0.219429 0.280494 0.551215
O O2 0.147137 0.216294 0.705201
O O3 0.910931 0.280049 0.788548
O O4 0.075363 0.000000 0.672636
O O5 0.643269 0.273343 0.761475
O O6 0.705557 0.268684 0.836050
O O7 0.598464 0.000000 0.852869
O O8 0.415128 0.270423 0.985686
O O9 0.533178 0.273638 0.326211
O O10 0.338887 0.270451 0.367711
O O11 0.360118 0.000000 0.420066
O O12 0.181700 0.500000 0.738556
O O13 0.207710 0.218707 0.781128
O O14 0.934952 0.297810 0.917178
O O15 0.207594 0.791067 0.896132
O O16 0.390785 0.729135 0.860523
O O17 0.205281 0.000000 0.984768
O O18 0.767705 0.500000 0.173816
O O19 0.575772 0.000000 0.744682
O O20 0.738152 0.000000 0.881592
#
# Coordination Sequence:
#
# PCOD9145806 Si02
#       8
#     4   4   4   4   4   4   4   4
#     4  10  20  34  50  69  96 129 168 212 252 289
#     4   8  12  21  41  69 100 128 154 190 242 299
#     4   9  19  34  50  69  95 128 168 212 251 290
#     4  11  23  35  49  72  99 128 164 204 248 299
#     4  10  19  32  53  79 105 130 158 196 243 293
#     4  10  21  36  52  71  98 129 162 203 247 293
#     4   8  14  26  45  70  98 127 159 195 238 288
#     4   8  14  24  41  69 100 127 157 197 246 295
#
# _framework density 21.172319000000002
#
# number of rings (size 3 to 8) (size 9 to 14) (size 15 to 20)
#    0.000    2.750    0.000    3.750    0.000    6.500 
#    0.000    3.125    0.000    3.750    0.000   10.500 
#    0.000    5.000    0.000    0.000    0.000    0.000 
#
# Total GULP energy -178573.613343 kJ/mol
# GULP energy per Si atom -5580.425417 kJ/mol
# Density = 2.112413 g / cm^3
# Si number density = 21.172319 Si / 1000 Ang^3
#
#
#
# Elastic Constant Matrix: (Units=GPa)
#
#
# Indices 1 2 3 4 5 6 
#
# 1 100.2651 -7.9377 34.5579 0.0000 33.6261 0.0000
# 2 -7.9377 46.6384 -5.5125 0.0000 -1.4241 0.0000
# 3 34.5579 -5.5125 67.4493 0.0000 23.9814 0.0000
# 4 0.0000 0.0000 0.0000 -20.1923 0.0000 4.1415
# 5 33.6261 -1.4241 23.9814 0.0000 22.7580 0.0000
# 6 0.0000 0.0000 0.0000 4.1415 0.0000 50.7287
#
#
#
# Elastic Compliance Matrix: (Units=1/GPa)
#
#
# Indices 1 2 3 4 5 6 
#
# 1 0.020079 0.002573 0.000662 0.000000 -0.030204 0.000000
# 2 0.002573 0.021990 0.002145 0.000000 -0.004686 0.000000
# 3 0.000662 0.002145 0.023926 0.000000 -0.026056 0.000000
# 4 0.000000 0.000000 0.000000 -0.048708 0.000000 0.003977
# 5 -0.030204 -0.004686 -0.026056 0.000000 0.115732 0.000000
# 6 0.000000 0.000000 0.000000 0.003977 0.000000 0.019388
#
#
# Mechanical properties :
#
#
# Convention : Reuss Voigt Hill
#
# Bulk Modulus (GPa) = 13.02846 28.50757 20.76801
# Shear Modulus (GPa) = 29.89861 23.54187 26.72024
#
# Velocity S-wave (km/s) = 3.76194 3.33816 3.55637
# Velocity P-wave (km/s) = 5.00365 5.32462 5.16663
#
# Compressibility (1/GPa) = 0.07675507
#
# Stress axis : x y z
#
# Youngs Moduli (GPa) = 49.80414 45.47535 41.79476
#
# Poissons Ratio (x) = -0.11702 -0.02766
# Poissons Ratio (y) = -0.12816 -0.08965
# Poissons Ratio (z) = -0.03296 -0.09755
#
# Static dielectric constant tensor:
#      x y z
#    x 1.773230 0.000000 0.012160 
#    y 0.000000 1.796970 0.000000 
#    z 0.012160 0.000000 1.729660 
# 
# From -- ./inp_files/89949.got.cif
#   From: 2010.05.17/outbox.cif.g08.bks.cpg/sg10_45_cif.got.tgz:89949.got - 2010.06.03 11:33:40.
