data_PCOD9145641
_publ_section_title
;
Structure prediction by ZEFSAII (Michael W. Deem and Ramdas Pophale) SiO2 
 PCOD9145641
Probable space group: P 2/M
;
_chemical_formula_sum "Si O2"
_cell_formula_units_Z 32
_cell_length_a 22.045635
_cell_length_b 7.629380
_cell_length_c 12.383655
_cell_angle_alpha 90.000000
_cell_angle_beta 132.918484
_cell_angle_gamma 90.000000
_cell_volume 1525.329007
_symmetry_space_group_name_H-M "P 2/M"
_symmetry_group_IT_number 10
_symmetry_cell_setting 'monoclinic'
loop_
_space_group_symop_operation_xyz
x,y,z
-x,y,-z
-x,-y,-z
x,-y,z
loop_
_atom_site_type_symbol
_atom_site_label
_atom_site_fract_x
_atom_site_fract_y
_atom_site_fract_z
Si Si1 0.867584 0.214279 0.083480
Si Si2 0.789298 0.797977 0.367577
Si Si3 0.572758 0.785980 0.733381
Si Si4 0.717229 0.785441 0.057642
Si Si5 0.388599 0.211514 0.460649
Si Si6 0.094589 0.211140 0.107512
Si Si7 0.759642 0.299522 0.560129
Si Si8 0.025707 0.787161 0.408630
O O1 0.791545 0.267327 0.067098
O O2 0.954403 0.273538 0.241003
O O3 0.866770 0.000000 0.082743
O O4 0.864511 0.271217 0.955478
O O5 0.739228 0.724310 0.205060
O O6 0.745904 0.797623 0.430680
O O7 0.881235 0.720600 0.495324
O O8 0.804697 0.000000 0.354883
O O9 0.611921 0.732828 0.665354
O O10 0.477015 0.730183 0.616615
O O11 0.571858 0.000000 0.732594
O O12 0.630701 0.726427 0.901087
O O13 0.714275 0.000000 0.053571
O O14 0.311306 0.267595 0.437895
O O15 0.388135 0.000000 0.459105
O O16 0.152859 0.255445 0.278283
O O17 0.090797 0.000000 0.098948
O O18 0.000000 0.275016 0.000000
O O19 0.759649 0.500000 0.529322
O O20 0.000000 0.747342 0.500000
O O21 0.025961 0.000000 0.397530
#
# Coordination Sequence:
#
# PCOD9145641 Si02
#       8
#     4   4   4   4   4   4   4   4
#     4   9  15  24  45  78 110 132 159 209 263 311
#     4  10  19  32  52  75 103 140 181 221 261 310
#     4   8  15  29  55  88 112 128 160 220 282 324
#     4   9  15  25  46  80 109 129 162 216 274 316
#     4   9  17  34  59  83 107 136 170 213 268 327
#     4  10  20  35  56  82 108 136 174 218 264 314
#     4  12  25  38  52  72 106 148 185 217 257 310
#     4   9  14  24  44  77 110 132 162 206 255 302
#
# _framework density 20.97908
#
# number of rings (size 3 to 8) (size 9 to 14) (size 15 to 20)
#    0.000    2.500    1.250    3.375    0.000    4.250 
#    0.000    1.875    0.000    7.875    0.000    0.000 
#    0.000    0.000    0.000    0.000    0.000    0.000 
#
# Total GULP energy -178626.888788 kJ/mol
# GULP energy per Si atom -5582.090275 kJ/mol
# Density = 2.093133 g / cm^3
# Si number density = 20.979080 Si / 1000 Ang^3
#
#
#
# Elastic Constant Matrix: (Units=GPa)
#
#
# Indices 1 2 3 4 5 6 
#
# 1 76.1200 -3.7222 42.5562 0.0000 5.6292 0.0000
# 2 -3.7222 37.9924 3.1312 0.0000 1.7336 0.0000
# 3 42.5562 3.1312 157.0297 0.0000 -2.8367 0.0000
# 4 0.0000 0.0000 0.0000 -164.2569 0.0000 -82.4474
# 5 5.6292 1.7336 -2.8367 0.0000 26.9748 0.0000
# 6 0.0000 0.0000 0.0000 -82.4474 0.0000 -84.4514
#
#
#
# Elastic Compliance Matrix: (Units=1/GPa)
#
#
# Indices 1 2 3 4 5 6 
#
# 1 0.016024 0.002117 -0.004456 0.000000 -0.003949 0.000000
# 2 0.002117 0.026727 -0.001148 0.000000 -0.002280 0.000000
# 3 -0.004456 -0.001148 0.007631 0.000000 0.001806 0.000000
# 4 0.000000 0.000000 0.000000 -0.011938 0.000000 0.011655
# 5 -0.003949 -0.002280 0.001806 0.000000 0.038232 0.000000
# 6 0.000000 0.000000 0.000000 0.011655 0.000000 -0.023219
#
#
# Mechanical properties :
#
#
# Convention : Reuss Voigt Hill
#
# Bulk Modulus (GPa) = 23.03668 39.45247 31.24458
# Shear Modulus (GPa) = 66.75514 -29.06824 18.84345
#
# Velocity S-wave (km/s) = 5.64703 -3.72638 3.00025
# Velocity P-wave (km/s) = 7.31596 0.57612 5.18918
#
# Compressibility (1/GPa) = 0.04340904
#
# Stress axis : x y z
#
# Youngs Moduli (GPa) = 62.40643 37.41509 131.03763
#
# Poissons Ratio (x) = -0.07922 0.58393
# Poissons Ratio (y) = -0.13214 0.15043
# Poissons Ratio (z) = 0.27809 0.04295
#
# Static dielectric constant tensor:
#      x y z
#    x 1.736380 0.000000 -0.004910 
#    y 0.000000 1.799740 0.000000 
#    z -0.004910 0.000000 1.758770 
# 
# From -- ./inp_files/55342.got.cif
#   From: 2010.05.17/outbox.cif.g08.bks.cpg/sg10_28_cif.got.tgz:55342.got - 2010.06.03 11:33:40.
