data_PCOD9145801
_publ_section_title
;
Structure prediction by ZEFSAII (Michael W. Deem and Ramdas Pophale) SiO2 
 PCOD9145801
Probable space group: P 2/M
;
_chemical_formula_sum "Si O2"
_cell_formula_units_Z 21
_cell_length_a 5.303740
_cell_length_b 7.581055
_cell_length_c 23.276556
_cell_angle_alpha 90.000000
_cell_angle_beta 102.869701
_cell_angle_gamma 90.000000
_cell_volume 912.391778
_symmetry_space_group_name_H-M "P 2/M"
_symmetry_group_IT_number 10
_symmetry_cell_setting 'monoclinic'
loop_
_space_group_symop_operation_xyz
x,y,z
-x,y,-z
-x,-y,-z
x,-y,z
loop_
_atom_site_type_symbol
_atom_site_label
_atom_site_fract_x
_atom_site_fract_y
_atom_site_fract_z
Si Si1 0.661408 0.298105 0.874748
Si Si2 0.788485 0.808369 0.062318
Si Si3 0.784114 0.215780 0.534613
Si Si4 0.538652 0.785237 0.259914
Si Si5 0.000000 0.500000 0.000000
Si Si6 0.893602 0.214800 0.669995
O O1 0.724346 0.500000 0.897302
O O2 0.441237 0.221245 0.904394
O O3 0.550978 0.292401 0.805085
O O4 0.935880 0.202294 0.890740
O O5 0.811821 0.655650 0.017565
O O6 0.766430 0.000000 0.034097
O O7 0.500000 0.270924 0.500000
O O8 0.000000 0.272034 0.500000
O O9 0.847111 0.273832 0.602427
O O10 0.785610 0.000000 0.535126
O O11 0.827899 0.730936 0.291707
O O12 0.337225 0.733382 0.299317
O O13 0.534022 0.000000 0.254574
O O14 0.894854 0.000000 0.668874
#
# Coordination Sequence:
#
# PCOD9145801 Si02
#       6
#     4   4   4   4   1   4
#     4  12  24  45  66  97 132 169 217 275 328 389
#     4  12  26  46  73 100 137 179 220 269 331 387
#     4   9  15  23  37  60  98 145 188 236 304 374
#     4  10  19  32  53  78 111 151 197 248 314 383
#     4  12  26  50  72 108 140 174 230 274 312 380
#     4   9  17  28  44  72 107 147 195 250 306 378
#
# _framework density 23.016425999999999
#
# number of rings (size 3 to 8) (size 9 to 14) (size 15 to 20)
#    0.000    1.524    1.905    4.286    0.000    7.619 
#    0.000    1.905    0.000    0.000    0.000    0.000 
#    0.000   15.238    0.000    0.000    0.000    0.000 
#
# Total GULP energy -117430.533434 kJ/mol
# GULP energy per Si atom -5591.930164 kJ/mol
# Density = 2.296404 g / cm^3
# Si number density = 23.016426 Si / 1000 Ang^3
#
#
#
# Elastic Constant Matrix: (Units=GPa)
#
#
# Indices 1 2 3 4 5 6 
#
# 1 164.4894 14.6434 41.7663 0.0000 6.9072 0.0000
# 2 14.6434 126.0027 15.2016 0.0000 -5.5783 0.0000
# 3 41.7663 15.2016 115.8508 0.0000 3.2800 0.0000
# 4 0.0000 0.0000 0.0000 5.0065 0.0000 20.6327
# 5 6.9072 -5.5783 3.2800 0.0000 50.4163 0.0000
# 6 0.0000 0.0000 0.0000 20.6327 0.0000 -24.4915
#
#
#
# Elastic Compliance Matrix: (Units=1/GPa)
#
#
# Indices 1 2 3 4 5 6 
#
# 1 0.006757 -0.000540 -0.002342 0.000000 -0.000833 0.000000
# 2 -0.000540 0.008154 -0.000905 0.000000 0.001035 0.000000
# 3 -0.002342 -0.000905 0.009606 0.000000 -0.000404 0.000000
# 4 0.000000 0.000000 0.000000 0.044666 0.000000 0.037629
# 5 -0.000833 0.001035 -0.000404 0.000000 0.020090 0.000000
# 6 0.000000 0.000000 0.000000 0.037629 0.000000 -0.009131
#
#
# Mechanical properties :
#
#
# Convention : Reuss Voigt Hill
#
# Bulk Modulus (GPa) = 59.01361 61.06284 60.03822
# Shear Modulus (GPa) = 53.55450 28.50169 41.02810
#
# Velocity S-wave (km/s) = 4.82892 3.52279 4.22661
# Velocity P-wave (km/s) = 7.53570 6.56768 7.06828
#
# Compressibility (1/GPa) = 0.01694524
#
# Stress axis : x y z
#
# Youngs Moduli (GPa) = 147.99425 122.63887 104.09996
#
# Poissons Ratio (x) = 0.06618 0.24376
# Poissons Ratio (y) = 0.07986 0.09418
# Poissons Ratio (z) = 0.34655 0.11095
#
# Static dielectric constant tensor:
#      x y z
#    x 1.792760 0.000000 -0.020580 
#    y 0.000000 2.214730 0.000000 
#    z -0.020580 0.000000 1.640160 
# 
# From -- ./inp_files/80938.got.cif
#   From: 2010.05.17/outbox.cif.g08.bks.cpg/sg10_41_cif.got.tgz:80938.got - 2010.06.03 11:33:40.
