data_PCOD9145201
_publ_section_title
;
Structure prediction by ZEFSAII (Michael W. Deem and Ramdas Pophale) SiO2 
 PCOD9145201
Probable space group: P 2/M
;
_chemical_formula_sum "Si O2"
_cell_formula_units_Z 30
_cell_length_a 5.156948
_cell_length_b 24.860438
_cell_length_c 14.746471
_cell_angle_alpha 90.000000
_cell_angle_beta 119.066852
_cell_angle_gamma 90.000000
_cell_volume 1652.447296
_symmetry_space_group_name_H-M "P 2/M"
_symmetry_group_IT_number 10
_symmetry_cell_setting 'monoclinic'
loop_
_space_group_symop_operation_xyz
x,y,z
-x,y,-z
-x,-y,-z
x,-y,z
loop_
_atom_site_type_symbol
_atom_site_label
_atom_site_fract_x
_atom_site_fract_y
_atom_site_fract_z
Si Si1 0.848154 0.000000 0.573904
Si Si2 0.350889 0.644007 0.069285
Si Si3 0.366008 0.437537 0.744715
Si Si4 0.298623 0.562470 0.388375
Si Si5 0.575818 0.854388 0.254041
Si Si6 0.231877 0.882087 0.380356
Si Si7 0.354377 0.230994 0.072064
Si Si8 0.659045 0.936870 0.930389
O O1 0.500000 0.000000 0.500000
O O2 0.890719 0.943799 0.632999
O O3 0.000000 0.000000 0.500000
O O4 0.455725 0.601919 0.160968
O O5 0.430609 0.706276 0.101751
O O6 0.500000 0.629025 0.000000
O O7 0.000000 0.641823 0.000000
O O8 0.362722 0.500000 0.776772
O O9 0.519144 0.437417 0.672951
O O10 0.030439 0.416068 0.680570
O O11 0.500000 0.588346 0.500000
O O12 0.244891 0.500000 0.407254
O O13 0.379879 0.866638 0.309789
O O14 0.467902 0.803930 0.175663
O O15 0.513618 0.903630 0.174517
O O16 0.923624 0.849667 0.339578
O O17 0.500000 0.876052 0.500000
O O18 0.500000 0.214763 0.000000
O O19 0.000000 0.225847 0.000000
O O20 0.665962 0.000000 0.906897
O O21 0.500000 0.931231 0.000000
O O22 0.000000 0.918158 0.000000
#
# Coordination Sequence:
#
# PCOD9145201 Si02
#       8
#     2   4   4   4   4   4   4   4
#     4  10  20  38  56  76 110 146 180 222 258 306
#     4  10  21  36  55  79 110 145 179 226 275 326
#     4  10  19  31  51  79 110 144 183 227 275 334
#     4   9  17  30  49  74 106 144 183 225 268 315
#     4  12  22  36  62  81 105 146 183 220 270 320
#     4  11  24  38  57  83 113 144 183 225 265 316
#     4  10  21  39  61  84 107 137 187 232 270 326
#     4  10  21  35  51  77 111 135 163 211 264 317
#
# _framework density 18.154892
#
# number of rings (size 3 to 8) (size 9 to 14) (size 15 to 20)
#    0.000    1.733    0.000    5.600    1.867    2.133 
#    0.000    0.000    0.000    4.800    0.000    0.000 
#    0.000    0.000    0.000    0.000    0.000    0.000 
#
# Total GULP energy -167361.466599 kJ/mol
# GULP energy per Si atom -5578.715553 kJ/mol
# Density = 1.811357 g / cm^3
# Si number density = 18.154892 Si / 1000 Ang^3
#
#
#
# Elastic Constant Matrix: (Units=GPa)
#
#
# Indices 1 2 3 4 5 6 
#
# 1 107.8933 13.9076 28.2723 0.0000 -2.5691 0.0000
# 2 13.9076 63.4520 53.9568 0.0000 -7.3389 0.0000
# 3 28.2723 53.9568 97.9543 0.0000 -0.7381 0.0000
# 4 0.0000 0.0000 0.0000 5.6963 0.0000 -6.3638
# 5 -2.5691 -7.3389 -0.7381 0.0000 34.2530 0.0000
# 6 0.0000 0.0000 0.0000 -6.3638 0.0000 19.4961
#
#
#
# Elastic Compliance Matrix: (Units=1/GPa)
#
#
# Indices 1 2 3 4 5 6 
#
# 1 0.010057 0.000667 -0.003264 0.000000 0.000827 0.000000
# 2 0.000667 0.030978 -0.017208 0.000000 0.006316 0.000000
# 3 -0.003264 -0.017208 0.020604 0.000000 -0.003488 0.000000
# 4 0.000000 0.000000 0.000000 0.276310 0.000000 0.090191
# 5 0.000827 0.006316 -0.003488 0.000000 0.030535 0.000000
# 6 0.000000 0.000000 0.000000 0.090191 0.000000 0.080732
#
#
# Mechanical properties :
#
#
# Convention : Reuss Voigt Hill
#
# Bulk Modulus (GPa) = 45.39789 51.28590 48.34189
# Shear Modulus (GPa) = 10.07722 23.43327 16.75524
#
# Velocity S-wave (km/s) = 2.35855 3.59659 3.04123
# Velocity P-wave (km/s) = 5.69887 6.74964 6.24639
#
# Compressibility (1/GPa) = 0.02202746
#
# Stress axis : x y z
#
# Youngs Moduli (GPa) = 99.42900 32.28128 48.53514
#
# Poissons Ratio (x) = -0.02152 0.15841
# Poissons Ratio (y) = -0.06628 0.83521
# Poissons Ratio (z) = 0.32452 0.55551
#
# Static dielectric constant tensor:
#      x y z
#    x 1.604950 0.000000 0.021490 
#    y 0.000000 1.641120 0.000000 
#    z 0.021490 0.000000 1.609120 
# 
# From -- ./inp_files/59732.got.cif
#   From: 2010.05.17/outbox.cif.g08.bks.cpg/sg10_30_cif.got.tgz:59732.got - 2010.06.03 11:33:40.
