data_PCOD9145788
_publ_section_title
;
Structure prediction by ZEFSAII (Michael W. Deem and Ramdas Pophale) SiO2 
 PCOD9145788
Probable space group: P 2/M
;
_chemical_formula_sum "Si O2"
_cell_formula_units_Z 28
_cell_length_a 9.894015
_cell_length_b 9.069625
_cell_length_c 30.838482
_cell_angle_alpha 90.000000
_cell_angle_beta 143.329470
_cell_angle_gamma 90.000000
_cell_volume 1652.661478
_symmetry_space_group_name_H-M "P 2/M"
_symmetry_group_IT_number 10
_symmetry_cell_setting 'monoclinic'
loop_
_space_group_symop_operation_xyz
x,y,z
-x,y,-z
-x,-y,-z
x,-y,z
loop_
_atom_site_type_symbol
_atom_site_label
_atom_site_fract_x
_atom_site_fract_y
_atom_site_fract_z
Si Si1 0.239195 0.676740 0.439214
Si Si2 0.321271 0.830928 0.994079
Si Si3 0.020197 0.323927 0.152186
Si Si4 0.548141 0.676389 0.283186
Si Si5 0.838116 0.324426 0.272777
Si Si6 0.939639 0.823589 0.435297
Si Si7 0.732991 0.177230 0.154907
O O1 0.500000 0.716993 0.500000
O O2 0.224998 0.500000 0.442735
O O3 0.082493 0.708596 0.357078
O O4 0.125342 0.757861 0.450333
O O5 0.476448 0.781939 0.074217
O O6 0.246442 0.000000 0.981172
O O7 0.500000 0.831175 0.000000
O O8 0.115382 0.731793 0.925054
O O9 0.998432 0.500000 0.150328
O O10 0.284630 0.285423 0.217649
O O11 0.902421 0.248004 0.163301
O O12 0.571573 0.500000 0.295521
O O13 0.657609 0.709513 0.264376
O O14 0.700797 0.757971 0.357949
O O15 0.827933 0.500000 0.261216
O O16 0.790500 0.235560 0.217128
O O17 0.000000 0.782901 0.500000
O O18 0.934938 0.000000 0.430610
O O19 0.748095 0.000000 0.156054
#
# Coordination Sequence:
#
# PCOD9145788 Si02
#       7
#     4   4   4   4   4   4   4
#     4   9  19  36  56  76 100 133 170 207 250 298
#     4   8  16  31  48  69 100 133 165 203 246 294
#     4  10  19  32  53  78 100 127 167 211 251 292
#     4   9  20  37  54  74 101 133 168 205 249 300
#     4   9  18  34  53  73  99 130 167 208 246 291
#     4  10  21  35  52  77 105 132 166 207 249 295
#     4  10  20  33  50  74 103 134 167 203 247 299
#
# _framework density 16.942367999999998
#
# number of rings (size 3 to 8) (size 9 to 14) (size 15 to 20)
#    0.000    2.714    0.000    3.000    0.000    9.143 
#    0.000    5.000    0.000    4.286    0.000    0.000 
#    0.000    0.000    0.000    0.000    0.000    0.000 
#
# Total GULP energy -156107.358198 kJ/mol
# GULP energy per Si atom -5575.262793 kJ/mol
# Density = 1.690381 g / cm^3
# Si number density = 16.942368 Si / 1000 Ang^3
#
#
#
# Elastic Constant Matrix: (Units=GPa)
#
#
# Indices 1 2 3 4 5 6 
#
# 1 70.0906 47.4820 99.0805 0.0000 0.1937 0.0000
# 2 47.4820 51.7291 77.2110 0.0000 0.8447 0.0000
# 3 99.0805 77.2110 185.7724 0.0000 0.7615 0.0000
# 4 0.0000 0.0000 0.0000 29.0771 0.0000 -11.6633
# 5 0.1937 0.8447 0.7615 0.0000 30.1309 0.0000
# 6 0.0000 0.0000 0.0000 -11.6633 0.0000 4.9190
#
#
#
# Elastic Compliance Matrix: (Units=1/GPa)
#
#
# Indices 1 2 3 4 5 6 
#
# 1 0.065705 -0.021107 -0.026274 0.000000 0.000833 0.000000
# 2 -0.021107 0.057725 -0.012729 0.000000 -0.001161 0.000000
# 3 -0.026274 -0.012729 0.024687 0.000000 -0.000098 0.000000
# 4 0.000000 0.000000 0.000000 0.702949 0.000000 1.666740
# 5 0.000833 -0.001161 -0.000098 0.000000 0.033218 0.000000
# 6 0.000000 0.000000 0.000000 1.666740 0.000000 4.155247
#
#
# Mechanical properties :
#
#
# Convention : Reuss Voigt Hill
#
# Bulk Modulus (GPa) = 35.84844 83.90434 59.87639
# Shear Modulus (GPa) = 0.96730 18.41332 9.69031
#
# Velocity S-wave (km/s) = 0.75642 3.30027 2.39416
# Velocity P-wave (km/s) = 4.68699 8.00958 6.56206
#
# Compressibility (1/GPa) = 0.02789522
#
# Stress axis : x y z
#
# Youngs Moduli (GPa) = 15.21947 17.32364 40.50683
#
# Poissons Ratio (x) = 0.36565 1.06429
# Poissons Ratio (y) = 0.32124 0.51563
# Poissons Ratio (z) = 0.39988 0.22052
#
# Static dielectric constant tensor:
#      x y z
#    x 1.546370 0.000000 0.001380 
#    y 0.000000 1.564710 0.000000 
#    z 0.001380 0.000000 1.578640 
# 
# From -- ./inp_files/94534.got.cif
#   From: 2010.05.17/outbox.cif.g08.bks.cpg/sg10_48_cif.got.tgz:94534.got - 2010.06.03 11:33:40.
