data_PCOD9145843
_publ_section_title
;
Structure prediction by ZEFSAII (Michael W. Deem and Ramdas Pophale) SiO2 
 PCOD9145843
Probable space group: P 2/M
;
_chemical_formula_sum "Si O2"
_cell_formula_units_Z 24
_cell_length_a 25.122794
_cell_length_b 7.762882
_cell_length_c 17.713708
_cell_angle_alpha 90.000000
_cell_angle_beta 160.244480
_cell_angle_gamma 90.000000
_cell_volume 1167.687418
_symmetry_space_group_name_H-M "P 2/M"
_symmetry_group_IT_number 10
_symmetry_cell_setting 'monoclinic'
loop_
_space_group_symop_operation_xyz
x,y,z
-x,y,-z
-x,-y,-z
x,-y,z
loop_
_atom_site_type_symbol
_atom_site_label
_atom_site_fract_x
_atom_site_fract_y
_atom_site_fract_z
Si Si1 0.066580 0.707993 0.854935
Si Si2 0.914180 0.206878 0.809902
Si Si3 0.761051 0.200529 0.150703
Si Si4 0.436745 0.201445 0.654379
Si Si5 0.926572 0.698852 0.517537
Si Si6 0.426300 0.708848 0.321458
O O1 0.067976 0.500000 0.851916
O O2 0.012033 0.756973 0.865285
O O3 0.951202 0.770937 0.634358
O O4 0.244757 0.766145 0.076726
O O5 0.736408 0.276711 0.563852
O O6 0.901739 0.000000 0.802013
O O7 0.000000 0.273310 0.000000
O O8 0.808908 0.211978 0.302176
O O9 0.900259 0.291967 0.290124
O O10 0.766351 0.000000 0.134778
O O11 0.589222 0.273225 0.901733
O O12 0.478187 0.218235 0.621435
O O13 0.428960 0.000000 0.665232
O O14 0.878410 0.500000 0.457721
O O15 0.500000 0.758092 0.500000
O O16 0.430768 0.500000 0.322068
#
# Coordination Sequence:
#
# PCOD9145843 Si02
#       6
#     4   4   4   4   4   4
#     4  10  21  36  54  81 110 140 181 223 269 325
#     4  10  22  39  57  78 108 147 186 223 269 323
#     4  10  19  32  53  81 110 140 178 220 270 325
#     4  10  21  36  54  80 110 141 181 225 270 323
#     4  10  19  33  54  80 111 141 175 221 271 321
#     4  10  20  34  54  80 108 138 178 227 274 321
#
# _framework density 20.553446999999998
#
# number of rings (size 3 to 8) (size 9 to 14) (size 15 to 20)
#    0.000    2.000    1.667    3.000    0.000    4.000 
#    0.000    0.833    0.000    5.000    0.000    0.000 
#    0.000    0.000    0.000    0.000    0.000    0.000 
#
# Total GULP energy -134012.024620 kJ/mol
# GULP energy per Si atom -5583.834359 kJ/mol
# Density = 2.050667 g / cm^3
# Si number density = 20.553447 Si / 1000 Ang^3
#
#
#
# Elastic Constant Matrix: (Units=GPa)
#
#
# Indices 1 2 3 4 5 6 
#
# 1 61.8256 -12.9978 -9.4673 0.0000 -15.4263 0.0000
# 2 -12.9978 29.1938 2.4981 0.0000 -2.6737 0.0000
# 3 -9.4673 2.4981 47.7033 0.0000 -13.2789 0.0000
# 4 0.0000 0.0000 0.0000 9.0482 0.0000 -1.4517
# 5 -15.4263 -2.6737 -13.2789 0.0000 41.9435 0.0000
# 6 0.0000 0.0000 0.0000 -1.4517 0.0000 24.5798
#
#
#
# Elastic Compliance Matrix: (Units=1/GPa)
#
#
# Indices 1 2 3 4 5 6 
#
# 1 0.022132 0.010268 0.006912 0.000000 0.010983 0.000000
# 2 0.010268 0.039293 0.001896 0.000000 0.006881 0.000000
# 3 0.006912 0.001896 0.025197 0.000000 0.010640 0.000000
# 4 0.000000 0.000000 0.000000 0.111576 0.000000 0.006590
# 5 0.010983 0.006881 0.010640 0.000000 0.031688 0.000000
# 6 0.000000 0.000000 0.000000 0.006590 0.000000 0.041073
#
#
# Mechanical properties :
#
#
# Convention : Reuss Voigt Hill
#
# Bulk Modulus (GPa) = 8.01448 10.97650 9.49549
# Shear Modulus (GPa) = 18.22156 25.69361 21.95759
#
# Velocity S-wave (km/s) = 2.98072 3.53949 3.27206
# Velocity P-wave (km/s) = 3.96914 4.69639 4.34800
#
# Compressibility (1/GPa) = 0.12477411
#
# Stress axis : x y z
#
# Youngs Moduli (GPa) = 45.18352 25.44952 39.68686
#
# Poissons Ratio (x) = -0.26132 -0.27431
# Poissons Ratio (y) = -0.46395 -0.07524
# Poissons Ratio (z) = -0.31230 -0.04825
#
# Static dielectric constant tensor:
#      x y z
#    x 1.695820 0.000000 -0.031230 
#    y 0.000000 1.737440 0.000000 
#    z -0.031230 0.000000 1.755220 
# 
# From -- ./inp_files/66333.got.cif
#   From: 2010.05.17/outbox.cif.g08.bks.cpg/sg10_34_cif.got.tgz:66333.got - 2010.06.03 11:33:40.
