data_PCOD9145189
_publ_section_title
;
Structure prediction by ZEFSAII (Michael W. Deem and Ramdas Pophale) SiO2 
 PCOD9145189
Probable space group: P 2/M
;
_chemical_formula_sum "Si O2"
_cell_formula_units_Z 26
_cell_length_a 12.892962
_cell_length_b 22.335931
_cell_length_c 5.374191
_cell_angle_alpha 90.000000
_cell_angle_beta 107.361572
_cell_angle_gamma 90.000000
_cell_volume 1477.130278
_symmetry_space_group_name_H-M "P 2/M"
_symmetry_group_IT_number 10
_symmetry_cell_setting 'monoclinic'
loop_
_space_group_symop_operation_xyz
x,y,z
-x,y,-z
-x,-y,-z
x,-y,z
loop_
_atom_site_type_symbol
_atom_site_label
_atom_site_fract_x
_atom_site_fract_y
_atom_site_fract_z
Si Si1 0.126126 0.813143 0.845716
Si Si2 0.203354 0.680619 0.013628
Si Si3 0.824529 0.500000 0.573252
Si Si4 0.125236 0.864282 0.342106
Si Si5 0.431678 0.371523 0.196676
Si Si6 0.111858 0.630081 0.464806
Si Si7 0.681680 0.500000 0.969432
Si Si8 0.929307 0.000000 0.697670
O O1 0.174740 0.835318 0.622123
O O2 0.999838 0.837128 0.751313
O O3 0.148599 0.743413 0.899392
O O4 0.176687 0.843855 0.122729
O O5 0.331118 0.674266 0.158589
O O6 0.145293 0.659869 0.228052
O O7 0.190900 0.640120 0.755960
O O8 0.893562 0.559953 0.596412
O O9 0.767942 0.500000 0.803139
O O10 0.737307 0.500000 0.282786
O O11 0.127870 0.935772 0.351985
O O12 0.500000 0.372194 0.500000
O O13 0.386482 0.439082 0.117638
O O14 0.500000 0.355352 0.000000
O O15 0.000000 0.653345 0.500000
O O16 0.000000 0.000000 0.500000
O O17 0.000000 0.000000 0.000000
#
# Coordination Sequence:
#
# PCOD9145189 Si02
#       8
#     4   4   2   4   4   4   2   2
#     4  10  20  32  48  73 109 144 189 217 255 309
#     4  12  25  41  57  83 112 144 189 240 270 341
#     4  12  21  43  58  79 114 135 180 227 287 340
#     4  10  19  31  51  78 109 158 188 222 257 303
#     4  12  24  42  64  85 105 136 178 238 315 356
#     4  12  25  39  59  80 109 152 182 223 280 330
#     4  12  22  41  65  83 108 129 171 245 300 368
#     4  12  16  30  48  74 116 150 198 226 256 294
#
# _framework density 17.601697000000001
#
# number of rings (size 3 to 8) (size 9 to 14) (size 15 to 20)
#    0.000    0.615    6.154    3.923    6.462    0.000 
#    0.000    2.308    0.000    0.000    0.000    0.000 
#    0.000    0.000    0.000   23.538    0.000    0.000 
#
# Total GULP energy -144969.171475 kJ/mol
# GULP energy per Si atom -5575.737364 kJ/mol
# Density = 1.756163 g / cm^3
# Si number density = 17.601697 Si / 1000 Ang^3
#
#
#
# Elastic Constant Matrix: (Units=GPa)
#
#
# Indices 1 2 3 4 5 6 
#
# 1 50.4127 43.9305 27.3240 0.0000 -15.0478 0.0000
# 2 43.9305 107.0824 35.6858 0.0000 -12.8210 0.0000
# 3 27.3240 35.6858 130.1830 0.0000 -37.4237 0.0000
# 4 0.0000 0.0000 0.0000 5.4986 0.0000 -13.7377
# 5 -15.0478 -12.8210 -37.4237 0.0000 36.3914 0.0000
# 6 0.0000 0.0000 0.0000 -13.7377 0.0000 8.6671
#
#
#
# Elastic Compliance Matrix: (Units=1/GPa)
#
#
# Indices 1 2 3 4 5 6 
#
# 1 0.033886 -0.012473 -0.001318 0.000000 0.008262 0.000000
# 2 -0.012473 0.014896 -0.002043 0.000000 -0.002011 0.000000
# 3 -0.001318 -0.002043 0.011577 0.000000 0.010641 0.000000
# 4 0.000000 0.000000 0.000000 -0.061440 0.000000 -0.097385
# 5 0.008262 -0.002011 0.010641 0.000000 0.041129 0.000000
# 6 0.000000 0.000000 0.000000 -0.097385 0.000000 -0.038979
#
#
# Mechanical properties :
#
#
# Convention : Reuss Voigt Hill
#
# Bulk Modulus (GPa) = 34.85571 55.72875 45.29223
# Shear Modulus (GPa) = 118.19654 22.16063 70.17858
#
# Velocity S-wave (km/s) = 8.20344 3.55210 6.32115
# Velocity P-wave (km/s) = 10.46776 6.96799 8.89176
#
# Compressibility (1/GPa) = 0.02868970
#
# Stress axis : x y z
#
# Youngs Moduli (GPa) = 29.51044 67.13221 86.37712
#
# Poissons Ratio (x) = 0.83737 0.11385
# Poissons Ratio (y) = 0.36809 0.17650
# Poissons Ratio (z) = 0.03890 0.13718
#
# Static dielectric constant tensor:
#      x y z
#    x 1.602790 0.000000 -0.011840 
#    y 0.000000 1.734630 0.000000 
#    z -0.011840 0.000000 1.662320 
# 
# From -- ./inp_files/7614.got.cif
#   From: 2010.05.17/outbox.cif.g08.bks.cpg/sg10_4_cif.got.tgz:7614.got - 2010.06.03 11:33:40.
