data_PCOD9145291
_publ_section_title
;
Structure prediction by ZEFSAII (Michael W. Deem and Ramdas Pophale) SiO2 
 PCOD9145291
Probable space group: P 2/M
;
_chemical_formula_sum "Si O2"
_cell_formula_units_Z 28
_cell_length_a 16.007324
_cell_length_b 7.613823
_cell_length_c 24.654598
_cell_angle_alpha 90.000000
_cell_angle_beta 25.678665
_cell_angle_gamma 90.000000
_cell_volume 1302.062119
_symmetry_space_group_name_H-M "P 2/M"
_symmetry_group_IT_number 10
_symmetry_cell_setting 'monoclinic'
loop_
_space_group_symop_operation_xyz
x,y,z
-x,y,-z
-x,-y,-z
x,-y,z
loop_
_atom_site_type_symbol
_atom_site_label
_atom_site_fract_x
_atom_site_fract_y
_atom_site_fract_z
Si Si1 0.285753 0.199856 0.562917
Si Si2 0.195553 0.286496 0.417251
Si Si3 0.426155 0.714678 0.868775
Si Si4 0.989320 0.704843 0.367174
Si Si5 0.717389 0.702727 0.312930
Si Si6 0.028768 0.715044 0.044874
Si Si7 0.575056 0.715241 0.897150
O O1 0.111298 0.281598 0.631897
O O2 0.255626 0.206343 0.645022
O O3 0.491506 0.288182 0.430984
O O4 0.302230 0.000000 0.535728
O O5 0.211142 0.500000 0.407598
O O6 0.387119 0.224991 0.274680
O O7 0.155658 0.225419 0.501949
O O8 0.000000 0.240639 0.500000
O O9 0.426316 0.500000 0.868504
O O10 0.450912 0.767805 0.917174
O O11 0.229367 0.770420 0.954956
O O12 0.014854 0.500000 0.366019
O O13 0.205133 0.777786 0.240547
O O14 0.769030 0.500000 0.292174
O O15 0.852491 0.771126 0.186328
O O16 0.028592 0.500000 0.043773
O O17 0.000000 0.773961 0.000000
O O18 0.575570 0.500000 0.897829
O O19 0.500000 0.772382 0.000000
#
# Coordination Sequence:
#
# PCOD9145291 Si02
#       7
#     4   4   4   4   4   4   4
#     4  11  23  38  56  78 109 147 181 223 281 330
#     4   9  15  26  45  74 108 138 173 220 267 313
#     4   9  16  27  43  70 111 147 169 209 274 325
#     4  10  19  31  53  83 107 136 182 228 271 324
#     4  10  20  37  60  84 107 136 182 231 274 322
#     4   9  19  31  48  81 118 143 169 218 280 331
#     4   9  17  27  44  75 112 141 174 222 274 321
#
# _framework density 21.504349000000001
#
# number of rings (size 3 to 8) (size 9 to 14) (size 15 to 20)
#    0.000    2.429    1.429    2.571    4.000    0.000 
#    0.000    0.000    0.000    2.571    0.000    0.000 
#    0.000    0.000    0.000    0.000    0.000    0.000 
#
# Total GULP energy -156316.957098 kJ/mol
# GULP energy per Si atom -5582.748468 kJ/mol
# Density = 2.145540 g / cm^3
# Si number density = 21.504349 Si / 1000 Ang^3
#
#
#
# Elastic Constant Matrix: (Units=GPa)
#
#
# Indices 1 2 3 4 5 6 
#
# 1 161.5621 -5.9700 96.6159 0.0000 0.8554 0.0000
# 2 -5.9700 42.1831 6.9926 0.0000 4.9058 0.0000
# 3 96.6159 6.9926 160.7035 0.0000 16.8223 0.0000
# 4 0.0000 0.0000 0.0000 -37.7217 0.0000 -10.4240
# 5 0.8554 4.9058 16.8223 0.0000 23.7604 0.0000
# 6 0.0000 0.0000 0.0000 -10.4240 0.0000 -38.0528
#
#
#
# Elastic Compliance Matrix: (Units=1/GPa)
#
#
# Indices 1 2 3 4 5 6 
#
# 1 0.010219 0.002094 -0.006644 0.000000 0.003903 0.000000
# 2 0.002094 0.024768 -0.001937 0.000000 -0.003818 0.000000
# 3 -0.006644 -0.001937 0.011053 0.000000 -0.007187 0.000000
# 4 0.000000 0.000000 0.000000 -0.028681 0.000000 0.007857
# 5 0.003903 -0.003818 -0.007187 0.000000 0.047823 0.000000
# 6 0.000000 0.000000 0.000000 0.007857 0.000000 -0.028432
#
#
# Mechanical properties :
#
#
# Convention : Reuss Voigt Hill
#
# Bulk Modulus (GPa) = 30.24191 62.19174 46.21682
# Shear Modulus (GPa) = 82.31042 7.38454 44.84748
#
# Velocity S-wave (km/s) = 6.19349 1.85511 4.57169
# Velocity P-wave (km/s) = 8.07709 5.79413 7.02891
#
# Compressibility (1/GPa) = 0.03306670
#
# Stress axis : x y z
#
# Youngs Moduli (GPa) = 97.85528 40.37548 90.47039
#
# Poissons Ratio (x) = -0.08453 0.60104
# Poissons Ratio (y) = -0.20487 0.17522
# Poissons Ratio (z) = 0.65010 0.07820
#
# Static dielectric constant tensor:
#      x y z
#    x 1.767410 0.000000 0.011910 
#    y 0.000000 1.792630 0.000000 
#    z 0.011910 0.000000 1.762880 
# 
# From -- ./inp_files/84912.got.cif
#   From: 2010.05.17/outbox.cif.g08.bks.cpg/sg10_43_cif.got.tgz:84912.got - 2010.06.03 11:33:40.
