data_PCOD9145587
_publ_section_title
;
Structure prediction by ZEFSAII (Michael W. Deem and Ramdas Pophale) SiO2 
 PCOD9145587
Probable space group: P 2/M
;
_chemical_formula_sum "Si O2"
_cell_formula_units_Z 24
_cell_length_a 8.186746
_cell_length_b 14.195842
_cell_length_c 20.753876
_cell_angle_alpha 90.000000
_cell_angle_beta 150.431205
_cell_angle_gamma 90.000000
_cell_volume 1190.230014
_symmetry_space_group_name_H-M "P 2/M"
_symmetry_group_IT_number 10
_symmetry_cell_setting 'monoclinic'
loop_
_space_group_symop_operation_xyz
x,y,z
-x,y,-z
-x,-y,-z
x,-y,z
loop_
_atom_site_type_symbol
_atom_site_label
_atom_site_fract_x
_atom_site_fract_y
_atom_site_fract_z
Si Si1 0.457123 0.304213 0.132751
Si Si2 0.822225 0.389121 0.844463
Si Si3 0.139885 0.284174 0.843373
Si Si4 0.749881 0.886692 0.530745
Si Si5 0.480611 0.109456 0.185537
Si Si6 0.252531 0.108830 0.253279
O O1 0.449177 0.338048 0.203816
O O2 0.790719 0.313044 0.206160
O O3 0.358304 0.193363 0.097774
O O4 0.170645 0.364572 0.999663
O O5 0.770055 0.500000 0.825215
O O6 0.876314 0.345843 0.792471
O O7 0.023100 0.177467 0.813160
O O8 0.500000 0.294289 0.000000
O O9 0.500000 0.849633 0.500000
O O10 0.590861 0.864978 0.407002
O O11 0.132733 0.864364 0.671810
O O12 0.745257 0.000000 0.534020
O O13 0.308354 0.116137 0.196200
O O14 0.448604 0.000000 0.152567
O O15 0.176332 0.000000 0.242336
#
# Coordination Sequence:
#
# PCOD9145587 Si02
#       6
#     4   4   4   4   4   4
#     4  10  19  33  54  77 104 135 173 211 262 314
#     4  10  21  38  56  77 103 131 174 226 273 314
#     4  10  21  34  53  78 107 138 178 218 259 314
#     4   9  17  29  48  74 102 138 182 218 251 297
#     4  10  19  32  51  76 109 145 178 213 255 306
#     4  10  19  33  50  73 110 148 180 214 254 301
#
# _framework density 20.164166999999999
#
# number of rings (size 3 to 8) (size 9 to 14) (size 15 to 20)
#    0.000    2.167    1.667    2.500    0.000    8.000 
#    0.000    4.167    0.000    0.000    0.000    3.500 
#    0.000   16.667    0.000    0.000    0.000    0.000 
#
# Total GULP energy -133840.764497 kJ/mol
# GULP energy per Si atom -5576.698521 kJ/mol
# Density = 2.011827 g / cm^3
# Si number density = 20.164167 Si / 1000 Ang^3
#
#
#
# Elastic Constant Matrix: (Units=GPa)
#
#
# Indices 1 2 3 4 5 6 
#
# 1 158.6329 55.4687 9.3285 0.0000 23.2218 0.0000
# 2 55.4687 112.7343 5.0598 0.0000 2.9570 0.0000
# 3 9.3285 5.0598 27.2202 0.0000 8.1679 0.0000
# 4 0.0000 0.0000 0.0000 -57.7301 0.0000 -51.1635
# 5 23.2218 2.9570 8.1679 0.0000 19.8201 0.0000
# 6 0.0000 0.0000 0.0000 -51.1635 0.0000 -34.6718
#
#
#
# Elastic Compliance Matrix: (Units=1/GPa)
#
#
# Indices 1 2 3 4 5 6 
#
# 1 0.009331 -0.004348 0.000795 0.000000 -0.010611 0.000000
# 2 -0.004348 0.010981 -0.001812 0.000000 0.004203 0.000000
# 3 0.000795 -0.001812 0.042221 0.000000 -0.018060 0.000000
# 4 0.000000 0.000000 0.000000 0.056277 0.000000 -0.083045
# 5 -0.010611 0.004203 -0.018060 0.000000 0.069701 0.000000
# 6 0.000000 0.000000 0.000000 -0.083045 0.000000 0.093703
#
#
# Mechanical properties :
#
#
# Convention : Reuss Voigt Hill
#
# Bulk Modulus (GPa) = 19.30461 48.70016 34.00239
# Shear Modulus (GPa) = 16.11789 0.73233 8.42511
#
# Velocity S-wave (km/s) = 2.83032 0.60330 2.04630
# Velocity P-wave (km/s) = 4.50282 4.96886 4.74157
#
# Compressibility (1/GPa) = 0.05180110
#
# Stress axis : x y z
#
# Youngs Moduli (GPa) = 107.16993 91.06579 23.68474
#
# Poissons Ratio (x) = 0.39600 -0.01882
# Poissons Ratio (y) = 0.46602 0.04292
# Poissons Ratio (z) = -0.08516 0.16504
#
# Static dielectric constant tensor:
#      x y z
#    x 1.793820 0.000000 -0.015880 
#    y 0.000000 1.707130 0.000000 
#    z -0.015880 0.000000 1.746340 
# 
# From -- ./inp_files/34702.got.cif
#   From: 2010.05.17/outbox.cif.g08.bks.cpg/sg10_18_cif.got.tgz:34702.got - 2010.06.03 11:33:40.
