data_PCOD9145353
_publ_section_title
;
Structure prediction by ZEFSAII (Michael W. Deem and Ramdas Pophale) SiO2 
 PCOD9145353
Probable space group: P 2/M
;
_chemical_formula_sum "Si O2"
_cell_formula_units_Z 20
_cell_length_a 5.060741
_cell_length_b 14.028923
_cell_length_c 17.603632
_cell_angle_alpha 90.000000
_cell_angle_beta 105.711109
_cell_angle_gamma 90.000000
_cell_volume 1203.107114
_symmetry_space_group_name_H-M "P 2/M"
_symmetry_group_IT_number 10
_symmetry_cell_setting 'monoclinic'
loop_
_space_group_symop_operation_xyz
x,y,z
-x,y,-z
-x,-y,-z
x,-y,z
loop_
_atom_site_type_symbol
_atom_site_label
_atom_site_fract_x
_atom_site_fract_y
_atom_site_fract_z
Si Si1 0.803080 0.500000 0.557629
Si Si2 0.830281 0.115318 0.914298
Si Si3 0.267249 0.810073 0.649452
Si Si4 0.763360 0.115153 0.183516
Si Si5 0.699864 0.293499 0.589212
Si Si6 0.696176 0.000000 0.443224
O O1 0.500000 0.500000 0.500000
O O2 0.820299 0.400602 0.603381
O O3 0.000000 0.500000 0.500000
O O4 0.510021 0.138075 0.885912
O O5 0.976233 0.142859 0.846940
O O6 0.846689 0.000000 0.918354
O O7 0.000000 0.151388 0.000000
O O8 0.252358 0.833788 0.737104
O O9 0.503099 0.735810 0.643327
O O10 0.342471 0.906492 0.610609
O O11 0.964540 0.774069 0.601774
O O12 0.770029 0.000000 0.196502
O O13 0.500000 0.286301 0.500000
O O14 0.500000 0.000000 0.500000
O O15 0.000000 0.000000 0.500000
#
# Coordination Sequence:
#
# PCOD9145353 Si02
#       6
#     2   4   4   4   4   2
#     4  10  20  36  56  74  90 116 159 218 271 306
#     4   9  17  29  48  68  89 124 168 203 233 278
#     4  12  22  35  49  71  99 135 165 206 243 287
#     4  10  19  32  46  66  99 131 163 197 239 285
#     4  11  22  36  54  71  94 124 170 213 256 298
#     4  12  24  34  46  64  93 134 177 204 226 266
#
# _framework density 16.623622999999998
#
# number of rings (size 3 to 8) (size 9 to 14) (size 15 to 20)
#    0.000    1.400    1.000    7.800    0.000    2.400 
#    0.000    0.000    0.000    0.000    0.000    0.000 
#    0.000    0.000    0.000   63.000    0.000    0.000 
#
# Total GULP energy -111658.363935 kJ/mol
# GULP energy per Si atom -5582.918197 kJ/mol
# Density = 1.658579 g / cm^3
# Si number density = 16.623623 Si / 1000 Ang^3
#
#
#
# Elastic Constant Matrix: (Units=GPa)
#
#
# Indices 1 2 3 4 5 6 
#
# 1 86.1718 17.8709 -5.1356 0.0000 -10.0689 0.0000
# 2 17.8709 63.8221 18.0942 0.0000 -0.2515 0.0000
# 3 -5.1356 18.0942 43.8635 0.0000 -3.1631 0.0000
# 4 0.0000 0.0000 0.0000 8.6472 0.0000 -9.3982
# 5 -10.0689 -0.2515 -3.1631 0.0000 20.5908 0.0000
# 6 0.0000 0.0000 0.0000 -9.3982 0.0000 18.2406
#
#
#
# Elastic Compliance Matrix: (Units=1/GPa)
#
#
# Indices 1 2 3 4 5 6 
#
# 1 0.013749 -0.005013 0.004205 0.000000 0.007308 0.000000
# 2 -0.005013 0.019589 -0.008926 0.000000 -0.003583 0.000000
# 3 0.004205 -0.008926 0.027417 0.000000 0.006159 0.000000
# 4 0.000000 0.000000 0.000000 0.262818 0.000000 0.135413
# 5 0.007308 -0.003583 0.006159 0.000000 0.053041 0.000000
# 6 0.000000 0.000000 0.000000 0.135413 0.000000 0.124593
#
#
# Mechanical properties :
#
#
# Convention : Reuss Voigt Hill
#
# Bulk Modulus (GPa) = 24.22164 28.39072 26.30618
# Shear Modulus (GPa) = 9.35565 20.36425 14.85995
#
# Velocity S-wave (km/s) = 2.37490 3.50382 2.99307
# Velocity P-wave (km/s) = 4.70345 5.78659 5.27291
#
# Compressibility (1/GPa) = 0.04128539
#
# Stress axis : x y z
#
# Youngs Moduli (GPa) = 72.73323 51.04964 36.47437
#
# Poissons Ratio (x) = 0.25592 -0.15336
# Poissons Ratio (y) = 0.36462 0.32557
# Poissons Ratio (z) = -0.30582 0.45567
#
# Static dielectric constant tensor:
#      x y z
#    x 1.566110 0.000000 0.003710 
#    y 0.000000 1.587050 0.000000 
#    z 0.003710 0.000000 1.556570 
# 
# From -- ./inp_files/8886.got.cif
#   From: 2010.05.17/outbox.cif.g08.bks.cpg/sg10_5_cif.got.tgz:8886.got - 2010.06.03 11:33:40.
