data_PCOD9145175
_publ_section_title
;
Structure prediction by ZEFSAII (Michael W. Deem and Ramdas Pophale) SiO2 
 PCOD9145175
Probable space group: P 2/M
;
_chemical_formula_sum "Si O2"
_cell_formula_units_Z 30
_cell_length_a 33.167630
_cell_length_b 7.984302
_cell_length_c 5.328436
_cell_angle_alpha 90.000000
_cell_angle_beta 103.748118
_cell_angle_gamma 90.000000
_cell_volume 1370.650846
_symmetry_space_group_name_H-M "P 2/M"
_symmetry_group_IT_number 10
_symmetry_cell_setting 'monoclinic'
loop_
_space_group_symop_operation_xyz
x,y,z
-x,y,-z
-x,-y,-z
x,-y,z
loop_
_atom_site_type_symbol
_atom_site_label
_atom_site_fract_x
_atom_site_fract_y
_atom_site_fract_z
Si Si1 0.452145 0.294976 0.449955
Si Si2 0.167797 0.702243 0.046603
Si Si3 0.950700 0.683340 0.966743
Si Si4 0.878015 0.297936 0.517547
Si Si5 0.690861 0.201970 0.309341
Si Si6 0.736715 0.202125 0.877251
Si Si7 0.971857 0.000000 0.215536
Si Si8 0.404932 0.702136 0.880312
O O1 0.500000 0.242729 0.500000
O O2 0.451979 0.500000 0.450647
O O3 0.430621 0.239186 0.675554
O O4 0.425963 0.239130 0.169531
O O5 0.165711 0.500000 0.048649
O O6 0.140876 0.765181 0.769897
O O7 0.215402 0.750914 0.080682
O O8 0.149208 0.761859 0.284402
O O9 0.935500 0.500000 0.030502
O O10 0.945703 0.831524 0.155017
O O11 0.925360 0.730783 0.679574
O O12 0.000000 0.667706 0.000000
O O13 0.874448 0.500000 0.499139
O O14 0.716838 0.264059 0.107738
O O15 0.642869 0.247894 0.211595
O O16 0.693744 0.000000 0.315935
O O17 0.710665 0.263920 0.598741
O O18 0.734100 0.000000 0.875893
O O19 0.000000 0.000000 0.500000
O O20 0.000000 0.000000 0.000000
O O21 0.406908 0.500000 0.884461
#
# Coordination Sequence:
#
# PCOD9145175 Si02
#       8
#     4   4   4   4   4   4   2   4
#     4   9  17  30  49  74 105 138 171 214 263 305
#     4  10  20  36  56  79 109 139 171 222 270 314
#     4   9  19  38  62  86 117 157 193 234 287 340
#     4   9  19  35  55  81 110 139 177 217 264 322
#     4  10  21  36  54  74 105 139 168 215 269 314
#     4  10  21  37  54  76 102 135 176 211 257 325
#     4  10  22  38  56  84 116 144 190 238 274 332
#     4  10  19  31  51  78 102 130 176 219 253 309
#
# _framework density 21.887414
#
# number of rings (size 3 to 8) (size 9 to 14) (size 15 to 20)
#    0.000    2.400    0.000    2.000    0.000    5.067 
#    2.400    4.000    0.000    2.400    0.000    0.000 
#    0.000    0.000    0.000    0.000    0.000    0.000 
#
# Total GULP energy -167594.658561 kJ/mol
# GULP energy per Si atom -5586.488619 kJ/mol
# Density = 2.183760 g / cm^3
# Si number density = 21.887414 Si / 1000 Ang^3
#
#
#
# Elastic Constant Matrix: (Units=GPa)
#
#
# Indices 1 2 3 4 5 6 
#
# 1 88.6064 -10.7000 -3.4438 0.0000 0.9434 0.0000
# 2 -10.7000 46.4335 19.9125 0.0000 0.9186 0.0000
# 3 -3.4438 19.9125 105.3676 0.0000 0.2156 0.0000
# 4 0.0000 0.0000 0.0000 20.1154 0.0000 32.3441
# 5 0.9434 0.9186 0.2156 0.0000 44.3139 0.0000
# 6 0.0000 0.0000 0.0000 32.3441 0.0000 35.2080
#
#
#
# Elastic Compliance Matrix: (Units=1/GPa)
#
#
# Indices 1 2 3 4 5 6 
#
# 1 0.011615 0.002742 -0.000138 0.000000 -0.000303 0.000000
# 2 0.002742 0.024092 -0.004462 0.000000 -0.000536 0.000000
# 3 -0.000138 -0.004462 0.010329 0.000000 0.000045 0.000000
# 4 0.000000 0.000000 0.000000 -0.104191 0.000000 0.095716
# 5 -0.000303 -0.000536 0.000045 0.000000 0.022584 0.000000
# 6 0.000000 0.000000 0.000000 0.095716 0.000000 -0.059527
#
#
# Mechanical properties :
#
#
# Convention : Reuss Voigt Hill
#
# Bulk Modulus (GPa) = 23.62993 27.99387 25.81190
# Shear Modulus (GPa) = -64.70442 35.57006 -14.56718
#
# Velocity S-wave (km/s) = -5.44303 4.03567 -2.58263
# Velocity P-wave (km/s) = 5.35561 5.87650 1.71037
#
# Compressibility (1/GPa) = 0.04231921
#
# Stress axis : x y z
#
# Youngs Moduli (GPa) = 86.09695 41.50726 96.81227
#
# Poissons Ratio (x) = -0.11380 0.01335
# Poissons Ratio (y) = -0.23605 0.43200
# Poissons Ratio (z) = 0.01187 0.18522
#
# Static dielectric constant tensor:
#      x y z
#    x 1.814620 0.000000 -0.040520 
#    y 0.000000 2.293650 0.000000 
#    z -0.040520 0.000000 1.795520 
# 
# From -- ./inp_files/13663.got.cif
#   From: 2010.05.17/outbox.cif.g08.bks.cpg/sg10_7_cif.got.tgz:13663.got - 2010.06.03 11:33:40.
