data_PCOD9145948
_publ_section_title
;
Structure prediction by ZEFSAII (Michael W. Deem and Ramdas Pophale) SiO2 
 PCOD9145948
Probable space group: P 2/M
;
_chemical_formula_sum "Si O2"
_cell_formula_units_Z 28
_cell_length_a 14.923836
_cell_length_b 8.648049
_cell_length_c 13.538846
_cell_angle_alpha 90.000000
_cell_angle_beta 123.222547
_cell_angle_gamma 90.000000
_cell_volume 1461.744687
_symmetry_space_group_name_H-M "P 2/M"
_symmetry_group_IT_number 10
_symmetry_cell_setting 'monoclinic'
loop_
_space_group_symop_operation_xyz
x,y,z
-x,y,-z
-x,-y,-z
x,-y,z
loop_
_atom_site_type_symbol
_atom_site_label
_atom_site_fract_x
_atom_site_fract_y
_atom_site_fract_z
Si Si1 0.047657 0.184801 0.793533
Si Si2 0.179024 0.684701 0.056665
Si Si3 0.602208 0.311440 0.498699
Si Si4 0.624391 0.184029 0.933926
Si Si5 0.596877 0.684473 0.266946
Si Si6 0.169803 0.313367 0.277184
Si Si7 0.246533 0.814667 0.788440
O O1 0.129050 0.233667 0.755546
O O2 0.929051 0.251788 0.719187
O O3 0.044448 0.000000 0.791335
O O4 0.102603 0.239434 0.928998
O O5 0.166491 0.500000 0.043439
O O6 0.299708 0.730748 0.099290
O O7 0.155876 0.734887 0.154442
O O8 0.500000 0.258343 0.500000
O O9 0.601508 0.500000 0.500692
O O10 0.595110 0.265772 0.380112
O O11 0.714742 0.261489 0.613658
O O12 0.503216 0.237375 0.848510
O O13 0.633287 0.000000 0.925323
O O14 0.674184 0.219734 0.071357
O O15 0.584323 0.500000 0.255213
O O16 0.705524 0.733192 0.277932
O O17 0.167890 0.500000 0.277691
O O18 0.246878 0.000000 0.774267
#
# Coordination Sequence:
#
# PCOD9145948 Si02
#       7
#     4   4   4   4   4   4   4
#     4  10  21  36  54  78 110 144 175 214 267 321
#     4  10  19  32  54  83 110 139 178 220 263 313
#     4   9  19  37  57  78 107 139 172 215 265 313
#     4  10  20  34  53  78 111 147 176 211 266 323
#     4  11  21  33  55  82 104 136 181 224 266 311
#     4  10  20  35  56  79 106 142 180 220 265 312
#     4   9  20  37  53  73 106 144 175 211 266 322
#
# _framework density 19.155192
#
# number of rings (size 3 to 8) (size 9 to 14) (size 15 to 20)
#    0.000    2.143    0.000    4.286    0.000   10.286 
#    0.000    2.143    0.000    7.286    0.000    0.000 
#    0.000    0.000    0.000    0.000    0.000    0.000 
#
# Total GULP energy -156374.935125 kJ/mol
# GULP energy per Si atom -5584.819112 kJ/mol
# Density = 1.911159 g / cm^3
# Si number density = 19.155192 Si / 1000 Ang^3
#
#
#
# Elastic Constant Matrix: (Units=GPa)
#
#
# Indices 1 2 3 4 5 6 
#
# 1 163.0256 16.8980 57.5018 0.0000 7.8465 0.0000
# 2 16.8980 8.1133 10.0801 0.0000 -2.8998 0.0000
# 3 57.5018 10.0801 44.8627 0.0000 10.3840 0.0000
# 4 0.0000 0.0000 0.0000 59.0269 0.0000 -23.8976
# 5 7.8465 -2.8998 10.3840 0.0000 33.3979 0.0000
# 6 0.0000 0.0000 0.0000 -23.8976 0.0000 47.5321
#
#
#
# Elastic Compliance Matrix: (Units=1/GPa)
#
#
# Indices 1 2 3 4 5 6 
#
# 1 0.011563 -0.007117 -0.013416 0.000000 0.000837 0.000000
# 2 -0.007117 0.205792 -0.044869 0.000000 0.033490 0.000000
# 3 -0.013416 -0.044869 0.053596 0.000000 -0.017408 0.000000
# 4 0.000000 0.000000 0.000000 0.021271 0.000000 0.010694
# 5 0.000837 0.033490 -0.017408 0.000000 0.038066 0.000000
# 6 0.000000 0.000000 0.000000 0.010694 0.000000 0.026415
#
#
# Mechanical properties :
#
#
# Convention : Reuss Voigt Hill
#
# Bulk Modulus (GPa) = 7.13526 42.77348 24.95437
# Shear Modulus (GPa) = 9.35939 36.75948 23.05943
#
# Velocity S-wave (km/s) = 2.21285 4.38543 3.47338
# Velocity P-wave (km/s) = 3.20343 6.92973 5.39829
#
# Compressibility (1/GPa) = 0.14014914
#
# Stress axis : x y z
#
# Youngs Moduli (GPa) = 86.48029 4.85927 18.65803
#
# Poissons Ratio (x) = 0.03458 0.25031
# Poissons Ratio (y) = 0.61546 0.83717
# Poissons Ratio (z) = 1.16019 0.21803
#
# Static dielectric constant tensor:
#      x y z
#    x 1.677090 0.000000 0.002200 
#    y 0.000000 1.646780 0.000000 
#    z 0.002200 0.000000 1.647720 
# 
# From -- ./inp_files/49462.got.cif
#   From: 2010.05.17/outbox.cif.g08.bks.cpg/sg10_25_cif.got.tgz:49462.got - 2010.06.03 11:33:40.
