data_PCOD9145927
_publ_section_title
;
Structure prediction by ZEFSAII (Michael W. Deem and Ramdas Pophale) SiO2 
 PCOD9145927
Probable space group: P 2/M
;
_chemical_formula_sum "Si O2"
_cell_formula_units_Z 32
_cell_length_a 14.680729
_cell_length_b 7.538991
_cell_length_c 12.711423
_cell_angle_alpha 90.000000
_cell_angle_beta 92.004999
_cell_angle_gamma 90.000000
_cell_volume 1406.012079
_symmetry_space_group_name_H-M "P 2/M"
_symmetry_group_IT_number 10
_symmetry_cell_setting 'monoclinic'
loop_
_space_group_symop_operation_xyz
x,y,z
-x,y,-z
-x,-y,-z
x,-y,z
loop_
_atom_site_type_symbol
_atom_site_label
_atom_site_fract_x
_atom_site_fract_y
_atom_site_fract_z
Si Si1 0.031310 0.786620 0.615687
Si Si2 0.207628 0.704728 0.871809
Si Si3 0.465737 0.283942 0.382314
Si Si4 0.226397 0.785239 0.554879
Si Si5 0.995650 0.296342 0.158353
Si Si6 0.256492 0.206942 0.327511
Si Si7 0.191271 0.795539 0.102162
Si Si8 0.635193 0.702626 0.269694
O O1 0.138341 0.743562 0.620670
O O2 0.000000 0.726268 0.500000
O O3 0.983971 0.711536 0.716230
O O4 0.019698 0.000000 0.618694
O O5 0.199534 0.500000 0.835278
O O6 0.291606 0.784177 0.808656
O O7 0.105760 0.784805 0.855937
O O8 0.225529 0.707447 0.996900
O O9 0.500000 0.227676 0.500000
O O10 0.465587 0.500000 0.382009
O O11 0.364425 0.220962 0.352018
O O12 0.537163 0.220665 0.296043
O O13 0.214339 0.722440 0.434724
O O14 0.312687 0.704744 0.616134
O O15 0.236265 0.000000 0.553039
O O16 0.990872 0.500000 0.123213
O O17 0.081158 0.212833 0.103202
O O18 0.227895 0.283067 0.213680
O O19 0.228321 0.000000 0.321725
O O20 0.219851 0.000000 0.097115
O O21 0.619752 0.500000 0.233991
#
# Coordination Sequence:
#
# PCOD9145927 Si02
#       8
#     4   4   4   4   4   4   4   4
#     4  10  20  34  52  78 117 157 193 236 284 340
#     4  10  22  40  60  83 116 153 194 242 289 339
#     4  10  20  35  60  90 117 149 190 233 284 347
#     4  10  19  32  54  81 111 149 188 227 282 341
#     4  11  22  37  59  86 115 151 196 243 290 342
#     4  10  22  39  58  84 118 153 189 237 291 341
#     4  11  24  41  60  83 115 154 198 243 290 343
#     4  10  20  37  58  84 117 147 181 234 288 335
#
# _framework density 22.759405000000001
#
# number of rings (size 3 to 8) (size 9 to 14) (size 15 to 20)
#    0.000    1.750    2.500    1.875    0.000    7.000 
#    0.000    1.875    0.000    3.750    0.000    0.000 
#    0.000    0.000    0.000    0.000    0.000    0.000 
#
# Total GULP energy -178772.492405 kJ/mol
# GULP energy per Si atom -5586.640388 kJ/mol
# Density = 2.270760 g / cm^3
# Si number density = 22.759405 Si / 1000 Ang^3
#
#
#
# Elastic Constant Matrix: (Units=GPa)
#
#
# Indices 1 2 3 4 5 6 
#
# 1 81.5920 -7.1045 34.1578 0.0000 -21.6389 0.0000
# 2 -7.1045 61.6564 -0.0252 0.0000 -2.6381 0.0000
# 3 34.1578 -0.0252 147.2892 0.0000 -23.5293 0.0000
# 4 0.0000 0.0000 0.0000 20.0142 0.0000 -0.5806
# 5 -21.6389 -2.6381 -23.5293 0.0000 33.5839 0.0000
# 6 0.0000 0.0000 0.0000 -0.5806 0.0000 17.0274
#
#
#
# Elastic Compliance Matrix: (Units=1/GPa)
#
#
# Indices 1 2 3 4 5 6 
#
# 1 0.015697 0.002181 -0.002249 0.000000 0.008710 0.000000
# 2 0.002181 0.016584 -0.000079 0.000000 0.002652 0.000000
# 3 -0.002249 -0.000079 0.007970 0.000000 0.004129 0.000000
# 4 0.000000 0.000000 0.000000 0.050014 0.000000 0.001705
# 5 0.008710 0.002652 0.004129 0.000000 0.038490 0.000000
# 6 0.000000 0.000000 0.000000 0.001705 0.000000 0.058787
#
#
# Mechanical properties :
#
#
# Convention : Reuss Voigt Hill
#
# Bulk Modulus (GPa) = 25.02694 38.28820 31.65757
# Shear Modulus (GPa) = 24.85638 31.69239 28.27438
#
# Velocity S-wave (km/s) = 3.30833 3.73566 3.52847
# Velocity P-wave (km/s) = 5.06099 5.95537 5.52630
#
# Compressibility (1/GPa) = 0.03995695
#
# Stress axis : x y z
#
# Youngs Moduli (GPa) = 63.70524 60.30052 125.46353
#
# Poissons Ratio (x) = -0.13149 0.28211
# Poissons Ratio (y) = -0.13891 0.00993
# Poissons Ratio (z) = 0.14324 0.00477
#
# Static dielectric constant tensor:
#      x y z
#    x 1.857970 0.000000 0.006050 
#    y 0.000000 1.837790 0.000000 
#    z 0.006050 0.000000 1.854890 
# 
# From -- ./inp_files/49824.got.cif
#   From: 2010.05.17/outbox.cif.g08.bks.cpg/sg10_25_cif.got.tgz:49824.got - 2010.06.03 11:33:40.
