data_PCOD9145889
_publ_section_title
;
Structure prediction by ZEFSAII (Michael W. Deem and Ramdas Pophale) SiO2 
 PCOD9145889
Probable space group: P 2/M
;
_chemical_formula_sum "Si O2"
_cell_formula_units_Z 20
_cell_length_a 9.091413
_cell_length_b 11.688305
_cell_length_c 11.131642
_cell_angle_alpha 90.000000
_cell_angle_beta 50.073061
_cell_angle_gamma 90.000000
_cell_volume 907.110525
_symmetry_space_group_name_H-M "P 2/M"
_symmetry_group_IT_number 10
_symmetry_cell_setting 'monoclinic'
loop_
_space_group_symop_operation_xyz
x,y,z
-x,y,-z
-x,-y,-z
x,-y,z
loop_
_atom_site_type_symbol
_atom_site_label
_atom_site_fract_x
_atom_site_fract_y
_atom_site_fract_z
Si Si1 0.296822 0.726560 0.181345
Si Si2 0.168878 0.747174 0.005238
Si Si3 0.794058 0.500000 0.355751
Si Si4 0.525217 0.131579 0.717440
Si Si5 0.500000 0.293864 0.500000
Si Si6 0.723530 0.500000 0.650178
Si Si7 0.725884 0.500000 0.140585
O O1 0.318626 0.825384 0.268339
O O2 0.264215 0.610852 0.272446
O O3 0.500000 0.718015 0.000000
O O4 0.136275 0.750016 0.165021
O O5 0.325399 0.842364 0.889809
O O6 0.249342 0.619086 0.940387
O O7 0.000000 0.763047 0.000000
O O8 0.678436 0.380541 0.405126
O O9 0.859151 0.500000 0.460640
O O10 0.873397 0.500000 0.177383
O O11 0.518505 0.214346 0.606328
O O12 0.546765 0.000000 0.673772
O O13 0.504630 0.500000 0.708772
#
# Coordination Sequence:
#
# PCOD9145889 Si02
#       7
#     4   4   2   4   2   2   2
#     4  10  19  32  54  79 109 139 179 226 266 320
#     4  11  23  36  54  80 114 148 177 218 272 328
#     4  11  16  28  59  82 107 135 170 228 275 323
#     4  11  22  36  57  82 107 141 186 227 261 312
#     4  11  17  34  56  88 109 129 174 230 280 311
#     4  12  15  30  56  84 106 136 176 223 286 311
#     4  12  17  33  53  84 113 137 177 220 275 325
#
# _framework density 22.048029
#
# number of rings (size 3 to 8) (size 9 to 14) (size 15 to 20)
#    0.000    1.000   10.000    1.500    0.000    4.000 
#    0.000    0.000    0.000    6.000    0.000    2.800 
#    0.000    0.000    0.000    0.000    0.000    0.000 
#
# Total GULP energy -111657.960362 kJ/mol
# GULP energy per Si atom -5582.898018 kJ/mol
# Density = 2.199785 g / cm^3
# Si number density = 22.048029 Si / 1000 Ang^3
#
#
#
# Elastic Constant Matrix: (Units=GPa)
#
#
# Indices 1 2 3 4 5 6 
#
# 1 116.8244 29.6073 32.5729 0.0000 44.1112 0.0000
# 2 29.6073 149.9233 38.1457 0.0000 20.5798 0.0000
# 3 32.5729 38.1457 80.6553 0.0000 47.2563 0.0000
# 4 0.0000 0.0000 0.0000 21.0339 0.0000 4.1020
# 5 44.1112 20.5798 47.2563 0.0000 52.0703 0.0000
# 6 0.0000 0.0000 0.0000 4.1020 0.0000 7.3576
#
#
#
# Elastic Compliance Matrix: (Units=1/GPa)
#
#
# Indices 1 2 3 4 5 6 
#
# 1 0.013152 -0.001599 0.003422 0.000000 -0.013615 0.000000
# 2 -0.001599 0.007784 -0.004328 0.000000 0.002206 0.000000
# 3 0.003422 -0.004328 0.029385 0.000000 -0.027856 0.000000
# 4 0.000000 0.000000 0.000000 0.053342 0.000000 -0.029739
# 5 -0.013615 0.002206 -0.027856 0.000000 0.055148 0.000000
# 6 0.000000 0.000000 0.000000 -0.029739 0.000000 0.152494
#
#
# Mechanical properties :
#
#
# Convention : Reuss Voigt Hill
#
# Bulk Modulus (GPa) = 22.07008 60.89496 41.48252
# Shear Modulus (GPa) = 15.08664 32.56416 23.82540
#
# Velocity S-wave (km/s) = 2.61868 3.84730 3.29083
# Velocity P-wave (km/s) = 4.37893 6.88584 5.77018
#
# Compressibility (1/GPa) = 0.04531021
#
# Stress axis : x y z
#
# Youngs Moduli (GPa) = 76.03465 128.46339 34.03123
#
# Poissons Ratio (x) = 0.20541 -0.11646
# Poissons Ratio (y) = 0.12158 0.14730
# Poissons Ratio (z) = -0.26020 0.55605
#
# Static dielectric constant tensor:
#      x y z
#    x 1.927970 0.000000 -0.012580 
#    y 0.000000 1.726120 0.000000 
#    z -0.012580 0.000000 1.889590 
# 
# From -- ./inp_files/41662.got.cif
#   From: 2010.05.17/outbox.cif.g08.bks.cpg/sg10_21_cif.got.tgz:41662.got - 2010.06.03 11:33:40.
