data_PCOD9145015
_publ_section_title
;
Structure prediction by ZEFSAII (Michael W. Deem and Ramdas Pophale) SiO2 
 PCOD9145015
Probable space group: P 2/M
;
_chemical_formula_sum "Si O2"
_cell_formula_units_Z 28
_cell_length_a 17.609694
_cell_length_b 7.581828
_cell_length_c 15.370166
_cell_angle_alpha 90.000000
_cell_angle_beta 140.504086
_cell_angle_gamma 90.000000
_cell_volume 1305.200545
_symmetry_space_group_name_H-M "P 2/M"
_symmetry_group_IT_number 10
_symmetry_cell_setting 'monoclinic'
loop_
_space_group_symop_operation_xyz
x,y,z
-x,y,-z
-x,-y,-z
x,-y,z
loop_
_atom_site_type_symbol
_atom_site_label
_atom_site_fract_x
_atom_site_fract_y
_atom_site_fract_z
Si Si1 0.631863 0.786925 0.588922
Si Si2 0.364554 0.287259 0.908829
Si Si3 0.712243 0.295145 0.338564
Si Si4 0.806956 0.292500 0.598270
Si Si5 0.448560 0.795825 0.162834
Si Si6 0.998280 0.292836 0.096395
Si Si7 0.734964 0.786512 0.859456
O O1 0.500000 0.729163 0.500000
O O2 0.684563 0.722408 0.544966
O O3 0.717781 0.731593 0.744174
O O4 0.630127 0.000000 0.583084
O O5 0.354650 0.500000 0.904694
O O6 0.285739 0.221178 0.757921
O O7 0.500000 0.243963 0.000000
O O8 0.358265 0.216224 0.000734
O O9 0.746350 0.500000 0.360213
O O10 0.787182 0.216050 0.484527
O O11 0.573372 0.291958 0.247014
O O12 0.833074 0.500000 0.609812
O O13 0.909000 0.216260 0.751765
O O14 0.377084 0.724824 0.182380
O O15 0.478122 0.000000 0.205347
O O16 0.028636 0.500000 0.114701
O O17 0.000000 0.214932 0.000000
O O18 0.861957 0.275774 0.006252
O O19 0.733370 0.000000 0.860555
#
# Coordination Sequence:
#
# PCOD9145015 Si02
#       7
#     4   4   4   4   4   4   4
#     4  10  20  33  48  69  99 131 159 192 238 291
#     4   8  15  29  48  71  99 130 161 194 238 293
#     4   9  18  32  50  73 102 132 160 194 243 298
#     4  10  20  34  51  72  97 126 162 204 244 284
#     4  10  19  31  49  75 103 129 162 201 240 287
#     4  10  20  35  53  72  94 123 167 214 246 279
#     4  10  21  34  49  70  98 131 164 199 241 291
#
# _framework density 21.452643999999999
#
# number of rings (size 3 to 8) (size 9 to 14) (size 15 to 20)
#    0.000    2.429    1.429    2.143    0.000    6.571 
#    0.000    0.000    0.000    0.857    0.000    6.000 
#    0.000    0.000    0.000    0.000    0.000    0.000 
#
# Total GULP energy -156171.286926 kJ/mol
# GULP energy per Si atom -5577.545962 kJ/mol
# Density = 2.140382 g / cm^3
# Si number density = 21.452644 Si / 1000 Ang^3
#
#
#
# Elastic Constant Matrix: (Units=GPa)
#
#
# Indices 1 2 3 4 5 6 
#
# 1 11.0586 -6.6831 -3.7812 0.0000 -9.0018 0.0000
# 2 -6.6831 46.0672 4.0480 0.0000 -6.7496 0.0000
# 3 -3.7812 4.0480 123.6519 0.0000 -16.8920 0.0000
# 4 0.0000 0.0000 0.0000 1.6425 0.0000 -0.6387
# 5 -9.0018 -6.7496 -16.8920 0.0000 36.2406 0.0000
# 6 0.0000 0.0000 0.0000 -0.6387 0.0000 17.6033
#
#
#
# Elastic Compliance Matrix: (Units=1/GPa)
#
#
# Indices 1 2 3 4 5 6 
#
# 1 0.148449 0.027493 0.010014 0.000000 0.046661 0.000000
# 2 0.027493 0.027412 0.001681 0.000000 0.012717 0.000000
# 3 0.010014 0.001681 0.009314 0.000000 0.007142 0.000000
# 4 0.000000 0.000000 0.000000 0.617521 0.000000 0.022404
# 5 0.046661 0.012717 0.007142 0.000000 0.044881 0.000000
# 6 0.000000 0.000000 0.000000 0.022404 0.000000 0.057620
#
#
# Mechanical properties :
#
#
# Convention : Reuss Voigt Hill
#
# Bulk Modulus (GPa) = 3.79437 18.66056 11.22747
# Shear Modulus (GPa) = 5.46644 23.57689 14.52167
#
# Velocity S-wave (km/s) = 1.59802 3.31874 2.60459
# Velocity P-wave (km/s) = 2.27540 4.83764 3.78023
#
# Compressibility (1/GPa) = 0.26354812
#
# Stress axis : x y z
#
# Youngs Moduli (GPa) = 6.73634 36.48103 107.36506
#
# Poissons Ratio (x) = -1.00296 -1.07512
# Poissons Ratio (y) = -0.18520 -0.18044
# Poissons Ratio (z) = -0.06746 -0.06131
#
# Static dielectric constant tensor:
#      x y z
#    x 1.750980 0.000000 -0.036610 
#    y 0.000000 1.783450 0.000000 
#    z -0.036610 0.000000 1.858550 
# 
# From -- ./inp_files/54726.got.cif
#   From: 2010.05.17/outbox.cif.g08.bks.cpg/sg10_28_cif.got.tgz:54726.got - 2010.06.03 11:33:40.
