data_PCOD9145608
_publ_section_title
;
Structure prediction by ZEFSAII (Michael W. Deem and Ramdas Pophale) SiO2 
 PCOD9145608
Probable space group: P 2/M
;
_chemical_formula_sum "Si O2"
_cell_formula_units_Z 32
_cell_length_a 22.370605
_cell_length_b 14.038865
_cell_length_c 12.127827
_cell_angle_alpha 90.000000
_cell_angle_beta 150.579484
_cell_angle_gamma 90.000000
_cell_volume 1870.961889
_symmetry_space_group_name_H-M "P 2/M"
_symmetry_group_IT_number 10
_symmetry_cell_setting 'monoclinic'
loop_
_space_group_symop_operation_xyz
x,y,z
-x,y,-z
-x,-y,-z
x,-y,z
loop_
_atom_site_type_symbol
_atom_site_label
_atom_site_fract_x
_atom_site_fract_y
_atom_site_fract_z
Si Si1 0.022064 0.247348 0.413815
Si Si2 0.805010 0.887748 0.978925
Si Si3 0.620568 0.887988 0.256365
Si Si4 0.051804 0.388906 0.259242
Si Si5 0.239873 0.892628 0.737637
Si Si6 0.663689 0.206541 0.560369
Si Si7 0.800704 0.611015 0.718192
Si Si8 0.575165 0.108702 0.772543
O O1 0.000000 0.289140 0.500000
O O2 0.045662 0.324150 0.356698
O O3 0.140845 0.182021 0.614422
O O4 0.911718 0.178006 0.199102
O O5 0.765065 0.848014 0.795561
O O6 0.685200 0.879214 0.863718
O O7 0.837877 0.000000 0.028201
O O8 0.726749 0.881265 0.336460
O O9 0.651883 0.836705 0.419357
O O10 0.599731 0.000000 0.246920
O O11 0.500000 0.851368 0.000000
O O12 0.070007 0.500000 0.316315
O O13 0.154925 0.362659 0.334509
O O14 0.922625 0.381728 0.988234
O O15 0.194396 0.000000 0.684330
O O16 0.361521 0.883712 0.006124
O O17 0.702644 0.315836 0.608238
O O18 0.534461 0.182821 0.409867
O O19 0.763060 0.500000 0.657713
O O20 0.526743 0.000000 0.682001
#
# Coordination Sequence:
#
# PCOD9145608 Si02
#       8
#     4   4   4   4   4   4   4   4
#     4  12  22  35  57  82 113 149 187 232 284 326
#     4  11  23  36  52  82 117 151 190 232 273 321
#     4  10  19  32  51  78 110 145 184 223 269 326
#     4   9  19  39  61  84 109 138 184 234 284 344
#     4  10  20  34  51  76 112 151 190 221 264 332
#     4  12  20  34  59  83 109 141 192 236 272 320
#     4   9  19  37  63  85 108 141 179 231 292 345
#     4  10  20  35  54  77 110 156 195 221 256 322
#
# _framework density 17.103501000000001
#
# number of rings (size 3 to 8) (size 9 to 14) (size 15 to 20)
#    0.000    1.625    3.750    3.375    0.000    1.750 
#    0.000    0.000    0.000    6.375    0.000    0.000 
#    0.000    0.000    0.000    0.000    0.000    0.000 
#
# Total GULP energy -178566.093389 kJ/mol
# GULP energy per Si atom -5580.190418 kJ/mol
# Density = 1.706457 g / cm^3
# Si number density = 17.103501 Si / 1000 Ang^3
#
#
#
# Elastic Constant Matrix: (Units=GPa)
#
#
# Indices 1 2 3 4 5 6 
#
# 1 61.4500 43.2252 20.3254 0.0000 -7.2317 0.0000
# 2 43.2252 84.1455 26.4906 0.0000 6.4224 0.0000
# 3 20.3254 26.4906 55.8370 0.0000 -9.5557 0.0000
# 4 0.0000 0.0000 0.0000 17.6472 0.0000 -1.2523
# 5 -7.2317 6.4224 -9.5557 0.0000 34.8629 0.0000
# 6 0.0000 0.0000 0.0000 -1.2523 0.0000 24.7282
#
#
#
# Elastic Compliance Matrix: (Units=1/GPa)
#
#
# Indices 1 2 3 4 5 6 
#
# 1 0.027942 -0.014315 -0.002032 0.000000 0.007876 0.000000
# 2 -0.014315 0.022047 -0.006770 0.000000 -0.008886 0.000000
# 3 -0.002032 -0.006770 0.023085 0.000000 0.007153 0.000000
# 4 0.000000 0.000000 0.000000 0.056871 0.000000 0.002880
# 5 0.007876 -0.008886 0.007153 0.000000 0.033915 0.000000
# 6 0.000000 0.000000 0.000000 0.002880 0.000000 0.040585
#
#
# Mechanical properties :
#
#
# Convention : Reuss Voigt Hill
#
# Bulk Modulus (GPa) = 37.25701 42.39055 39.82378
# Shear Modulus (GPa) = 19.25850 22.87375 21.06613
#
# Velocity S-wave (km/s) = 3.35923 3.66098 3.51334
# Velocity P-wave (km/s) = 6.07260 6.53520 6.30814
#
# Compressibility (1/GPa) = 0.02684059
#
# Stress axis : x y z
#
# Youngs Moduli (GPa) = 35.78859 45.35704 43.31857
#
# Poissons Ratio (x) = 0.64929 0.08801
# Poissons Ratio (y) = 0.51232 0.29326
# Poissons Ratio (z) = 0.07272 0.30706
#
# Static dielectric constant tensor:
#      x y z
#    x 1.610510 0.000000 -0.009150 
#    y 0.000000 1.553530 0.000000 
#    z -0.009150 0.000000 1.582900 
# 
# From -- ./inp_files/46970.got.cif
#   From: 2010.05.17/outbox.cif.g08.bks.cpg/sg10_24_cif.got.tgz:46970.got - 2010.06.03 11:33:40.
