data_PCOD9145844
_publ_section_title
;
Structure prediction by ZEFSAII (Michael W. Deem and Ramdas Pophale) SiO2 
 PCOD9145844
Probable space group: P 2/M
;
_chemical_formula_sum "Si O2"
_cell_formula_units_Z 32
_cell_length_a 12.365684
_cell_length_b 13.458224
_cell_length_c 10.863834
_cell_angle_alpha 90.000000
_cell_angle_beta 124.164954
_cell_angle_gamma 90.000000
_cell_volume 1495.950595
_symmetry_space_group_name_H-M "P 2/M"
_symmetry_group_IT_number 10
_symmetry_cell_setting 'monoclinic'
loop_
_space_group_symop_operation_xyz
x,y,z
-x,y,-z
-x,-y,-z
x,-y,z
loop_
_atom_site_type_symbol
_atom_site_label
_atom_site_fract_x
_atom_site_fract_y
_atom_site_fract_z
Si Si1 0.272686 0.112299 0.483347
Si Si2 0.756639 0.388013 0.462585
Si Si3 0.196094 0.884938 0.723819
Si Si4 0.373044 0.266877 0.986294
Si Si5 0.864449 0.384295 0.063576
Si Si6 0.955754 0.243773 0.661859
Si Si7 0.508687 0.254987 0.317016
Si Si8 0.715089 0.388871 0.726818
O O1 0.229834 0.113046 0.600510
O O2 0.159914 0.178832 0.350474
O O3 0.410768 0.167490 0.568198
O O4 0.276769 0.000000 0.441702
O O5 0.766207 0.500000 0.420183
O O6 0.880183 0.316987 0.517815
O O7 0.621981 0.332303 0.344850
O O8 0.754601 0.392219 0.610456
O O9 0.059297 0.831769 0.668396
O O10 0.194112 0.000000 0.763741
O O11 0.303157 0.817319 0.860778
O O12 0.427066 0.219688 0.147044
O O13 0.500000 0.307690 0.000000
O O14 0.270707 0.352693 0.955499
O O15 0.898036 0.500000 0.103600
O O16 0.968510 0.311797 0.192025
O O17 0.831239 0.368560 0.897986
O O18 0.403311 0.313544 0.330133
O O19 0.666680 0.500000 0.729251
#
# Coordination Sequence:
#
# PCOD9145844 Si02
#       8
#     4   4   4   4   4   4   4   4
#     4  10  20  34  55  78 102 138 179 220 264 308
#     4  10  20  34  56  81 105 138 178 220 259 301
#     4  10  20  35  57  78 100 136 179 225 265 303
#     4  10  19  33  52  76 110 138 171 212 257 313
#     4   9  19  34  52  76 107 141 174 212 256 309
#     4  10  20  33  52  76 108 134 171 220 263 308
#     4  10  19  32  53  81 111 136 168 217 264 313
#     4   9  18  34  57  82 105 134 176 221 261 303
#
# _framework density 21.391082000000001
#
# number of rings (size 3 to 8) (size 9 to 14) (size 15 to 20)
#    0.000    2.250    1.250    1.875    0.000    4.000 
#    0.000    1.875    0.000   11.250    0.000   23.625 
#    0.000    0.000    0.000    0.000    0.000    0.000 
#
# Total GULP energy -178805.417995 kJ/mol
# GULP energy per Si atom -5587.669312 kJ/mol
# Density = 2.134239 g / cm^3
# Si number density = 21.391082 Si / 1000 Ang^3
#
#
#
# Elastic Constant Matrix: (Units=GPa)
#
#
# Indices 1 2 3 4 5 6 
#
# 1 52.5372 7.7431 7.7470 0.0000 8.4627 0.0000
# 2 7.7431 123.1589 33.0717 0.0000 6.9313 0.0000
# 3 7.7470 33.0717 98.3659 0.0000 10.8878 0.0000
# 4 0.0000 0.0000 0.0000 19.0297 0.0000 -0.8710
# 5 8.4627 6.9313 10.8878 0.0000 25.8572 0.0000
# 6 0.0000 0.0000 0.0000 -0.8710 0.0000 21.8608
#
#
#
# Elastic Compliance Matrix: (Units=1/GPa)
#
#
# Indices 1 2 3 4 5 6 
#
# 1 0.020231 -0.000749 -0.000662 0.000000 -0.006142 0.000000
# 2 -0.000749 0.008988 -0.002856 0.000000 -0.000962 0.000000
# 3 -0.000662 -0.002856 0.011611 0.000000 -0.003907 0.000000
# 4 0.000000 0.000000 0.000000 0.052645 0.000000 0.002097
# 5 -0.006142 -0.000962 -0.003907 0.000000 0.042587 0.000000
# 6 0.000000 0.000000 0.000000 0.002097 0.000000 0.045827
#
#
# Mechanical properties :
#
#
# Convention : Reuss Voigt Hill
#
# Bulk Modulus (GPa) = 30.96296 41.24284 36.10290
# Shear Modulus (GPa) = 24.85222 28.38290 26.61756
#
# Velocity S-wave (km/s) = 3.41222 3.64656 3.53133
# Velocity P-wave (km/s) = 5.48001 6.08704 5.79148
#
# Compressibility (1/GPa) = 0.03229666
#
# Stress axis : x y z
#
# Youngs Moduli (GPa) = 49.42799 111.26198 86.12495
#
# Poissons Ratio (x) = 0.08329 0.05700
# Poissons Ratio (y) = 0.03700 0.24601
# Poissons Ratio (z) = 0.03271 0.31781
#
# Static dielectric constant tensor:
#      x y z
#    x 1.796750 0.000000 -0.006930 
#    y 0.000000 1.771380 0.000000 
#    z -0.006930 0.000000 1.796610 
# 
# From -- ./inp_files/67350.got.cif
#   From: 2010.05.17/outbox.cif.g08.bks.cpg/sg10_34_cif.got.tgz:67350.got - 2010.06.03 11:33:40.
