data_PCOD9145035
_publ_section_title
;
Structure prediction by ZEFSAII (Michael W. Deem and Ramdas Pophale) SiO2 
 PCOD9145035
Probable space group: P 2/M
;
_chemical_formula_sum "Si O2"
_cell_formula_units_Z 32
_cell_length_a 22.187969
_cell_length_b 8.654632
_cell_length_c 14.918614
_cell_angle_alpha 90.000000
_cell_angle_beta 145.200709
_cell_angle_gamma 90.000000
_cell_volume 1634.952345
_symmetry_space_group_name_H-M "P 2/M"
_symmetry_group_IT_number 10
_symmetry_cell_setting 'monoclinic'
loop_
_space_group_symop_operation_xyz
x,y,z
-x,y,-z
-x,-y,-z
x,-y,z
loop_
_atom_site_type_symbol
_atom_site_label
_atom_site_fract_x
_atom_site_fract_y
_atom_site_fract_z
Si Si1 0.044769 0.815344 0.299036
Si Si2 0.896874 0.684002 0.815655
Si Si3 0.288647 0.320278 0.911196
Si Si4 0.619927 0.177108 0.711259
Si Si5 0.103949 0.814677 0.571194
Si Si6 0.185246 0.323083 0.981082
Si Si7 0.491070 0.318241 0.257625
Si Si8 0.324352 0.181871 0.417383
O O1 0.104968 0.767703 0.282766
O O2 0.095691 0.771332 0.456665
O O3 0.934913 0.725029 0.159483
O O4 0.027455 0.000000 0.279059
O O5 0.904835 0.500000 0.813054
O O6 0.784739 0.726039 0.722418
O O7 0.000000 0.732329 0.000000
O O8 0.300130 0.500000 0.900826
O O9 0.213600 0.239168 0.748352
O O10 0.223769 0.313614 0.925345
O O11 0.406591 0.260474 0.080006
O O12 0.570737 0.291672 0.723894
O O13 0.607977 0.206426 0.591361
O O14 0.589648 0.000000 0.695424
O O15 0.744588 0.201888 0.879198
O O16 0.000000 0.757454 0.500000
O O17 0.100710 0.000000 0.572656
O O18 0.201082 0.500000 0.031682
O O19 0.508055 0.500000 0.264714
O O20 0.602095 0.234719 0.410073
O O21 0.302053 0.000000 0.395574
#
# Coordination Sequence:
#
# PCOD9145035 Si02
#       8
#     4   4   4   4   4   4   4   4
#     4  11  22  36  56  82 114 151 191 235 283 337
#     4  11  25  43  62  84 112 150 194 238 284 334
#     4   9  19  33  51  79 113 149 184 223 275 334
#     4  10  20  33  52  80 113 147 187 233 283 338
#     4  10  20  34  54  84 118 151 187 228 282 342
#     4  10  19  31  49  77 112 149 188 227 276 336
#     4  10  21  36  55  82 114 149 189 232 283 340
#     4  11  23  38  57  81 109 146 191 237 286 337
#
# _framework density 19.572434999999999
#
# number of rings (size 3 to 8) (size 9 to 14) (size 15 to 20)
#    0.000    1.750    1.250    4.125    0.000   10.250 
#    0.000    0.000    0.000    0.750    0.000    5.250 
#    0.000    0.000    0.000    0.000    0.000    0.000 
#
# Total GULP energy -178548.272263 kJ/mol
# GULP energy per Si atom -5579.633508 kJ/mol
# Density = 1.952789 g / cm^3
# Si number density = 19.572435 Si / 1000 Ang^3
#
#
#
# Elastic Constant Matrix: (Units=GPa)
#
#
# Indices 1 2 3 4 5 6 
#
# 1 38.7766 8.8325 9.8104 0.0000 -7.7272 0.0000
# 2 8.8325 25.3353 9.0174 0.0000 -7.5915 0.0000
# 3 9.8104 9.0174 106.3580 0.0000 -6.3812 0.0000
# 4 0.0000 0.0000 0.0000 24.8111 0.0000 4.3790
# 5 -7.7272 -7.5915 -6.3812 0.0000 28.0861 0.0000
# 6 0.0000 0.0000 0.0000 4.3790 0.0000 25.1529
#
#
#
# Elastic Compliance Matrix: (Units=1/GPa)
#
#
# Indices 1 2 3 4 5 6 
#
# 1 0.029109 -0.007903 -0.001686 0.000000 0.005490 0.000000
# 2 -0.007903 0.046051 -0.002594 0.000000 0.009683 0.000000
# 3 -0.001686 -0.002594 0.009842 0.000000 0.001071 0.000000
# 4 0.000000 0.000000 0.000000 0.041582 0.000000 -0.007239
# 5 0.005490 0.009683 0.001071 0.000000 0.039976 0.000000
# 6 0.000000 0.000000 0.000000 -0.007239 0.000000 0.041017
#
#
# Mechanical properties :
#
#
# Convention : Reuss Voigt Hill
#
# Bulk Modulus (GPa) = 16.49202 25.08785 20.78993
# Shear Modulus (GPa) = 19.82899 25.13065 22.47982
#
# Velocity S-wave (km/s) = 3.18639 3.58716 3.39270
# Velocity P-wave (km/s) = 4.68848 5.47747 5.09826
#
# Compressibility (1/GPa) = 0.06063539
#
# Stress axis : x y z
#
# Youngs Moduli (GPa) = 34.35322 21.71512 101.60636
#
# Poissons Ratio (x) = 0.17162 0.17127
# Poissons Ratio (y) = 0.27151 0.26360
# Poissons Ratio (z) = 0.05791 0.05634
#
# Static dielectric constant tensor:
#      x y z
#    x 1.702820 0.000000 0.003230 
#    y 0.000000 1.653180 0.000000 
#    z 0.003230 0.000000 1.733870 
# 
# From -- ./inp_files/71620.got.cif
#   From: 2010.05.17/outbox.cif.g08.bks.cpg/sg10_36_cif.got.tgz:71620.got - 2010.06.03 11:33:40.
