data_PCOD9145618
_publ_section_title
;
Structure prediction by ZEFSAII (Michael W. Deem and Ramdas Pophale) SiO2 
 PCOD9145618
Probable space group: P 2/M
;
_chemical_formula_sum "Si O2"
_cell_formula_units_Z 28
_cell_length_a 16.171352
_cell_length_b 7.631818
_cell_length_c 16.114306
_cell_angle_alpha 90.000000
_cell_angle_beta 40.564219
_cell_angle_gamma 90.000000
_cell_volume 1293.301103
_symmetry_space_group_name_H-M "P 2/M"
_symmetry_group_IT_number 10
_symmetry_cell_setting 'monoclinic'
loop_
_space_group_symop_operation_xyz
x,y,z
-x,y,-z
-x,-y,-z
x,-y,z
loop_
_atom_site_type_symbol
_atom_site_label
_atom_site_fract_x
_atom_site_fract_y
_atom_site_fract_z
Si Si1 0.778876 0.799911 0.458284
Si Si2 0.775353 0.797529 0.098447
Si Si3 0.747342 0.705617 0.841400
Si Si4 0.392373 0.500000 0.469663
Si Si5 0.042132 0.211465 0.186196
Si Si6 0.270472 0.712404 0.330073
Si Si7 0.434391 0.713128 0.876963
Si Si8 0.312926 0.500000 0.720339
O O1 0.662086 0.671394 0.532549
O O2 0.809852 0.787507 0.532443
O O3 0.898046 0.735903 0.313100
O O4 0.749619 0.000000 0.458822
O O5 0.650814 0.783785 0.133700
O O6 0.755856 0.670779 0.190761
O O7 0.794498 0.000000 0.107377
O O8 0.890689 0.735439 0.950768
O O9 0.718951 0.500000 0.851640
O O10 0.871013 0.724797 0.804153
O O11 0.762627 0.775724 0.737089
O O12 0.633250 0.774660 0.986177
O O13 0.336125 0.500000 0.605147
O O14 0.543311 0.500000 0.353823
O O15 0.045939 0.000000 0.184667
O O16 0.258850 0.500000 0.342671
O O17 0.418188 0.760274 0.233348
O O18 0.425942 0.500000 0.879800
#
# Coordination Sequence:
#
# PCOD9145618 Si02
#       8
#     4   4   4   2   4   4   4   2
#     4  11  24  42  62  84 118 164 201 236 290 347
#     4  10  20  37  63  92 120 153 195 241 290 347
#     4   9  18  30  52  83 114 156 203 247 294 335
#     4  11  26  45  65  91 124 149 183 236 291 361
#     4   9  21  39  58  84 120 159 201 246 285 334
#     4  10  19  32  51  81 119 157 202 249 290 342
#     4   9  16  30  52  80 119 158 194 243 296 344
#     4  11  24  43  67  96 120 146 182 233 298 360
#
# _framework density 21.650023999999998
#
# number of rings (size 3 to 8) (size 9 to 14) (size 15 to 20)
#    0.000    2.143    1.429    1.286    2.000    5.714 
#    0.000    5.714    0.000    6.857    0.000    0.000 
#    0.000    0.000    0.000    0.000    0.000    0.000 
#
# Total GULP energy -156468.240258 kJ/mol
# GULP energy per Si atom -5588.151438 kJ/mol
# Density = 2.160075 g / cm^3
# Si number density = 21.650024 Si / 1000 Ang^3
#
#
#
# Elastic Constant Matrix: (Units=GPa)
#
#
# Indices 1 2 3 4 5 6 
#
# 1 10.7046 7.4800 17.1429 0.0000 5.2040 0.0000
# 2 7.4800 69.4106 23.6469 0.0000 0.5942 0.0000
# 3 17.1429 23.6469 79.3748 0.0000 11.3164 0.0000
# 4 0.0000 0.0000 0.0000 35.9868 0.0000 -11.6511
# 5 5.2040 0.5942 11.3164 0.0000 27.6881 0.0000
# 6 0.0000 0.0000 0.0000 -11.6511 0.0000 3.6825
#
#
#
# Elastic Compliance Matrix: (Units=1/GPa)
#
#
# Indices 1 2 3 4 5 6 
#
# 1 0.151618 -0.006514 -0.028418 0.000000 -0.016742 0.000000
# 2 -0.006514 0.016391 -0.003823 0.000000 0.002435 0.000000
# 3 -0.028418 -0.003823 0.020284 0.000000 -0.002867 0.000000
# 4 0.000000 0.000000 0.000000 -1.141469 0.000000 -3.611481
# 5 -0.016742 0.002435 -0.002867 0.000000 0.040383 0.000000
# 6 0.000000 0.000000 0.000000 -3.611481 0.000000-11.154770
#
#
# Mechanical properties :
#
#
# Convention : Reuss Voigt Hill
#
# Bulk Modulus (GPa) = 9.02676 28.44772 18.73724
# Shear Modulus (GPa) = -0.41830 20.88617 10.23393
#
# Velocity S-wave (km/s) = -0.44003 3.10936 2.17652
# Velocity P-wave (km/s) = 1.97997 5.10482 3.87166
#
# Compressibility (1/GPa) = 0.11078175
#
# Stress axis : x y z
#
# Youngs Moduli (GPa) = 6.59552 61.01017 49.30061
#
# Poissons Ratio (x) = 0.39743 1.40102
# Poissons Ratio (y) = 0.04296 0.18849
# Poissons Ratio (z) = 0.18743 0.23326
#
# Static dielectric constant tensor:
#      x y z
#    x 1.755510 0.000000 0.012840 
#    y 0.000000 1.786450 0.000000 
#    z 0.012840 0.000000 1.802790 
# 
# From -- ./inp_files/68637.got.cif
#   From: 2010.05.17/outbox.cif.g08.bks.cpg/sg10_35_cif.got.tgz:68637.got - 2010.06.03 11:33:40.
