data_PCOD9145298
_publ_section_title
;
Structure prediction by ZEFSAII (Michael W. Deem and Ramdas Pophale) SiO2 
 PCOD9145298
Probable space group: P 2/M
;
_chemical_formula_sum "Si O2"
_cell_formula_units_Z 20
_cell_length_a 10.267859
_cell_length_b 7.916828
_cell_length_c 19.753477
_cell_angle_alpha 90.000000
_cell_angle_beta 45.864083
_cell_angle_gamma 90.000000
_cell_volume 1152.421886
_symmetry_space_group_name_H-M "P 2/M"
_symmetry_group_IT_number 10
_symmetry_cell_setting 'monoclinic'
loop_
_space_group_symop_operation_xyz
x,y,z
-x,y,-z
-x,-y,-z
x,-y,z
loop_
_atom_site_type_symbol
_atom_site_label
_atom_site_fract_x
_atom_site_fract_y
_atom_site_fract_z
Si Si1 0.455712 0.809717 0.316627
Si Si2 0.795760 0.190057 0.297236
Si Si3 0.705650 0.299217 0.112145
Si Si4 0.955420 0.299223 0.907184
Si Si5 0.206088 0.500000 0.448420
Si Si6 0.281472 0.500000 0.578972
O O1 0.622416 0.786170 0.309684
O O2 0.542179 0.788485 0.210528
O O3 0.311781 0.664689 0.383070
O O4 0.386200 0.000000 0.350410
O O5 0.784873 0.334651 0.356907
O O6 0.974536 0.211623 0.185885
O O7 0.786633 0.000000 0.327942
O O8 0.668482 0.500000 0.121277
O O9 0.877655 0.280142 0.100410
O O10 0.777938 0.240094 0.012736
O O11 0.936749 0.500000 0.901157
O O12 0.217470 0.500000 0.525340
O O13 0.000000 0.500000 0.500000
O O14 0.500000 0.500000 0.500000
#
# Coordination Sequence:
#
# PCOD9145298 Si02
#       6
#     4   4   4   4   2   2
#     4  10  19  33  54  80 108 140 179 218 264 319
#     4  10  19  31  53  83 111 139 175 215 264 319
#     4   8  13  23  44  72 108 146 171 201 253 315
#     4   8  13  23  42  73 112 144 168 202 254 310
#     4  12  26  42  57  75 103 139 182 230 274 313
#     4  12  22  38  59  75 103 139 180 226 270 316
#
# _framework density 17.354755999999998
#
# number of rings (size 3 to 8) (size 9 to 14) (size 15 to 20)
#    0.000    2.400    4.000    1.200    0.000    2.400 
#    0.000    4.000    0.000    0.000    0.000    2.800 
#    0.000    3.200    0.000    0.000    0.000    0.000 
#
# Total GULP energy -111441.288568 kJ/mol
# GULP energy per Si atom -5572.064428 kJ/mol
# Density = 1.731526 g / cm^3
# Si number density = 17.354756 Si / 1000 Ang^3
#
#
#
# Elastic Constant Matrix: (Units=GPa)
#
#
# Indices 1 2 3 4 5 6 
#
# 1 44.0857 35.5400 40.6749 0.0000 0.5851 0.0000
# 2 35.5400 119.8505 90.7451 0.0000 -2.4196 0.0000
# 3 40.6749 90.7451 132.9592 0.0000 8.0365 0.0000
# 4 0.0000 0.0000 0.0000 -6.7829 0.0000 -2.4841
# 5 0.5851 -2.4196 8.0365 0.0000 8.7394 0.0000
# 6 0.0000 0.0000 0.0000 -2.4841 0.0000 4.5720
#
#
#
# Elastic Compliance Matrix: (Units=1/GPa)
#
#
# Indices 1 2 3 4 5 6 
#
# 1 0.032781 -0.003897 -0.007593 0.000000 0.003708 0.000000
# 2 -0.003897 0.020326 -0.013803 0.000000 0.018581 0.000000
# 3 -0.007593 -0.013803 0.020611 0.000000 -0.022266 0.000000
# 4 0.000000 0.000000 0.000000 -0.122962 0.000000 -0.066809
# 5 0.003708 0.018581 -0.022266 0.000000 0.139796 0.000000
# 6 0.000000 0.000000 0.000000 -0.066809 0.000000 0.182421
#
#
# Mechanical properties :
#
#
# Convention : Reuss Voigt Hill
#
# Bulk Modulus (GPa) = 43.23217 70.09060 56.66138
# Shear Modulus (GPa) = 15.09350 9.96807 12.53078
#
# Velocity S-wave (km/s) = 2.95227 2.39920 2.68999
# Velocity P-wave (km/s) = 6.04865 6.93899 6.50906
#
# Compressibility (1/GPa) = 0.02313092
#
# Stress axis : x y z
#
# Youngs Moduli (GPa) = 30.50573 49.19898 48.51890
#
# Poissons Ratio (x) = 0.19172 0.36839
# Poissons Ratio (y) = 0.11888 0.66972
# Poissons Ratio (z) = 0.23162 0.67911
#
# Static dielectric constant tensor:
#      x y z
#    x 1.576010 0.000000 0.001740 
#    y 0.000000 1.605980 0.000000 
#    z 0.001740 0.000000 1.627730 
# 
# From -- ./inp_files/72077.got.cif
#   From: 2010.05.17/outbox.cif.g08.bks.cpg/sg10_37_cif.got.tgz:72077.got - 2010.06.03 11:33:40.
