data_PCOD9145441
_publ_section_title
;
Structure prediction by ZEFSAII (Michael W. Deem and Ramdas Pophale) SiO2 
 PCOD9145441
Probable space group: P 2/M
;
_chemical_formula_sum "Si O2"
_cell_formula_units_Z 24
_cell_length_a 17.421283
_cell_length_b 7.889643
_cell_length_c 23.801934
_cell_angle_alpha 90.000000
_cell_angle_beta 156.422102
_cell_angle_gamma 90.000000
_cell_volume 1308.593789
_symmetry_space_group_name_H-M "P 2/M"
_symmetry_group_IT_number 10
_symmetry_cell_setting 'monoclinic'
loop_
_space_group_symop_operation_xyz
x,y,z
-x,y,-z
-x,-y,-z
x,-y,z
loop_
_atom_site_type_symbol
_atom_site_label
_atom_site_fract_x
_atom_site_fract_y
_atom_site_fract_z
Si Si1 0.047505 0.297649 0.093397
Si Si2 0.213493 0.800010 0.800838
Si Si3 0.471086 0.794415 0.415769
Si Si4 0.495558 0.305162 0.088426
Si Si5 0.154652 0.706150 0.930525
Si Si6 0.131433 0.797396 0.362960
O O1 0.015483 0.500000 0.070350
O O2 0.915808 0.232302 0.056178
O O3 0.268175 0.266571 0.256960
O O4 0.000000 0.227737 0.000000
O O5 0.309100 0.774530 0.804304
O O6 0.997594 0.742282 0.670318
O O7 0.227618 0.000000 0.823231
O O8 0.347554 0.707682 0.936521
O O9 0.500000 0.742055 0.500000
O O10 0.654666 0.731061 0.503497
O O11 0.468822 0.000000 0.413490
O O12 0.537628 0.500000 0.128817
O O13 0.364755 0.232870 0.050974
O O14 0.160186 0.500000 0.933826
O O15 0.996905 0.758512 0.778235
O O16 0.149618 0.000000 0.379182
#
# Coordination Sequence:
#
# PCOD9145441 Si02
#       6
#     4   4   4   4   4   4
#     4  10  21  35  49  68  95 125 158 195 233 275
#     4   9  15  23  36  57  86 116 143 176 221 268
#     4  10  19  32  50  71  94 122 156 193 233 277
#     4   9  15  23  36  56  84 115 146 180 219 265
#     4   9  17  28  43  63  88 120 153 186 227 271
#     4   9  17  28  43  65  92 119 148 185 227 271
#
# _framework density 18.340299999999999
#
# number of rings (size 3 to 8) (size 9 to 14) (size 15 to 20)
#    0.000    2.667    1.667    2.000    0.000    2.667 
#    0.000    0.000    0.000    0.000    0.000    1.167 
#    0.000    9.333    0.000    0.000    0.000    0.000 
#
# Total GULP energy -133614.970365 kJ/mol
# GULP energy per Si atom -5567.290432 kJ/mol
# Density = 1.829856 g / cm^3
# Si number density = 18.340300 Si / 1000 Ang^3
#
#
#
# Elastic Constant Matrix: (Units=GPa)
#
#
# Indices 1 2 3 4 5 6 
#
# 1 174.6662 2.1773 73.9683 0.0000 47.0511 0.0000
# 2 2.1773 12.6899 -1.7148 0.0000 6.2000 0.0000
# 3 73.9683 -1.7148 54.4228 0.0000 12.1912 0.0000
# 4 0.0000 0.0000 0.0000 14.4506 0.0000 6.0238
# 5 47.0511 6.2000 12.1912 0.0000 33.2870 0.0000
# 6 0.0000 0.0000 0.0000 6.0238 0.0000 13.1762
#
#
#
# Elastic Compliance Matrix: (Units=1/GPa)
#
#
# Indices 1 2 3 4 5 6 
#
# 1 0.023070 0.004237 -0.025862 0.000000 -0.023926 0.000000
# 2 0.004237 0.089927 0.002362 0.000000 -0.023604 0.000000
# 3 -0.025862 0.002362 0.049576 0.000000 0.017959 0.000000
# 4 0.000000 0.000000 0.000000 0.085494 0.000000 -0.039086
# 5 -0.023926 -0.023604 0.017959 0.000000 0.061681 0.000000
# 6 0.000000 0.000000 0.000000 -0.039086 0.000000 0.093763
#
#
# Mechanical properties :
#
#
# Convention : Reuss Voigt Hill
#
# Bulk Modulus (GPa) = 8.06140 43.40449 25.73294
# Shear Modulus (GPa) = 10.34371 23.33930 16.84151
#
# Velocity S-wave (km/s) = 2.37742 3.57118 3.03360
# Velocity P-wave (km/s) = 3.45560 6.38138 5.13143
#
# Compressibility (1/GPa) = 0.12404792
#
# Stress axis : x y z
#
# Youngs Moduli (GPa) = 43.34711 11.12011 20.17109
#
# Poissons Ratio (x) = -0.04712 0.52166
# Poissons Ratio (y) = -0.18366 -0.04765
# Poissons Ratio (z) = 1.12103 -0.02627
#
# Static dielectric constant tensor:
#      x y z
#    x 1.710430 0.000000 0.059500 
#    y 0.000000 1.652790 0.000000 
#    z 0.059500 0.000000 1.594200 
# 
# From -- ./inp_files/78672.got.cif
#   From: 2010.05.17/outbox.cif.g08.bks.cpg/sg10_40_cif.got.tgz:78672.got - 2010.06.03 11:33:40.
