data_PCOD9145092
_publ_section_title
;
Structure prediction by ZEFSAII (Michael W. Deem and Ramdas Pophale) SiO2 
 PCOD9145092
Probable space group: P 2/M
;
_chemical_formula_sum "Si O2"
_cell_formula_units_Z 20
_cell_length_a 5.272028
_cell_length_b 21.889276
_cell_length_c 6.737144
_cell_angle_alpha 90.000000
_cell_angle_beta 99.288316
_cell_angle_gamma 90.000000
_cell_volume 767.278608
_symmetry_space_group_name_H-M "P 2/M"
_symmetry_group_IT_number 10
_symmetry_cell_setting 'monoclinic'
loop_
_space_group_symop_operation_xyz
x,y,z
-x,y,-z
-x,-y,-z
x,-y,z
loop_
_atom_site_type_symbol
_atom_site_label
_atom_site_fract_x
_atom_site_fract_y
_atom_site_fract_z
Si Si1 0.222609 0.433623 0.861736
Si Si2 0.404910 0.068572 0.758007
Si Si3 0.095889 0.877207 0.233214
Si Si4 0.089502 0.696801 0.729937
Si Si5 0.402976 0.750065 0.261627
O O1 0.204854 0.500000 0.755298
O O2 0.188822 0.372280 0.732361
O O3 0.500000 0.430858 0.000000
O O4 0.000000 0.432683 0.000000
O O5 0.675171 0.077126 0.679428
O O6 0.175541 0.116734 0.687324
O O7 0.302251 0.000000 0.727250
O O8 0.500000 0.076378 0.000000
O O9 0.246141 0.813199 0.236094
O O10 0.000000 0.892922 0.000000
O O11 0.327688 0.740585 0.819126
O O12 0.000000 0.716556 0.500000
O O13 0.820372 0.700930 0.813711
O O14 0.500000 0.741827 0.500000
#
# Coordination Sequence:
#
# PCOD9145092 Si02
#       5
#     4   4   4   4   4
#     4  10  21  37  57  83 113 142 174 218 271 315
#     4   9  17  30  49  73 100 129 165 212 260 307
#     4  10  19  31  50  75  99 129 171 212 257 313
#     4  10  21  37  56  78 105 143 185 217 257 316
#     4  10  21  36  53  75 106 140 174 217 265 309
#
# _framework density 26.066151000000001
#
# number of rings (size 3 to 8) (size 9 to 14) (size 15 to 20)
#    0.000    2.200    0.000    3.000    0.000    5.200 
#    0.000    0.000    0.000   10.800    0.000    0.000 
#    0.000    0.000    0.000    0.000    0.000    0.000 
#
# Total GULP energy -111797.343034 kJ/mol
# GULP energy per Si atom -5589.867152 kJ/mol
# Density = 2.600682 g / cm^3
# Si number density = 26.066151 Si / 1000 Ang^3
#
#
#
# Elastic Constant Matrix: (Units=GPa)
#
#
# Indices 1 2 3 4 5 6 
#
# 1 242.5816 62.9795 41.8827 0.0000 30.6286 0.0000
# 2 62.9795 145.0020 -4.1442 0.0000 41.0959 0.0000
# 3 41.8827 -4.1442 68.7313 0.0000 24.8349 0.0000
# 4 0.0000 0.0000 0.0000 31.0642 0.0000 10.7365
# 5 30.6286 41.0959 24.8349 0.0000 56.9770 0.0000
# 6 0.0000 0.0000 0.0000 10.7365 0.0000 46.9285
#
#
#
# Elastic Compliance Matrix: (Units=1/GPa)
#
#
# Indices 1 2 3 4 5 6 
#
# 1 0.005347 -0.002587 -0.003620 0.000000 0.000570 0.000000
# 2 -0.002587 0.010601 0.005313 0.000000 -0.008571 0.000000
# 3 -0.003620 0.005313 0.021077 0.000000 -0.011073 0.000000
# 4 0.000000 0.000000 0.000000 0.034955 0.000000 -0.007997
# 5 0.000570 -0.008571 -0.011073 0.000000 0.028253 0.000000
# 6 0.000000 0.000000 0.000000 -0.007997 0.000000 0.023139
#
#
# Mechanical properties :
#
#
# Convention : Reuss Voigt Hill
#
# Bulk Modulus (GPa) = 28.37998 73.08343 50.73170
# Shear Modulus (GPa) = 36.52095 50.70041 43.61068
#
# Velocity S-wave (km/s) = 3.74717 4.41508 4.09476
# Velocity P-wave (km/s) = 5.44362 7.35453 6.47001
#
# Compressibility (1/GPa) = 0.03523611
#
# Stress axis : x y z
#
# Youngs Moduli (GPa) = 187.01369 94.32713 47.44528
#
# Poissons Ratio (x) = 0.24407 0.17177
# Poissons Ratio (y) = 0.48389 -0.25208
# Poissons Ratio (z) = 0.67705 -0.50117
#
# Static dielectric constant tensor:
#      x y z
#    x 2.101270 0.000000 -0.106660 
#    y 0.000000 2.036350 0.000000 
#    z -0.106660 0.000000 2.108880 
# 
# From -- ./inp_files/4692.got.cif
#   From: 2010.05.17/outbox.cif.g08.bks.cpg/sg10_3_cif.got.tgz:4692.got - 2010.06.03 11:33:40.
