data_PCOD9145350
_publ_section_title
;
Structure prediction by ZEFSAII (Michael W. Deem and Ramdas Pophale) SiO2 
 PCOD9145350
Probable space group: P 2/M
;
_chemical_formula_sum "Si O2"
_cell_formula_units_Z 32
_cell_length_a 24.665014
_cell_length_b 8.550378
_cell_length_c 13.852347
_cell_angle_alpha 90.000000
_cell_angle_beta 45.154783
_cell_angle_gamma 90.000000
_cell_volume 2071.310068
_symmetry_space_group_name_H-M "P 2/M"
_symmetry_group_IT_number 10
_symmetry_cell_setting 'monoclinic'
loop_
_space_group_symop_operation_xyz
x,y,z
-x,y,-z
-x,-y,-z
x,-y,z
loop_
_atom_site_type_symbol
_atom_site_label
_atom_site_fract_x
_atom_site_fract_y
_atom_site_fract_z
Si Si1 0.814638 0.183441 0.813208
Si Si2 0.497842 0.318693 0.119916
Si Si3 0.092344 0.314380 0.482046
Si Si4 0.329832 0.309666 0.323320
Si Si5 0.827204 0.185256 0.429630
Si Si6 0.940926 0.687820 0.779922
Si Si7 0.335627 0.311227 0.090376
Si Si8 0.033456 0.311014 0.853878
O O1 0.869149 0.226822 0.654511
O O2 0.860242 0.244013 0.849229
O O3 0.733248 0.259766 0.890905
O O4 0.804554 0.000000 0.831694
O O5 0.497225 0.500000 0.152291
O O6 0.414283 0.254150 0.250107
O O7 0.500000 0.319963 0.000000
O O8 0.580069 0.250460 0.045718
O O9 0.093887 0.500000 0.459990
O O10 0.141127 0.277510 0.516489
O O11 0.006241 0.268354 0.619303
O O12 0.327730 0.500000 0.329847
O O13 0.260215 0.238564 0.470407
O O14 0.320583 0.264710 0.221277
O O15 0.885024 0.234070 0.272225
O O16 0.831681 0.000000 0.440786
O O17 0.936068 0.500000 0.784752
O O18 0.975280 0.734911 0.840498
O O19 0.339117 0.500000 0.087130
O O20 0.042193 0.500000 0.837961
O O21 0.000000 0.269964 0.000000
#
# Coordination Sequence:
#
# PCOD9145350 Si02
#       8
#     4   4   4   4   4   4   4   4
#     4  12  22  28  39  62  92 120 149 183 218 260
#     4   7  12  23  40  61  79 108 155 194 220 250
#     4  10  19  32  46  59  81 117 156 190 220 252
#     4   9  15  26  44  62  85 117 154 190 220 256
#     4  11  20  28  43  69  96 119 146 180 223 270
#     4   9  19  33  48  64  82 109 146 182 220 263
#     4   9  16  27  43  59  83 120 157 189 221 255
#     4   9  19  37  57  71  85 110 146 186 226 267
#
# _framework density 15.449159999999999
#
# number of rings (size 3 to 8) (size 9 to 14) (size 15 to 20)
#    0.000    2.500    1.250    5.250    0.000    4.250 
#    0.000    0.625    0.000    2.250    0.000    0.000 
#    0.000    1.000    0.000   11.500    0.000    4.500 
#
# Total GULP energy -178287.145038 kJ/mol
# GULP energy per Si atom -5571.473282 kJ/mol
# Density = 1.541400 g / cm^3
# Si number density = 15.449160 Si / 1000 Ang^3
#
#
#
# Elastic Constant Matrix: (Units=GPa)
#
#
# Indices 1 2 3 4 5 6 
#
# 1 87.0588 15.3628 56.4966 0.0000 -32.1449 0.0000
# 2 15.3628 12.4275 14.8596 0.0000 -8.2643 0.0000
# 3 56.4966 14.8596 85.2986 0.0000 -22.9792 0.0000
# 4 0.0000 0.0000 0.0000 1.0757 0.0000 8.6955
# 5 -32.1449 -8.2643 -22.9792 0.0000 28.0186 0.0000
# 6 0.0000 0.0000 0.0000 8.6955 0.0000 -11.8316
#
#
#
# Elastic Compliance Matrix: (Units=1/GPa)
#
#
# Indices 1 2 3 4 5 6 
#
# 1 0.027801 -0.006842 -0.011774 0.000000 0.020220 0.000000
# 2 -0.006842 0.112709 -0.010605 0.000000 0.016698 0.000000
# 3 -0.011774 -0.010605 0.021677 0.000000 0.001142 0.000000
# 4 0.000000 0.000000 0.000000 0.133934 0.000000 0.098434
# 5 0.020220 0.016698 0.001142 0.000000 0.064751 0.000000
# 6 0.000000 0.000000 0.000000 0.098434 0.000000 -0.012177
#
#
# Mechanical properties :
#
#
# Convention : Reuss Voigt Hill
#
# Bulk Modulus (GPa) = 9.63905 39.80256 24.72080
# Shear Modulus (GPa) = 11.31943 9.99026 10.65485
#
# Velocity S-wave (km/s) = 2.70976 2.54570 2.62901
# Velocity P-wave (km/s) = 4.00539 5.87029 5.02511
#
# Compressibility (1/GPa) = 0.10374467
#
# Stress axis : x y z
#
# Youngs Moduli (GPa) = 35.97021 8.87243 46.13137
#
# Poissons Ratio (x) = 0.06070 0.54317
# Poissons Ratio (y) = 0.24611 0.48921
# Poissons Ratio (z) = 0.42353 0.09409
#
# Static dielectric constant tensor:
#      x y z
#    x 1.540400 0.000000 -0.036900 
#    y 0.000000 1.516100 0.000000 
#    z -0.036900 0.000000 1.520020 
# 
# From -- ./inp_files/72021.got.cif
#   From: 2010.05.17/outbox.cif.g08.bks.cpg/sg10_37_cif.got.tgz:72021.got - 2010.06.03 11:33:40.
