data_PCOD9145236
_publ_section_title
;
Structure prediction by ZEFSAII (Michael W. Deem and Ramdas Pophale) SiO2 
 PCOD9145236
Probable space group: P 2/M
;
_chemical_formula_sum "Si O2"
_cell_formula_units_Z 28
_cell_length_a 19.262268
_cell_length_b 7.427186
_cell_length_c 21.403038
_cell_angle_alpha 90.000000
_cell_angle_beta 156.774252
_cell_angle_gamma 90.000000
_cell_volume 1207.520200
_symmetry_space_group_name_H-M "P 2/M"
_symmetry_group_IT_number 10
_symmetry_cell_setting 'monoclinic'
loop_
_space_group_symop_operation_xyz
x,y,z
-x,y,-z
-x,-y,-z
x,-y,z
loop_
_atom_site_type_symbol
_atom_site_label
_atom_site_fract_x
_atom_site_fract_y
_atom_site_fract_z
Si Si1 0.825228 0.202074 0.872781
Si Si2 0.033347 0.217340 0.234594
Si Si3 0.393888 0.281040 0.974878
Si Si4 0.992171 0.288405 0.641684
Si Si5 0.335451 0.216918 0.135161
Si Si6 0.633577 0.292076 0.287602
Si Si7 0.335953 0.202684 0.394598
O O1 0.694802 0.272538 0.817762
O O2 0.759360 0.175784 0.749321
O O3 0.870917 0.000000 0.936441
O O4 0.000000 0.308112 0.000000
O O5 0.052455 0.271145 0.321992
O O6 0.199313 0.280758 0.330838
O O7 0.034724 0.000000 0.231614
O O8 0.843594 0.273415 0.049496
O O9 0.382013 0.500000 0.971235
O O10 0.509110 0.215246 0.129459
O O11 0.500000 0.239608 0.000000
O O12 0.192000 0.214859 0.802263
O O13 0.003601 0.500000 0.635318
O O14 0.826568 0.214760 0.464522
O O15 0.509457 0.288875 0.246021
O O16 0.352389 0.000000 0.144994
O O17 0.665007 0.500000 0.295696
O O18 0.500000 0.304799 0.500000
O O19 0.390738 0.000000 0.463979
#
# Coordination Sequence:
#
# PCOD9145236 Si02
#       7
#     4   4   4   4   4   4   4
#     4   9  15  26  42  64  94 126 166 218 265 301
#     4  10  19  32  52  78 106 140 181 223 266 315
#     4   9  18  35  59  84 108 135 171 216 262 309
#     4  10  21  36  55  80 110 143 175 212 262 315
#     4  10  19  31  52  78 103 136 178 221 265 314
#     4  10  21  36  55  80 109 140 173 210 258 316
#     4   9  17  27  41  67 101 133 172 222 269 306
#
# _framework density 23.188016999999999
#
# number of rings (size 3 to 8) (size 9 to 14) (size 15 to 20)
#    0.000    2.429    2.857    0.000    2.000    1.143 
#    0.000    2.857    0.000    3.429    0.000    2.000 
#    0.000    0.000    0.000    0.000    0.000    0.000 
#
# Total GULP energy -155936.286762 kJ/mol
# GULP energy per Si atom -5569.153099 kJ/mol
# Density = 2.313524 g / cm^3
# Si number density = 23.188017 Si / 1000 Ang^3
#
#
#
# Elastic Constant Matrix: (Units=GPa)
#
#
# Indices 1 2 3 4 5 6 
#
# 1 129.7450 -6.7408 80.2847 0.0000 16.9708 0.0000
# 2 -6.7408 77.5289 11.8150 0.0000 2.0991 0.0000
# 3 80.2847 11.8150 159.2242 0.0000 51.7719 0.0000
# 4 0.0000 0.0000 0.0000 0.6273 0.0000 -4.1101
# 5 16.9708 2.0991 51.7719 0.0000 4.8902 0.0000
# 6 0.0000 0.0000 0.0000 -4.1101 0.0000 20.7893
#
#
#
# Elastic Compliance Matrix: (Units=1/GPa)
#
#
# Indices 1 2 3 4 5 6 
#
# 1 0.010574 0.001563 -0.002744 0.000000 -0.008315 0.000000
# 2 0.001563 0.013234 -0.000754 0.000000 -0.003126 0.000000
# 3 -0.002744 -0.000754 -0.001850 0.000000 0.029433 0.000000
# 4 0.000000 0.000000 0.000000 -5.398825 0.000000 -1.067360
# 5 -0.008315 -0.003126 0.029433 0.000000 -0.076913 0.000000
# 6 0.000000 0.000000 0.000000 -1.067360 0.000000 -0.162918
#
#
# Mechanical properties :
#
#
# Convention : Reuss Voigt Hill
#
# Bulk Modulus (GPa) = 55.28549 59.69066 57.48807
# Shear Modulus (GPa) = -0.89177 24.00398 11.55610
#
# Velocity S-wave (km/s) = -0.62082 3.22093 2.23483
# Velocity P-wave (km/s) = 4.83530 6.29527 5.61295
#
# Compressibility (1/GPa) = 0.01808793
#
# Stress axis : x y z
#
# Youngs Moduli (GPa) = 94.56902 75.56431 -540.53560
#
# Poissons Ratio (x) = -0.11809 -1.48334
# Poissons Ratio (y) = -0.14778 -0.40733
# Poissons Ratio (z) = 0.25952 0.05694
#
# Static dielectric constant tensor:
#      x y z
#    x 1.819100 0.000000 -0.018820 
#    y 0.000000 1.971150 0.000000 
#    z -0.018820 0.000000 1.646130 
# 
# From -- ./inp_files/90355.got.cif
#   From: 2010.05.17/outbox.cif.g08.bks.cpg/sg10_46_cif.got.tgz:90355.got - 2010.06.03 11:33:40.
