data_PCOD9145261
_publ_section_title
;
Structure prediction by ZEFSAII (Michael W. Deem and Ramdas Pophale) SiO2 
 PCOD9145261
Probable space group: P 2/M
;
_chemical_formula_sum "Si O2"
_cell_formula_units_Z 32
_cell_length_a 25.105373
_cell_length_b 7.618922
_cell_length_c 16.748545
_cell_angle_alpha 90.000000
_cell_angle_beta 26.428688
_cell_angle_gamma 90.000000
_cell_volume 1425.866575
_symmetry_space_group_name_H-M "P 2/M"
_symmetry_group_IT_number 10
_symmetry_cell_setting 'monoclinic'
loop_
_space_group_symop_operation_xyz
x,y,z
-x,y,-z
-x,-y,-z
x,-y,z
loop_
_atom_site_type_symbol
_atom_site_label
_atom_site_fract_x
_atom_site_fract_y
_atom_site_fract_z
Si Si1 0.991299 0.206036 0.838060
Si Si2 0.611101 0.706320 0.901241
Si Si3 0.353591 0.289739 0.968013
Si Si4 0.626805 0.798389 0.304101
Si Si5 0.245953 0.787524 0.438001
Si Si6 0.817555 0.304025 0.929832
Si Si7 0.192394 0.799015 0.790199
Si Si8 0.620186 0.211636 0.588614
O O1 0.910875 0.217672 0.865614
O O2 0.120727 0.277529 0.642102
O O3 0.005087 0.000000 0.837233
O O4 0.921835 0.280429 0.009249
O O5 0.585371 0.500000 0.947561
O O6 0.723162 0.724115 0.691509
O O7 0.500000 0.784297 0.000000
O O8 0.634223 0.780377 0.958092
O O9 0.335629 0.500000 0.994545
O O10 0.483752 0.260496 0.752799
O O11 0.237393 0.219804 0.076373
O O12 0.500000 0.726397 0.500000
O O13 0.710569 0.808158 0.268992
O O14 0.610015 0.000000 0.297320
O O15 0.697324 0.690832 0.144378
O O16 0.349030 0.734551 0.362220
O O17 0.242045 0.000000 0.441138
O O18 0.862971 0.500000 0.852828
O O19 0.270607 0.720481 0.613280
O O20 0.160482 0.000000 0.809135
O O21 0.625459 0.000000 0.575878
#
# Coordination Sequence:
#
# PCOD9145261 Si02
#       8
#     4   4   4   4   4   4   4   4
#     4   9  19  37  55  73 106 146 180 211 253 309
#     4  10  20  37  59  78 102 139 173 204 261 330
#     4  10  21  36  53  78 108 136 170 215 265 316
#     4   9  16  28  47  70 100 138 178 213 255 311
#     4  10  21  35  55  83 108 133 171 223 266 302
#     4  10  20  33  51  75 103 135 176 222 260 299
#     4   8  15  28  47  72 102 138 174 207 245 301
#     4  10  19  31  52  82 109 135 173 216 262 308
#
# _framework density 22.442491
#
# number of rings (size 3 to 8) (size 9 to 14) (size 15 to 20)
#    0.000    2.500    1.250    1.875    0.000    4.000 
#    0.000    6.875    0.000    3.750    0.000    5.250 
#    0.000    0.000    0.000    0.000    0.000    0.000 
#
# Total GULP energy -178432.019339 kJ/mol
# GULP energy per Si atom -5576.000604 kJ/mol
# Density = 2.239141 g / cm^3
# Si number density = 22.442491 Si / 1000 Ang^3
#
#
#
# Elastic Constant Matrix: (Units=GPa)
#
#
# Indices 1 2 3 4 5 6 
#
# 1 93.2672 0.2382 13.4119 0.0000 12.0740 0.0000
# 2 0.2382 47.2324 -6.5912 0.0000 2.5253 0.0000
# 3 13.4119 -6.5912 76.6819 0.0000 6.9696 0.0000
# 4 0.0000 0.0000 0.0000 20.0352 0.0000 3.3064
# 5 12.0740 2.5253 6.9696 0.0000 34.3333 0.0000
# 6 0.0000 0.0000 0.0000 3.3064 0.0000 7.6618
#
#
#
# Elastic Compliance Matrix: (Units=1/GPa)
#
#
# Indices 1 2 3 4 5 6 
#
# 1 0.011439 -0.000095 -0.001675 0.000000 -0.003676 0.000000
# 2 -0.000095 0.021564 0.002049 0.000000 -0.001969 0.000000
# 3 -0.001675 0.002049 0.013723 0.000000 -0.002348 0.000000
# 4 0.000000 0.000000 0.000000 0.053739 0.000000 -0.023191
# 5 -0.003676 -0.001969 -0.002348 0.000000 0.031040 0.000000
# 6 0.000000 0.000000 0.000000 -0.023191 0.000000 0.140526
#
#
# Mechanical properties :
#
#
# Convention : Reuss Voigt Hill
#
# Bulk Modulus (GPa) = 21.14858 25.69992 23.42425
# Shear Modulus (GPa) = 17.40742 26.41422 21.91082
#
# Velocity S-wave (km/s) = 2.78806 3.43443 3.12798
# Velocity P-wave (km/s) = 4.45065 5.21568 4.84828
#
# Compressibility (1/GPa) = 0.04728450
#
# Stress axis : x y z
#
# Youngs Moduli (GPa) = 87.42173 46.37449 72.86874
#
# Poissons Ratio (x) = 0.00440 0.12204
# Poissons Ratio (y) = 0.00829 -0.14931
# Poissons Ratio (z) = 0.14641 -0.09502
#
# Static dielectric constant tensor:
#      x y z
#    x 1.871920 0.000000 0.014490 
#    y 0.000000 1.936310 0.000000 
#    z 0.014490 0.000000 1.842870 
# 
# From -- ./inp_files/71554.got.cif
#   From: 2010.05.17/outbox.cif.g08.bks.cpg/sg10_36_cif.got.tgz:71554.got - 2010.06.03 11:33:40.
