data_PCOD9145563
_publ_section_title
;
Structure prediction by ZEFSAII (Michael W. Deem and Ramdas Pophale) SiO2 
 PCOD9145563
Probable space group: P 2/M
;
_chemical_formula_sum "Si O2"
_cell_formula_units_Z 32
_cell_length_a 11.861002
_cell_length_b 7.644176
_cell_length_c 29.868570
_cell_angle_alpha 90.000000
_cell_angle_beta 33.995127
_cell_angle_gamma 90.000000
_cell_volume 1514.165591
_symmetry_space_group_name_H-M "P 2/M"
_symmetry_group_IT_number 10
_symmetry_cell_setting 'monoclinic'
loop_
_space_group_symop_operation_xyz
x,y,z
-x,y,-z
-x,-y,-z
x,-y,z
loop_
_atom_site_type_symbol
_atom_site_label
_atom_site_fract_x
_atom_site_fract_y
_atom_site_fract_z
Si Si1 0.771318 0.287398 0.083648
Si Si2 0.233688 0.710462 0.547038
Si Si3 0.681296 0.713714 0.380853
Si Si4 0.316263 0.209215 0.090750
Si Si5 0.131392 0.288832 0.772474
Si Si6 0.207818 0.205328 0.320959
Si Si7 0.364948 0.795457 0.174324
Si Si8 0.396552 0.294020 0.766321
O O1 0.763612 0.500000 0.084964
O O2 0.604505 0.221526 0.103738
O O3 0.699623 0.224070 0.156075
O O4 0.000000 0.233468 0.000000
O O5 0.236835 0.500000 0.546621
O O6 0.446042 0.766477 0.455830
O O7 0.236201 0.771521 0.598058
O O8 0.026419 0.765666 0.592781
O O9 0.685621 0.500000 0.379865
O O10 0.806991 0.776100 0.297107
O O11 0.313262 0.280858 0.142752
O O12 0.098201 0.241963 0.141278
O O13 0.345469 0.000000 0.084896
O O14 0.500000 0.277665 0.000000
O O15 0.143944 0.500000 0.766686
O O16 0.289053 0.222762 0.757663
O O17 0.262880 0.281045 0.253175
O O18 0.364254 0.275108 0.306046
O O19 0.247519 0.000000 0.305635
O O20 0.308180 0.000000 0.191895
O O21 0.352225 0.500000 0.780852
#
# Coordination Sequence:
#
# PCOD9145563 Si02
#       8
#     4   4   4   4   4   4   4   4
#     4   9  18  31  49  71  95 122 159 209 255 288
#     4   9  16  30  54  78 104 132 163 202 249 300
#     4   8  16  31  52  80 105 131 164 202 249 301
#     4  10  22  37  51  72 103 136 166 200 248 304
#     4  10  20  35  55  76 101 130 168 210 248 295
#     4  10  19  32  51  75 101 130 169 212 248 288
#     4   9  19  34  49  69  97 129 165 201 241 293
#     4   9  19  34  50  71  98 132 168 205 252 301
#
# _framework density 21.133754
#
# number of rings (size 3 to 8) (size 9 to 14) (size 15 to 20)
#    0.000    2.750    0.000    1.875    1.750    2.000 
#    0.000    2.500    0.000    3.750    0.000    0.000 
#    0.000    0.000    0.000    0.000    0.000    0.000 
#
# Total GULP energy -178554.556867 kJ/mol
# GULP energy per Si atom -5579.829902 kJ/mol
# Density = 2.108565 g / cm^3
# Si number density = 21.133754 Si / 1000 Ang^3
#
#
#
# Elastic Constant Matrix: (Units=GPa)
#
#
# Indices 1 2 3 4 5 6 
#
# 1 87.8203 -5.6070 41.4835 0.0000 -14.2183 0.0000
# 2 -5.6070 37.0852 -7.3259 0.0000 11.3992 0.0000
# 3 41.4835 -7.3259 92.6511 0.0000 -23.3437 0.0000
# 4 0.0000 0.0000 0.0000 15.4701 0.0000 -12.8664
# 5 -14.2183 11.3992 -23.3437 0.0000 27.8105 0.0000
# 6 0.0000 0.0000 0.0000 -12.8664 0.0000 15.0944
#
#
#
# Elastic Compliance Matrix: (Units=1/GPa)
#
#
# Indices 1 2 3 4 5 6 
#
# 1 0.014580 0.000309 -0.005907 0.000000 0.002370 0.000000
# 2 0.000309 0.030924 -0.001074 0.000000 -0.013419 0.000000
# 3 -0.005907 -0.001074 0.016110 0.000000 0.010943 0.000000
# 4 0.000000 0.000000 0.000000 0.222084 0.000000 0.189303
# 5 0.002370 -0.013419 0.010943 0.000000 0.051855 0.000000
# 6 0.000000 0.000000 0.000000 0.189303 0.000000 0.227611
#
#
# Mechanical properties :
#
#
# Convention : Reuss Voigt Hill
#
# Bulk Modulus (GPa) = 20.71633 30.51755 25.61694
# Shear Modulus (GPa) = 8.43742 24.27539 16.35640
#
# Velocity S-wave (km/s) = 2.00026 3.39286 2.78501
# Velocity P-wave (km/s) = 3.89339 5.46079 4.74229
#
# Compressibility (1/GPa) = 0.04827109
#
# Stress axis : x y z
#
# Youngs Moduli (GPa) = 68.58505 32.33715 62.07304
#
# Poissons Ratio (x) = -0.01000 0.36665
# Poissons Ratio (y) = -0.02121 0.06668
# Poissons Ratio (z) = 0.40512 0.03474
#
# Static dielectric constant tensor:
#      x y z
#    x 1.766780 0.000000 0.006910 
#    y 0.000000 1.780320 0.000000 
#    z 0.006910 0.000000 1.753670 
# 
# From -- ./inp_files/94958.got.cif
#   From: 2010.05.17/outbox.cif.g08.bks.cpg/sg10_48_cif.got.tgz:94958.got - 2010.06.03 11:33:40.
