data_PCOD9145162
_publ_section_title
;
Structure prediction by ZEFSAII (Michael W. Deem and Ramdas Pophale) SiO2 
 PCOD9145162
Probable space group: P 2/M
;
_chemical_formula_sum "Si O2"
_cell_formula_units_Z 28
_cell_length_a 31.933103
_cell_length_b 7.526919
_cell_length_c 31.933103
_cell_angle_alpha 90.000000
_cell_angle_beta 170.301117
_cell_angle_gamma 90.000000
_cell_volume 1293.071328
_symmetry_space_group_name_H-M "P 2/M"
_symmetry_group_IT_number 10
_symmetry_cell_setting 'monoclinic'
loop_
_space_group_symop_operation_xyz
x,y,z
-x,y,-z
-x,-y,-z
x,-y,z
loop_
_atom_site_type_symbol
_atom_site_label
_atom_site_fract_x
_atom_site_fract_y
_atom_site_fract_z
Si Si1 0.689639 0.213158 0.810327
Si Si2 0.547244 0.786599 0.952737
Si Si3 0.881718 0.712944 0.618265
Si Si4 0.739076 0.286923 0.760923
Si Si5 0.403339 0.287679 0.096644
Si Si6 0.167676 0.786667 0.332290
Si Si7 0.975664 0.782667 0.524355
O O1 0.714352 0.250573 0.785641
O O2 0.428618 0.281756 0.571231
O O3 0.686977 0.000000 0.812985
O O4 0.928724 0.281756 0.071341
O O5 0.571848 0.744815 0.928149
O O6 0.285134 0.722278 0.712969
O O7 0.545108 0.000000 0.954870
O O8 0.787005 0.722278 0.214842
O O9 0.884640 0.500000 0.615339
O O10 0.642759 0.782880 0.357557
O O11 0.856991 0.748448 0.643015
O O12 0.142420 0.782880 0.857216
O O13 0.500000 0.217864 0.500000
O O14 0.741861 0.500000 0.758139
O O15 0.000000 0.217864 0.000000
O O16 0.400059 0.500000 0.099920
O O17 0.170232 0.000000 0.329731
O O18 0.000000 0.729508 0.500000
O O19 0.975247 0.000000 0.524773
#
# Coordination Sequence:
#
# PCOD9145162 Si02
#       7
#     4   4   4   4   4   4   4
#     4  10  21  36  54  78 106 136 169 205 253 306
#     4  10  19  31  51  76  98 128 169 205 245 298
#     4  10  21  36  54  75  99 133 172 204 246 303
#     4  10  21  36  54  78 106 136 173 214 252 292
#     4  10  21  36  52  73 103 134 165 206 252 297
#     4  10  21  36  54  78 106 133 166 211 255 296
#     4   9  17  30  49  74 102 129 162 207 251 292
#
# _framework density 21.653872
#
# number of rings (size 3 to 8) (size 9 to 14) (size 15 to 20)
#    0.000    2.143    0.000    3.000    0.000    4.571 
#    0.000    0.000    0.000    2.571    0.000    0.000 
#    0.000    0.000    0.000    0.000    0.000    0.000 
#
# Total GULP energy -156553.025976 kJ/mol
# GULP energy per Si atom -5591.179499 kJ/mol
# Density = 2.160459 g / cm^3
# Si number density = 21.653872 Si / 1000 Ang^3
#
#
#
# Elastic Constant Matrix: (Units=GPa)
#
#
# Indices 1 2 3 4 5 6 
#
# 1 229.2778 -14.8579 167.7441 0.0000 3.9447 0.0000
# 2 -14.8579 55.3572 15.7456 0.0000 2.6981 0.0000
# 3 167.7441 15.7456 295.4814 0.0000 1.8856 0.0000
# 4 0.0000 0.0000 0.0000 -13.0035 0.0000 -4.0949
# 5 3.9447 2.6981 1.8856 0.0000 52.9744 0.0000
# 6 0.0000 0.0000 0.0000 -4.0949 0.0000 33.4619
#
#
#
# Elastic Compliance Matrix: (Units=1/GPa)
#
#
# Indices 1 2 3 4 5 6 
#
# 1 0.008106 0.003568 -0.004788 0.000000 -0.000615 0.000000
# 2 0.003568 0.019956 -0.003081 0.000000 -0.001172 0.000000
# 3 -0.004788 -0.003081 0.006265 0.000000 0.000290 0.000000
# 4 0.000000 0.000000 0.000000 -0.074049 0.000000 -0.009062
# 5 -0.000615 -0.001172 0.000290 0.000000 0.018972 0.000000
# 6 0.000000 0.000000 0.000000 -0.009062 0.000000 0.028776
#
#
# Mechanical properties :
#
#
# Convention : Reuss Voigt Hill
#
# Bulk Modulus (GPa) = 38.87515 101.93111 70.40313
# Shear Modulus (GPa) = 198.38067 42.11887 120.24977
#
# Velocity S-wave (km/s) = 9.58193 4.41511 7.46011
# Velocity P-wave (km/s) = 11.84946 8.55371 10.33382
#
# Compressibility (1/GPa) = 0.02572337
#
# Stress axis : x y z
#
# Youngs Moduli (GPa) = 123.35880 50.11118 159.61956
#
# Poissons Ratio (x) = -0.17878 0.76429
# Poissons Ratio (y) = -0.44010 0.49183
# Poissons Ratio (z) = 0.59067 0.15441
#
# Static dielectric constant tensor:
#      x y z
#    x 1.697120 0.000000 0.007920 
#    y 0.000000 1.802520 0.000000 
#    z 0.007920 0.000000 1.786940 
# 
# From -- ./inp_files/13436.got.cif
#   From: 2010.05.17/outbox.cif.g08.bks.cpg/sg10_7_cif.got.tgz:13436.got - 2010.06.03 11:33:40.
