data_PCOD9145673
_publ_section_title
;
Structure prediction by ZEFSAII (Michael W. Deem and Ramdas Pophale) SiO2 
 PCOD9145673
Probable space group: P 2/M
;
_chemical_formula_sum "Si O2"
_cell_formula_units_Z 24
_cell_length_a 21.184816
_cell_length_b 7.432756
_cell_length_c 9.245991
_cell_angle_alpha 90.000000
_cell_angle_beta 130.690742
_cell_angle_gamma 90.000000
_cell_volume 1103.912256
_symmetry_space_group_name_H-M "P 2/M"
_symmetry_group_IT_number 10
_symmetry_cell_setting 'monoclinic'
loop_
_space_group_symop_operation_xyz
x,y,z
-x,y,-z
-x,-y,-z
x,-y,z
loop_
_atom_site_type_symbol
_atom_site_label
_atom_site_fract_x
_atom_site_fract_y
_atom_site_fract_z
Si Si1 0.426718 0.208776 0.789357
Si Si2 0.903425 0.719141 0.694539
Si Si3 0.910953 0.719195 0.040748
Si Si4 0.415926 0.292215 0.441127
Si Si5 0.747866 0.720215 0.963120
Si Si6 0.739471 0.717865 0.282384
O O1 0.419454 0.289716 0.619268
O O2 0.340122 0.223719 0.744722
O O3 0.446935 0.000000 0.794578
O O4 0.500000 0.285643 0.000000
O O5 0.902943 0.500000 0.691047
O O6 0.825364 0.779623 0.484113
O O7 0.995246 0.776324 0.780051
O O8 0.894802 0.771396 0.849861
O O9 0.911214 0.500000 0.043554
O O10 0.836143 0.780397 0.030362
O O11 0.500000 0.210533 0.500000
O O12 0.415092 0.500000 0.390682
O O13 0.329459 0.217417 0.250429
O O14 0.750510 0.500000 0.964147
O O15 0.734636 0.775205 0.108756
O O16 0.739529 0.500000 0.284322
#
# Coordination Sequence:
#
# PCOD9145673 Si02
#       6
#     4   4   4   4   4   4
#     4  11  24  39  54  74 101 133 168 206 250 301
#     4   8  14  24  42  69 101 136 168 203 249 297
#     4   8  13  23  39  66 105 138 165 202 249 297
#     4  10  20  35  56  80 104 131 166 208 252 297
#     4   9  17  28  46  75 107 135 166 207 252 299
#     4  10  19  32  52  77 103 133 170 209 251 296
#
# _framework density 21.740856999999998
#
# number of rings (size 3 to 8) (size 9 to 14) (size 15 to 20)
#    0.000    2.667    0.000    3.500    0.000    6.333 
#    0.000    4.167    0.000    0.000    0.000   11.667 
#    0.000    0.000    0.000    0.000    0.000    0.000 
#
# Total GULP energy -134049.554849 kJ/mol
# GULP energy per Si atom -5585.398119 kJ/mol
# Density = 2.169137 g / cm^3
# Si number density = 21.740857 Si / 1000 Ang^3
#
#
#
# Elastic Constant Matrix: (Units=GPa)
#
#
# Indices 1 2 3 4 5 6 
#
# 1 190.8321 -13.0122 89.3763 0.0000 11.7978 0.0000
# 2 -13.0122 63.9007 -9.7060 0.0000 3.0524 0.0000
# 3 89.3763 -9.7060 176.3616 0.0000 21.0353 0.0000
# 4 0.0000 0.0000 0.0000 -34.4760 0.0000 31.9000
# 5 11.7978 3.0524 21.0353 0.0000 31.3419 0.0000
# 6 0.0000 0.0000 0.0000 31.9000 0.0000 88.9628
#
#
#
# Elastic Compliance Matrix: (Units=1/GPa)
#
#
# Indices 1 2 3 4 5 6 
#
# 1 0.006925 0.000911 -0.003411 0.000000 -0.000406 0.000000
# 2 0.000911 0.016056 0.000706 0.000000 -0.002380 0.000000
# 3 -0.003411 0.000706 0.007927 0.000000 -0.004105 0.000000
# 4 0.000000 0.000000 0.000000 -0.021780 0.000000 0.007810
# 5 -0.000406 -0.002380 -0.004105 0.000000 0.035046 0.000000
# 6 0.000000 0.000000 0.000000 0.007810 0.000000 0.008440
#
#
# Mechanical properties :
#
#
# Convention : Reuss Voigt Hill
#
# Bulk Modulus (GPa) = 36.60258 62.71228 49.65743
# Shear Modulus (GPa) = 76.55922 41.46149 59.01035
#
# Velocity S-wave (km/s) = 5.94061 4.37175 5.21551
# Velocity P-wave (km/s) = 7.99543 7.37502 7.69148
#
# Compressibility (1/GPa) = 0.02732048
#
# Stress axis : x y z
#
# Youngs Moduli (GPa) = 144.40609 62.28294 126.14866
#
# Poissons Ratio (x) = -0.05677 0.43026
# Poissons Ratio (y) = -0.13162 -0.08901
# Poissons Ratio (z) = 0.49254 -0.04395
#
# Static dielectric constant tensor:
#      x y z
#    x 1.738170 0.000000 0.026330 
#    y 0.000000 1.840970 0.000000 
#    z 0.026330 0.000000 1.758960 
# 
# From -- ./inp_files/27985.got.cif
#   From: 2010.05.17/outbox.cif.g08.bks.cpg/sg10_14_cif.got.tgz:27985.got - 2010.06.03 11:33:40.
