data_PCOD9145323
_publ_section_title
;
Structure prediction by ZEFSAII (Michael W. Deem and Ramdas Pophale) SiO2 
 PCOD9145323
Probable space group: P 2/M
;
_chemical_formula_sum "Si O2"
_cell_formula_units_Z 32
_cell_length_a 23.105443
_cell_length_b 7.575773
_cell_length_c 15.606859
_cell_angle_alpha 90.000000
_cell_angle_beta 148.369959
_cell_angle_gamma 90.000000
_cell_volume 1432.670373
_symmetry_space_group_name_H-M "P 2/M"
_symmetry_group_IT_number 10
_symmetry_cell_setting 'monoclinic'
loop_
_space_group_symop_operation_xyz
x,y,z
-x,y,-z
-x,-y,-z
x,-y,z
loop_
_atom_site_type_symbol
_atom_site_label
_atom_site_fract_x
_atom_site_fract_y
_atom_site_fract_z
Si Si1 0.841379 0.785428 0.434718
Si Si2 0.544887 0.708621 0.644891
Si Si3 0.081395 0.205735 0.759310
Si Si4 0.281184 0.703989 0.889064
Si Si5 0.871042 0.215497 0.833710
Si Si6 0.794535 0.786055 0.922723
Si Si7 0.235177 0.206283 0.476881
Si Si8 0.517846 0.714503 0.248749
O O1 0.758249 0.718930 0.257951
O O2 0.811970 0.723571 0.493336
O O3 0.967382 0.725763 0.576499
O O4 0.833840 0.000000 0.420805
O O5 0.500000 0.786966 0.500000
O O6 0.520358 0.500000 0.613591
O O7 0.675785 0.732623 0.808932
O O8 0.492030 0.777742 0.665297
O O9 0.185487 0.215458 0.827567
O O10 0.058590 0.000000 0.746201
O O11 0.115576 0.279531 0.895226
O O12 0.284541 0.500000 0.919582
O O13 0.404596 0.773725 0.060395
O O14 0.813696 0.275287 0.849740
O O15 0.813291 0.279525 0.673541
O O16 0.865573 0.000000 0.826957
O O17 0.000000 0.263249 0.000000
O O18 0.798376 0.000000 0.926514
O O19 0.367065 0.222444 0.643844
O O20 0.204176 0.000000 0.437319
O O21 0.520858 0.500000 0.250640
#
# Coordination Sequence:
#
# PCOD9145323 Si02
#       8
#     4   4   4   4   4   4   4   4
#     4  10  22  39  58  83 114 147 186 233 288 340
#     4  10  20  35  54  76 107 148 185 222 275 330
#     4  10  20  36  58  85 117 148 180 229 289 342
#     4  11  23  39  59  83 111 147 191 235 283 335
#     4   9  17  32  55  84 117 149 183 226 276 329
#     4  10  19  31  54  85 111 141 182 225 271 326
#     4  10  21  37  59  85 113 149 191 232 275 332
#     4  10  22  39  56  78 113 150 185 232 284 333
#
# _framework density 22.335912
#
# number of rings (size 3 to 8) (size 9 to 14) (size 15 to 20)
#    0.000    2.000    1.250    2.250    0.000    7.750 
#    0.000    2.500    0.000    3.000    0.000    0.000 
#    0.000    0.000    0.000    0.000    0.000    0.000 
#
# Total GULP energy -178789.886528 kJ/mol
# GULP energy per Si atom -5587.183954 kJ/mol
# Density = 2.228507 g / cm^3
# Si number density = 22.335912 Si / 1000 Ang^3
#
#
#
# Elastic Constant Matrix: (Units=GPa)
#
#
# Indices 1 2 3 4 5 6 
#
# 1 83.5031 -12.5048 25.6992 0.0000 -3.4942 0.0000
# 2 -12.5048 42.4160 -6.2705 0.0000 -5.5703 0.0000
# 3 25.6992 -6.2705 124.5678 0.0000 -7.6637 0.0000
# 4 0.0000 0.0000 0.0000 16.0891 0.0000 11.6354
# 5 -3.4942 -5.5703 -7.6637 0.0000 39.1995 0.0000
# 6 0.0000 0.0000 0.0000 11.6354 0.0000 8.0458
#
#
#
# Elastic Compliance Matrix: (Units=1/GPa)
#
#
# Indices 1 2 3 4 5 6 
#
# 1 0.013352 0.003730 -0.002491 0.000000 0.001233 0.000000
# 2 0.003730 0.025323 0.000756 0.000000 0.004079 0.000000
# 3 -0.002491 0.000756 0.008677 0.000000 0.001582 0.000000
# 4 0.000000 0.000000 0.000000 -1.356312 0.000000 1.961415
# 5 0.001233 0.004079 0.001582 0.000000 0.026509 0.000000
# 6 0.000000 0.000000 0.000000 1.961415 0.000000 -2.712188
#
#
# Mechanical properties :
#
#
# Convention : Reuss Voigt Hill
#
# Bulk Modulus (GPa) = 19.47682 29.37053 24.42368
# Shear Modulus (GPa) = -1.25580 28.90442 13.82431
#
# Velocity S-wave (km/s) = -0.75064 3.60123 2.49052
# Velocity P-wave (km/s) = 2.82624 5.51995 4.38506
#
# Compressibility (1/GPa) = 0.05134308
#
# Stress axis : x y z
#
# Youngs Moduli (GPa) = 74.89255 39.48956 115.24644
#
# Poissons Ratio (x) = -0.14730 0.28709
# Poissons Ratio (y) = -0.27936 -0.08714
# Poissons Ratio (z) = 0.18656 -0.02986
#
# Static dielectric constant tensor:
#      x y z
#    x 1.790010 0.000000 -0.015940 
#    y 0.000000 1.865030 0.000000 
#    z -0.015940 0.000000 1.829460 
# 
# From -- ./inp_files/71710.got.cif
#   From: 2010.05.17/outbox.cif.g08.bks.cpg/sg10_36_cif.got.tgz:71710.got - 2010.06.03 11:33:40.
