data_PCOD9145210
_publ_section_title
;
Structure prediction by ZEFSAII (Michael W. Deem and Ramdas Pophale) SiO2 
 PCOD9145210
Probable space group: P 2/M
;
_chemical_formula_sum "Si O2"
_cell_formula_units_Z 32
_cell_length_a 22.176251
_cell_length_b 15.540361
_cell_length_c 9.057341
_cell_angle_alpha 90.000000
_cell_angle_beta 34.168407
_cell_angle_gamma 90.000000
_cell_volume 1753.065380
_symmetry_space_group_name_H-M "P 2/M"
_symmetry_group_IT_number 10
_symmetry_cell_setting 'monoclinic'
loop_
_space_group_symop_operation_xyz
x,y,z
-x,y,-z
-x,-y,-z
x,-y,z
loop_
_atom_site_type_symbol
_atom_site_label
_atom_site_fract_x
_atom_site_fract_y
_atom_site_fract_z
Si Si1 0.768110 0.407633 0.241231
Si Si2 0.364581 0.720571 0.123399
Si Si3 0.030461 0.767703 0.770174
Si Si4 0.221393 0.178315 0.190181
Si Si5 0.171548 0.598873 0.546480
Si Si6 0.108573 0.699468 0.192021
Si Si7 0.385636 0.097376 0.647876
Si Si8 0.390195 0.252765 0.409336
O O1 0.713896 0.500000 0.347865
O O2 0.829561 0.401246 0.272735
O O3 0.687475 0.329289 0.385844
O O4 0.850233 0.392222 0.943673
O O5 0.309324 0.784978 0.123023
O O6 0.291619 0.634446 0.267976
O O7 0.361879 0.759799 0.294009
O O8 0.488424 0.711842 0.831841
O O9 0.113625 0.829670 0.511243
O O10 0.090954 0.673966 0.656136
O O11 0.923941 0.754421 0.887725
O O12 0.000000 0.792356 0.000000
O O13 0.188244 0.249818 0.136834
O O14 0.284999 0.107784 0.964989
O O15 0.152715 0.500000 0.535683
O O16 0.000000 0.690542 0.500000
O O17 0.500000 0.110648 0.500000
O O18 0.378409 0.169119 0.534613
O O19 0.385980 0.000000 0.588348
#
# Coordination Sequence:
#
# PCOD9145210 Si02
#       8
#     4   4   4   4   4   4   4   4
#     4  10  19  31  51  80 113 153 196 236 279 332
#     4   9  19  34  56  80 108 157 188 232 284 333
#     4  10  19  33  56  82 106 152 201 241 288 324
#     4  10  20  36  57  81 116 147 187 230 286 349
#     4   9  18  31  50  79 114 150 199 245 283 332
#     4  10  20  33  51  76 108 151 190 237 283 329
#     4  11  22  38  64  92 116 147 180 224 295 361
#     4  10  19  36  58  82 116 148 193 235 280 336
#
# _framework density 18.253740000000001
#
# number of rings (size 3 to 8) (size 9 to 14) (size 15 to 20)
#    0.000    2.125    3.750    0.000    0.000    1.500 
#    0.000    9.375    0.000    4.875    0.000    0.000 
#    0.000    0.000    0.000    0.000    0.000    0.000 
#
# Total GULP energy -178169.297689 kJ/mol
# GULP energy per Si atom -5567.790553 kJ/mol
# Density = 1.821219 g / cm^3
# Si number density = 18.253740 Si / 1000 Ang^3
#
#
#
# Elastic Constant Matrix: (Units=GPa)
#
#
# Indices 1 2 3 4 5 6 
#
# 1 68.6737 12.5286 7.7058 0.0000 -4.8202 0.0000
# 2 12.5286 64.4406 8.2695 0.0000 -0.1974 0.0000
# 3 7.7058 8.2695 55.7442 0.0000 9.3641 0.0000
# 4 0.0000 0.0000 0.0000 15.0516 0.0000 -3.2928
# 5 -4.8202 -0.1974 9.3641 0.0000 22.5809 0.0000
# 6 0.0000 0.0000 0.0000 -3.2928 0.0000 9.8902
#
#
#
# Elastic Compliance Matrix: (Units=1/GPa)
#
#
# Indices 1 2 3 4 5 6 
#
# 1 0.015640 -0.002708 -0.002491 0.000000 0.004348 0.000000
# 2 -0.002708 0.016318 -0.002121 0.000000 0.000444 0.000000
# 3 -0.002491 -0.002121 0.020090 0.000000 -0.008881 0.000000
# 4 0.000000 0.000000 0.000000 0.071657 0.000000 0.023858
# 5 0.004348 0.000444 -0.008881 0.000000 0.048900 0.000000
# 6 0.000000 0.000000 0.000000 0.023858 0.000000 0.109053
#
#
# Mechanical properties :
#
#
# Convention : Reuss Voigt Hill
#
# Bulk Modulus (GPa) = 26.73140 27.31849 27.02495
# Shear Modulus (GPa) = 16.19337 20.19485 18.19411
#
# Velocity S-wave (km/s) = 2.98170 3.32978 3.16053
# Velocity P-wave (km/s) = 5.15074 5.45726 5.30622
#
# Compressibility (1/GPa) = 0.03740919
#
# Stress axis : x y z
#
# Youngs Moduli (GPa) = 63.93749 61.28135 49.77609
#
# Poissons Ratio (x) = 0.16594 0.12398
# Poissons Ratio (y) = 0.17313 0.10558
# Poissons Ratio (z) = 0.15925 0.12998
#
# Static dielectric constant tensor:
#      x y z
#    x 1.629930 0.000000 0.005060 
#    y 0.000000 1.606930 0.000000 
#    z 0.005060 0.000000 1.710340 
# 
# From -- ./inp_files/35122.got.cif
#   From: 2010.05.17/outbox.cif.g08.bks.cpg/sg10_18_cif.got.tgz:35122.got - 2010.06.03 11:33:40.
