data_PCOD9145235
_publ_section_title
;
Structure prediction by ZEFSAII (Michael W. Deem and Ramdas Pophale) SiO2 
 PCOD9145235
Probable space group: P 2/M
;
_chemical_formula_sum "Si O2"
_cell_formula_units_Z 28
_cell_length_a 7.961245
_cell_length_b 15.576302
_cell_length_c 12.099928
_cell_angle_alpha 90.000000
_cell_angle_beta 79.168107
_cell_angle_gamma 90.000000
_cell_volume 1473.738592
_symmetry_space_group_name_H-M "P 2/M"
_symmetry_group_IT_number 10
_symmetry_cell_setting 'monoclinic'
loop_
_space_group_symop_operation_xyz
x,y,z
-x,y,-z
-x,-y,-z
x,-y,z
loop_
_atom_site_type_symbol
_atom_site_label
_atom_site_fract_x
_atom_site_fract_y
_atom_site_fract_z
Si Si1 0.460718 0.593893 0.133884
Si Si2 0.276809 0.098406 0.942982
Si Si3 0.336631 0.278108 0.440976
Si Si4 0.100442 0.761781 0.659699
Si Si5 0.058403 0.900971 0.176267
Si Si6 0.862002 0.598740 0.685741
Si Si7 0.431414 0.767682 0.773864
O O1 0.515138 0.500000 0.170598
O O2 0.260976 0.601880 0.191355
O O3 0.552702 0.673559 0.177269
O O4 0.500000 0.595904 0.000000
O O5 0.411608 0.161811 0.871034
O O6 0.111306 0.099104 0.881393
O O7 0.336037 0.000000 0.940351
O O8 0.208377 0.124631 0.072302
O O9 0.500000 0.295329 0.500000
O O10 0.188080 0.231912 0.528719
O O11 0.256813 0.364657 0.398999
O O12 0.410286 0.223123 0.329752
O O13 0.260839 0.767701 0.722085
O O14 0.973864 0.835536 0.719744
O O15 0.010455 0.668972 0.677674
O O16 0.084587 0.000000 0.207922
O O17 0.914757 0.500000 0.661516
#
# Coordination Sequence:
#
# PCOD9145235 Si02
#       7
#     4   4   4   4   4   4   4
#     4   9  19  35  51  69 100 139 171 200 247 309
#     4   8  14  27  49  75 101 129 167 208 247 298
#     4   9  19  35  51  72 101 135 171 206 247 300
#     4  10  19  31  52  78 103 129 170 213 248 295
#     4   8  15  28  47  74 104 132 163 204 253 299
#     4  10  21  35  52  76 102 132 169 210 253 294
#     4   9  18  32  52  74 101 136 167 206 256 296
#
# _framework density 18.999299000000001
#
# number of rings (size 3 to 8) (size 9 to 14) (size 15 to 20)
#    0.000    3.000    0.000    1.286    2.000    2.000 
#    0.000    3.571    0.000   12.429    0.000    0.000 
#    0.000    0.000    0.000    0.000    0.000    0.000 
#
# Total GULP energy -156016.841050 kJ/mol
# GULP energy per Si atom -5572.030038 kJ/mol
# Density = 1.895606 g / cm^3
# Si number density = 18.999299 Si / 1000 Ang^3
#
#
#
# Elastic Constant Matrix: (Units=GPa)
#
#
# Indices 1 2 3 4 5 6 
#
# 1 54.0734 34.4455 35.5711 0.0000 -8.9984 0.0000
# 2 34.4455 120.6110 93.3599 0.0000 -38.6441 0.0000
# 3 35.5711 93.3599 151.9152 0.0000 -41.4449 0.0000
# 4 0.0000 0.0000 0.0000 20.5313 0.0000 -3.4007
# 5 -8.9984 -38.6441 -41.4449 0.0000 19.1865 0.0000
# 6 0.0000 0.0000 0.0000 -3.4007 0.0000 37.5344
#
#
#
# Elastic Compliance Matrix: (Units=1/GPa)
#
#
# Indices 1 2 3 4 5 6 
#
# 1 0.024341 -0.008130 -0.005006 0.000000 -0.015774 0.000000
# 2 -0.008130 0.026981 -0.002172 0.000000 0.045838 0.000000
# 3 -0.005006 -0.002172 0.017667 0.000000 0.031439 0.000000
# 4 0.000000 0.000000 0.000000 0.049448 0.000000 0.004480
# 5 -0.015774 0.045838 0.031439 0.000000 0.204958 0.000000
# 6 0.000000 0.000000 0.000000 0.004480 0.000000 0.027048
#
#
# Mechanical properties :
#
#
# Convention : Reuss Voigt Hill
#
# Bulk Modulus (GPa) = 26.06128 72.59471 49.32799
# Shear Modulus (GPa) = 12.69514 26.33198 19.51356
#
# Velocity S-wave (km/s) = 2.58774 3.72687 3.20827
# Velocity P-wave (km/s) = 4.76186 7.53734 6.30424
#
# Compressibility (1/GPa) = 0.03837110
#
# Stress axis : x y z
#
# Youngs Moduli (GPa) = 41.08314 37.06289 56.60279
#
# Poissons Ratio (x) = 0.30134 0.28337
# Poissons Ratio (y) = 0.33402 0.12296
# Poissons Ratio (z) = 0.20567 0.08051
#
# Static dielectric constant tensor:
#      x y z
#    x 1.684850 0.000000 -0.016510 
#    y 0.000000 1.637830 0.000000 
#    z -0.016510 0.000000 1.685020 
# 
# From -- ./inp_files/42663.got.cif
#   From: 2010.05.17/outbox.cif.g08.bks.cpg/sg10_22_cif.got.tgz:42663.got - 2010.06.03 11:33:40.
