data_PCOD9145830
_publ_section_title
;
Structure prediction by ZEFSAII (Michael W. Deem and Ramdas Pophale) SiO2 
 PCOD9145830
Probable space group: P 2/M
;
_chemical_formula_sum "Si O2"
_cell_formula_units_Z 24
_cell_length_a 23.644184
_cell_length_b 8.262245
_cell_length_c 12.428206
_cell_angle_alpha 90.000000
_cell_angle_beta 26.942216
_cell_angle_gamma 90.000000
_cell_volume 1100.061386
_symmetry_space_group_name_H-M "P 2/M"
_symmetry_group_IT_number 10
_symmetry_cell_setting 'monoclinic'
loop_
_space_group_symop_operation_xyz
x,y,z
-x,y,-z
-x,-y,-z
x,-y,z
loop_
_atom_site_type_symbol
_atom_site_label
_atom_site_fract_x
_atom_site_fract_y
_atom_site_fract_z
Si Si1 0.851847 0.314856 0.723604
Si Si2 0.814477 0.194529 0.019416
Si Si3 0.687163 0.315727 0.648183
Si Si4 0.529432 0.811619 0.109976
Si Si5 0.550350 0.197790 0.530027
Si Si6 0.908691 0.191264 0.398201
O O1 0.812266 0.500000 0.776123
O O2 0.793393 0.239290 0.929913
O O3 0.843226 0.222288 0.625377
O O4 0.000000 0.313636 0.500000
O O5 0.949466 0.255230 0.830108
O O6 0.820059 0.000000 0.014304
O O7 0.694944 0.249503 0.289464
O O8 0.677713 0.500000 0.628351
O O9 0.613563 0.203422 0.689299
O O10 0.827274 0.270347 0.442676
O O11 0.610331 0.290439 0.889678
O O12 0.529412 0.751000 0.231960
O O13 0.567765 0.000000 0.038107
O O14 0.500000 0.250169 0.500000
O O15 0.547808 0.000000 0.536677
O O16 0.912217 0.000000 0.373991
#
# Coordination Sequence:
#
# PCOD9145830 Si02
#       6
#     4   4   4   4   4   4
#     4   9  17  29  46  73 110 146 178 219 270 321
#     4   9  18  33  53  79 111 146 184 226 273 327
#     4  11  22  37  58  82 112 145 184 235 284 325
#     4  10  20  37  60  85 112 145 186 227 273 331
#     4   9  19  35  57  85 114 145 182 226 273 327
#     4  10  19  32  53  80 108 143 188 231 274 327
#
# _framework density 21.816963000000001
#
# number of rings (size 3 to 8) (size 9 to 14) (size 15 to 20)
#    0.000    2.333    0.000    4.000    2.333    2.667 
#    0.000    2.500    0.000    7.500    0.000    0.000 
#    0.000    0.000    0.000    0.000    0.000    0.000 
#
# Total GULP energy -134024.203168 kJ/mol
# GULP energy per Si atom -5584.341799 kJ/mol
# Density = 2.176731 g / cm^3
# Si number density = 21.816963 Si / 1000 Ang^3
#
#
#
# Elastic Constant Matrix: (Units=GPa)
#
#
# Indices 1 2 3 4 5 6 
#
# 1 75.4074 -8.0402 5.0442 0.0000 -12.3090 0.0000
# 2 -8.0402 38.1568 -8.5104 0.0000 -6.3247 0.0000
# 3 5.0442 -8.5104 47.4650 0.0000 -2.8484 0.0000
# 4 0.0000 0.0000 0.0000 -11.4947 0.0000 -58.9871
# 5 -12.3090 -6.3247 -2.8484 0.0000 32.1284 0.0000
# 6 0.0000 0.0000 0.0000 -58.9871 0.0000 -127.5207
#
#
#
# Elastic Compliance Matrix: (Units=1/GPa)
#
#
# Indices 1 2 3 4 5 6 
#
# 1 0.014775 0.004077 -0.000454 0.000000 0.006423 0.000000
# 2 0.004077 0.029559 0.005338 0.000000 0.007854 0.000000
# 3 -0.000454 0.005338 0.022244 0.000000 0.002849 0.000000
# 4 0.000000 0.000000 0.000000 0.063328 0.000000 -0.029293
# 5 0.006423 0.007854 0.002849 0.000000 0.035384 0.000000
# 6 0.000000 0.000000 0.000000 -0.029293 0.000000 0.005708
#
#
# Mechanical properties :
#
#
# Convention : Reuss Voigt Hill
#
# Bulk Modulus (GPa) = 11.83435 15.33517 13.58476
# Shear Modulus (GPa) = 27.58718 -9.87504 8.85607
#
# Velocity S-wave (km/s) = 3.55981 -2.12982 2.01695
# Velocity P-wave (km/s) = 4.72573 0.99804 3.41531
#
# Compressibility (1/GPa) = 0.08449979
#
# Stress axis : x y z
#
# Youngs Moduli (GPa) = 67.68312 33.83061 44.95507
#
# Poissons Ratio (x) = -0.13791 0.02040
# Poissons Ratio (y) = -0.27592 -0.23997
# Poissons Ratio (z) = 0.03071 -0.18059
#
# Static dielectric constant tensor:
#      x y z
#    x 1.821540 0.000000 -0.046610 
#    y 0.000000 1.743270 0.000000 
#    z -0.046610 0.000000 1.833550 
# 
# From -- ./inp_files/56551.got.cif
#   From: 2010.05.17/outbox.cif.g08.bks.cpg/sg10_29_cif.got.tgz:56551.got - 2010.06.03 11:33:40.
