data_PCOD9145492
_publ_section_title
;
Structure prediction by ZEFSAII (Michael W. Deem and Ramdas Pophale) SiO2 
 PCOD9145492
Probable space group: P 2/M
;
_chemical_formula_sum "Si O2"
_cell_formula_units_Z 32
_cell_length_a 28.332897
_cell_length_b 7.551034
_cell_length_c 22.659364
_cell_angle_alpha 90.000000
_cell_angle_beta 19.214251
_cell_angle_gamma 90.000000
_cell_volume 1595.419970
_symmetry_space_group_name_H-M "P 2/M"
_symmetry_group_IT_number 10
_symmetry_cell_setting 'monoclinic'
loop_
_space_group_symop_operation_xyz
x,y,z
-x,y,-z
-x,-y,-z
x,-y,z
loop_
_atom_site_type_symbol
_atom_site_label
_atom_site_fract_x
_atom_site_fract_y
_atom_site_fract_z
Si Si1 0.185903 0.783549 0.724347
Si Si2 0.728995 0.713696 0.716014
Si Si3 0.322347 0.795089 0.996907
Si Si4 0.131566 0.213937 0.923254
Si Si5 0.035747 0.792773 0.393058
Si Si6 0.408561 0.294597 0.663033
Si Si7 0.526333 0.714560 0.063692
Si Si8 0.509758 0.205008 0.671332
O O1 0.182891 0.730969 0.796963
O O2 0.329939 0.718484 0.523200
O O3 0.188359 0.000000 0.721672
O O4 0.034013 0.729835 0.875824
O O5 0.732000 0.500000 0.712362
O O6 0.626341 0.769378 0.783456
O O7 0.890774 0.779159 0.526631
O O8 0.646805 0.767924 0.873262
O O9 0.431754 0.787232 0.922521
O O10 0.400971 0.714468 0.847295
O O11 0.289003 0.000000 0.021163
O O12 0.173913 0.714938 0.196882
O O13 0.243339 0.280210 0.839260
O O14 0.134553 0.000000 0.921119
O O15 0.000000 0.714715 0.500000
O O16 0.069940 0.000000 0.362928
O O17 0.500000 0.219136 0.500000
O O18 0.449045 0.500000 0.621388
O O19 0.444731 0.208672 0.682523
O O20 0.527980 0.500000 0.064686
O O21 0.529279 0.000000 0.666212
#
# Coordination Sequence:
#
# PCOD9145492 Si02
#       8
#     4   4   4   4   4   4   4   4
#     4   8  15  29  52  79  99 123 166 214 251 294
#     4   9  18  32  52  78 102 131 174 214 251 303
#     4  10  21  35  52  77 105 136 174 211 258 314
#     4   9  16  30  54  79 100 126 167 212 254 298
#     4  10  19  32  50  76 108 136 167 216 265 302
#     4  11  22  34  50  78 110 137 170 212 256 305
#     4   9  18  33  52  75 103 132 169 215 256 302
#     4  10  20  36  56  75 101 138 176 212 253 309
#
# _framework density 20.057414999999999
#
# number of rings (size 3 to 8) (size 9 to 14) (size 15 to 20)
#    0.000    2.500    2.500    1.875    0.000    2.250 
#    0.000    4.375    0.000    6.000    0.000    0.000 
#    0.000    0.000    0.000    0.000    0.000    0.000 
#
# Total GULP energy -178534.170604 kJ/mol
# GULP energy per Si atom -5579.192831 kJ/mol
# Density = 2.001176 g / cm^3
# Si number density = 20.057415 Si / 1000 Ang^3
#
#
#
# Elastic Constant Matrix: (Units=GPa)
#
#
# Indices 1 2 3 4 5 6 
#
# 1 85.7025 -10.3330 75.4950 0.0000 -2.4700 0.0000
# 2 -10.3330 48.9030 4.9599 0.0000 6.6770 0.0000
# 3 75.4950 4.9599 184.0613 0.0000 2.3267 0.0000
# 4 0.0000 0.0000 0.0000 -3.5351 0.0000 -16.6576
# 5 -2.4700 6.6770 2.3267 0.0000 30.8705 0.0000
# 6 0.0000 0.0000 0.0000 -16.6576 0.0000 34.3026
#
#
#
# Elastic Compliance Matrix: (Units=1/GPa)
#
#
# Indices 1 2 3 4 5 6 
#
# 1 0.019418 0.004770 -0.008107 0.000000 0.001133 0.000000
# 2 0.004770 0.022291 -0.002504 0.000000 -0.004251 0.000000
# 3 -0.008107 -0.002504 0.008836 0.000000 -0.000773 0.000000
# 4 0.000000 0.000000 0.000000 -0.086028 0.000000 -0.041776
# 5 0.001133 -0.004251 -0.000773 0.000000 0.033462 0.000000
# 6 0.000000 0.000000 0.000000 -0.041776 0.000000 0.008866
#
#
# Mechanical properties :
#
#
# Convention : Reuss Voigt Hill
#
# Bulk Modulus (GPa) = 25.73115 50.99007 38.36061
# Shear Modulus (GPa) = 158.83384 28.89725 93.86554
#
# Velocity S-wave (km/s) = 8.90851 3.79981 6.84836
# Velocity P-wave (km/s) = 10.89366 6.68795 9.03882
#
# Compressibility (1/GPa) = 0.03886340
#
# Stress axis : x y z
#
# Youngs Moduli (GPa) = 51.49916 44.86121 113.17943
#
# Poissons Ratio (x) = -0.21401 0.91758
# Poissons Ratio (y) = -0.24568 0.28336
# Poissons Ratio (z) = 0.41752 0.11232
#
# Static dielectric constant tensor:
#      x y z
#    x 1.676140 0.000000 0.000250 
#    y 0.000000 1.746320 0.000000 
#    z 0.000250 0.000000 1.740080 
# 
# From -- ./inp_files/86871.got.cif
#   From: 2010.05.17/outbox.cif.g08.bks.cpg/sg10_44_cif.got.tgz:86871.got - 2010.06.03 11:33:40.
