data_PCOD9145460
_publ_section_title
;
Structure prediction by ZEFSAII (Michael W. Deem and Ramdas Pophale) SiO2 
 PCOD9145460
Probable space group: P 2/M
;
_chemical_formula_sum "Si O2"
_cell_formula_units_Z 32
_cell_length_a 16.531983
_cell_length_b 7.865359
_cell_length_c 12.606276
_cell_angle_alpha 90.000000
_cell_angle_beta 80.859538
_cell_angle_gamma 90.000000
_cell_volume 1618.379136
_symmetry_space_group_name_H-M "P 2/M"
_symmetry_group_IT_number 10
_symmetry_cell_setting 'monoclinic'
loop_
_space_group_symop_operation_xyz
x,y,z
-x,y,-z
-x,-y,-z
x,-y,z
loop_
_atom_site_type_symbol
_atom_site_label
_atom_site_fract_x
_atom_site_fract_y
_atom_site_fract_z
Si Si1 0.148567 0.299596 0.085546
Si Si2 0.806249 0.800033 0.306309
Si Si3 0.064754 0.303641 0.392240
Si Si4 0.728184 0.297728 0.117802
Si Si5 0.979923 0.805551 0.197180
Si Si6 0.593549 0.794135 0.980434
Si Si7 0.232411 0.196411 0.454499
Si Si8 0.717217 0.203922 0.774939
O O1 0.160299 0.500000 0.082083
O O2 0.051757 0.265932 0.107438
O O3 0.197588 0.236472 0.179663
O O4 0.198428 0.230100 0.974034
O O5 0.737967 0.782413 0.230884
O O6 0.777641 0.726725 0.425703
O O7 0.890221 0.725622 0.237093
O O8 0.824376 0.000000 0.322403
O O9 0.085886 0.500000 0.357563
O O10 0.022808 0.211095 0.302968
O O11 0.142200 0.206770 0.422642
O O12 0.000000 0.312653 0.500000
O O13 0.736680 0.500000 0.127895
O O14 0.644897 0.259269 0.072810
O O15 0.968033 0.000000 0.167290
O O16 0.645828 0.732701 0.867789
O O17 0.593433 0.000000 0.977215
O O18 0.500000 0.735199 0.000000
O O19 0.283961 0.272522 0.345227
O O20 0.258499 0.000000 0.463012
O O21 0.709881 0.000000 0.768483
#
# Coordination Sequence:
#
# PCOD9145460 Si02
#       8
#     4   4   4   4   4   4   4   4
#     4  10  20  33  49  72 101 134 174 222 270 307
#     4  10  22  36  50  70 100 141 184 221 256 302
#     4  11  21  30  44  69 100 136 179 227 267 302
#     4  10  22  38  55  76 105 137 171 213 259 316
#     4  11  21  32  48  70  98 137 183 227 265 303
#     4   9  18  35  61  89 111 130 159 203 255 315
#     4  10  19  32  50  72 101 137 178 219 258 304
#     4   9  17  30  52  80 106 134 166 207 262 311
#
# _framework density 19.772870999999999
#
# number of rings (size 3 to 8) (size 9 to 14) (size 15 to 20)
#    0.000    2.000    2.500    1.500    0.000    4.250 
#    0.000    2.500    0.000    0.750    0.000    5.250 
#    0.000    0.000    0.000    0.000    0.000    0.000 
#
# Total GULP energy -178443.321217 kJ/mol
# GULP energy per Si atom -5576.353788 kJ/mol
# Density = 1.972787 g / cm^3
# Si number density = 19.772871 Si / 1000 Ang^3
#
#
#
# Elastic Constant Matrix: (Units=GPa)
#
#
# Indices 1 2 3 4 5 6 
#
# 1 92.4567 -3.7253 59.7689 0.0000 -6.5373 0.0000
# 2 -3.7253 29.2757 -5.6495 0.0000 -4.8027 0.0000
# 3 59.7689 -5.6495 110.8924 0.0000 9.0367 0.0000
# 4 0.0000 0.0000 0.0000 33.8936 0.0000 12.6178
# 5 -6.5373 -4.8027 9.0367 0.0000 18.8391 0.0000
# 6 0.0000 0.0000 0.0000 12.6178 0.0000 19.2395
#
#
#
# Elastic Compliance Matrix: (Units=1/GPa)
#
#
# Indices 1 2 3 4 5 6 
#
# 1 0.018999 0.002323 -0.011143 0.000000 0.012530 0.000000
# 2 0.002323 0.036067 -0.000239 0.000000 0.010115 0.000000
# 3 -0.011143 -0.000239 0.015955 0.000000 -0.011581 0.000000
# 4 0.000000 0.000000 0.000000 0.039034 0.000000 -0.025600
# 5 0.012530 0.010115 -0.011581 0.000000 0.065563 0.000000
# 6 0.000000 0.000000 0.000000 -0.025600 0.000000 0.068765
#
#
# Mechanical properties :
#
#
# Convention : Reuss Voigt Hill
#
# Bulk Modulus (GPa) = 18.90239 37.04587 27.97413
# Shear Modulus (GPa) = 17.84859 26.54314 22.19586
#
# Velocity S-wave (km/s) = 3.00772 3.66786 3.35407
# Velocity P-wave (km/s) = 4.65214 6.05920 5.40168
#
# Compressibility (1/GPa) = 0.05290335
#
# Stress axis : x y z
#
# Youngs Moduli (GPa) = 52.63565 27.72621 62.67660
#
# Poissons Ratio (x) = -0.06440 0.69838
# Poissons Ratio (y) = -0.12226 0.01497
# Poissons Ratio (z) = 0.58650 0.00662
#
# Static dielectric constant tensor:
#      x y z
#    x 1.685750 0.000000 -0.054870 
#    y 0.000000 1.725580 0.000000 
#    z -0.054870 0.000000 1.752530 
# 
# From -- ./inp_files/49769.got.cif
#   From: 2010.05.17/outbox.cif.g08.bks.cpg/sg10_25_cif.got.tgz:49769.got - 2010.06.03 11:33:40.
