data_PCOD9145998
_publ_section_title
;
Structure prediction by ZEFSAII (Michael W. Deem and Ramdas Pophale) SiO2 
 PCOD9145998
Probable space group: P 2/M
;
_chemical_formula_sum "Si O2"
_cell_formula_units_Z 32
_cell_length_a 12.651424
_cell_length_b 8.530824
_cell_length_c 21.162369
_cell_angle_alpha 90.000000
_cell_angle_beta 51.908459
_cell_angle_gamma 90.000000
_cell_volume 1797.561744
_symmetry_space_group_name_H-M "P 2/M"
_symmetry_group_IT_number 10
_symmetry_cell_setting 'monoclinic'
loop_
_space_group_symop_operation_xyz
x,y,z
-x,y,-z
-x,-y,-z
x,-y,z
loop_
_atom_site_type_symbol
_atom_site_label
_atom_site_fract_x
_atom_site_fract_y
_atom_site_fract_z
Si Si1 0.930898 0.189037 0.712070
Si Si2 0.650502 0.189191 0.764721
Si Si3 0.356307 0.688903 0.374878
Si Si4 0.341892 0.312192 0.741944
Si Si5 0.918080 0.310844 0.466708
Si Si6 0.080091 0.312887 0.033874
Si Si7 0.073012 0.187551 0.787695
Si Si8 0.651704 0.812165 0.117994
O O1 0.776932 0.243296 0.759311
O O2 0.014142 0.239882 0.619948
O O3 0.000877 0.244644 0.750465
O O4 0.928159 0.000000 0.715259
O O5 0.669595 0.247695 0.686010
O O6 0.501198 0.238069 0.841085
O O7 0.650488 0.000000 0.763569
O O8 0.351259 0.500000 0.373434
O O9 0.508654 0.733406 0.336230
O O10 0.236071 0.739282 0.464945
O O11 0.336730 0.500000 0.750570
O O12 0.221366 0.256743 0.742474
O O13 0.324005 0.238578 0.818241
O O14 0.922919 0.500000 0.459644
O O15 0.000000 0.267933 0.500000
O O16 0.067751 0.500000 0.043651
O O17 0.013626 0.236302 0.119466
O O18 0.233971 0.264410 0.966744
O O19 0.000000 0.263155 0.000000
O O20 0.082830 0.000000 0.782039
O O21 0.661127 0.000000 0.110049
#
# Coordination Sequence:
#
# PCOD9145998 Si02
#       8
#     4   4   4   4   4   4   4   4
#     4  10  22  38  55  79 111 146 181 220 268 320
#     4   9  18  33  53  79 109 140 176 216 266 318
#     4   9  18  32  52  80 110 138 175 222 269 315
#     4  10  19  33  53  78 109 142 176 220 270 317
#     4  10  19  33  55  83 110 140 182 225 265 316
#     4  11  22  36  56  82 109 139 179 223 266 317
#     4  11  23  38  56  78 108 145 183 221 266 321
#     4  10  19  32  55  83 108 137 174 220 267 315
#
# _framework density 17.801891000000001
#
# number of rings (size 3 to 8) (size 9 to 14) (size 15 to 20)
#    0.000    2.000    2.500    1.500    0.000    3.250 
#    0.000    1.250    0.000    7.500    0.000    0.000 
#    0.000    0.000    0.000    0.000    0.000    0.000 
#
# Total GULP energy -178574.179870 kJ/mol
# GULP energy per Si atom -5580.443121 kJ/mol
# Density = 1.776137 g / cm^3
# Si number density = 17.801891 Si / 1000 Ang^3
#
#
#
# Elastic Constant Matrix: (Units=GPa)
#
#
# Indices 1 2 3 4 5 6 
#
# 1 150.0269 9.5535 61.8365 0.0000 -13.5814 0.0000
# 2 9.5535 4.6066 1.1744 0.0000 -1.0474 0.0000
# 3 61.8365 1.1744 80.6156 0.0000 -12.8940 0.0000
# 4 0.0000 0.0000 0.0000 30.6476 0.0000 2.9258
# 5 -13.5814 -1.0474 -12.8940 0.0000 30.9196 0.0000
# 6 0.0000 0.0000 0.0000 2.9258 0.0000 28.0692
#
#
#
# Elastic Compliance Matrix: (Units=1/GPa)
#
#
# Indices 1 2 3 4 5 6 
#
# 1 0.011610 -0.021732 -0.008455 0.000000 0.000838 0.000000
# 2 -0.021732 0.259791 0.013678 0.000000 0.004959 0.000000
# 3 -0.008455 0.013678 0.019469 0.000000 0.004869 0.000000
# 4 0.000000 0.000000 0.000000 0.032957 0.000000 -0.003435
# 5 0.000838 0.004959 0.004869 0.000000 0.034908 0.000000
# 6 0.000000 0.000000 0.000000 -0.003435 0.000000 0.035984
#
#
# Mechanical properties :
#
#
# Convention : Reuss Voigt Hill
#
# Bulk Modulus (GPa) = 3.87818 42.26421 23.07119
# Shear Modulus (GPa) = 9.73352 28.77293 19.25322
#
# Velocity S-wave (km/s) = 2.34085 4.02467 3.29223
# Velocity P-wave (km/s) = 3.08048 6.73723 5.23830
#
# Compressibility (1/GPa) = 0.25785305
#
# Stress axis : x y z
#
# Youngs Moduli (GPa) = 86.13230 3.84924 51.36265
#
# Poissons Ratio (x) = 0.08365 0.43427
# Poissons Ratio (y) = 1.87183 -0.70255
# Poissons Ratio (z) = 0.72825 -0.05265
#
# Static dielectric constant tensor:
#      x y z
#    x 1.622880 0.000000 -0.036640 
#    y 0.000000 1.605920 0.000000 
#    z -0.036640 0.000000 1.586270 
# 
# From -- ./inp_files/49870.got.cif
#   From: 2010.05.17/outbox.cif.g08.bks.cpg/sg10_25_cif.got.tgz:49870.got - 2010.06.03 11:33:40.
