data_PCOD9145740
_publ_section_title
;
Structure prediction by ZEFSAII (Michael W. Deem and Ramdas Pophale) SiO2 
 PCOD9145740
Probable space group: P 2/M
;
_chemical_formula_sum "Si O2"
_cell_formula_units_Z 28
_cell_length_a 15.085613
_cell_length_b 21.214070
_cell_length_c 8.877306
_cell_angle_alpha 90.000000
_cell_angle_beta 151.938187
_cell_angle_gamma 90.000000
_cell_volume 1336.464665
_symmetry_space_group_name_H-M "P 2/M"
_symmetry_group_IT_number 10
_symmetry_cell_setting 'monoclinic'
loop_
_space_group_symop_operation_xyz
x,y,z
-x,y,-z
-x,-y,-z
x,-y,z
loop_
_atom_site_type_symbol
_atom_site_label
_atom_site_fract_x
_atom_site_fract_y
_atom_site_fract_z
Si Si1 0.337678 0.330996 0.880760
Si Si2 0.212357 0.198869 0.750723
Si Si3 0.683124 0.571598 0.879054
Si Si4 0.958701 0.340066 0.116644
Si Si5 0.952346 0.797618 0.102002
Si Si6 0.672704 0.068879 0.142113
Si Si7 0.061223 0.067484 0.916110
O O1 0.326163 0.262707 0.945586
O O2 0.146611 0.338467 0.498636
O O3 0.500000 0.332325 0.000000
O O4 0.350080 0.385318 0.024046
O O5 0.313159 0.132714 0.932995
O O6 0.000000 0.201357 0.500000
O O7 0.155573 0.199349 0.489144
O O8 0.500000 0.569816 0.500000
O O9 0.734432 0.500000 0.998382
O O10 0.837148 0.604782 0.004948
O O11 0.864852 0.270717 0.003188
O O12 0.000000 0.347196 0.000000
O O13 0.849217 0.863851 0.980886
O O14 0.000000 0.796680 0.000000
O O15 0.871468 0.066446 0.530355
O O16 0.652642 0.000000 0.036175
O O17 0.500000 0.074636 0.000000
O O18 0.160231 0.000000 0.038164
O O19 0.000000 0.067884 0.000000
#
# Coordination Sequence:
#
# PCOD9145740 Si02
#       7
#     4   4   4   4   4   4   4
#     4  11  22  38  62  89 118 154 196 241 291 348
#     4  10  19  32  52  80 113 146 187 237 287 338
#     4  11  25  44  64  88 118 150 188 236 290 350
#     4  10  20  37  61  89 121 156 193 236 286 344
#     4   8  15  28  48  74 105 139 180 226 270 322
#     4   9  17  29  46  72 107 145 186 233 283 334
#     4   8  13  23  42  68  97 133 178 224 267 313
#
# _framework density 20.950797999999999
#
# number of rings (size 3 to 8) (size 9 to 14) (size 15 to 20)
#    0.000    2.429    0.000    3.429    0.000    2.000 
#    0.000    1.429    0.000    0.000    0.000    0.000 
#    0.000   53.714    0.000    0.000    0.000    0.000 
#
# Total GULP energy -155974.427559 kJ/mol
# GULP energy per Si atom -5570.515270 kJ/mol
# Density = 2.090311 g / cm^3
# Si number density = 20.950798 Si / 1000 Ang^3
#
#
#
# Elastic Constant Matrix: (Units=GPa)
#
#
# Indices 1 2 3 4 5 6 
#
# 1 109.1401 81.4051 16.7239 0.0000 2.4222 0.0000
# 2 81.4051 262.5078 26.7009 0.0000 12.0633 0.0000
# 3 16.7239 26.7009 27.4921 0.0000 -3.3303 0.0000
# 4 0.0000 0.0000 0.0000 54.7106 0.0000 -48.9523
# 5 2.4222 12.0633 -3.3303 0.0000 27.3506 0.0000
# 6 0.0000 0.0000 0.0000 -48.9523 0.0000 91.6637
#
#
#
# Elastic Compliance Matrix: (Units=1/GPa)
#
#
# Indices 1 2 3 4 5 6 
#
# 1 0.012343 -0.003393 -0.004227 0.000000 -0.000111 0.000000
# 2 -0.003393 0.005321 -0.003402 0.000000 -0.002460 0.000000
# 3 -0.004227 -0.003402 0.043112 0.000000 0.007124 0.000000
# 4 0.000000 0.000000 0.000000 0.035004 0.000000 0.018694
# 5 -0.000111 -0.002460 0.007124 0.000000 0.038525 0.000000
# 6 0.000000 0.000000 0.000000 0.018694 0.000000 0.020893
#
#
# Mechanical properties :
#
#
# Convention : Reuss Voigt Hill
#
# Bulk Modulus (GPa) = 25.81759 72.08886 48.95322
# Shear Modulus (GPa) = 26.29477 53.03232 39.66355
#
# Velocity S-wave (km/s) = 3.54654 5.03664 4.35578
# Velocity P-wave (km/s) = 5.39633 8.26480 6.97952
#
# Compressibility (1/GPa) = 0.03873329
#
# Stress axis : x y z
#
# Youngs Moduli (GPa) = 81.01620 187.95048 23.19520
#
# Poissons Ratio (x) = 0.63764 0.09805
# Poissons Ratio (y) = 0.27486 0.07890
# Poissons Ratio (z) = 0.34246 0.63935
#
# Static dielectric constant tensor:
#      x y z
#    x 1.720790 0.000000 -0.169840 
#    y 0.000000 1.865900 0.000000 
#    z -0.169840 0.000000 1.476500 
# 
# From -- ./inp_files/30483.got.cif
#   From: 2010.05.17/outbox.cif.g08.bks.cpg/sg10_16_cif.got.tgz:30483.got - 2010.06.03 11:33:40.
