data_PCOD9145026
_publ_section_title
;
Structure prediction by ZEFSAII (Michael W. Deem and Ramdas Pophale) SiO2 
 PCOD9145026
Probable space group: P 2/M
;
_chemical_formula_sum "Si O2"
_cell_formula_units_Z 26
_cell_length_a 24.648590
_cell_length_b 13.446992
_cell_length_c 22.615516
_cell_angle_alpha 90.000000
_cell_angle_beta 168.548099
_cell_angle_gamma 90.000000
_cell_volume 1488.275009
_symmetry_space_group_name_H-M "P 2/M"
_symmetry_group_IT_number 10
_symmetry_cell_setting 'monoclinic'
loop_
_space_group_symop_operation_xyz
x,y,z
-x,y,-z
-x,-y,-z
x,-y,z
loop_
_atom_site_type_symbol
_atom_site_label
_atom_site_fract_x
_atom_site_fract_y
_atom_site_fract_z
Si Si1 0.373021 0.885440 0.734887
Si Si2 0.004265 0.118618 0.773510
Si Si3 0.194501 0.391645 0.650737
Si Si4 0.400405 0.119422 0.552256
Si Si5 0.308951 0.500000 0.353360
Si Si6 0.974080 0.188265 0.401180
Si Si7 0.309296 0.280094 0.353908
O O1 0.181512 0.842200 0.478361
O O2 0.187497 0.882011 0.595550
O O3 0.442645 0.000000 0.795113
O O4 0.661001 0.831021 0.050420
O O5 0.850110 0.135517 0.670603
O O6 0.014262 0.000000 0.774258
O O7 0.318332 0.149309 0.114338
O O8 0.198349 0.500000 0.625055
O O9 0.000000 0.398924 0.500000
O O10 0.074657 0.297857 0.488979
O O11 0.500000 0.369703 0.000000
O O12 0.367019 0.189987 0.460145
O O13 0.413423 0.000000 0.552164
O O14 0.500000 0.500000 0.500000
O O15 0.351892 0.390865 0.428046
O O16 0.000000 0.500000 0.000000
O O17 0.000000 0.179278 0.500000
O O18 0.500000 0.272609 0.500000
O O19 0.000000 0.274069 0.000000
#
# Coordination Sequence:
#
# PCOD9145026 Si02
#       7
#     4   4   4   4   2   4   4
#     4  11  22  35  51  71 100 137 171 205 245 296
#     4   9  19  35  51  69  92 128 179 210 232 283
#     4   9  17  31  50  71  95 122 156 196 238 294
#     4  10  19  32  51  74  99 129 167 213 251 289
#     4   8  16  30  46  68 100 134 168 196 223 284
#     4  11  21  33  50  77 103 127 161 203 259 316
#     4  10  19  31  49  76 106 134 163 200 249 297
#
# _framework density 17.469889999999999
#
# number of rings (size 3 to 8) (size 9 to 14) (size 15 to 20)
#    0.000    2.154    0.000    4.615    0.000    4.923 
#    0.000    0.000    0.000    0.000   12.000    0.000 
#    0.000    0.000    0.000    0.000    0.000    0.000 
#
# Total GULP energy -144842.551123 kJ/mol
# GULP energy per Si atom -5570.867351 kJ/mol
# Density = 1.743013 g / cm^3
# Si number density = 17.469890 Si / 1000 Ang^3
#
#
#
# Elastic Constant Matrix: (Units=GPa)
#
#
# Indices 1 2 3 4 5 6 
#
# 1 30.3576 16.9071 16.2422 0.0000 2.4934 0.0000
# 2 16.9071 77.9621 10.3412 0.0000 -10.3798 0.0000
# 3 16.2422 10.3412 77.9633 0.0000 19.8608 0.0000
# 4 0.0000 0.0000 0.0000 16.0660 0.0000 5.4679
# 5 2.4934 -10.3798 19.8608 0.0000 30.1389 0.0000
# 6 0.0000 0.0000 0.0000 5.4679 0.0000 -6.6852
#
#
#
# Elastic Compliance Matrix: (Units=1/GPa)
#
#
# Indices 1 2 3 4 5 6 
#
# 1 0.041494 -0.008258 -0.007150 0.000000 -0.001565 0.000000
# 2 -0.008258 0.015963 -0.002369 0.000000 0.007742 0.000000
# 3 -0.007150 -0.002369 0.017651 0.000000 -0.011856 0.000000
# 4 0.000000 0.000000 0.000000 0.048689 0.000000 0.039824
# 5 -0.001565 0.007742 -0.011856 0.000000 0.043788 0.000000
# 6 0.000000 0.000000 0.000000 0.039824 0.000000 -0.117012
#
#
# Mechanical properties :
#
#
# Convention : Reuss Voigt Hill
#
# Bulk Modulus (GPa) = 25.28338 30.36268 27.82303
# Shear Modulus (GPa) = 50.34579 17.42346 33.88462
#
# Velocity S-wave (km/s) = 5.37412 3.16150 4.40887
# Velocity P-wave (km/s) = 7.28095 5.54477 6.47135
#
# Compressibility (1/GPa) = 0.03955168
#
# Stress axis : x y z
#
# Youngs Moduli (GPa) = 24.09970 62.64611 56.65525
#
# Poissons Ratio (x) = 0.51736 0.40511
# Poissons Ratio (y) = 0.19903 0.13422
# Poissons Ratio (z) = 0.17232 0.14841
#
# Static dielectric constant tensor:
#      x y z
#    x 1.538160 0.000000 -0.051570 
#    y 0.000000 1.667500 0.000000 
#    z -0.051570 0.000000 1.539960 
# 
# From -- ./inp_files/86625.got.cif
#   From: 2010.05.17/outbox.cif.g08.bks.cpg/sg10_44_cif.got.tgz:86625.got - 2010.06.03 11:33:40.
