data_PCOD9145050
_publ_section_title
;
Structure prediction by ZEFSAII (Michael W. Deem and Ramdas Pophale) SiO2 
 PCOD9145050
Probable space group: P 2/M
;
_chemical_formula_sum "Si O2"
_cell_formula_units_Z 32
_cell_length_a 24.542536
_cell_length_b 9.492128
_cell_length_c 11.413997
_cell_angle_alpha 90.000000
_cell_angle_beta 133.535455
_cell_angle_gamma 90.000000
_cell_volume 1927.648288
_symmetry_space_group_name_H-M "P 2/M"
_symmetry_group_IT_number 10
_symmetry_cell_setting 'monoclinic'
loop_
_space_group_symop_operation_xyz
x,y,z
-x,y,-z
-x,-y,-z
x,-y,z
loop_
_atom_site_type_symbol
_atom_site_label
_atom_site_fract_x
_atom_site_fract_y
_atom_site_fract_z
Si Si1 0.413611 0.662703 0.861603
Si Si2 0.352004 0.662401 0.032082
Si Si3 0.779493 0.167642 0.061949
Si Si4 0.513202 0.164182 0.657626
Si Si5 0.047559 0.172055 0.955536
Si Si6 0.956914 0.169908 0.319154
Si Si7 0.359700 0.830573 0.567273
Si Si8 0.220466 0.829471 0.205980
O O1 0.415912 0.500000 0.823527
O O2 0.368895 0.757838 0.705170
O O3 0.500000 0.711987 0.000000
O O4 0.376757 0.666466 0.933938
O O5 0.345472 0.500000 0.059155
O O6 0.417856 0.740622 0.200300
O O7 0.274317 0.743655 0.935719
O O8 0.868130 0.196389 0.205130
O O9 0.768226 0.000000 0.061933
O O10 0.758785 0.204070 0.897054
O O11 0.500000 0.174878 0.500000
O O12 0.435643 0.202635 0.607619
O O13 0.530175 0.000000 0.710490
O O14 0.023556 0.216813 0.786570
O O15 0.045846 0.000000 0.951143
O O16 0.134721 0.216410 0.100974
O O17 0.000000 0.216196 0.000000
O O18 0.000000 0.222577 0.500000
O O19 0.967165 0.000000 0.332234
O O20 0.285124 0.780793 0.389223
O O21 0.356036 0.000000 0.572416
O O22 0.218967 0.000000 0.210139
#
# Coordination Sequence:
#
# PCOD9145050 Si02
#       8
#     4   4   4   4   4   4   4   4
#     4  10  21  38  52  63  92 134 164 199 252 295
#     4  11  22  35  51  70  95 128 168 207 241 290
#     4   9  17  32  53  73 102 135 159 197 252 296
#     4  10  20  33  51  74  99 126 156 198 250 296
#     4   8  13  23  41  65  98 136 161 186 236 296
#     4   8  14  26  45  71 102 132 162 198 243 294
#     4  10  19  31  50  73  95 122 163 204 235 288
#     4   8  15  29  47  70 101 131 156 192 246 292
#
# _framework density 16.600539000000001
#
# number of rings (size 3 to 8) (size 9 to 14) (size 15 to 20)
#    0.000    2.750    1.250    2.625    0.000    3.500 
#    2.250    1.875    0.000    0.375    0.000    0.000 
#    0.000    3.000    0.000    0.000    0.000    0.000 
#
# Total GULP energy -178210.320407 kJ/mol
# GULP energy per Si atom -5569.072513 kJ/mol
# Density = 1.656276 g / cm^3
# Si number density = 16.600539 Si / 1000 Ang^3
#
#
#
# Elastic Constant Matrix: (Units=GPa)
#
#
# Indices 1 2 3 4 5 6 
#
# 1 89.7837 28.7187 33.1361 0.0000 -4.1258 0.0000
# 2 28.7187 26.0247 28.5306 0.0000 0.7745 0.0000
# 3 33.1361 28.5306 110.9730 0.0000 -5.4802 0.0000
# 4 0.0000 0.0000 0.0000 -10.9205 0.0000 -4.5211
# 5 -4.1258 0.7745 -5.4802 0.0000 11.9981 0.0000
# 6 0.0000 0.0000 0.0000 -4.5211 0.0000 11.4742
#
#
#
# Elastic Compliance Matrix: (Units=1/GPa)
#
#
# Indices 1 2 3 4 5 6 
#
# 1 0.017855 -0.020179 0.000229 0.000000 0.007547 0.000000
# 2 -0.020179 0.077501 -0.014824 0.000000 -0.018713 0.000000
# 3 0.000229 -0.014824 0.013101 0.000000 0.007020 0.000000
# 4 0.000000 0.000000 0.000000 -0.078728 0.000000 -0.031021
# 5 0.007547 -0.018713 0.007020 0.000000 0.090356 0.000000
# 6 0.000000 0.000000 0.000000 -0.031021 0.000000 0.074929
#
#
# Mechanical properties :
#
#
# Convention : Reuss Voigt Hill
#
# Bulk Modulus (GPa) = 25.70085 45.28357 35.49221
# Shear Modulus (GPa) = 18.01607 11.60341 14.80974
#
# Velocity S-wave (km/s) = 3.29792 2.64669 2.99009
# Velocity P-wave (km/s) = 5.47880 6.05620 5.77472
#
# Compressibility (1/GPa) = 0.03890922
#
# Stress axis : x y z
#
# Youngs Moduli (GPa) = 56.00800 12.90306 76.33270
#
# Poissons Ratio (x) = 0.26037 -0.01750
# Poissons Ratio (y) = 1.13018 1.13155
# Poissons Ratio (z) = -0.01284 0.19127
#
# Static dielectric constant tensor:
#      x y z
#    x 1.566710 0.000000 -0.001600 
#    y 0.000000 1.545530 0.000000 
#    z -0.001600 0.000000 1.559910 
# 
# From -- ./inp_files/56451.got.cif
#   From: 2010.05.17/outbox.cif.g08.bks.cpg/sg10_29_cif.got.tgz:56451.got - 2010.06.03 11:33:40.
