data_PCOD9145832
_publ_section_title
;
Structure prediction by ZEFSAII (Michael W. Deem and Ramdas Pophale) SiO2 
 PCOD9145832
Probable space group: P 2/M
;
_chemical_formula_sum "Si O2"
_cell_formula_units_Z 32
_cell_length_a 22.258570
_cell_length_b 9.475925
_cell_length_c 11.130509
_cell_angle_alpha 90.000000
_cell_angle_beta 132.260648
_cell_angle_gamma 90.000000
_cell_volume 1737.481904
_symmetry_space_group_name_H-M "P 2/M"
_symmetry_group_IT_number 10
_symmetry_cell_setting 'monoclinic'
loop_
_space_group_symop_operation_xyz
x,y,z
-x,y,-z
-x,-y,-z
x,-y,z
loop_
_atom_site_type_symbol
_atom_site_label
_atom_site_fract_x
_atom_site_fract_y
_atom_site_fract_z
Si Si1 0.501158 0.668939 0.644303
Si Si2 0.800450 0.831678 0.516085
Si Si3 0.086560 0.663752 0.806945
Si Si4 0.326970 0.662344 0.525714
Si Si5 0.253354 0.658550 0.169313
Si Si6 0.050424 0.668469 0.189566
Si Si7 0.341707 0.832491 0.095657
Si Si8 0.179292 0.832008 0.734280
O O1 0.500000 0.705888 0.500000
O O2 0.513412 0.500000 0.666709
O O3 0.415648 0.700198 0.593689
O O4 0.574271 0.750790 0.806289
O O5 0.713688 0.765111 0.433370
O O6 0.869013 0.759750 0.690252
O O7 0.823244 0.797381 0.409109
O O8 0.799156 0.000000 0.528783
O O9 0.079611 0.500000 0.761950
O O10 0.113703 0.753852 0.729036
O O11 0.006612 0.703740 0.772792
O O12 0.161023 0.673411 0.002473
O O13 0.329388 0.500000 0.572357
O O14 0.268940 0.665995 0.330651
O O15 0.280830 0.500000 0.167620
O O16 0.305525 0.776114 0.172685
O O17 0.068581 0.500000 0.216845
O O18 0.000000 0.694941 0.000000
O O19 0.353793 0.000000 0.112027
O O20 0.269523 0.796808 0.905486
O O21 0.168703 0.000000 0.734686
#
# Coordination Sequence:
#
# PCOD9145832 Si02
#       8
#     4   4   4   4   4   4   4   4
#     4  10  19  34  55  82 114 145 176 220 280 337
#     4  11  24  40  57  78 109 149 190 229 272 325
#     4   9  18  32  57  86 107 139 187 231 266 316
#     4  10  20  35  56  79 109 146 182 223 279 334
#     4   9  16  31  53  78 109 143 176 216 275 333
#     4  10  21  39  61  86 117 146 177 222 279 334
#     4  10  19  32  53  80 110 143 182 226 269 320
#     4   9  21  40  56  75 110 153 189 226 275 322
#
# _framework density 18.417458
#
# number of rings (size 3 to 8) (size 9 to 14) (size 15 to 20)
#    0.000    2.250    1.250    1.500    0.000    6.000 
#    0.000    5.625    0.000    3.750    0.000    0.000 
#    0.000    0.000    0.000    0.000    0.000    0.000 
#
# Total GULP energy -178549.866463 kJ/mol
# GULP energy per Si atom -5579.683327 kJ/mol
# Density = 1.837554 g / cm^3
# Si number density = 18.417458 Si / 1000 Ang^3
#
#
#
# Elastic Constant Matrix: (Units=GPa)
#
#
# Indices 1 2 3 4 5 6 
#
# 1 117.6211 56.5821 33.5195 0.0000 15.5243 0.0000
# 2 56.5821 48.4545 34.7187 0.0000 6.5996 0.0000
# 3 33.5195 34.7187 43.5462 0.0000 1.5464 0.0000
# 4 0.0000 0.0000 0.0000 7.5597 0.0000 -24.1151
# 5 15.5243 6.5996 1.5464 0.0000 21.6472 0.0000
# 6 0.0000 0.0000 0.0000 -24.1151 0.0000 -6.4897
#
#
#
# Elastic Compliance Matrix: (Units=1/GPa)
#
#
# Indices 1 2 3 4 5 6 
#
# 1 0.021396 -0.028941 0.006853 0.000000 -0.007011 0.000000
# 2 -0.028941 0.090587 -0.049829 0.000000 -0.003302 0.000000
# 3 0.006853 -0.049829 0.057196 0.000000 0.006190 0.000000
# 4 0.000000 0.000000 0.000000 0.010291 0.000000 -0.038242
# 5 -0.007011 -0.003302 0.006190 0.000000 0.051788 0.000000
# 6 0.000000 0.000000 0.000000 -0.038242 0.000000 -0.011988
#
#
# Mechanical properties :
#
#
# Convention : Reuss Voigt Hill
#
# Bulk Modulus (GPa) = 39.45269 51.02916 45.24092
# Shear Modulus (GPa) = 13.45709 10.19687 11.82698
#
# Velocity S-wave (km/s) = 2.70602 2.35553 2.53684
# Velocity P-wave (km/s) = 5.58849 5.93002 5.76179
#
# Compressibility (1/GPa) = 0.02534682
#
# Stress axis : x y z
#
# Youngs Moduli (GPa) = 46.73704 11.03917 17.48363
#
# Poissons Ratio (x) = 0.31949 -0.11982
# Poissons Ratio (y) = 1.35262 0.87119
# Poissons Ratio (z) = -0.32031 0.55007
#
# Static dielectric constant tensor:
#      x y z
#    x 1.639170 0.000000 0.011350 
#    y 0.000000 1.616860 0.000000 
#    z 0.011350 0.000000 1.644930 
# 
# From -- ./inp_files/55376.got.cif
#   From: 2010.05.17/outbox.cif.g08.bks.cpg/sg10_28_cif.got.tgz:55376.got - 2010.06.03 11:33:40.
