data_PCOD9145479
_publ_section_title
;
Structure prediction by ZEFSAII (Michael W. Deem and Ramdas Pophale) SiO2 
 PCOD9145479
Probable space group: P 2/M
;
_chemical_formula_sum "Si O2"
_cell_formula_units_Z 32
_cell_length_a 24.835869
_cell_length_b 7.378685
_cell_length_c 10.549472
_cell_angle_alpha 90.000000
_cell_angle_beta 50.420304
_cell_angle_gamma 90.000000
_cell_volume 1490.034879
_symmetry_space_group_name_H-M "P 2/M"
_symmetry_group_IT_number 10
_symmetry_cell_setting 'monoclinic'
loop_
_space_group_symop_operation_xyz
x,y,z
-x,y,-z
-x,-y,-z
x,-y,z
loop_
_atom_site_type_symbol
_atom_site_label
_atom_site_fract_x
_atom_site_fract_y
_atom_site_fract_z
Si Si1 0.656887 0.782363 0.284962
Si Si2 0.185398 0.284844 0.864063
Si Si3 0.185439 0.284827 0.579619
Si Si4 0.080498 0.720944 0.236413
Si Si5 0.343162 0.782373 0.255512
Si Si6 0.080523 0.279057 0.522008
Si Si7 0.559290 0.778613 0.661060
Si Si8 0.397654 0.778464 0.903486
O O1 0.734891 0.739447 0.212135
O O2 0.601400 0.718700 0.473266
O O3 0.639250 0.717301 0.170357
O O4 0.650966 0.000000 0.291295
O O5 0.172674 0.500000 0.876180
O O6 0.176082 0.211271 0.735843
O O7 0.132640 0.213576 0.049744
O O8 0.172749 0.500000 0.605602
O O9 0.265154 0.260464 0.416720
O O10 0.132683 0.213585 0.552199
O O11 0.081963 0.500000 0.234213
O O12 0.100432 0.777624 0.349323
O O13 0.999985 0.773560 0.334519
O O14 0.398642 0.718686 0.277371
O O15 0.349114 0.000000 0.244016
O O16 0.360775 0.717291 0.088026
O O17 0.081987 0.500000 0.519818
O O18 0.478787 0.723661 0.781770
O O19 0.559718 0.000000 0.660419
O O20 0.396394 0.000000 0.905372
#
# Coordination Sequence:
#
# PCOD9145479 Si02
#       8
#     4   4   4   4   4   4   4   4
#     4  10  19  32  50  73  98 126 160 199 242 286
#     4  10  20  32  48  72 101 130 159 196 239 283
#     4  10  20  32  48  72 101 130 159 196 239 283
#     4   8  15  29  49  72  96 124 160 198 234 276
#     4  10  19  32  50  73  98 126 160 199 242 286
#     4   8  15  29  49  72  96 124 160 198 234 276
#     4   9  16  30  51  71  94 125 160 200 243 283
#     4   9  18  30  49  75  96 119 162 210 241 275
#
# _framework density 21.476008
#
# number of rings (size 3 to 8) (size 9 to 14) (size 15 to 20)
#    0.000    2.750    1.250    1.500    1.750    3.500 
#    0.000    2.500    0.000    5.250    0.000    3.500 
#    0.000    0.000    0.000    0.000    0.000    0.000 
#
# Total GULP energy -178755.409039 kJ/mol
# GULP energy per Si atom -5586.106532 kJ/mol
# Density = 2.142713 g / cm^3
# Si number density = 21.476008 Si / 1000 Ang^3
#
#
#
# Elastic Constant Matrix: (Units=GPa)
#
#
# Indices 1 2 3 4 5 6 
#
# 1 184.3233 1.8640 110.9778 0.0000 34.0316 0.0000
# 2 1.8640 76.5310 6.2951 0.0000 6.0567 0.0000
# 3 110.9778 6.2951 226.2407 0.0000 23.4753 0.0000
# 4 0.0000 0.0000 0.0000 3.0745 0.0000 -11.3947
# 5 34.0316 6.0567 23.4753 0.0000 34.6410 0.0000
# 6 0.0000 0.0000 0.0000 -11.3947 0.0000 11.3965
#
#
#
# Elastic Compliance Matrix: (Units=1/GPa)
#
#
# Indices 1 2 3 4 5 6 
#
# 1 0.008786 0.000582 -0.003679 0.000000 -0.006241 0.000000
# 2 0.000582 0.013293 -0.000382 0.000000 -0.002638 0.000000
# 3 -0.003679 -0.000382 0.006296 0.000000 -0.000586 0.000000
# 4 0.000000 0.000000 0.000000 -0.120213 0.000000 -0.120195
# 5 -0.006241 -0.002638 -0.000586 0.000000 0.035857 0.000000
# 6 0.000000 0.000000 0.000000 -0.120195 0.000000 -0.032430
#
#
# Mechanical properties :
#
#
# Convention : Reuss Voigt Hill
#
# Bulk Modulus (GPa) = 46.68789 80.59653 63.64221
# Shear Modulus (GPa) = -67.28029 34.35294 -16.46368
#
# Velocity S-wave (km/s) = -5.60322 4.00383 -2.77177
# Velocity P-wave (km/s) = 4.48049 7.68013 4.41076
#
# Compressibility (1/GPa) = 0.02141883
#
# Stress axis : x y z
#
# Youngs Moduli (GPa) = 113.81156 75.23002 158.83140
#
# Poissons Ratio (x) = -0.04382 0.58429
# Poissons Ratio (y) = -0.06629 0.06066
# Poissons Ratio (z) = 0.41867 0.02873
#
# Static dielectric constant tensor:
#      x y z
#    x 1.725800 0.000000 0.026930 
#    y 0.000000 1.852000 0.000000 
#    z 0.026930 0.000000 1.745510 
# 
# From -- ./inp_files/34614.got.cif
#   From: 2010.05.17/outbox.cif.g08.bks.cpg/sg10_18_cif.got.tgz:34614.got - 2010.06.03 11:33:40.
