data_PCOD9145373
_publ_section_title
;
Structure prediction by ZEFSAII (Michael W. Deem and Ramdas Pophale) SiO2 
 PCOD9145373
Probable space group: P 2/M
;
_chemical_formula_sum "Si O2"
_cell_formula_units_Z 32
_cell_length_a 17.411692
_cell_length_b 7.720539
_cell_length_c 17.461347
_cell_angle_alpha 90.000000
_cell_angle_beta 128.883181
_cell_angle_gamma 90.000000
_cell_volume 1827.193255
_symmetry_space_group_name_H-M "P 2/M"
_symmetry_group_IT_number 10
_symmetry_cell_setting 'monoclinic'
loop_
_space_group_symop_operation_xyz
x,y,z
-x,y,-z
-x,-y,-z
x,-y,z
loop_
_atom_site_type_symbol
_atom_site_label
_atom_site_fract_x
_atom_site_fract_y
_atom_site_fract_z
Si Si1 0.449201 0.211057 0.683643
Si Si2 0.556691 0.788339 0.150825
Si Si3 0.406883 0.795922 0.490962
Si Si4 0.010821 0.288269 0.095901
Si Si5 0.220465 0.304097 0.276683
Si Si6 0.349448 0.208985 0.946736
Si Si7 0.676181 0.197787 0.807100
Si Si8 0.198221 0.703413 0.972717
O O1 0.416042 0.271713 0.746933
O O2 0.401231 0.273197 0.574341
O O3 0.564591 0.256376 0.748066
O O4 0.442177 0.000000 0.681933
O O5 0.627316 0.733857 0.125369
O O6 0.556297 0.000000 0.150657
O O7 0.444978 0.736509 0.057156
O O8 0.500000 0.723575 0.500000
O O9 0.304633 0.777118 0.382179
O O10 0.427872 0.000000 0.512335
O O11 0.016885 0.500000 0.098078
O O12 0.111956 0.224373 0.197855
O O13 0.913668 0.238621 0.082607
O O14 0.000000 0.233491 0.000000
O O15 0.208162 0.500000 0.296796
O O16 0.265248 0.303694 0.219265
O O17 0.348633 0.000000 0.946890
O O18 0.248801 0.270110 0.922441
O O19 0.732405 0.203768 0.922247
O O20 0.672693 0.000000 0.776156
O O21 0.201263 0.500000 0.993108
#
# Coordination Sequence:
#
# PCOD9145373 Si02
#       8
#     4   4   4   4   4   4   4   4
#     4   9  16  28  47  67  92 128 160 181 220 279
#     4   8  14  26  46  69  92 125 158 184 223 280
#     4  10  19  32  48  69  96 126 156 191 232 275
#     4   9  18  33  48  63  90 127 159 186 230 286
#     4  11  21  34  49  66  92 125 162 199 231 271
#     4   9  16  28  47  69  94 121 156 194 226 273
#     4  11  19  30  48  69  95 125 159 194 229 272
#     4  11  20  31  47  68  94 127 160 191 233 281
#
# _framework density 17.513199
#
# number of rings (size 3 to 8) (size 9 to 14) (size 15 to 20)
#    0.000    2.250    3.750    1.875    0.000    0.250 
#    0.000    4.375    0.000    0.000    0.000    0.875 
#    0.000    7.000    0.000    0.000    0.000    0.000 
#
# Total GULP energy -178405.663044 kJ/mol
# GULP energy per Si atom -5575.176970 kJ/mol
# Density = 1.747334 g / cm^3
# Si number density = 17.513199 Si / 1000 Ang^3
#
#
#
# Elastic Constant Matrix: (Units=GPa)
#
#
# Indices 1 2 3 4 5 6 
#
# 1 138.4390 2.5132 71.7502 0.0000 -10.3783 0.0000
# 2 2.5132 26.6550 1.8726 0.0000 -1.6172 0.0000
# 3 71.7502 1.8726 111.6143 0.0000 -6.3028 0.0000
# 4 0.0000 0.0000 0.0000 5.0267 0.0000 -0.8057
# 5 -10.3783 -1.6172 -6.3028 0.0000 26.8864 0.0000
# 6 0.0000 0.0000 0.0000 -0.8057 0.0000 11.3948
#
#
#
# Elastic Compliance Matrix: (Units=1/GPa)
#
#
# Indices 1 2 3 4 5 6 
#
# 1 0.011017 -0.000394 -0.006928 0.000000 0.002605 0.000000
# 2 -0.000394 0.037697 -0.000263 0.000000 0.002054 0.000000
# 3 -0.006928 -0.000263 0.013444 0.000000 0.000461 0.000000
# 4 0.000000 0.000000 0.000000 0.201218 0.000000 0.014227
# 5 0.002605 0.002054 0.000461 0.000000 0.038431 0.000000
# 6 0.000000 0.000000 0.000000 0.014227 0.000000 0.088765
#
#
# Mechanical properties :
#
#
# Convention : Reuss Voigt Hill
#
# Bulk Modulus (GPa) = 21.28292 47.66448 34.47370
# Shear Modulus (GPa) = 11.86513 22.03307 16.94910
#
# Velocity S-wave (km/s) = 2.60570 3.55080 3.11431
# Velocity P-wave (km/s) = 4.60780 6.63975 5.71481
#
# Compressibility (1/GPa) = 0.04698604
#
# Stress axis : x y z
#
# Youngs Moduli (GPa) = 90.77245 26.52756 74.38473
#
# Poissons Ratio (x) = 0.01045 0.51535
# Poissons Ratio (y) = 0.03576 0.01958
# Poissons Ratio (z) = 0.62889 0.00698
#
# Static dielectric constant tensor:
#      x y z
#    x 1.603150 0.000000 -0.013580 
#    y 0.000000 1.650960 0.000000 
#    z -0.013580 0.000000 1.595160 
# 
# From -- ./inp_files/77396.got.cif
#   From: 2010.05.17/outbox.cif.g08.bks.cpg/sg10_39_cif.got.tgz:77396.got - 2010.06.03 11:33:40.
