data_PCOD9145566
_publ_section_title
;
Structure prediction by ZEFSAII (Michael W. Deem and Ramdas Pophale) SiO2 
 PCOD9145566
Probable space group: P 2/M
;
_chemical_formula_sum "Si O2"
_cell_formula_units_Z 32
_cell_length_a 15.806221
_cell_length_b 14.734655
_cell_length_c 12.393086
_cell_angle_alpha 90.000000
_cell_angle_beta 141.633711
_cell_angle_gamma 90.000000
_cell_volume 1791.512470
_symmetry_space_group_name_H-M "P 2/M"
_symmetry_group_IT_number 10
_symmetry_cell_setting 'monoclinic'
loop_
_space_group_symop_operation_xyz
x,y,z
-x,y,-z
-x,-y,-z
x,-y,z
loop_
_atom_site_type_symbol
_atom_site_label
_atom_site_fract_x
_atom_site_fract_y
_atom_site_fract_z
Si Si1 0.837662 0.400836 0.577483
Si Si2 0.839819 0.107753 0.522720
Si Si3 0.165097 0.229668 0.042786
Si Si4 0.653865 0.194721 0.153867
Si Si5 0.837667 0.400836 0.097847
Si Si6 0.728416 0.397474 0.228417
Si Si7 0.834903 0.770332 0.712594
Si Si8 0.839817 0.892246 0.156918
O O1 0.783394 0.500000 0.556622
O O2 0.811286 0.391638 0.423355
O O3 0.784249 0.317480 0.595064
O O4 0.999998 0.401671 0.754712
O O5 0.740683 0.159601 0.342384
O O6 0.808252 0.142436 0.611613
O O7 0.000001 0.130392 0.660365
O O8 0.824836 0.000000 0.496288
O O9 0.216517 0.225565 0.216516
O O10 0.215749 0.317481 0.026561
O O11 0.191750 0.142437 0.995109
O O12 0.000000 0.236694 0.883664
O O13 0.646089 0.303985 0.146092
O O14 0.740685 0.159602 0.138989
O O15 0.500000 0.158161 0.000000
O O16 0.783400 0.500000 0.010175
O O17 0.811286 0.391637 0.199218
O O18 0.666177 0.500000 0.166178
O O19 0.824834 0.000000 0.153382
#
# Coordination Sequence:
#
# PCOD9145566 Si02
#       8
#     4   4   4   4   4   4   4   4
#     4   9  16  26  45  75 108 140 174 217 268 318
#     4  10  21  37  57  80 108 143 180 220 268 320
#     4   9  17  29  48  76 108 141 178 220 263 311
#     4  12  24  37  57  83 110 139 173 220 271 322
#     4   9  16  26  45  75 108 140 174 217 268 318
#     4  10  19  32  51  75 103 139 179 215 260 322
#     4   9  17  29  48  76 108 141 178 220 263 311
#     4  10  21  37  57  80 108 143 180 220 268 320
#
# _framework density 17.862003000000001
#
# number of rings (size 3 to 8) (size 9 to 14) (size 15 to 20)
#    0.000    2.250    2.500    1.125    0.000    5.750 
#    0.000    5.000    0.000    0.750    0.000    1.750 
#    0.000    4.000    0.000    0.000    0.000    0.000 
#
# Total GULP energy -178173.806940 kJ/mol
# GULP energy per Si atom -5567.931467 kJ/mol
# Density = 1.782135 g / cm^3
# Si number density = 17.862003 Si / 1000 Ang^3
#
#
#
# Elastic Constant Matrix: (Units=GPa)
#
#
# Indices 1 2 3 4 5 6 
#
# 1 62.5378 44.9699 60.9872 0.0000 -26.9385 0.0000
# 2 44.9699 105.9438 43.4071 0.0000 -3.3800 0.0000
# 3 60.9872 43.4071 44.0938 0.0000 -12.8688 0.0000
# 4 0.0000 0.0000 0.0000 8.7149 0.0000 -4.4327
# 5 -26.9385 -3.3800 -12.8688 0.0000 24.8897 0.0000
# 6 0.0000 0.0000 0.0000 -4.4327 0.0000 10.7691
#
#
#
# Elastic Compliance Matrix: (Units=1/GPa)
#
#
# Indices 1 2 3 4 5 6 
#
# 1 -0.035929 -0.006715 0.052631 0.000000 -0.012586 0.000000
# 2 -0.006715 0.015657 -0.008981 0.000000 -0.009785 0.000000
# 3 0.052631 -0.008981 -0.029450 0.000000 0.040517 0.000000
# 4 0.000000 0.000000 0.000000 0.145130 0.000000 0.059738
# 5 -0.012586 -0.009785 0.040517 0.000000 0.046175 0.000000
# 6 0.000000 0.000000 0.000000 0.059738 0.000000 0.117447
#
#
# Mechanical properties :
#
#
# Convention : Reuss Voigt Hill
#
# Bulk Modulus (GPa) = 41.41164 56.81153 49.11158
# Shear Modulus (GPa) = 25.87863 13.08882 19.48372
#
# Velocity S-wave (km/s) = 3.81045 2.70992 3.30630
# Velocity P-wave (km/s) = 6.52640 6.45495 6.49077
#
# Compressibility (1/GPa) = 0.02414780
#
# Stress axis : x y z
#
# Youngs Moduli (GPa) = -27.83259 63.86975 -33.95588
#
# Poissons Ratio (x) = 0.42887 1.78714
# Poissons Ratio (y) = -0.18689 -0.30497
# Poissons Ratio (z) = 1.46486 0.57365
#
# Static dielectric constant tensor:
#      x y z
#    x 1.598350 0.000000 -0.012360 
#    y 0.000000 1.650240 0.000000 
#    z -0.012360 0.000000 1.592620 
# 
# From -- ./inp_files/51598.got.cif
#   From: 2010.05.17/outbox.cif.g08.bks.cpg/sg10_26_cif.got.tgz:51598.got - 2010.06.03 11:33:40.
