data_PCOD9145677
_publ_section_title
;
Structure prediction by ZEFSAII (Michael W. Deem and Ramdas Pophale) SiO2 
 PCOD9145677
Probable space group: P 2/M
;
_chemical_formula_sum "Si O2"
_cell_formula_units_Z 28
_cell_length_a 10.127999
_cell_length_b 8.766308
_cell_length_c 28.732993
_cell_angle_alpha 90.000000
_cell_angle_beta 37.788743
_cell_angle_gamma 90.000000
_cell_volume 1563.168652
_symmetry_space_group_name_H-M "P 2/M"
_symmetry_group_IT_number 10
_symmetry_cell_setting 'monoclinic'
loop_
_space_group_symop_operation_xyz
x,y,z
-x,y,-z
-x,-y,-z
x,-y,z
loop_
_atom_site_type_symbol
_atom_site_label
_atom_site_fract_x
_atom_site_fract_y
_atom_site_fract_z
Si Si1 0.156591 0.316929 0.999129
Si Si2 0.763868 0.316170 0.550640
Si Si3 0.671635 0.816671 0.300904
Si Si4 0.934469 0.815671 0.874343
Si Si5 0.734160 0.316295 0.452300
Si Si6 0.970114 0.183377 0.302761
Si Si7 0.631826 0.184272 0.872616
O O1 0.157753 0.500000 0.999210
O O2 0.081513 0.256264 0.070474
O O3 0.401184 0.256499 0.926846
O O4 0.000000 0.267602 0.000000
O O5 0.751891 0.500000 0.556178
O O6 0.565561 0.251002 0.635125
O O7 0.746426 0.267397 0.502014
O O8 0.000000 0.267342 0.500000
O O9 0.841002 0.774005 0.213520
O O10 0.783960 0.767499 0.318162
O O11 0.660041 0.000000 0.304467
O O12 0.742297 0.772494 0.891567
O O13 0.925646 0.000000 0.880819
O O14 0.500000 0.266239 0.500000
O O15 0.744239 0.500000 0.447699
O O16 0.916266 0.252083 0.367571
O O17 0.194973 0.225434 0.215590
O O18 0.964865 0.000000 0.306869
O O19 0.611248 0.000000 0.879140
#
# Coordination Sequence:
#
# PCOD9145677 Si02
#       7
#     4   4   4   4   4   4   4
#     4  11  24  39  54  80 115 146 178 216 263 320
#     4  10  21  36  51  72 106 146 181 216 263 313
#     4   9  18  34  56  81 107 134 173 222 266 312
#     4   9  19  37  61  85 107 137 179 225 271 320
#     4  10  19  32  52  77 104 139 182 218 256 312
#     4   9  18  33  55  83 108 133 171 222 271 309
#     4   9  19  37  60  84 109 139 179 223 268 322
#
# _framework density 17.912334999999999
#
# number of rings (size 3 to 8) (size 9 to 14) (size 15 to 20)
#    0.000    2.429    1.429    2.571    0.000    5.714 
#    2.571    2.857    0.000    0.000    0.000    0.000 
#    0.000    0.000    0.000    0.000    0.000    0.000 
#
# Total GULP energy -156148.704436 kJ/mol
# GULP energy per Si atom -5576.739444 kJ/mol
# Density = 1.787157 g / cm^3
# Si number density = 17.912335 Si / 1000 Ang^3
#
#
#
# Elastic Constant Matrix: (Units=GPa)
#
#
# Indices 1 2 3 4 5 6 
#
# 1 130.3266 31.3279 83.9639 0.0000 -14.8189 0.0000
# 2 31.3279 16.2149 32.4766 0.0000 -3.8389 0.0000
# 3 83.9639 32.4766 140.9769 0.0000 -12.9552 0.0000
# 4 0.0000 0.0000 0.0000 46.8459 0.0000 3.3381
# 5 -14.8189 -3.8389 -12.9552 0.0000 28.3426 0.0000
# 6 0.0000 0.0000 0.0000 3.3381 0.0000 17.3711
#
#
#
# Elastic Compliance Matrix: (Units=1/GPa)
#
#
# Indices 1 2 3 4 5 6 
#
# 1 0.015982 -0.021590 -0.004223 0.000000 0.003501 0.000000
# 2 -0.021590 0.144024 -0.020422 0.000000 -0.001116 0.000000
# 3 -0.004223 -0.020422 0.014464 0.000000 0.001637 0.000000
# 4 0.000000 0.000000 0.000000 0.021643 0.000000 -0.004159
# 5 0.003501 -0.001116 0.001637 0.000000 0.037710 0.000000
# 6 0.000000 0.000000 0.000000 -0.004159 0.000000 0.058366
#
#
# Mechanical properties :
#
#
# Convention : Reuss Voigt Hill
#
# Bulk Modulus (GPa) = 12.19534 64.78390 38.48962
# Shear Modulus (GPa) = 12.13613 27.82859 19.98236
#
# Velocity S-wave (km/s) = 2.60576 3.94585 3.34363
# Velocity P-wave (km/s) = 3.98453 7.55019 6.03663
#
# Compressibility (1/GPa) = 0.08199855
#
# Stress axis : x y z
#
# Youngs Moduli (GPa) = 62.57158 6.94328 69.13874
#
# Poissons Ratio (x) = 0.14991 0.29198
# Poissons Ratio (y) = 1.35092 1.41198
# Poissons Ratio (z) = 0.26424 0.14180
#
# Static dielectric constant tensor:
#      x y z
#    x 1.615090 0.000000 -0.008120 
#    y 0.000000 1.605100 0.000000 
#    z -0.008120 0.000000 1.612190 
# 
# From -- ./inp_files/36934.got.cif
#   From: 2010.05.17/outbox.cif.g08.bks.cpg/sg10_19_cif.got.tgz:36934.got - 2010.06.03 11:33:40.
