data_PCOD9145516
_publ_section_title
;
Structure prediction by ZEFSAII (Michael W. Deem and Ramdas Pophale) SiO2 
 PCOD9145516
Probable space group: P 2/M
;
_chemical_formula_sum "Si O2"
_cell_formula_units_Z 28
_cell_length_a 14.574258
_cell_length_b 7.422148
_cell_length_c 16.694170
_cell_angle_alpha 90.000000
_cell_angle_beta 41.195185
_cell_angle_gamma 90.000000
_cell_volume 1189.378040
_symmetry_space_group_name_H-M "P 2/M"
_symmetry_group_IT_number 10
_symmetry_cell_setting 'monoclinic'
loop_
_space_group_symop_operation_xyz
x,y,z
-x,y,-z
-x,-y,-z
x,-y,z
loop_
_atom_site_type_symbol
_atom_site_label
_atom_site_fract_x
_atom_site_fract_y
_atom_site_fract_z
Si Si1 0.592869 0.221790 0.193437
Si Si2 0.077836 0.785846 0.713264
Si Si3 0.085812 0.219568 0.022218
Si Si4 0.447211 0.204536 0.952933
Si Si5 0.837697 0.282215 0.599040
Si Si6 0.330030 0.209014 0.452195
Si Si7 0.185413 0.713909 0.209273
O O1 0.483696 0.282520 0.332395
O O2 0.591600 0.000000 0.192765
O O3 0.753503 0.277871 0.091858
O O4 0.532987 0.285132 0.146881
O O5 0.227363 0.712028 0.586982
O O6 0.997609 0.715720 0.844278
O O7 0.972930 0.757205 0.708060
O O8 0.094113 0.000000 0.714331
O O9 0.089480 0.000000 0.023842
O O10 0.000000 0.270113 0.000000
O O11 0.281683 0.199379 0.078591
O O12 0.499948 0.000000 0.916754
O O13 0.500000 0.294268 0.000000
O O14 0.836027 0.500000 0.595385
O O15 0.755123 0.214415 0.576183
O O16 0.775218 0.228781 0.726687
O O17 0.000000 0.227560 0.500000
O O18 0.350492 0.000000 0.459873
O O19 0.201604 0.500000 0.193920
#
# Coordination Sequence:
#
# PCOD9145516 Si02
#       7
#     4   4   4   4   4   4   4
#     4   9  17  31  49  75 108 135 167 214 262 309
#     4  10  19  33  53  77 101 129 174 218 254 309
#     4   9  17  32  56  80 103 135 169 209 269 326
#     4  10  19  32  51  72 102 142 178 213 259 308
#     4  10  20  33  46  67 105 146 180 212 252 307
#     4  10  20  32  51  77 104 136 176 220 256 296
#     4  11  21  32  49  72 102 139 179 219 259 299
#
# _framework density 23.541716000000001
#
# number of rings (size 3 to 8) (size 9 to 14) (size 15 to 20)
#    0.000    2.143    2.857    1.286    0.000    2.857 
#    0.000    1.429    0.000    4.714    0.000    0.000 
#    0.000    2.286    0.000    0.000    0.000    0.000 
#
# Total GULP energy -156396.620225 kJ/mol
# GULP energy per Si atom -5585.593579 kJ/mol
# Density = 2.348813 g / cm^3
# Si number density = 23.541716 Si / 1000 Ang^3
#
#
#
# Elastic Constant Matrix: (Units=GPa)
#
#
# Indices 1 2 3 4 5 6 
#
# 1 91.8210 -4.2860 58.9650 0.0000 -6.8379 0.0000
# 2 -4.2860 80.3515 21.1673 0.0000 -1.5282 0.0000
# 3 58.9650 21.1673 206.5375 0.0000 -21.3473 0.0000
# 4 0.0000 0.0000 0.0000 -30.5040 0.0000 49.9694
# 5 -6.8379 -1.5282 -21.3473 0.0000 23.9394 0.0000
# 6 0.0000 0.0000 0.0000 49.9694 0.0000 -140.3839
#
#
#
# Elastic Compliance Matrix: (Units=1/GPa)
#
#
# Indices 1 2 3 4 5 6 
#
# 1 0.013587 0.001792 -0.004020 0.000000 0.000410 0.000000
# 2 0.001792 0.013030 -0.001881 0.000000 -0.000334 0.000000
# 3 -0.004020 -0.001881 0.006665 0.000000 0.004675 0.000000
# 4 0.000000 0.000000 0.000000 -0.078632 0.000000 -0.027989
# 5 0.000410 -0.000334 0.004675 0.000000 0.046037 0.000000
# 6 0.000000 0.000000 0.000000 -0.027989 0.000000 -0.017086
#
#
# Mechanical properties :
#
#
# Convention : Reuss Voigt Hill
#
# Bulk Modulus (GPa) = 39.90063 58.93362 49.41712
# Shear Modulus (GPa) = 28512.89882 -9.19878 14251.85002
#
# Velocity S-wave (km/s) = 110.17233 -1.97887 77.89103
# Velocity P-wave (km/s) = 127.28279 4.45722 90.05769
#
# Compressibility (1/GPa) = 0.02506226
#
# Stress axis : x y z
#
# Youngs Moduli (GPa) = 73.60246 76.74512 150.02646
#
# Poissons Ratio (x) = -0.13749 0.60311
# Poissons Ratio (y) = -0.13186 0.28226
# Poissons Ratio (z) = 0.29589 0.14439
#
# Static dielectric constant tensor:
#      x y z
#    x 1.856180 0.000000 -0.035470 
#    y 0.000000 1.851990 0.000000 
#    z -0.035470 0.000000 1.972490 
# 
# From -- ./inp_files/49366.got.cif
#   From: 2010.05.17/outbox.cif.g08.bks.cpg/sg10_25_cif.got.tgz:49366.got - 2010.06.03 11:33:40.
