data_PCOD9145745
_publ_section_title
;
Structure prediction by ZEFSAII (Michael W. Deem and Ramdas Pophale) SiO2 
 PCOD9145745
Probable space group: P 2/M
;
_chemical_formula_sum "Si O2"
_cell_formula_units_Z 28
_cell_length_a 20.385695
_cell_length_b 13.816137
_cell_length_c 9.780707
_cell_angle_alpha 90.000000
_cell_angle_beta 154.074217
_cell_angle_gamma 90.000000
_cell_volume 1204.395310
_symmetry_space_group_name_H-M "P 2/M"
_symmetry_group_IT_number 10
_symmetry_cell_setting 'monoclinic'
loop_
_space_group_symop_operation_xyz
x,y,z
-x,y,-z
-x,-y,-z
x,-y,z
loop_
_atom_site_type_symbol
_atom_site_label
_atom_site_fract_x
_atom_site_fract_y
_atom_site_fract_z
Si Si1 0.782222 0.143745 0.468359
Si Si2 0.818039 0.604585 0.780492
Si Si3 0.524625 0.326943 0.383451
Si Si4 0.840512 0.112341 0.145632
Si Si5 0.653331 0.346493 0.204072
Si Si6 0.113023 0.180943 0.049216
Si Si7 0.562679 0.106240 0.833291
O O1 0.754376 0.253382 0.371975
O O2 0.954119 0.124064 0.748428
O O3 0.786345 0.138555 0.639583
O O4 0.643990 0.096742 0.132406
O O5 0.889779 0.500000 0.945362
O O6 0.680218 0.625781 0.625772
O O7 0.746216 0.597940 0.493964
O O8 0.909327 0.705054 0.960777
O O9 0.500000 0.337259 0.500000
O O10 0.514605 0.211516 0.325588
O O11 0.402095 0.376620 0.050499
O O12 0.811678 0.169381 0.954439
O O13 0.000000 0.148984 0.500000
O O14 0.862202 0.000000 0.151471
O O15 0.704019 0.116926 0.994346
O O16 0.500000 0.321041 0.000000
O O17 0.488948 0.000000 0.664501
#
# Coordination Sequence:
#
# PCOD9145745 Si02
#       7
#     4   4   4   4   4   4   4
#     4   9  18  32  53  82 109 144 184 225 273 320
#     4  10  21  38  59  80 107 145 187 229 279 334
#     4  10  20  35  56  83 109 143 183 230 279 321
#     4  10  19  32  52  81 111 147 185 214 260 328
#     4   8  17  34  55  77 106 139 179 222 273 329
#     4  10  19  34  55  81 113 146 183 231 273 320
#     4  10  20  35  55  81 115 149 184 223 271 329
#
# _framework density 23.248180999999999
#
# number of rings (size 3 to 8) (size 9 to 14) (size 15 to 20)
#    0.000    2.429    1.429    0.857    0.000    3.714 
#    0.000    7.857    0.000   39.857    0.000    0.000 
#    0.000    0.000    0.000    0.000    0.000    0.000 
#
# Total GULP energy -156084.998297 kJ/mol
# GULP energy per Si atom -5574.464225 kJ/mol
# Density = 2.319527 g / cm^3
# Si number density = 23.248181 Si / 1000 Ang^3
#
#
#
# Elastic Constant Matrix: (Units=GPa)
#
#
# Indices 1 2 3 4 5 6 
#
# 1 67.7124 22.6467 37.2685 0.0000 -31.5818 0.0000
# 2 22.6467 96.5175 1.9330 0.0000 -5.3942 0.0000
# 3 37.2685 1.9330 91.7111 0.0000 -23.6423 0.0000
# 4 0.0000 0.0000 0.0000 47.6386 0.0000 73.5253
# 5 -31.5818 -5.3942 -23.6423 0.0000 38.6399 0.0000
# 6 0.0000 0.0000 0.0000 73.5253 0.0000 128.7691
#
#
#
# Elastic Compliance Matrix: (Units=1/GPa)
#
#
# Indices 1 2 3 4 5 6 
#
# 1 0.029296 -0.005678 -0.006906 0.000000 0.018926 0.000000
# 2 -0.005678 0.011545 0.001523 0.000000 -0.002097 0.000000
# 3 -0.006906 0.001523 0.014577 0.000000 0.003487 0.000000
# 4 0.000000 0.000000 0.000000 0.176779 0.000000 -0.100938
# 5 0.018926 -0.002097 0.003487 0.000000 0.043190 0.000000
# 6 0.000000 0.000000 0.000000 -0.100938 0.000000 0.065400
#
#
# Mechanical properties :
#
#
# Convention : Reuss Voigt Hill
#
# Bulk Modulus (GPa) = 30.03271 42.18192 36.10732
# Shear Modulus (GPa) = 13.36869 55.94905 34.65887
#
# Velocity S-wave (km/s) = 2.40061 4.91103 3.86530
# Velocity P-wave (km/s) = 4.54205 7.09515 5.95699
#
# Compressibility (1/GPa) = 0.03329703
#
# Stress axis : x y z
#
# Youngs Moduli (GPa) = 34.13450 86.61491 68.60063
#
# Poissons Ratio (x) = 0.49179 0.47377
# Poissons Ratio (y) = 0.19381 -0.10451
# Poissons Ratio (z) = 0.23574 -0.13195
#
# Static dielectric constant tensor:
#      x y z
#    x 1.876330 0.000000 0.006350 
#    y 0.000000 1.925920 0.000000 
#    z 0.006350 0.000000 1.933820 
# 
# From -- ./inp_files/35311.got.cif
#   From: 2010.05.17/outbox.cif.g08.bks.cpg/sg10_18_cif.got.tgz:35311.got - 2010.06.03 11:33:40.
