data_PCOD9145167
_publ_section_title
;
Structure prediction by ZEFSAII (Michael W. Deem and Ramdas Pophale) SiO2 
 PCOD9145167
Probable space group: P 2/M
;
_chemical_formula_sum "Si O2"
_cell_formula_units_Z 32
_cell_length_a 16.523595
_cell_length_b 9.625032
_cell_length_c 25.583731
_cell_angle_alpha 90.000000
_cell_angle_beta 23.887153
_cell_angle_gamma 90.000000
_cell_volume 1647.622123
_symmetry_space_group_name_H-M "P 2/M"
_symmetry_group_IT_number 10
_symmetry_cell_setting 'monoclinic'
loop_
_space_group_symop_operation_xyz
x,y,z
-x,y,-z
-x,-y,-z
x,-y,z
loop_
_atom_site_type_symbol
_atom_site_label
_atom_site_fract_x
_atom_site_fract_y
_atom_site_fract_z
Si Si1 0.837217 0.842370 0.633990
Si Si2 0.479258 0.346574 0.141750
Si Si3 0.655993 0.332404 0.364666
Si Si4 0.052655 0.159407 0.619658
Si Si5 0.457799 0.666662 0.368425
Si Si6 0.286347 0.657606 0.144693
Si Si7 0.197758 0.331303 0.914457
Si Si8 0.900838 0.332437 0.909177
O O1 0.631260 0.760307 0.756077
O O2 0.000000 0.774960 0.500000
O O3 0.936578 0.847836 0.632643
O O4 0.800963 0.000000 0.637698
O O5 0.495645 0.500000 0.156547
O O6 0.335690 0.358639 0.176951
O O7 0.702220 0.303236 0.993004
O O8 0.500000 0.278299 0.500000
O O9 0.663638 0.500000 0.367353
O O10 0.577133 0.310680 0.352377
O O11 0.883151 0.277671 0.235068
O O12 0.254877 0.245855 0.491531
O O13 0.905341 0.244406 0.745504
O O14 0.088745 0.000000 0.614979
O O15 0.416259 0.500000 0.389205
O O16 0.602756 0.708829 0.234861
O O17 0.256922 0.500000 0.140412
O O18 0.500000 0.715544 0.000000
O O19 0.198019 0.500000 0.913805
O O20 0.165571 0.287870 0.993323
O O21 0.000000 0.286295 0.000000
O O22 0.924413 0.500000 0.896352
#
# Coordination Sequence:
#
# PCOD9145167 Si02
#       8
#     4   4   4   4   4   4   4   4
#     4   9  19  35  50  66  96 135 167 199 245 300
#     4   9  18  30  48  75 100 125 160 206 251 290
#     4   9  17  29  47  73 104 134 163 201 251 305
#     4  10  21  35  51  73 102 135 170 209 251 301
#     4  10  19  31  51  77 102 132 171 210 251 299
#     4   9  18  34  54  75 101 131 166 211 256 297
#     4   9  15  26  45  69  99 130 161 204 249 293
#     4   9  16  27  43  69 101 128 160 201 248 298
#
# _framework density 19.421928999999999
#
# number of rings (size 3 to 8) (size 9 to 14) (size 15 to 20)
#    0.000    2.750    1.250    0.375    1.750    2.000 
#    0.000    3.750    0.000    1.500    0.000    0.000 
#    0.000    0.000    0.000    0.000    0.000    0.000 
#
# Total GULP energy -178163.410277 kJ/mol
# GULP energy per Si atom -5567.606571 kJ/mol
# Density = 1.937772 g / cm^3
# Si number density = 19.421929 Si / 1000 Ang^3
#
#
#
# Elastic Constant Matrix: (Units=GPa)
#
#
# Indices 1 2 3 4 5 6 
#
# 1 18.4354 8.7684 10.2798 0.0000 -7.2569 0.0000
# 2 8.7684 47.0363 58.9865 0.0000 -13.6248 0.0000
# 3 10.2798 58.9865 189.1594 0.0000 -13.3490 0.0000
# 4 0.0000 0.0000 0.0000 -5.6092 0.0000 12.8818
# 5 -7.2569 -13.6248 -13.3490 0.0000 30.5392 0.0000
# 6 0.0000 0.0000 0.0000 12.8818 0.0000 -1.9107
#
#
#
# Elastic Compliance Matrix: (Units=1/GPa)
#
#
# Indices 1 2 3 4 5 6 
#
# 1 0.062641 -0.008497 0.000029 0.000000 0.011107 0.000000
# 2 -0.008497 0.040189 -0.011296 0.000000 0.010973 0.000000
# 3 0.000029 -0.011296 0.008721 0.000000 -0.001221 0.000000
# 4 0.000000 0.000000 0.000000 0.012310 0.000000 0.082989
# 5 0.011107 0.010973 -0.001221 0.000000 0.039746 0.000000
# 6 0.000000 0.000000 0.000000 0.082989 0.000000 0.036137
#
#
# Mechanical properties :
#
#
# Convention : Reuss Voigt Hill
#
# Bulk Modulus (GPa) = 13.88434 45.63340 29.75887
# Shear Modulus (GPa) = 18.99136 16.37694 17.68415
#
# Velocity S-wave (km/s) = 3.13042 2.90697 3.02076
# Velocity P-wave (km/s) = 4.49782 5.90035 5.24617
#
# Compressibility (1/GPa) = 0.07202360
#
# Stress axis : x y z
#
# Youngs Moduli (GPa) = 15.96408 24.88269 114.66126
#
# Poissons Ratio (x) = 0.21142 -0.00334
# Poissons Ratio (y) = 0.13564 1.29522
# Poissons Ratio (z) = -0.00047 0.28108
#
# Static dielectric constant tensor:
#      x y z
#    x 1.734570 0.000000 0.006110 
#    y 0.000000 1.671820 0.000000 
#    z 0.006110 0.000000 1.705800 
# 
# From -- ./inp_files/93441.got.cif
#   From: 2010.05.17/outbox.cif.g08.bks.cpg/sg10_47_cif.got.tgz:93441.got - 2010.06.03 11:33:40.
