data_PCOD9145002
_publ_section_title
;
Structure prediction by ZEFSAII (Michael W. Deem and Ramdas Pophale) SiO2 
 PCOD9145002
Probable space group: P 2/M
;
_chemical_formula_sum "Si O2"
_cell_formula_units_Z 32
_cell_length_a 12.872098
_cell_length_b 9.751987
_cell_length_c 30.150849
_cell_angle_alpha 90.000000
_cell_angle_beta 151.925799
_cell_angle_gamma 90.000000
_cell_volume 1781.178410
_symmetry_space_group_name_H-M "P 2/M"
_symmetry_group_IT_number 10
_symmetry_cell_setting 'monoclinic'
loop_
_space_group_symop_operation_xyz
x,y,z
-x,y,-z
-x,-y,-z
x,-y,z
loop_
_atom_site_type_symbol
_atom_site_label
_atom_site_fract_x
_atom_site_fract_y
_atom_site_fract_z
Si Si1 0.653232 0.153184 0.514706
Si Si2 0.337442 0.655876 0.239607
Si Si3 0.079307 0.162155 0.913627
Si Si4 0.930503 0.838275 0.196309
Si Si5 0.144036 0.160911 0.683006
Si Si6 0.554197 0.166520 0.123934
Si Si7 0.164917 0.664252 0.602725
Si Si8 0.350357 0.343978 0.351067
O O1 0.500000 0.162001 0.500000
O O2 0.569053 0.269524 0.450246
O O3 0.911619 0.167412 0.621651
O O4 0.621755 0.000000 0.483325
O O5 0.288547 0.500000 0.206719
O O6 0.580342 0.693293 0.314061
O O7 0.350302 0.655378 0.297893
O O8 0.137314 0.756611 0.152757
O O9 0.108449 0.177228 0.871204
O O10 0.051329 0.000000 0.911587
O O11 0.305058 0.212375 0.021315
O O12 0.718813 0.797201 0.145600
O O13 0.141690 0.746529 0.287332
O O14 0.976355 0.000000 0.221943
O O15 0.336217 0.209615 0.788455
O O16 0.118249 0.249927 0.629277
O O17 0.181218 0.000000 0.686031
O O18 0.549241 0.000000 0.122415
O O19 0.142860 0.500000 0.601887
O O20 0.000000 0.699245 0.500000
O O21 0.335799 0.500000 0.361608
#
# Coordination Sequence:
#
# PCOD9145002 Si02
#       8
#     4   4   4   4   4   4   4   4
#     4  10  20  34  51  72 102 139 170 198 244 304
#     4   9  19  35  53  74 101 131 164 208 262 309
#     4   9  17  30  53  81 104 134 177 215 246 291
#     4   9  16  29  51  77 106 140 175 208 246 298
#     4  10  21  35  53  78 105 133 169 213 256 300
#     4   9  17  32  52  75 106 140 172 209 254 301
#     4  10  21  39  60  77  98 132 170 210 260 313
#     4  10  19  31  49  74 102 131 167 211 255 301
#
# _framework density 17.965634999999999
#
# number of rings (size 3 to 8) (size 9 to 14) (size 15 to 20)
#    0.000    2.500    0.000    2.250    0.000    6.500 
#    0.000    3.750    0.000    6.750    0.000    0.000 
#    0.000    0.000    0.000    0.000    0.000    0.000 
#
# Total GULP energy -178452.140736 kJ/mol
# GULP energy per Si atom -5576.629398 kJ/mol
# Density = 1.792474 g / cm^3
# Si number density = 17.965635 Si / 1000 Ang^3
#
#
#
# Elastic Constant Matrix: (Units=GPa)
#
#
# Indices 1 2 3 4 5 6 
#
# 1 70.6624 32.5435 37.0891 0.0000 11.4629 0.0000
# 2 32.5435 60.7981 57.4266 0.0000 0.8765 0.0000
# 3 37.0891 57.4266 126.0174 0.0000 3.9930 0.0000
# 4 0.0000 0.0000 0.0000 16.1938 0.0000 -1.6131
# 5 11.4629 0.8765 3.9930 0.0000 21.7835 0.0000
# 6 0.0000 0.0000 0.0000 -1.6131 0.0000 14.0301
#
#
#
# Elastic Compliance Matrix: (Units=1/GPa)
#
#
# Indices 1 2 3 4 5 6 
#
# 1 0.021108 -0.009819 -0.001406 0.000000 -0.010455 0.000000
# 2 -0.009819 0.033480 -0.012561 0.000000 0.006123 0.000000
# 3 -0.001406 -0.012561 0.014116 0.000000 -0.001342 0.000000
# 4 0.000000 0.000000 0.000000 0.062468 0.000000 0.007182
# 5 -0.010455 0.006123 -0.001342 0.000000 0.051407 0.000000
# 6 0.000000 0.000000 0.000000 0.007182 0.000000 0.072101
#
#
# Mechanical properties :
#
#
# Convention : Reuss Voigt Hill
#
# Bulk Modulus (GPa) = 47.32488 56.84404 52.08446
# Shear Modulus (GPa) = 16.16562 19.09604 17.63083
#
# Velocity S-wave (km/s) = 3.00293 3.26378 3.13607
# Velocity P-wave (km/s) = 6.19859 6.77585 6.49364
#
# Compressibility (1/GPa) = 0.02113053
#
# Stress axis : x y z
#
# Youngs Moduli (GPa) = 47.37458 29.86841 70.84159
#
# Poissons Ratio (x) = 0.29329 0.09964
# Poissons Ratio (y) = 0.46519 0.88984
# Poissons Ratio (z) = 0.06663 0.37518
#
# Static dielectric constant tensor:
#      x y z
#    x 1.611810 0.000000 0.000390 
#    y 0.000000 1.610220 0.000000 
#    z 0.000390 0.000000 1.621590 
# 
# From -- ./inp_files/95032.got.cif
#   From: 2010.05.17/outbox.cif.g08.bks.cpg/sg10_48_cif.got.tgz:95032.got - 2010.06.03 11:33:40.
