data_PCOD9145531
_publ_section_title
;
Structure prediction by ZEFSAII (Michael W. Deem and Ramdas Pophale) SiO2 
 PCOD9145531
Probable space group: P 2/M
;
_chemical_formula_sum "Si O2"
_cell_formula_units_Z 32
_cell_length_a 24.250124
_cell_length_b 8.912327
_cell_length_c 17.990672
_cell_angle_alpha 90.000000
_cell_angle_beta 30.741049
_cell_angle_gamma 90.000000
_cell_volume 1987.505415
_symmetry_space_group_name_H-M "P 2/M"
_symmetry_group_IT_number 10
_symmetry_cell_setting 'monoclinic'
loop_
_space_group_symop_operation_xyz
x,y,z
-x,y,-z
-x,-y,-z
x,-y,z
loop_
_atom_site_type_symbol
_atom_site_label
_atom_site_fract_x
_atom_site_fract_y
_atom_site_fract_z
Si Si1 0.559721 0.678064 0.603063
Si Si2 0.366532 0.678659 0.040688
Si Si3 0.813269 0.321424 0.876818
Si Si4 0.018750 0.180065 0.564886
Si Si5 0.587652 0.821003 0.725789
Si Si6 0.673110 0.180473 0.164879
Si Si7 0.732686 0.179709 0.698226
Si Si8 0.374859 0.827541 0.618144
O O1 0.549649 0.500000 0.618659
O O2 0.606697 0.743359 0.624725
O O3 0.440011 0.748583 0.731426
O O4 0.627928 0.727448 0.451867
O O5 0.384667 0.500000 0.020709
O O6 0.270743 0.710832 0.093031
O O7 0.329926 0.736752 0.163399
O O8 0.474182 0.760824 0.888906
O O9 0.815049 0.500000 0.885935
O O10 0.929183 0.261130 0.717817
O O11 0.766240 0.240534 0.003867
O O12 0.141104 0.218990 0.444639
O O13 0.000000 0.219001 0.500000
O O14 0.005405 0.000000 0.587412
O O15 0.678152 0.787294 0.682480
O O16 0.581345 0.000000 0.723120
O O17 0.687859 0.220630 0.234886
O O18 0.663869 0.000000 0.171574
O O19 0.723632 0.000000 0.721809
O O20 0.500000 0.826823 0.500000
O O21 0.347608 0.000000 0.631198
#
# Coordination Sequence:
#
# PCOD9145531 Si02
#       8
#     4   4   4   4   4   4   4   4
#     4  11  20  30  47  73 104 136 168 203 251 303
#     4  11  22  34  50  74 104 135 168 210 258 305
#     4  11  22  33  50  77 106 134 168 209 254 303
#     4  10  20  36  57  74  95 128 171 218 259 302
#     4  11  22  35  52  72 101 137 175 213 250 301
#     4  10  19  32  51  73 101 136 171 206 247 297
#     4  10  22  38  54  74  96 131 178 218 256 300
#     4   8  16  30  47  70  99 133 169 201 242 298
#
# _framework density 16.100586
#
# number of rings (size 3 to 8) (size 9 to 14) (size 15 to 20)
#    0.000    1.750    2.500    3.750    0.000    7.000 
#    0.000    0.000    0.000    0.000    0.000    0.875 
#    0.000    7.000    0.000    0.000    0.000    0.000 
#
# Total GULP energy -178648.495462 kJ/mol
# GULP energy per Si atom -5582.765483 kJ/mol
# Density = 1.606394 g / cm^3
# Si number density = 16.100586 Si / 1000 Ang^3
#
#
#
# Elastic Constant Matrix: (Units=GPa)
#
#
# Indices 1 2 3 4 5 6 
#
# 1 109.1002 60.8937 64.9440 0.0000 19.6543 0.0000
# 2 60.8937 67.1151 45.6982 0.0000 15.6304 0.0000
# 3 64.9440 45.6982 76.7420 0.0000 27.6702 0.0000
# 4 0.0000 0.0000 0.0000 3.7476 0.0000 -7.2164
# 5 19.6543 15.6304 27.6702 0.0000 29.6951 0.0000
# 6 0.0000 0.0000 0.0000 -7.2164 0.0000 9.5098
#
#
#
# Elastic Compliance Matrix: (Units=1/GPa)
#
#
# Indices 1 2 3 4 5 6 
#
# 1 0.024262 -0.013425 -0.013999 0.000000 0.004053 0.000000
# 2 -0.013425 0.032512 -0.007579 0.000000 -0.001165 0.000000
# 3 -0.013999 -0.007579 0.037064 0.000000 -0.021282 0.000000
# 4 0.000000 0.000000 0.000000 -0.578567 0.000000 -0.439037
# 5 0.004053 -0.001165 -0.021282 0.000000 0.051437 0.000000
# 6 0.000000 0.000000 0.000000 -0.439037 0.000000 -0.228002
#
#
# Mechanical properties :
#
#
# Convention : Reuss Voigt Hill
#
# Bulk Modulus (GPa) = 41.95980 66.22546 54.09263
# Shear Modulus (GPa) = -8.57129 14.01860 2.72365
#
# Velocity S-wave (km/s) = -2.30979 2.95394 1.30204
# Velocity P-wave (km/s) = 4.35937 7.27021 5.99417
#
# Compressibility (1/GPa) = 0.02383233
#
# Stress axis : x y z
#
# Youngs Moduli (GPa) = 41.21644 30.75763 26.98017
#
# Poissons Ratio (x) = 0.41292 0.37770
# Poissons Ratio (y) = 0.55333 0.20448
# Poissons Ratio (z) = 0.57699 0.23311
#
# Static dielectric constant tensor:
#      x y z
#    x 1.535230 0.000000 0.017510 
#    y 0.000000 1.535690 0.000000 
#    z 0.017510 0.000000 1.522330 
# 
# From -- ./inp_files/79935.got.cif
#   From: 2010.05.17/outbox.cif.g08.bks.cpg/sg10_40_cif.got.tgz:79935.got - 2010.06.03 11:33:40.
