data_PCOD9145929
_publ_section_title
;
Structure prediction by ZEFSAII (Michael W. Deem and Ramdas Pophale) SiO2 
 PCOD9145929
Probable space group: P 2/M
;
_chemical_formula_sum "Si O2"
_cell_formula_units_Z 26
_cell_length_a 7.817700
_cell_length_b 18.664353
_cell_length_c 8.555431
_cell_angle_alpha 90.000000
_cell_angle_beta 74.030112
_cell_angle_gamma 90.000000
_cell_volume 1200.164713
_symmetry_space_group_name_H-M "P 2/M"
_symmetry_group_IT_number 10
_symmetry_cell_setting 'monoclinic'
loop_
_space_group_symop_operation_xyz
x,y,z
-x,y,-z
-x,-y,-z
x,-y,z
loop_
_atom_site_type_symbol
_atom_site_label
_atom_site_fract_x
_atom_site_fract_y
_atom_site_fract_z
Si Si1 0.625217 0.740469 0.612039
Si Si2 0.744719 0.202203 0.899905
Si Si3 0.906806 0.161686 0.380986
Si Si4 0.793408 0.081555 0.113234
Si Si5 0.302801 0.578319 0.382824
Si Si6 0.041353 0.577232 0.742699
Si Si7 0.000000 0.303592 0.000000
O O1 0.500000 0.762399 0.500000
O O2 0.616803 0.773177 0.790417
O O3 0.808733 0.771798 0.490775
O O4 0.602680 0.654971 0.641913
O O5 0.931465 0.187845 0.765087
O O6 0.697201 0.132639 0.012538
O O7 0.820299 0.260590 0.002447
O O8 0.790533 0.115884 0.287940
O O9 0.000000 0.118478 0.500000
O O10 0.729522 0.000000 0.131041
O O11 0.000000 0.080518 0.000000
O O12 0.397112 0.500000 0.351362
O O13 0.185702 0.579426 0.569490
O O14 0.154704 0.579350 0.284295
O O15 0.064050 0.500000 0.816253
O O16 0.055306 0.645130 0.846060
#
# Coordination Sequence:
#
# PCOD9145929 Si02
#       7
#     4   4   4   4   4   4   2
#     4  11  22  35  52  75 104 138 179 220 252 299
#     4  10  19  32  54  82 103 136 166 213 261 308
#     4   9  18  32  54  78 105 136 171 210 256 301
#     4   9  17  32  55  85 110 129 163 213 266 311
#     4   9  18  32  48  70 100 137 174 208 255 302
#     4   9  18  28  47  76 103 131 166 214 259 307
#     4  12  15  26  51  78 104 128 166 208 255 306
#
# _framework density 21.663691
#
# number of rings (size 3 to 8) (size 9 to 14) (size 15 to 20)
#    0.000    2.308    3.846    2.077    4.308    0.615 
#    0.000    3.077    0.000    2.769    0.000    2.154 
#    0.000    0.000    0.000    0.000    0.000    0.000 
#
# Total GULP energy -144820.066929 kJ/mol
# GULP energy per Si atom -5570.002574 kJ/mol
# Density = 2.161438 g / cm^3
# Si number density = 21.663691 Si / 1000 Ang^3
#
#
#
# Elastic Constant Matrix: (Units=GPa)
#
#
# Indices 1 2 3 4 5 6 
#
# 1 60.6498 32.6885 24.7908 0.0000 27.4368 0.0000
# 2 32.6885 148.6572 63.8663 0.0000 29.4027 0.0000
# 3 24.7908 63.8663 91.2252 0.0000 44.1220 0.0000
# 4 0.0000 0.0000 0.0000 17.2878 0.0000 5.0921
# 5 27.4368 29.4027 44.1220 0.0000 33.7485 0.0000
# 6 0.0000 0.0000 0.0000 5.0921 0.0000 14.2320
#
#
#
# Elastic Compliance Matrix: (Units=1/GPa)
#
#
# Indices 1 2 3 4 5 6 
#
# 1 0.031408 -0.005201 0.014318 0.000000 -0.039721 0.000000
# 2 -0.005201 0.010498 -0.009676 0.000000 0.007733 0.000000
# 3 0.014318 -0.009676 0.041879 0.000000 -0.057961 0.000000
# 4 0.000000 0.000000 0.000000 0.064658 0.000000 -0.023134
# 5 -0.039721 0.007733 -0.057961 0.000000 0.130963 0.000000
# 6 0.000000 0.000000 0.000000 -0.023134 0.000000 0.078542
#
#
# Mechanical properties :
#
#
# Convention : Reuss Voigt Hill
#
# Bulk Modulus (GPa) = 12.09694 60.35815 36.22754
# Shear Modulus (GPa) = 12.93247 24.99943 18.96595
#
# Velocity S-wave (km/s) = 2.44594 3.40071 2.96205
# Velocity P-wave (km/s) = 3.68414 6.58344 5.33454
#
# Compressibility (1/GPa) = 0.08266556
#
# Stress axis : x y z
#
# Youngs Moduli (GPa) = 31.83883 95.25333 23.87848
#
# Poissons Ratio (x) = 0.49543 -0.34188
# Poissons Ratio (y) = 0.16560 0.23106
# Poissons Ratio (z) = -0.45586 0.92170
#
# Static dielectric constant tensor:
#      x y z
#    x 1.899950 0.000000 0.079640 
#    y 0.000000 1.805400 0.000000 
#    z 0.079640 0.000000 1.852570 
# 
# From -- ./inp_files/19633.got.cif
#   From: 2010.05.17/outbox.cif.g08.bks.cpg/sg10_10_cif.got.tgz:19633.got - 2010.06.03 11:33:40.
