data_PCOD9145888
_publ_section_title
;
Structure prediction by ZEFSAII (Michael W. Deem and Ramdas Pophale) SiO2 
 PCOD9145888
Probable space group: P 2/M
;
_chemical_formula_sum "Si O2"
_cell_formula_units_Z 24
_cell_length_a 18.468865
_cell_length_b 8.787804
_cell_length_c 24.740750
_cell_angle_alpha 90.000000
_cell_angle_beta 161.399137
_cell_angle_gamma 90.000000
_cell_volume 1280.820143
_symmetry_space_group_name_H-M "P 2/M"
_symmetry_group_IT_number 10
_symmetry_cell_setting 'monoclinic'
loop_
_space_group_symop_operation_xyz
x,y,z
-x,y,-z
-x,-y,-z
x,-y,z
loop_
_atom_site_type_symbol
_atom_site_label
_atom_site_fract_x
_atom_site_fract_y
_atom_site_fract_z
Si Si1 0.684753 0.174014 0.024771
Si Si2 0.259190 0.318149 0.672226
Si Si3 0.873865 0.678842 0.629923
Si Si4 0.583156 0.181711 0.329126
Si Si5 0.065722 0.185471 0.986823
Si Si6 0.908432 0.824897 0.763863
O O1 0.440630 0.244025 0.841403
O O2 0.671609 0.000000 0.034391
O O3 0.860332 0.271458 0.184693
O O4 0.826032 0.171033 0.067750
O O5 0.277079 0.500000 0.688747
O O6 0.326087 0.263732 0.659891
O O7 0.000000 0.272945 0.500000
O O8 0.849333 0.500000 0.604881
O O9 0.734165 0.771196 0.487131
O O10 0.800669 0.728315 0.639123
O O11 0.324680 0.227956 0.158416
O O12 0.590514 0.000000 0.326441
O O13 0.053578 0.000000 0.977723
O O14 0.000000 0.238116 0.000000
O O15 0.909439 0.234390 0.825611
O O16 0.826418 0.000000 0.703641
#
# Coordination Sequence:
#
# PCOD9145888 Si02
#       6
#     4   4   4   4   4   4
#     4   9  17  33  55  78 103 139 181 218 264 316
#     4  11  23  37  56  83 112 143 179 220 269 324
#     4  10  19  32  54  79 107 146 182 221 275 324
#     4  11  20  35  57  82 111 142 181 228 269 317
#     4   9  17  31  55  84 109 137 179 228 271 315
#     4   8  15  31  53  77 103 137 179 218 265 318
#
# _framework density 18.737992999999999
#
# number of rings (size 3 to 8) (size 9 to 14) (size 15 to 20)
#    1.000    1.333    1.667    2.500    0.000    1.333 
#    0.000    1.667    0.000   14.500    0.000    0.000 
#    0.000    0.000    0.000    0.000    0.000    0.000 
#
# Total GULP energy -133668.363138 kJ/mol
# GULP energy per Si atom -5569.515131 kJ/mol
# Density = 1.869534 g / cm^3
# Si number density = 18.737993 Si / 1000 Ang^3
#
#
#
# Elastic Constant Matrix: (Units=GPa)
#
#
# Indices 1 2 3 4 5 6 
#
# 1 32.6643 -2.3482 18.0203 0.0000 16.2283 0.0000
# 2 -2.3482 28.1558 -12.4788 0.0000 6.0650 0.0000
# 3 18.0203 -12.4788 23.8224 0.0000 -16.5542 0.0000
# 4 0.0000 0.0000 0.0000 9.8996 0.0000 -11.1853
# 5 16.2283 6.0650 -16.5542 0.0000 15.7165 0.0000
# 6 0.0000 0.0000 0.0000 -11.1853 0.0000 6.5872
#
#
#
# Elastic Compliance Matrix: (Units=1/GPa)
#
#
# Indices 1 2 3 4 5 6 
#
# 1 -0.004805 0.005975 0.032121 0.000000 0.036489 0.000000
# 2 0.005975 0.042553 0.007728 0.000000 -0.014452 0.000000
# 3 0.032121 0.007728 -0.012657 0.000000 -0.049481 0.000000
# 4 0.000000 0.000000 0.000000 -0.109968 0.000000 -0.186731
# 5 0.036489 -0.014452 -0.049481 0.000000 -0.020591 0.000000
# 6 0.000000 0.000000 0.000000 -0.186731 0.000000 -0.165267
#
#
# Mechanical properties :
#
#
# Convention : Reuss Voigt Hill
#
# Bulk Modulus (GPa) = 8.56600 10.11435 9.34017
# Shear Modulus (GPa) = -15.45734 11.87059 -1.79338
#
# Velocity S-wave (km/s) = -2.87526 2.51968 -0.97937
# Velocity P-wave (km/s) = 2.53800 3.72486 1.92784
#
# Compressibility (1/GPa) = 0.11674066
#
# Stress axis : x y z
#
# Youngs Moduli (GPa) = -208.10618 23.50001 -79.00954
#
# Poissons Ratio (x) = -0.14042 2.53788
# Poissons Ratio (y) = 1.24353 0.61059
# Poissons Ratio (z) = 6.68462 -0.18161
#
# Static dielectric constant tensor:
#      x y z
#    x 1.662640 0.000000 -0.006740 
#    y 0.000000 1.624410 0.000000 
#    z -0.006740 0.000000 1.655350 
# 
# From -- ./inp_files/90054.got.cif
#   From: 2010.05.17/outbox.cif.g08.bks.cpg/sg10_46_cif.got.tgz:90054.got - 2010.06.03 11:33:40.
