data_PCOD9145043
_publ_section_title
;
Structure prediction by ZEFSAII (Michael W. Deem and Ramdas Pophale) SiO2 
 PCOD9145043
Probable space group: P 2/M
;
_chemical_formula_sum "Si O2"
_cell_formula_units_Z 32
_cell_length_a 15.932335
_cell_length_b 9.155472
_cell_length_c 21.815983
_cell_angle_alpha 90.000000
_cell_angle_beta 147.120730
_cell_angle_gamma 90.000000
_cell_volume 1727.552700
_symmetry_space_group_name_H-M "P 2/M"
_symmetry_group_IT_number 10
_symmetry_cell_setting 'monoclinic'
loop_
_space_group_symop_operation_xyz
x,y,z
-x,y,-z
-x,-y,-z
x,-y,z
loop_
_atom_site_type_symbol
_atom_site_label
_atom_site_fract_x
_atom_site_fract_y
_atom_site_fract_z
Si Si1 0.009028 0.830845 0.937419
Si Si2 0.779800 0.323916 0.413830
Si Si3 0.872587 0.677187 0.336115
Si Si4 0.211518 0.329640 0.369173
Si Si5 0.666888 0.831261 0.670491
Si Si6 0.869412 0.671626 0.102260
Si Si7 0.677280 0.678614 0.098768
Si Si8 0.377064 0.826021 0.576308
O O1 0.835036 0.826877 0.804695
O O2 0.115869 0.751882 0.953358
O O3 0.058318 0.000000 0.972759
O O4 0.000000 0.766361 0.000000
O O5 0.767642 0.500000 0.410502
O O6 0.784046 0.283074 0.344678
O O7 0.649681 0.248849 0.374850
O O8 0.948354 0.280483 0.544758
O O9 0.873987 0.500000 0.334996
O O10 0.787081 0.727689 0.222235
O O11 0.240607 0.500000 0.399376
O O12 0.319112 0.269340 0.380513
O O13 0.246663 0.236055 0.450583
O O14 0.035523 0.314258 0.238242
O O15 0.537055 0.788511 0.639836
O O16 0.637782 0.000000 0.634003
O O17 0.843724 0.500000 0.075377
O O18 0.743777 0.726511 0.073917
O O19 0.682922 0.500000 0.102010
O O20 0.500000 0.721563 0.000000
O O21 0.368103 0.000000 0.576225
#
# Coordination Sequence:
#
# PCOD9145043 Si02
#       8
#     4   4   4   4   4   4   4   4
#     4   9  18  35  56  72  91 130 175 204 235 292
#     4   9  17  31  51  71  94 127 168 205 239 290
#     4   8  15  30  50  69  93 128 165 203 245 290
#     4  10  19  31  50  72  97 128 165 204 240 285
#     4   9  19  34  48  67  98 130 161 199 246 294
#     4   9  18  32  51  77 102 126 161 205 250 289
#     4   9  16  28  48  74 103 130 159 199 252 306
#     4  11  21  31  45  70 103 132 158 194 246 298
#
# _framework density 18.523313999999999
#
# number of rings (size 3 to 8) (size 9 to 14) (size 15 to 20)
#    0.000    2.750    0.000    2.625    0.000    5.250 
#    2.250    1.250    0.000    1.125    0.000    0.000 
#    0.000    0.000    0.000    0.000    0.000    0.000 
#
# Total GULP energy -178433.738111 kJ/mol
# GULP energy per Si atom -5576.054316 kJ/mol
# Density = 1.848115 g / cm^3
# Si number density = 18.523314 Si / 1000 Ang^3
#
#
#
# Elastic Constant Matrix: (Units=GPa)
#
#
# Indices 1 2 3 4 5 6 
#
# 1 177.5441 43.9701 32.4033 0.0000 -9.3516 0.0000
# 2 43.9701 24.8993 6.7094 0.0000 0.4011 0.0000
# 3 32.4033 6.7094 33.3859 0.0000 -12.2244 0.0000
# 4 0.0000 0.0000 0.0000 16.1500 0.0000 -21.1101
# 5 -9.3516 0.4011 -12.2244 0.0000 24.4027 0.0000
# 6 0.0000 0.0000 0.0000 -21.1101 0.0000 100.6322
#
#
#
# Elastic Compliance Matrix: (Units=1/GPa)
#
#
# Indices 1 2 3 4 5 6 
#
# 1 0.011587 -0.018575 -0.007072 0.000000 0.001203 0.000000
# 2 -0.018575 0.072991 0.000384 0.000000 -0.008126 0.000000
# 3 -0.007072 0.000384 0.043774 0.000000 0.019212 0.000000
# 4 0.000000 0.000000 0.000000 0.085312 0.000000 0.017896
# 5 0.001203 -0.008126 0.019212 0.000000 0.051198 0.000000
# 6 0.000000 0.000000 0.000000 0.017896 0.000000 0.013691
#
#
# Mechanical properties :
#
#
# Convention : Reuss Voigt Hill
#
# Bulk Modulus (GPa) = 12.84917 44.66607 28.75762
# Shear Modulus (GPa) = 14.08366 38.42009 26.25187
#
# Velocity S-wave (km/s) = 2.76038 4.55922 3.76870
# Velocity P-wave (km/s) = 4.13660 7.20286 5.87335
#
# Compressibility (1/GPa) = 0.07782606
#
# Stress axis : x y z
#
# Youngs Moduli (GPa) = 86.30564 13.70034 22.84441
#
# Poissons Ratio (x) = 0.25448 0.16157
# Poissons Ratio (y) = 1.60311 -0.00878
# Poissons Ratio (z) = 0.61039 -0.00527
#
# Static dielectric constant tensor:
#      x y z
#    x 1.652550 0.000000 -0.001210 
#    y 0.000000 1.623200 0.000000 
#    z -0.001210 0.000000 1.647290 
# 
# From -- ./inp_files/84756.got.cif
#   From: 2010.05.17/outbox.cif.g08.bks.cpg/sg10_43_cif.got.tgz:84756.got - 2010.06.03 11:33:40.
