data_PCOD9145429
_publ_section_title
;
Structure prediction by ZEFSAII (Michael W. Deem and Ramdas Pophale) SiO2 
 PCOD9145429
Probable space group: P 2/M
;
_chemical_formula_sum "Si O2"
_cell_formula_units_Z 30
_cell_length_a 12.997772
_cell_length_b 15.466273
_cell_length_c 10.078897
_cell_angle_alpha 90.000000
_cell_angle_beta 62.516899
_cell_angle_gamma 90.000000
_cell_volume 1797.476304
_symmetry_space_group_name_H-M "P 2/M"
_symmetry_group_IT_number 10
_symmetry_cell_setting 'monoclinic'
loop_
_space_group_symop_operation_xyz
x,y,z
-x,y,-z
-x,-y,-z
x,-y,z
loop_
_atom_site_type_symbol
_atom_site_label
_atom_site_fract_x
_atom_site_fract_y
_atom_site_fract_z
Si Si1 0.239021 0.400057 0.643004
Si Si2 0.034190 0.402204 0.235094
Si Si3 0.000000 0.277575 0.500000
Si Si4 0.402271 0.094218 0.943941
Si Si5 0.254005 0.247443 0.425261
Si Si6 0.748028 0.602451 0.064239
Si Si7 0.638546 0.731840 0.927103
Si Si8 0.568305 0.101522 0.594298
O O1 0.276342 0.500000 0.593234
O O2 0.270247 0.329309 0.514063
O O3 0.276636 0.373554 0.768820
O O4 0.098982 0.401567 0.729445
O O5 0.062692 0.500000 0.263629
O O6 0.044588 0.337828 0.352533
O O7 0.119666 0.381973 0.062862
O O8 0.884085 0.230694 0.514586
O O9 0.474226 0.110436 0.767745
O O10 0.343922 0.000000 0.971112
O O11 0.500000 0.088440 0.000000
O O12 0.325890 0.176356 0.027679
O O13 0.307343 0.271451 0.250656
O O14 0.325452 0.165695 0.439009
O O15 0.727379 0.500000 0.067080
O O16 0.675149 0.655320 0.001573
O O17 0.500000 0.731436 0.000000
O O18 0.500000 0.121867 0.500000
O O19 0.604024 0.000000 0.569770
#
# Coordination Sequence:
#
# PCOD9145429 Si02
#       8
#     4   4   2   4   4   4   4   4
#     4   9  20  34  52  77 105 144 185 223 269 316
#     4   9  16  30  53  75 102 137 186 234 263 303
#     4  10  19  32  49  84 114 142 176 216 280 328
#     4   9  17  33  56  79 102 128 172 224 267 309
#     4  11  21  35  56  81 115 143 178 226 272 329
#     4  10  20  34  51  74 106 143 184 226 266 316
#     4  11  21  34  53  78 105 141 180 224 270 319
#     4  10  21  37  59  85 108 138 181 229 272 314
#
# _framework density 16.690066999999999
#
# number of rings (size 3 to 8) (size 9 to 14) (size 15 to 20)
#    0.000    2.133    4.000    0.600    1.867    2.933 
#    0.000    0.333    0.000    2.000    0.000    0.000 
#    0.000    6.667    0.000    0.000    0.000    0.000 
#
# Total GULP energy -167094.128283 kJ/mol
# GULP energy per Si atom -5569.804276 kJ/mol
# Density = 1.665208 g / cm^3
# Si number density = 16.690067 Si / 1000 Ang^3
#
#
#
# Elastic Constant Matrix: (Units=GPa)
#
#
# Indices 1 2 3 4 5 6 
#
# 1 69.4111 45.4122 46.2855 0.0000 14.8366 0.0000
# 2 45.4122 73.8642 62.9628 0.0000 10.4511 0.0000
# 3 46.2855 62.9628 116.4891 0.0000 17.8999 0.0000
# 4 0.0000 0.0000 0.0000 24.5531 0.0000 0.3905
# 5 14.8366 10.4511 17.8999 0.0000 25.6142 0.0000
# 6 0.0000 0.0000 0.0000 0.3905 0.0000 21.5428
#
#
#
# Elastic Compliance Matrix: (Units=1/GPa)
#
#
# Indices 1 2 3 4 5 6 
#
# 1 0.026159 -0.013230 -0.001954 0.000000 -0.008388 0.000000
# 2 -0.013230 0.031813 -0.012459 0.000000 0.003390 0.000000
# 3 -0.001954 -0.012459 0.016961 0.000000 -0.005638 0.000000
# 4 0.000000 0.000000 0.000000 0.040740 0.000000 -0.000738
# 5 -0.008388 0.003390 -0.005638 0.000000 0.046456 0.000000
# 6 0.000000 0.000000 0.000000 -0.000738 0.000000 0.046433
#
#
# Mechanical properties :
#
#
# Convention : Reuss Voigt Hill
#
# Bulk Modulus (GPa) = 50.89898 63.23170 57.06534
# Shear Modulus (GPa) = 18.49134 21.34894 19.92014
#
# Velocity S-wave (km/s) = 3.33216 3.58039 3.45850
# Velocity P-wave (km/s) = 6.73552 7.42026 7.08617
#
# Compressibility (1/GPa) = 0.01964676
#
# Stress axis : x y z
#
# Youngs Moduli (GPa) = 38.22831 31.43373 58.95753
#
# Poissons Ratio (x) = 0.41587 0.11520
# Poissons Ratio (y) = 0.50576 0.73456
# Poissons Ratio (z) = 0.07470 0.39164
#
# Static dielectric constant tensor:
#      x y z
#    x 1.566140 0.000000 0.004700 
#    y 0.000000 1.596000 0.000000 
#    z 0.004700 0.000000 1.558000 
# 
# From -- ./inp_files/25853.got.cif
#   From: 2010.05.17/outbox.cif.g08.bks.cpg/sg10_13_cif.got.tgz:25853.got - 2010.06.03 11:33:40.
