data_PCOD9145082
_publ_section_title
;
Structure prediction by ZEFSAII (Michael W. Deem and Ramdas Pophale) SiO2 
 PCOD9145082
Probable space group: P 2/M
;
_chemical_formula_sum "Si O2"
_cell_formula_units_Z 32
_cell_length_a 12.783784
_cell_length_b 14.109267
_cell_length_c 14.623397
_cell_angle_alpha 90.000000
_cell_angle_beta 39.986188
_cell_angle_gamma 90.000000
_cell_volume 1694.942011
_symmetry_space_group_name_H-M "P 2/M"
_symmetry_group_IT_number 10
_symmetry_cell_setting 'monoclinic'
loop_
_space_group_symop_operation_xyz
x,y,z
-x,y,-z
-x,-y,-z
x,-y,z
loop_
_atom_site_type_symbol
_atom_site_label
_atom_site_fract_x
_atom_site_fract_y
_atom_site_fract_z
Si Si1 0.816212 0.114590 0.646978
Si Si2 0.942021 0.391597 0.636113
Si Si3 0.648968 0.304569 0.147510
Si Si4 0.526125 0.110592 0.200275
Si Si5 0.793128 0.890006 0.868712
Si Si6 0.033197 0.285855 0.189737
Si Si7 0.842539 0.607493 0.172831
Si Si8 0.558456 0.391674 0.865999
O O1 0.663107 0.137966 0.685532
O O2 0.774076 0.145465 0.778037
O O3 0.000000 0.143537 0.500000
O O4 0.816474 0.000000 0.647333
O O5 0.004813 0.500000 0.604040
O O6 0.979584 0.334051 0.702576
O O7 0.749524 0.396090 0.750866
O O8 0.000000 0.352469 0.500000
O O9 0.617198 0.194333 0.193200
O O10 0.693608 0.361679 0.208331
O O11 0.499320 0.341004 0.186970
O O12 0.801423 0.316688 0.974960
O O13 0.538434 0.000000 0.222246
O O14 0.624421 0.115394 0.037712
O O15 0.932398 0.825465 0.820543
O O16 0.841293 0.000000 0.835142
O O17 0.886148 0.320207 0.224574
O O18 0.824537 0.500000 0.219085
O O19 0.000000 0.608921 0.000000
O O20 0.491783 0.500000 0.906780
O O21 0.500000 0.345388 0.000000
#
# Coordination Sequence:
#
# PCOD9145082 Si02
#       8
#     4   4   4   4   4   4   4   4
#     4   9  17  29  46  71 102 136 174 215 255 302
#     4  10  21  35  51  76 108 137 165 207 269 327
#     4  10  19  31  52  77 103 134 178 216 258 308
#     4   9  18  31  47  70 105 141 171 208 259 312
#     4   9  18  31  47  70 103 140 174 209 257 310
#     4  10  19  32  52  75 104 137 176 214 260 311
#     4   9  18  32  52  78 104 132 171 223 269 307
#     4  10  19  31  50  75 104 133 164 210 264 312
#
# _framework density 18.879702000000002
#
# number of rings (size 3 to 8) (size 9 to 14) (size 15 to 20)
#    0.000    2.500    1.250    1.125    1.750    3.000 
#    0.000    0.625    0.000    4.500    0.000    3.500 
#    0.000    4.000    0.000    0.000    0.000    0.000 
#
# Total GULP energy -178270.395524 kJ/mol
# GULP energy per Si atom -5570.949860 kJ/mol
# Density = 1.883673 g / cm^3
# Si number density = 18.879702 Si / 1000 Ang^3
#
#
#
# Elastic Constant Matrix: (Units=GPa)
#
#
# Indices 1 2 3 4 5 6 
#
# 1 89.1450 31.3512 9.9514 0.0000 4.6353 0.0000
# 2 31.3512 74.5010 8.8923 0.0000 2.1811 0.0000
# 3 9.9514 8.8923 42.5844 0.0000 -0.6719 0.0000
# 4 0.0000 0.0000 0.0000 11.8915 0.0000 -5.0586
# 5 4.6353 2.1811 -0.6719 0.0000 11.3759 0.0000
# 6 0.0000 0.0000 0.0000 -5.0586 0.0000 29.0247
#
#
#
# Elastic Compliance Matrix: (Units=1/GPa)
#
#
# Indices 1 2 3 4 5 6 
#
# 1 0.013567 -0.005319 -0.002133 0.000000 -0.004634 0.000000
# 2 -0.005319 0.015942 -0.002102 0.000000 -0.001013 0.000000
# 3 -0.002133 -0.002102 0.024463 0.000000 0.002717 0.000000
# 4 0.000000 0.000000 0.000000 0.090828 0.000000 0.015830
# 5 -0.004634 -0.001013 0.002717 0.000000 0.090148 0.000000
# 6 0.000000 0.000000 0.000000 0.015830 0.000000 0.037212
#
#
# Mechanical properties :
#
#
# Convention : Reuss Voigt Hill
#
# Bulk Modulus (GPa) = 28.68274 34.06892 31.37583
# Shear Modulus (GPa) = 16.50768 20.86080 18.68424
#
# Velocity S-wave (km/s) = 2.96017 3.32766 3.14928
# Velocity P-wave (km/s) = 5.18737 5.73139 5.46615
#
# Compressibility (1/GPa) = 0.03486418
#
# Stress axis : x y z
#
# Youngs Moduli (GPa) = 73.70597 62.72922 40.87805
#
# Poissons Ratio (x) = 0.33366 0.08719
# Poissons Ratio (y) = 0.39205 0.08592
# Poissons Ratio (z) = 0.15721 0.13185
#
# Static dielectric constant tensor:
#      x y z
#    x 1.630070 0.000000 0.000140 
#    y 0.000000 1.724980 0.000000 
#    z 0.000140 0.000000 1.644530 
# 
# From -- ./inp_files/42962.got.cif
#   From: 2010.05.17/outbox.cif.g08.bks.cpg/sg10_22_cif.got.tgz:42962.got - 2010.06.03 11:33:40.
