data_PCOD9145142
_publ_section_title
;
Structure prediction by ZEFSAII (Michael W. Deem and Ramdas Pophale) SiO2 
 PCOD9145142
Probable space group: P 2/M
;
_chemical_formula_sum "Si O2"
_cell_formula_units_Z 24
_cell_length_a 25.700851
_cell_length_b 9.262906
_cell_length_c 12.734860
_cell_angle_alpha 90.000000
_cell_angle_beta 31.759118
_cell_angle_gamma 90.000000
_cell_volume 1595.742959
_symmetry_space_group_name_H-M "P 2/M"
_symmetry_group_IT_number 10
_symmetry_cell_setting 'monoclinic'
loop_
_space_group_symop_operation_xyz
x,y,z
-x,y,-z
-x,-y,-z
x,-y,z
loop_
_atom_site_type_symbol
_atom_site_label
_atom_site_fract_x
_atom_site_fract_y
_atom_site_fract_z
Si Si1 0.628615 0.000000 0.668935
Si Si2 0.110518 0.670603 0.652062
Si Si3 0.114680 0.329057 0.038151
Si Si4 0.109822 0.171692 0.266514
Si Si5 0.809629 0.163469 0.285539
Si Si6 0.402513 0.000000 0.026757
Si Si7 0.775396 0.835367 0.722880
O O1 0.696730 0.134519 0.516372
O O2 0.518977 0.000000 0.810403
O O3 0.618275 0.000000 0.812501
O O4 0.125090 0.500000 0.642248
O O5 0.133126 0.753819 0.720772
O O6 0.182314 0.732786 0.438914
O O7 0.998593 0.694096 0.805298
O O8 0.132928 0.500000 0.009032
O O9 0.126447 0.260115 0.132410
O O10 0.181261 0.249812 0.837521
O O11 0.186175 0.207675 0.228770
O O12 0.000000 0.200303 0.500000
O O13 0.116772 0.000000 0.232666
O O14 0.850266 0.000000 0.202724
O O15 0.341870 0.136426 0.084472
O O16 0.816358 0.000000 0.632958
#
# Coordination Sequence:
#
# PCOD9145142 Si02
#       7
#     2   4   4   4   4   2   4
#     4   9  18  32  59  80  96 126 160 227 261 301
#     4  11  20  31  47  74 110 142 164 195 248 305
#     4  11  23  33  47  72 110 147 170 198 243 305
#     4  10  19  31  51  74 104 135 176 213 237 284
#     4  10  20  35  51  75  97 133 175 209 255 293
#     4   9  16  34  57  81 102 117 168 213 274 297
#     4   9  17  32  52  76 102 132 164 211 251 292
#
# _framework density 15.040015
#
# number of rings (size 3 to 8) (size 9 to 14) (size 15 to 20)
#    1.000    1.000    3.333    2.000    0.000    5.000 
#    0.000    0.000    0.000    5.000    0.000    1.167 
#    0.000    0.000    0.000    0.000    0.000    0.000 
#
# Total GULP energy -133658.665890 kJ/mol
# GULP energy per Si atom -5569.111079 kJ/mol
# Density = 1.500578 g / cm^3
# Si number density = 15.040015 Si / 1000 Ang^3
#
#
#
# Elastic Constant Matrix: (Units=GPa)
#
#
# Indices 1 2 3 4 5 6 
#
# 1 107.4859 37.0971 41.6205 0.0000 10.2648 0.0000
# 2 37.0971 55.1389 27.1851 0.0000 11.9226 0.0000
# 3 41.6205 27.1851 44.0096 0.0000 8.5360 0.0000
# 4 0.0000 0.0000 0.0000 5.7081 0.0000 1.2102
# 5 10.2648 11.9226 8.5360 0.0000 29.2602 0.0000
# 6 0.0000 0.0000 0.0000 1.2102 0.0000 17.7050
#
#
#
# Elastic Compliance Matrix: (Units=1/GPa)
#
#
# Indices 1 2 3 4 5 6 
#
# 1 0.015446 -0.004565 -0.011763 0.000000 -0.000127 0.000000
# 2 -0.004565 0.028564 -0.012063 0.000000 -0.006518 0.000000
# 3 -0.011763 -0.012063 0.041916 0.000000 -0.003186 0.000000
# 4 0.000000 0.000000 0.000000 0.177764 0.000000 -0.012150
# 5 -0.000127 -0.006518 -0.003186 0.000000 0.037806 0.000000
# 6 0.000000 0.000000 0.000000 -0.012150 0.000000 0.057312
#
#
# Mechanical properties :
#
#
# Convention : Reuss Voigt Hill
#
# Bulk Modulus (GPa) = 34.31180 46.49334 40.40257
# Shear Modulus (GPa) = 11.75625 17.25011 14.50318
#
# Velocity S-wave (km/s) = 2.79886 3.39034 3.10870
# Velocity P-wave (km/s) = 5.77131 6.80485 6.30928
#
# Compressibility (1/GPa) = 0.02914450
#
# Stress axis : x y z
#
# Youngs Moduli (GPa) = 64.74117 35.00898 23.85711
#
# Poissons Ratio (x) = 0.15982 0.28064
# Poissons Ratio (y) = 0.29554 0.28778
# Poissons Ratio (z) = 0.76156 0.42231
#
# Static dielectric constant tensor:
#      x y z
#    x 1.495470 0.000000 -0.004640 
#    y 0.000000 1.496010 0.000000 
#    z -0.004640 0.000000 1.485120 
# 
# From -- ./inp_files/57234.got.cif
#   From: 2010.05.17/outbox.cif.g08.bks.cpg/sg10_29_cif.got.tgz:57234.got - 2010.06.03 11:33:40.
