data_PCOD9145862
_publ_section_title
;
Structure prediction by ZEFSAII (Michael W. Deem and Ramdas Pophale) SiO2 
 PCOD9145862
Probable space group: P 2/M
;
_chemical_formula_sum "Si O2"
_cell_formula_units_Z 28
_cell_length_a 14.458221
_cell_length_b 10.066182
_cell_length_c 19.730434
_cell_angle_alpha 90.000000
_cell_angle_beta 151.781261
_cell_angle_gamma 90.000000
_cell_volume 1357.780427
_symmetry_space_group_name_H-M "P 2/M"
_symmetry_group_IT_number 10
_symmetry_cell_setting 'monoclinic'
loop_
_space_group_symop_operation_xyz
x,y,z
-x,y,-z
-x,-y,-z
x,-y,z
loop_
_atom_site_type_symbol
_atom_site_label
_atom_site_fract_x
_atom_site_fract_y
_atom_site_fract_z
Si Si1 0.183224 0.646933 0.971454
Si Si2 0.775480 0.356341 0.373514
Si Si3 0.833353 0.348057 0.833418
Si Si4 0.713281 0.345680 0.119774
Si Si5 0.485307 0.853675 0.203615
Si Si6 0.855787 0.347783 0.582393
Si Si7 0.467659 0.151404 0.606597
O O1 0.245064 0.500000 0.036532
O O2 0.244763 0.656717 0.933374
O O3 0.955910 0.656915 0.842626
O O4 0.292224 0.765510 0.078729
O O5 0.708185 0.500000 0.303085
O O6 0.643537 0.234507 0.266081
O O7 0.768805 0.361533 0.450648
O O8 0.000000 0.339987 0.500000
O O9 0.756899 0.500000 0.792880
O O10 0.663679 0.238809 0.722732
O O11 0.000000 0.328863 0.000000
O O12 0.705071 0.500000 0.136982
O O13 0.921378 0.295383 0.282662
O O14 0.500000 0.287170 0.000000
O O15 0.547655 0.865587 0.321878
O O16 0.457736 0.000000 0.157196
O O17 0.862604 0.500000 0.615126
O O18 0.717773 0.244044 0.532503
O O19 0.472431 0.000000 0.581450
#
# Coordination Sequence:
#
# PCOD9145862 Si02
#       7
#     4   4   4   4   4   4   4
#     4  10  20  34  55  80 109 140 178 222 267 318
#     4   9  18  30  50  77 102 132 175 222 272 321
#     4  10  19  32  53  83 113 141 174 219 273 323
#     4   9  19  35  58  83 106 138 182 228 267 310
#     4  10  20  32  48  75 110 142 173 214 267 322
#     4   9  18  34  54  78 107 139 178 224 269 317
#     4  10  20  34  54  79 109 146 178 215 268 323
#
# _framework density 20.62189
#
# number of rings (size 3 to 8) (size 9 to 14) (size 15 to 20)
#    0.000    2.429    1.429    0.857    2.000    2.286 
#    0.000    1.429    0.000    5.143    0.000    0.000 
#    0.000    0.000    0.000    0.000    0.000    0.000 
#
# Total GULP energy -155966.298361 kJ/mol
# GULP energy per Si atom -5570.224941 kJ/mol
# Density = 2.057495 g / cm^3
# Si number density = 20.621890 Si / 1000 Ang^3
#
#
#
# Elastic Constant Matrix: (Units=GPa)
#
#
# Indices 1 2 3 4 5 6 
#
# 1 74.0121 39.5795 20.9662 0.0000 25.7007 0.0000
# 2 39.5795 168.1085 55.6770 0.0000 38.7545 0.0000
# 3 20.9662 55.6770 71.6007 0.0000 27.1738 0.0000
# 4 0.0000 0.0000 0.0000 60.4008 0.0000 51.4993
# 5 25.7007 38.7545 27.1738 0.0000 38.4476 0.0000
# 6 0.0000 0.0000 0.0000 51.4993 0.0000 55.3455
#
#
#
# Elastic Compliance Matrix: (Units=1/GPa)
#
#
# Indices 1 2 3 4 5 6 
#
# 1 0.018056 -0.001930 0.000076 0.000000 -0.010178 0.000000
# 2 -0.001930 0.008996 -0.004753 0.000000 -0.004418 0.000000
# 3 0.000076 -0.004753 0.021648 0.000000 -0.010560 0.000000
# 4 0.000000 0.000000 0.000000 0.080126 0.000000 -0.074558
# 5 -0.010178 -0.004418 -0.010560 0.000000 0.044730 0.000000
# 6 0.000000 0.000000 0.000000 -0.074558 0.000000 0.087445
#
#
# Mechanical properties :
#
#
# Convention : Reuss Voigt Hill
#
# Bulk Modulus (GPa) = 28.18003 60.68517 44.43260
# Shear Modulus (GPa) = 17.47989 44.00535 30.74262
#
# Velocity S-wave (km/s) = 2.91458 4.62444 3.86525
# Velocity P-wave (km/s) = 5.00211 7.61613 6.44308
#
# Compressibility (1/GPa) = 0.03548612
#
# Stress axis : x y z
#
# Youngs Moduli (GPa) = 55.38253 111.16458 46.19404
#
# Poissons Ratio (x) = 0.21455 -0.00353
# Poissons Ratio (y) = 0.10689 0.21957
# Poissons Ratio (z) = -0.00424 0.52839
#
# Static dielectric constant tensor:
#      x y z
#    x 1.784190 0.000000 -0.027320 
#    y 0.000000 1.764700 0.000000 
#    z -0.027320 0.000000 1.785390 
# 
# From -- ./inp_files/49313.got.cif
#   From: 2010.05.17/outbox.cif.g08.bks.cpg/sg10_25_cif.got.tgz:49313.got - 2010.06.03 11:33:40.
