data_PCOD9145366
_publ_section_title
;
Structure prediction by ZEFSAII (Michael W. Deem and Ramdas Pophale) SiO2 
 PCOD9145366
Probable space group: P 2/M
;
_chemical_formula_sum "Si O2"
_cell_formula_units_Z 24
_cell_length_a 22.102359
_cell_length_b 9.029011
_cell_length_c 12.371390
_cell_angle_alpha 90.000000
_cell_angle_beta 38.074050
_cell_angle_gamma 90.000000
_cell_volume 1522.498064
_symmetry_space_group_name_H-M "P 2/M"
_symmetry_group_IT_number 10
_symmetry_cell_setting 'monoclinic'
loop_
_space_group_symop_operation_xyz
x,y,z
-x,y,-z
-x,-y,-z
x,-y,z
loop_
_atom_site_type_symbol
_atom_site_label
_atom_site_fract_x
_atom_site_fract_y
_atom_site_fract_z
Si Si1 0.830536 0.324361 0.911295
Si Si2 0.662492 0.823714 0.268790
Si Si3 0.975642 0.829664 0.405586
Si Si4 0.562305 0.324061 0.019855
Si Si5 0.231541 0.178153 0.229047
Si Si6 0.509427 0.176594 0.664545
O O1 0.825373 0.500000 0.908412
O O2 0.790279 0.249040 0.857488
O O3 0.942891 0.271030 0.764616
O O4 0.759955 0.265672 0.104828
O O5 0.583217 0.795935 0.284629
O O6 0.606132 0.786727 0.458933
O O7 0.682434 0.000000 0.240108
O O8 0.861539 0.785715 0.563362
O O9 0.000000 0.826997 0.500000
O O10 0.986771 0.000000 0.354144
O O11 0.578951 0.500000 0.005188
O O12 0.505260 0.266026 0.205653
O O13 0.500000 0.294289 0.000000
O O14 0.666299 0.240426 0.872317
O O15 0.234693 0.000000 0.212436
O O16 0.510297 0.000000 0.685274
#
# Coordination Sequence:
#
# PCOD9145366 Si02
#       6
#     4   4   4   4   4   4
#     4  11  19  26  43  72 100 127 154 186 237 293
#     4   9  17  30  48  70  96 125 158 196 236 279
#     4   8  16  29  44  63  90 124 158 193 232 277
#     4  11  23  35  48  70  99 128 159 198 241 282
#     4  10  19  32  48  65  90 126 165 200 233 274
#     4   9  18  32  50  69  91 125 164 198 234 278
#
# _framework density 15.763567
#
# number of rings (size 3 to 8) (size 9 to 14) (size 15 to 20)
#    0.000    2.333    1.667    4.500    0.000    5.667 
#    0.000    1.667    0.000    0.000    0.000    1.167 
#    0.000    9.333    0.000    0.000    0.000    0.000 
#
# Total GULP energy -133806.736389 kJ/mol
# GULP energy per Si atom -5575.280683 kJ/mol
# Density = 1.572769 g / cm^3
# Si number density = 15.763567 Si / 1000 Ang^3
#
#
#
# Elastic Constant Matrix: (Units=GPa)
#
#
# Indices 1 2 3 4 5 6 
#
# 1 53.9141 41.5584 51.0855 0.0000 -3.5404 0.0000
# 2 41.5584 79.8737 80.7001 0.0000 -8.2790 0.0000
# 3 51.0855 80.7001 150.1649 0.0000 -19.7801 0.0000
# 4 0.0000 0.0000 0.0000 -155.6843 0.0000 80.7349
# 5 -3.5404 -8.2790 -19.7801 0.0000 17.1119 0.0000
# 6 0.0000 0.0000 0.0000 80.7349 0.0000 -20.5918
#
#
#
# Elastic Compliance Matrix: (Units=1/GPa)
#
#
# Indices 1 2 3 4 5 6 
#
# 1 0.032549 -0.012243 -0.005174 0.000000 -0.005171 0.000000
# 2 -0.012243 0.032288 -0.013522 0.000000 -0.002542 0.000000
# 3 -0.005174 -0.013522 0.017321 0.000000 0.012409 0.000000
# 4 0.000000 0.000000 0.000000 0.006217 0.000000 0.024374
# 5 -0.005171 -0.002542 0.012409 0.000000 0.070484 0.000000
# 6 0.000000 0.000000 0.000000 0.024374 0.000000 0.047002
#
#
# Mechanical properties :
#
#
# Convention : Reuss Voigt Hill
#
# Bulk Modulus (GPa) = 49.31147 70.07120 59.69133
# Shear Modulus (GPa) = 18.21505 -24.45895 -3.12195
#
# Velocity S-wave (km/s) = 3.40298 -3.94332 -1.40882
# Velocity P-wave (km/s) = 6.84033 4.88004 5.94159
#
# Compressibility (1/GPa) = 0.02027926
#
# Stress axis : x y z
#
# Youngs Moduli (GPa) = 30.72314 30.97134 57.73370
#
# Poissons Ratio (x) = 0.37918 0.29874
# Poissons Ratio (y) = 0.37615 0.78065
# Poissons Ratio (z) = 0.15898 0.41878
#
# Static dielectric constant tensor:
#      x y z
#    x 1.496860 0.000000 -0.019900 
#    y 0.000000 1.519560 0.000000 
#    z -0.019900 0.000000 1.554140 
# 
# From -- ./inp_files/54592.got.cif
#   From: 2010.05.17/outbox.cif.g08.bks.cpg/sg10_28_cif.got.tgz:54592.got - 2010.06.03 11:33:40.
