data_PCOD9145944
_publ_section_title
;
Structure prediction by ZEFSAII (Michael W. Deem and Ramdas Pophale) SiO2 
 PCOD9145944
Probable space group: P 2/M
;
_chemical_formula_sum "Si O2"
_cell_formula_units_Z 30
_cell_length_a 17.821423
_cell_length_b 9.773671
_cell_length_c 27.386168
_cell_angle_alpha 90.000000
_cell_angle_beta 19.248801
_cell_angle_gamma 90.000000
_cell_volume 1572.577151
_symmetry_space_group_name_H-M "P 2/M"
_symmetry_group_IT_number 10
_symmetry_cell_setting 'monoclinic'
loop_
_space_group_symop_operation_xyz
x,y,z
-x,y,-z
-x,-y,-z
x,-y,z
loop_
_atom_site_type_symbol
_atom_site_label
_atom_site_fract_x
_atom_site_fract_y
_atom_site_fract_z
Si Si1 0.286148 0.649223 0.034274
Si Si2 0.500000 0.245525 0.000000
Si Si3 0.931266 0.844900 0.676412
Si Si4 0.375197 0.150292 0.298986
Si Si5 0.861382 0.335859 0.136224
Si Si6 0.878706 0.157365 0.942742
Si Si7 0.787332 0.654004 0.678336
Si Si8 0.424223 0.158099 0.385362
O O1 0.175988 0.500000 0.096167
O O2 0.362357 0.672076 0.043196
O O3 0.144316 0.770234 0.095997
O O4 0.525977 0.646543 0.858178
O O5 0.699134 0.165136 0.849657
O O6 0.908854 0.744118 0.644678
O O7 0.164812 0.814463 0.561918
O O8 0.954345 0.000000 0.644259
O O9 0.236132 0.270405 0.358845
O O10 0.406557 0.165113 0.337328
O O11 0.275375 0.000000 0.349695
O O12 0.625315 0.150938 0.121228
O O13 0.853477 0.500000 0.148670
O O14 0.613199 0.266592 0.284556
O O15 0.983980 0.255420 0.104924
O O16 0.000000 0.312241 0.000000
O O17 0.962728 0.000000 0.888704
O O18 0.874546 0.500000 0.623297
O O19 0.486876 0.000000 0.359459
#
# Coordination Sequence:
#
# PCOD9145944 Si02
#       8
#     4   2   4   4   4   4   4   4
#     4   9  18  33  54  82 112 143 183 229 277 331
#     4  10  20  36  62  88 108 142 184 232 286 336
#     4  10  21  36  55  78 107 141 183 232 279 330
#     4   9  17  30  49  73 105 144 184 220 261 317
#     4  11  22  35  55  82 113 151 188 226 272 324
#     4  10  19  32  54  82 112 148 188 228 269 320
#     4   9  18  31  49  73 106 144 181 220 269 325
#     4  10  21  36  53  77 108 146 187 228 272 322
#
# _framework density 19.076965000000001
#
# number of rings (size 3 to 8) (size 9 to 14) (size 15 to 20)
#    0.000    2.267    1.333    1.600    0.000    6.933 
#    0.000    2.667    0.000    0.800    0.000    4.667 
#    0.000    0.000    0.000    0.000    0.000    0.000 
#
# Total GULP energy -167288.349603 kJ/mol
# GULP energy per Si atom -5576.278320 kJ/mol
# Density = 1.903354 g / cm^3
# Si number density = 19.076965 Si / 1000 Ang^3
#
#
#
# Elastic Constant Matrix: (Units=GPa)
#
#
# Indices 1 2 3 4 5 6 
#
# 1 92.2333 64.4829 20.0781 0.0000 -10.6842 0.0000
# 2 64.4829 162.5962 47.9691 0.0000 -27.2139 0.0000
# 3 20.0781 47.9691 75.1908 0.0000 -10.7681 0.0000
# 4 0.0000 0.0000 0.0000 -46.3802 0.0000 -31.5197
# 5 -10.6842 -27.2139 -10.7681 0.0000 27.1755 0.0000
# 6 0.0000 0.0000 0.0000 -31.5197 0.0000 13.3510
#
#
#
# Elastic Compliance Matrix: (Units=1/GPa)
#
#
# Indices 1 2 3 4 5 6 
#
# 1 0.015006 -0.005891 -0.000264 0.000000 -0.000104 0.000000
# 2 -0.005891 0.010944 -0.004422 0.000000 0.006892 0.000000
# 3 -0.000264 -0.004422 0.016477 0.000000 0.001997 0.000000
# 4 0.000000 0.000000 0.000000 -0.008279 0.000000 -0.019545
# 5 -0.000104 0.006892 0.001997 0.000000 0.044450 0.000000
# 6 0.000000 0.000000 0.000000 -0.019545 0.000000 0.028759
#
#
# Mechanical properties :
#
#
# Convention : Reuss Voigt Hill
#
# Bulk Modulus (GPa) = 47.00576 66.12003 56.56290
# Shear Modulus (GPa) = 36.87258 11.99528 24.43393
#
# Velocity S-wave (km/s) = 4.40117 2.51028 3.58272
# Velocity P-wave (km/s) = 7.10778 6.56786 6.84315
#
# Compressibility (1/GPa) = 0.02127399
#
# Stress axis : x y z
#
# Youngs Moduli (GPa) = 66.64115 91.37074 60.69006
#
# Poissons Ratio (x) = 0.53822 0.01601
# Poissons Ratio (y) = 0.39255 0.26839
# Poissons Ratio (z) = 0.01758 0.40406
#
# Static dielectric constant tensor:
#      x y z
#    x 1.652290 0.000000 0.012730 
#    y 0.000000 1.675070 0.000000 
#    z 0.012730 0.000000 1.699010 
# 
# From -- ./inp_files/80706.got.cif
#   From: 2010.05.17/outbox.cif.g08.bks.cpg/sg10_41_cif.got.tgz:80706.got - 2010.06.03 11:33:40.
