data_PCOD9145130
_publ_section_title
;
Structure prediction by ZEFSAII (Michael W. Deem and Ramdas Pophale) SiO2 
 PCOD9145130
Probable space group: P 2/M
;
_chemical_formula_sum "Si O2"
_cell_formula_units_Z 24
_cell_length_a 16.099872
_cell_length_b 14.553677
_cell_length_c 7.871280
_cell_angle_alpha 90.000000
_cell_angle_beta 145.047709
_cell_angle_gamma 90.000000
_cell_volume 1056.610451
_symmetry_space_group_name_H-M "P 2/M"
_symmetry_group_IT_number 10
_symmetry_cell_setting 'monoclinic'
loop_
_space_group_symop_operation_xyz
x,y,z
-x,y,-z
-x,-y,-z
x,-y,z
loop_
_atom_site_type_symbol
_atom_site_label
_atom_site_fract_x
_atom_site_fract_y
_atom_site_fract_z
Si Si1 0.158797 0.395028 0.423101
Si Si2 0.411504 0.706500 0.670861
Si Si3 0.347974 0.102466 0.647455
Si Si4 0.041338 0.896731 0.267574
Si Si5 0.915988 0.714054 0.183199
Si Si6 0.667347 0.606511 0.924439
O O1 0.135692 0.500000 0.337980
O O2 0.265083 0.345842 0.470889
O O3 0.244743 0.394832 0.748459
O O4 0.009888 0.341972 0.204474
O O5 0.370182 0.811853 0.559337
O O6 0.500000 0.710951 0.000000
O O7 0.513999 0.651349 0.715634
O O8 0.214053 0.126578 0.550283
O O9 0.314275 0.000000 0.520954
O O10 0.500000 0.094830 0.000000
O O11 0.941030 0.821074 0.185925
O O12 0.024053 0.000000 0.306544
O O13 0.000000 0.896831 0.000000
O O14 0.758873 0.671616 0.952598
O O15 0.000000 0.698110 0.500000
O O16 0.658654 0.500000 0.853406
#
# Coordination Sequence:
#
# PCOD9145130 Si02
#       6
#     4   4   4   4   4   4
#     4   9  15  25  43  70 104 141 183 226 269 320
#     4   9  15  25  44  72 104 140 179 222 266 320
#     4   9  17  30  52  80 106 135 181 235 275 312
#     4  10  21  38  58  81 111 148 186 225 276 335
#     4  10  19  31  50  80 111 143 179 230 279 325
#     4   9  17  27  43  73 112 144 175 226 283 322
#
# _framework density 22.714141999999999
#
# number of rings (size 3 to 8) (size 9 to 14) (size 15 to 20)
#    0.000    2.667    1.667    1.000    2.333    4.333 
#    0.000    0.833    0.000    3.000    0.000    4.667 
#    0.000    0.000    0.000    0.000    0.000    0.000 
#
# Total GULP energy -134132.187462 kJ/mol
# GULP energy per Si atom -5588.841144 kJ/mol
# Density = 2.266244 g / cm^3
# Si number density = 22.714142 Si / 1000 Ang^3
#
#
#
# Elastic Constant Matrix: (Units=GPa)
#
#
# Indices 1 2 3 4 5 6 
#
# 1 132.3206 96.2621 44.4145 0.0000 43.4782 0.0000
# 2 96.2621 219.6268 28.6137 0.0000 51.6518 0.0000
# 3 44.4145 28.6137 109.0078 0.0000 27.4291 0.0000
# 4 0.0000 0.0000 0.0000 272.2683 0.0000 234.7594
# 5 43.4782 51.6518 27.4291 0.0000 47.3718 0.0000
# 6 0.0000 0.0000 0.0000 234.7594 0.0000 215.7287
#
#
#
# Elastic Compliance Matrix: (Units=1/GPa)
#
#
# Indices 1 2 3 4 5 6 
#
# 1 0.013575 -0.004084 -0.002861 0.000000 -0.006350 0.000000
# 2 -0.004084 0.007353 0.000946 0.000000 -0.004816 0.000000
# 3 -0.002861 0.000946 0.011342 0.000000 -0.004973 0.000000
# 4 0.000000 0.000000 0.000000 0.059526 0.000000 -0.064777
# 5 -0.006350 -0.004816 -0.004973 0.000000 0.035068 0.000000
# 6 0.000000 0.000000 0.000000 -0.064777 0.000000 0.075127
#
#
# Mechanical properties :
#
#
# Convention : Reuss Voigt Hill
#
# Bulk Modulus (GPa) = 49.33014 88.83730 69.08372
# Shear Modulus (GPa) = 22.65024 126.51809 74.58416
#
# Velocity S-wave (km/s) = 3.16125 7.47135 5.73649
# Velocity P-wave (km/s) = 5.92365 10.65946 8.62304
#
# Compressibility (1/GPa) = 0.02027158
#
# Stress axis : x y z
#
# Youngs Moduli (GPa) = 73.66330 136.00597 88.16429
#
# Poissons Ratio (x) = 0.55543 0.25227
# Poissons Ratio (y) = 0.30083 -0.08339
# Poissons Ratio (z) = 0.21078 -0.12864
#
# Static dielectric constant tensor:
#      x y z
#    x 1.814180 0.000000 -0.038550 
#    y 0.000000 1.847030 0.000000 
#    z -0.038550 0.000000 1.901060 
# 
# From -- ./inp_files/29652.got.cif
#   From: 2010.05.17/outbox.cif.g08.bks.cpg/sg10_15_cif.got.tgz:29652.got - 2010.06.03 11:33:40.
