data_PCOD9145482
_publ_section_title
;
Structure prediction by ZEFSAII (Michael W. Deem and Ramdas Pophale) SiO2 
 PCOD9145482
Probable space group: P 2/M
;
_chemical_formula_sum "Si O2"
_cell_formula_units_Z 28
_cell_length_a 12.216760
_cell_length_b 7.419773
_cell_length_c 15.628342
_cell_angle_alpha 90.000000
_cell_angle_beta 118.066250
_cell_angle_gamma 90.000000
_cell_volume 1250.049225
_symmetry_space_group_name_H-M "P 2/M"
_symmetry_group_IT_number 10
_symmetry_cell_setting 'monoclinic'
loop_
_space_group_symop_operation_xyz
x,y,z
-x,y,-z
-x,-y,-z
x,-y,z
loop_
_atom_site_type_symbol
_atom_site_label
_atom_site_fract_x
_atom_site_fract_y
_atom_site_fract_z
Si Si1 0.222246 0.287781 0.801435
Si Si2 0.082491 0.779149 0.111885
Si Si3 0.631959 0.783391 0.312184
Si Si4 0.636965 0.203857 0.799477
Si Si5 0.125135 0.778990 0.495632
Si Si6 0.380519 0.718007 0.011865
Si Si7 0.045302 0.202607 0.288729
O O1 0.198696 0.500000 0.796558
O O2 0.328813 0.258548 0.770821
O O3 0.265474 0.225828 0.910621
O O4 0.095335 0.196037 0.728549
O O5 0.226031 0.717305 0.161620
O O6 0.037921 0.721099 0.190147
O O7 0.080174 0.000000 0.106612
O O8 0.000000 0.718746 0.000000
O O9 0.493232 0.714277 0.280921
O O10 0.748292 0.720880 0.411576
O O11 0.626159 0.000000 0.317335
O O12 0.643734 0.000000 0.767467
O O13 0.620361 0.199763 0.895644
O O14 0.119802 0.715273 0.395176
O O15 0.000000 0.722872 0.500000
O O16 0.123771 0.000000 0.494543
O O17 0.379253 0.500000 0.020337
O O18 0.500000 0.765748 0.000000
O O19 0.094227 0.000000 0.295530
#
# Coordination Sequence:
#
# PCOD9145482 Si02
#       7
#     4   4   4   4   4   4   4
#     4  11  21  32  49  75 106 133 167 212 258 306
#     4   9  18  33  52  76 104 132 170 217 258 299
#     4  10  19  32  50  74 104 133 168 211 255 306
#     4  10  20  33  52  77 102 132 175 219 250 296
#     4   9  16  29  50  76 103 133 171 209 254 311
#     4  10  20  33  47  69 104 138 165 201 257 316
#     4  10  19  34  56  74  99 140 175 207 258 308
#
# _framework density 22.399118000000001
#
# number of rings (size 3 to 8) (size 9 to 14) (size 15 to 20)
#    0.000    2.143    2.857    1.286    0.000    2.571 
#    0.000    2.857    0.000    6.857    0.000    0.000 
#    0.000    3.429    0.000    0.000    0.000    0.000 
#
# Total GULP energy -156256.221148 kJ/mol
# GULP energy per Si atom -5580.579327 kJ/mol
# Density = 2.234814 g / cm^3
# Si number density = 22.399118 Si / 1000 Ang^3
#
#
#
# Elastic Constant Matrix: (Units=GPa)
#
#
# Indices 1 2 3 4 5 6 
#
# 1 123.7497 1.6264 50.7257 0.0000 22.0986 0.0000
# 2 1.6264 75.4508 5.4445 0.0000 4.0910 0.0000
# 3 50.7257 5.4445 155.9613 0.0000 22.1997 0.0000
# 4 0.0000 0.0000 0.0000 75.4787 0.0000 -24.1120
# 5 22.0986 4.0910 22.1997 0.0000 41.5193 0.0000
# 6 0.0000 0.0000 0.0000 -24.1120 0.0000 7.3745
#
#
#
# Elastic Compliance Matrix: (Units=1/GPa)
#
#
# Indices 1 2 3 4 5 6 
#
# 1 0.009857 0.000188 -0.002666 0.000000 -0.003839 0.000000
# 2 0.000188 0.013342 -0.000352 0.000000 -0.001226 0.000000
# 3 -0.002666 -0.000352 0.007668 0.000000 -0.002646 0.000000
# 4 0.000000 0.000000 0.000000 -0.297683 0.000000 -0.973320
# 5 -0.003839 -0.001226 -0.002646 0.000000 0.027664 0.000000
# 6 0.000000 0.000000 0.000000 -0.973320 0.000000 -3.046818
#
#
# Mechanical properties :
#
#
# Convention : Reuss Voigt Hill
#
# Bulk Modulus (GPa) = 39.67353 52.30610 45.98982
# Shear Modulus (GPa) = -1.52816 44.69885 21.58534
#
# Velocity S-wave (km/s) = -0.82688 4.47202 3.10767
# Velocity P-wave (km/s) = 4.10352 7.07586 5.78389
#
# Compressibility (1/GPa) = 0.02520572
#
# Stress axis : x y z
#
# Youngs Moduli (GPa) = 101.45339 74.95396 130.41382
#
# Poissons Ratio (x) = -0.01410 0.34767
# Poissons Ratio (y) = -0.01908 0.04595
# Poissons Ratio (z) = 0.27047 0.02641
#
# Static dielectric constant tensor:
#      x y z
#    x 1.834150 0.000000 0.035130 
#    y 0.000000 1.834480 0.000000 
#    z 0.035130 0.000000 1.830410 
# 
# From -- ./inp_files/49348.got.cif
#   From: 2010.05.17/outbox.cif.g08.bks.cpg/sg10_25_cif.got.tgz:49348.got - 2010.06.03 11:33:40.
