data_PCOD9145678
_publ_section_title
;
Structure prediction by ZEFSAII (Michael W. Deem and Ramdas Pophale) SiO2 
 PCOD9145678
Probable space group: P 2/M
;
_chemical_formula_sum "Si O2"
_cell_formula_units_Z 28
_cell_length_a 30.063354
_cell_length_b 7.601755
_cell_length_c 9.476565
_cell_angle_alpha 90.000000
_cell_angle_beta 38.553074
_cell_angle_gamma 90.000000
_cell_volume 1349.761649
_symmetry_space_group_name_H-M "P 2/M"
_symmetry_group_IT_number 10
_symmetry_cell_setting 'monoclinic'
loop_
_space_group_symop_operation_xyz
x,y,z
-x,y,-z
-x,-y,-z
x,-y,z
loop_
_atom_site_type_symbol
_atom_site_label
_atom_site_fract_x
_atom_site_fract_y
_atom_site_fract_z
Si Si1 0.363653 0.206493 0.684283
Si Si2 0.775238 0.793615 0.481309
Si Si3 0.637884 0.216091 0.990540
Si Si4 0.067843 0.787680 0.244281
Si Si5 0.496485 0.215336 0.171075
Si Si6 0.227908 0.294419 0.839533
Si Si7 0.931998 0.784487 0.080746
O O1 0.362666 0.277380 0.845972
O O2 0.425957 0.277604 0.428430
O O3 0.287933 0.222288 0.794555
O O4 0.379857 0.000000 0.659979
O O5 0.766548 0.780673 0.333286
O O6 0.853814 0.722059 0.323385
O O7 0.777613 0.000000 0.509912
O O8 0.707935 0.720998 0.732719
O O9 0.566668 0.267421 0.083735
O O10 0.638996 0.000000 0.987313
O O11 0.000000 0.722987 0.500000
O O12 0.066341 0.000000 0.250970
O O13 0.147341 0.735846 0.094030
O O14 0.060511 0.731398 0.100372
O O15 0.494971 0.000000 0.171232
O O16 0.500000 0.273719 0.000000
O O17 0.240256 0.500000 0.795441
O O18 0.931253 0.000000 0.086171
O O19 0.000000 0.725400 0.000000
#
# Coordination Sequence:
#
# PCOD9145678 Si02
#       7
#     4   4   4   4   4   4   4
#     4  10  19  32  52  77 105 134 169 214 260 308
#     4   9  17  32  53  74  98 131 173 216 257 305
#     4   9  17  29  50  80 105 128 166 218 269 309
#     4   9  18  33  54  77 100 129 168 212 255 300
#     4   9  16  27  48  78 107 133 164 209 262 311
#     4  11  22  35  51  72 103 141 177 210 250 303
#     4   8  14  25  44  71  98 122 153 198 247 293
#
# _framework density 20.744402000000001
#
# number of rings (size 3 to 8) (size 9 to 14) (size 15 to 20)
#    0.000    2.714    0.000    3.429    0.000    5.429 
#    0.000    5.000    0.000   12.429    0.000    0.000 
#    0.000    0.000    0.000    0.000    0.000    0.000 
#
# Total GULP energy -156260.956223 kJ/mol
# GULP energy per Si atom -5580.748437 kJ/mol
# Density = 2.069719 g / cm^3
# Si number density = 20.744402 Si / 1000 Ang^3
#
#
#
# Elastic Constant Matrix: (Units=GPa)
#
#
# Indices 1 2 3 4 5 6 
#
# 1 168.9191 -10.3043 106.4714 0.0000 -3.5794 0.0000
# 2 -10.3043 39.7332 -0.6086 0.0000 0.3337 0.0000
# 3 106.4714 -0.6086 202.8274 0.0000 -13.0623 0.0000
# 4 0.0000 0.0000 0.0000 -15.8290 0.0000 3.2746
# 5 -3.5794 0.3337 -13.0623 0.0000 11.3904 0.0000
# 6 0.0000 0.0000 0.0000 3.2746 0.0000 -21.8809
#
#
#
# Elastic Compliance Matrix: (Units=1/GPa)
#
#
# Indices 1 2 3 4 5 6 
#
# 1 0.009136 0.002318 -0.004976 0.000000 -0.002903 0.000000
# 2 0.002318 0.025762 -0.001232 0.000000 -0.001439 0.000000
# 3 -0.004976 -0.001232 0.008034 0.000000 0.007685 0.000000
# 4 0.000000 0.000000 0.000000 -0.065193 0.000000 -0.009757
# 5 -0.002903 -0.001439 0.007685 0.000000 0.095736 0.000000
# 6 0.000000 0.000000 0.000000 -0.009757 0.000000 -0.047162
#
#
# Mechanical properties :
#
#
# Convention : Reuss Voigt Hill
#
# Bulk Modulus (GPa) = 28.44852 66.95520 47.70186
# Shear Modulus (GPa) = 109.14575 15.79750 62.47162
#
# Velocity S-wave (km/s) = 7.26146 2.76258 5.49366
# Velocity P-wave (km/s) = 9.16780 6.52090 7.95521
#
# Compressibility (1/GPa) = 0.03515122
#
# Stress axis : x y z
#
# Youngs Moduli (GPa) = 109.45415 38.81669 124.47715
#
# Poissons Ratio (x) = -0.08996 0.61939
# Poissons Ratio (y) = -0.25367 0.15335
# Poissons Ratio (z) = 0.54464 0.04782
#
# Static dielectric constant tensor:
#      x y z
#    x 1.730190 0.000000 -0.004580 
#    y 0.000000 1.760190 0.000000 
#    z -0.004580 0.000000 1.738660 
# 
# From -- ./inp_files/37904.got.cif
#   From: 2010.05.17/outbox.cif.g08.bks.cpg/sg10_19_cif.got.tgz:37904.got - 2010.06.03 11:33:40.
