data_PCOD9145098
_publ_section_title
;
Structure prediction by ZEFSAII (Michael W. Deem and Ramdas Pophale) SiO2 
 PCOD9145098
Probable space group: P 2/M
;
_chemical_formula_sum "Si O2"
_cell_formula_units_Z 24
_cell_length_a 19.958618
_cell_length_b 8.996377
_cell_length_c 11.482831
_cell_angle_alpha 90.000000
_cell_angle_beta 43.940180
_cell_angle_gamma 90.000000
_cell_volume 1430.699185
_symmetry_space_group_name_H-M "P 2/M"
_symmetry_group_IT_number 10
_symmetry_cell_setting 'monoclinic'
loop_
_space_group_symop_operation_xyz
x,y,z
-x,y,-z
-x,-y,-z
x,-y,z
loop_
_atom_site_type_symbol
_atom_site_label
_atom_site_fract_x
_atom_site_fract_y
_atom_site_fract_z
Si Si1 0.530139 0.170473 0.099007
Si Si2 0.318901 0.178341 0.402402
Si Si3 0.049112 0.677835 0.121362
Si Si4 0.720098 0.676679 0.800047
Si Si5 0.848298 0.677590 0.249729
Si Si6 0.097362 0.823663 0.304905
O O1 0.431199 0.217715 0.285611
O O2 0.554410 0.000000 0.099917
O O3 0.500000 0.169842 0.000000
O O4 0.623693 0.272574 0.989660
O O5 0.288229 0.252117 0.318285
O O6 0.245220 0.235185 0.591393
O O7 0.315065 0.000000 0.394510
O O8 0.053171 0.500000 0.137234
O O9 0.080230 0.765130 0.196230
O O10 0.939548 0.713480 0.218972
O O11 0.116419 0.709977 0.925406
O O12 0.724152 0.500000 0.785108
O O13 0.813832 0.739826 0.746465
O O14 0.832080 0.500000 0.278586
O O15 0.000000 0.795370 0.500000
O O16 0.115808 0.000000 0.282344
#
# Coordination Sequence:
#
# PCOD9145098 Si02
#       6
#     4   4   4   4   4   4
#     4   8  16  31  48  69 100 132 161 200 247 293
#     4  10  19  31  50  76 104 132 164 203 247 293
#     4   9  19  35  52  73 101 133 167 202 245 291
#     4  11  21  32  50  74 101 133 166 204 249 294
#     4   9  18  33  53  75 101 131 164 205 246 289
#     4  11  23  36  51  73 101 133 167 202 243 294
#
# _framework density 16.775015
#
# number of rings (size 3 to 8) (size 9 to 14) (size 15 to 20)
#    0.000    2.333    0.000    5.500    0.000    9.000 
#    0.000    1.667    0.000    1.000    0.000    7.000 
#    0.000    0.000    0.000    0.000    0.000    0.000 
#
# Total GULP energy -133901.351171 kJ/mol
# GULP energy per Si atom -5579.222965 kJ/mol
# Density = 1.673683 g / cm^3
# Si number density = 16.775015 Si / 1000 Ang^3
#
#
#
# Elastic Constant Matrix: (Units=GPa)
#
#
# Indices 1 2 3 4 5 6 
#
# 1 69.8559 52.8649 36.5178 0.0000 -9.3139 0.0000
# 2 52.8649 82.5554 60.4408 0.0000 -16.1155 0.0000
# 3 36.5178 60.4408 110.6688 0.0000 -25.5738 0.0000
# 4 0.0000 0.0000 0.0000 122.1496 0.0000 132.6337
# 5 -9.3139 -16.1155 -25.5738 0.0000 22.0205 0.0000
# 6 0.0000 0.0000 0.0000 132.6337 0.0000 215.7719
#
#
#
# Elastic Compliance Matrix: (Units=1/GPa)
#
#
# Indices 1 2 3 4 5 6 
#
# 1 0.027845 -0.018544 0.000717 0.000000 -0.000960 0.000000
# 2 -0.018544 0.032650 -0.010939 0.000000 0.003347 0.000000
# 3 0.000717 -0.010939 0.017760 0.000000 0.012924 0.000000
# 4 0.000000 0.000000 0.000000 0.024618 0.000000 -0.015133
# 5 -0.000960 0.003347 0.012924 0.000000 0.062464 0.000000
# 6 0.000000 0.000000 0.000000 -0.015133 0.000000 0.013936
#
#
# Mechanical properties :
#
#
# Convention : Reuss Voigt Hill
#
# Bulk Modulus (GPa) = 48.25245 62.52523 55.38884
# Shear Modulus (GPa) = 20.51596 79.53885 50.02741
#
# Velocity S-wave (km/s) = 3.50095 6.89333 5.46693
# Velocity P-wave (km/s) = 6.72079 10.03549 8.54050
#
# Compressibility (1/GPa) = 0.02072434
#
# Stress axis : x y z
#
# Youngs Moduli (GPa) = 35.91257 30.62823 56.30642
#
# Poissons Ratio (x) = 0.56796 -0.04038
# Poissons Ratio (y) = 0.66595 0.61594
# Poissons Ratio (z) = -0.02576 0.33504
#
# Static dielectric constant tensor:
#      x y z
#    x 1.536230 0.000000 -0.013470 
#    y 0.000000 1.557120 0.000000 
#    z -0.013470 0.000000 1.582840 
# 
# From -- ./inp_files/52881.got.cif
#   From: 2010.05.17/outbox.cif.g08.bks.cpg/sg10_27_cif.got.tgz:52881.got - 2010.06.03 11:33:40.
