data_PCOD9145638
_publ_section_title
;
Structure prediction by ZEFSAII (Michael W. Deem and Ramdas Pophale) SiO2 
 PCOD9145638
Probable space group: P 2/M
;
_chemical_formula_sum "Si O2"
_cell_formula_units_Z 28
_cell_length_a 30.116243
_cell_length_b 9.839696
_cell_length_c 8.529720
_cell_angle_alpha 90.000000
_cell_angle_beta 36.492744
_cell_angle_gamma 90.000000
_cell_volume 1503.247564
_symmetry_space_group_name_H-M "P 2/M"
_symmetry_group_IT_number 10
_symmetry_cell_setting 'monoclinic'
loop_
_space_group_symop_operation_xyz
x,y,z
-x,y,-z
-x,-y,-z
x,-y,z
loop_
_atom_site_type_symbol
_atom_site_label
_atom_site_fract_x
_atom_site_fract_y
_atom_site_fract_z
Si Si1 0.469236 0.152218 0.766381
Si Si2 0.597381 0.340777 0.505402
Si Si3 0.214635 0.351557 0.600770
Si Si4 0.084828 0.660254 0.734599
Si Si5 0.279698 0.160125 0.673619
Si Si6 0.812460 0.850366 0.752295
Si Si7 0.323153 0.738727 0.042535
O O1 0.500000 0.148141 0.500000
O O2 0.517670 0.265034 0.718233
O O3 0.478088 0.000000 0.807193
O O4 0.383702 0.192410 0.983718
O O5 0.592567 0.500000 0.561618
O O6 0.649920 0.250718 0.469313
O O7 0.634507 0.329027 0.225347
O O8 0.214501 0.500000 0.680815
O O9 0.134168 0.324387 0.752214
O O10 0.243211 0.230914 0.627774
O O11 0.272145 0.357013 0.292336
O O12 0.084099 0.500000 0.698838
O O13 0.129279 0.741041 0.475174
O O14 0.000000 0.705869 0.000000
O O15 0.298478 0.000000 0.601285
O O16 0.218166 0.170384 0.986414
O O17 0.736870 0.840646 0.862924
O O18 0.845213 0.000000 0.643546
#
# Coordination Sequence:
#
# PCOD9145638 Si02
#       7
#     4   4   4   4   4   4   4
#     4   9  17  29  47  72 102 135 170 211 259 308
#     4  10  19  32  52  75 101 134 172 216 261 303
#     4  10  20  34  54  78 103 132 168 209 251 299
#     4   9  19  36  57  82 109 134 163 202 249 301
#     4  10  21  36  52  73 104 138 173 210 251 303
#     4   9  18  33  54  78 102 134 174 211 248 295
#     4   9  18  31  52  77 102 130 171 216 259 305
#
# _framework density 18.626341
#
# number of rings (size 3 to 8) (size 9 to 14) (size 15 to 20)
#    0.000    2.571    0.000    1.714    0.000   13.714 
#    0.000    1.429    0.000    7.714    0.000    0.000 
#    0.000    0.000    0.000    0.000    0.000    0.000 
#
# Total GULP energy -156091.530912 kJ/mol
# GULP energy per Si atom -5574.697533 kJ/mol
# Density = 1.858395 g / cm^3
# Si number density = 18.626341 Si / 1000 Ang^3
#
#
#
# Elastic Constant Matrix: (Units=GPa)
#
#
# Indices 1 2 3 4 5 6 
#
# 1 67.2312 46.9121 34.9102 0.0000 -14.8705 0.0000
# 2 46.9121 118.5334 25.7891 0.0000 -6.4945 0.0000
# 3 34.9102 25.7891 54.9031 0.0000 -26.6382 0.0000
# 4 0.0000 0.0000 0.0000 -49.4500 0.0000 -9.5466
# 5 -14.8705 -6.4945 -26.6382 0.0000 25.0339 0.0000
# 6 0.0000 0.0000 0.0000 -9.5466 0.0000 16.6433
#
#
#
# Elastic Compliance Matrix: (Units=1/GPa)
#
#
# Indices 1 2 3 4 5 6 
#
# 1 0.027568 -0.007859 -0.014226 0.000000 -0.000801 0.000000
# 2 -0.007859 0.011909 -0.002817 0.000000 -0.004577 0.000000
# 3 -0.014226 -0.002817 0.049880 0.000000 0.043896 0.000000
# 4 0.000000 0.000000 0.000000 -0.018206 0.000000 -0.010443
# 5 -0.000801 -0.004577 0.043896 0.000000 0.084992 0.000000
# 6 0.000000 0.000000 0.000000 -0.010443 0.000000 0.054094
#
#
# Mechanical properties :
#
#
# Convention : Reuss Voigt Hill
#
# Bulk Modulus (GPa) = 25.28274 50.65448 37.96861
# Shear Modulus (GPa) = 18.29989 7.31588 12.80788
#
# Velocity S-wave (km/s) = 3.13784 1.98399 2.62510
# Velocity P-wave (km/s) = 5.17022 5.70109 5.44213
#
# Compressibility (1/GPa) = 0.03955267
#
# Stress axis : x y z
#
# Youngs Moduli (GPa) = 36.27422 83.96951 20.04793
#
# Poissons Ratio (x) = 0.65994 0.28520
# Poissons Ratio (y) = 0.28509 0.05648
# Poissons Ratio (z) = 0.51603 0.23655
#
# Static dielectric constant tensor:
#      x y z
#    x 1.642010 0.000000 0.011750 
#    y 0.000000 1.654130 0.000000 
#    z 0.011750 0.000000 1.648580 
# 
# From -- ./inp_files/37936.got.cif
#   From: 2010.05.17/outbox.cif.g08.bks.cpg/sg10_19_cif.got.tgz:37936.got - 2010.06.03 11:33:40.
