data_PCOD9145880
_publ_section_title
;
Structure prediction by ZEFSAII (Michael W. Deem and Ramdas Pophale) SiO2 
 PCOD9145880
Probable space group: P 2/M
;
_chemical_formula_sum "Si O2"
_cell_formula_units_Z 32
_cell_length_a 11.065260
_cell_length_b 7.325978
_cell_length_c 16.495901
_cell_angle_alpha 90.000000
_cell_angle_beta 84.592276
_cell_angle_gamma 90.000000
_cell_volume 1331.269654
_symmetry_space_group_name_H-M "P 2/M"
_symmetry_group_IT_number 10
_symmetry_cell_setting 'monoclinic'
loop_
_space_group_symop_operation_xyz
x,y,z
-x,y,-z
-x,-y,-z
x,-y,z
loop_
_atom_site_type_symbol
_atom_site_label
_atom_site_fract_x
_atom_site_fract_y
_atom_site_fract_z
Si Si1 0.941349 0.788946 0.889532
Si Si2 0.631657 0.709158 0.471106
Si Si3 0.316679 0.223332 0.026044
Si Si4 0.642736 0.779020 0.282971
Si Si5 0.127708 0.276984 0.453556
Si Si6 0.434956 0.790251 0.176640
Si Si7 0.827882 0.719052 0.733585
Si Si8 0.206210 0.777911 0.873125
O O1 0.071945 0.712040 0.904159
O O2 0.815490 0.715508 0.932276
O O3 0.926207 0.779007 0.793616
O O4 0.941359 0.000000 0.915088
O O5 0.500000 0.792533 0.500000
O O6 0.625405 0.500000 0.501702
O O7 0.645935 0.709942 0.373617
O O8 0.752672 0.785803 0.505197
O O9 0.412943 0.286310 0.087302
O O10 0.323186 0.000000 0.028296
O O11 0.307670 0.275777 0.932662
O O12 0.527374 0.714499 0.237142
O O13 0.755661 0.725632 0.219386
O O14 0.638275 0.000000 0.289176
O O15 0.126191 0.500000 0.456156
O O16 0.141780 0.222437 0.359044
O O17 0.000000 0.217193 0.500000
O O18 0.302249 0.788557 0.226615
O O19 0.474847 0.000000 0.161759
O O20 0.821838 0.500000 0.735290
O O21 0.202013 0.000000 0.874926
#
# Coordination Sequence:
#
# PCOD9145880 Si02
#       8
#     4   4   4   4   4   4   4   4
#     4   9  17  30  50  75 105 137 169 207 252 304
#     4  10  21  38  59  78  99 136 182 219 256 315
#     4   8  14  27  49  74  98 135 178 209 243 293
#     4  10  21  34  51  79 109 135 165 212 265 305
#     4   9  19  34  52  75 102 131 168 215 260 307
#     4   9  18  33  52  74 102 134 171 210 252 301
#     4  10  19  32  54  77  97 127 169 214 259 305
#     4   9  17  29  48  75 107 137 170 210 250 299
#
# _framework density 24.037203999999999
#
# number of rings (size 3 to 8) (size 9 to 14) (size 15 to 20)
#    0.000    2.750    0.000    2.250    1.750    3.750 
#    0.000    3.750    0.000   10.875    0.000    4.375 
#    0.000    0.000    0.000    0.000    0.000    0.000 
#
# Total GULP energy -178746.573134 kJ/mol
# GULP energy per Si atom -5585.830410 kJ/mol
# Density = 2.398249 g / cm^3
# Si number density = 24.037204 Si / 1000 Ang^3
#
#
#
# Elastic Constant Matrix: (Units=GPa)
#
#
# Indices 1 2 3 4 5 6 
#
# 1 124.3058 -1.1309 34.2281 0.0000 16.3353 0.0000
# 2 -1.1309 97.4696 -11.1111 0.0000 1.2407 0.0000
# 3 34.2281 -11.1111 150.2718 0.0000 13.8474 0.0000
# 4 0.0000 0.0000 0.0000 16.2818 0.0000 -16.4754
# 5 16.3353 1.2407 13.8474 0.0000 39.8582 0.0000
# 6 0.0000 0.0000 0.0000 -16.4754 0.0000 -62.4261
#
#
#
# Elastic Compliance Matrix: (Units=1/GPa)
#
#
# Indices 1 2 3 4 5 6 
#
# 1 0.008928 -0.000058 -0.001757 0.000000 -0.003047 0.000000
# 2 -0.000058 0.010361 0.000834 0.000000 -0.000588 0.000000
# 3 -0.001757 0.000834 0.007286 0.000000 -0.001837 0.000000
# 4 0.000000 0.000000 0.000000 0.048473 0.000000 -0.012793
# 5 -0.003047 -0.000588 -0.001837 0.000000 0.026994 0.000000
# 6 0.000000 0.000000 0.000000 -0.012793 0.000000 -0.012643
#
#
# Mechanical properties :
#
#
# Convention : Reuss Voigt Hill
#
# Bulk Modulus (GPa) = 40.62985 46.22438 43.42711
# Shear Modulus (GPa) = 50.21712 22.08019 36.14865
#
# Velocity S-wave (km/s) = 4.57567 3.03410 3.88217
# Velocity P-wave (km/s) = 6.69741 5.61662 6.18069
#
# Compressibility (1/GPa) = 0.02461245
#
# Stress axis : x y z
#
# Youngs Moduli (GPa) = 112.00225 96.51166 137.25412
#
# Poissons Ratio (x) = 0.00559 0.24118
# Poissons Ratio (y) = 0.00649 -0.11441
# Poissons Ratio (z) = 0.19681 -0.08045
#
# Static dielectric constant tensor:
#      x y z
#    x 1.904510 0.000000 -0.002790 
#    y 0.000000 1.955210 0.000000 
#    z -0.002790 0.000000 1.874660 
# 
# From -- ./inp_files/63804.got.cif
#   From: 2010.05.17/outbox.cif.g08.bks.cpg/sg10_32_cif.got.tgz:63804.got - 2010.06.03 11:33:40.
