data_PCOD9145662
_publ_section_title
;
Structure prediction by ZEFSAII (Michael W. Deem and Ramdas Pophale) SiO2 
 PCOD9145662
Probable space group: P 2/M
;
_chemical_formula_sum "Si O2"
_cell_formula_units_Z 32
_cell_length_a 5.396607
_cell_length_b 9.893061
_cell_length_c 30.618348
_cell_angle_alpha 90.000000
_cell_angle_beta 99.263257
_cell_angle_gamma 90.000000
_cell_volume 1613.364181
_symmetry_space_group_name_H-M "P 2/M"
_symmetry_group_IT_number 10
_symmetry_cell_setting 'monoclinic'
loop_
_space_group_symop_operation_xyz
x,y,z
-x,y,-z
-x,-y,-z
x,-y,z
loop_
_atom_site_type_symbol
_atom_site_label
_atom_site_fract_x
_atom_site_fract_y
_atom_site_fract_z
Si Si1 0.087265 0.664143 0.103884
Si Si2 0.782758 0.164779 0.806756
Si Si3 0.339995 0.645644 0.539553
Si Si4 0.769557 0.838041 0.244006
Si Si5 0.525284 0.150604 0.325478
Si Si6 0.902435 0.148411 0.414511
Si Si7 0.254013 0.348840 0.371870
Si Si8 0.538958 0.663318 0.050429
O O1 0.094654 0.500000 0.111837
O O2 0.138654 0.751664 0.148404
O O3 0.811495 0.699473 0.077371
O O4 0.306400 0.698043 0.075254
O O5 0.979982 0.206016 0.774079
O O6 0.494421 0.199541 0.786580
O O7 0.796766 0.000000 0.813046
O O8 0.500000 0.656431 0.500000
O O9 0.205102 0.500000 0.535330
O O10 0.175731 0.776887 0.543675
O O11 0.516821 0.638553 0.587262
O O12 0.720451 0.806686 0.293500
O O13 0.782922 0.000000 0.242895
O O14 0.666824 0.133025 0.375290
O O15 0.332341 0.269474 0.330364
O O16 0.419014 0.000000 0.310657
O O17 0.071318 0.252304 0.393065
O O18 0.015872 0.000000 0.423843
O O19 0.157444 0.500000 0.360850
O O20 0.538979 0.500000 0.048070
O O21 0.500000 0.714838 0.000000
#
# Coordination Sequence:
#
# PCOD9145662 Si02
#       8
#     4   4   4   4   4   4   4   4
#     4  10  19  32  52  76 105 139 174 222 272 316
#     4  10  20  35  54  78 106 142 181 219 266 323
#     4   9  19  36  54  72  99 136 174 210 251 311
#     4   9  19  34  56  79 102 136 183 225 260 315
#     4   9  19  35  55  76  98 130 171 218 262 306
#     4  10  20  33  53  78 103 132 167 213 265 313
#     4  10  20  34  53  76 103 133 167 208 260 319
#     4   9  17  30  51  78 104 136 181 225 266 316
#
# _framework density 19.834330999999999
#
# number of rings (size 3 to 8) (size 9 to 14) (size 15 to 20)
#    0.000    2.500    0.000    1.875    1.750    3.250 
#    0.000    3.750    0.000    2.250    0.000    0.000 
#    0.000    0.000    0.000    0.000    0.000    0.000 
#
# Total GULP energy -178310.585268 kJ/mol
# GULP energy per Si atom -5572.205790 kJ/mol
# Density = 1.978919 g / cm^3
# Si number density = 19.834331 Si / 1000 Ang^3
#
#
#
# Elastic Constant Matrix: (Units=GPa)
#
#
# Indices 1 2 3 4 5 6 
#
# 1 79.0858 30.6445 22.0611 0.0000 -9.2704 0.0000
# 2 30.6445 109.8861 27.9779 0.0000 -16.8740 0.0000
# 3 22.0611 27.9779 96.8754 0.0000 -10.7398 0.0000
# 4 0.0000 0.0000 0.0000 26.9892 0.0000 -1.4632
# 5 -9.2704 -16.8740 -10.7398 0.0000 34.9808 0.0000
# 6 0.0000 0.0000 0.0000 -1.4632 0.0000 12.4167
#
#
#
# Elastic Compliance Matrix: (Units=1/GPa)
#
#
# Indices 1 2 3 4 5 6 
#
# 1 0.014731 -0.003291 -0.002223 0.000000 0.001634 0.000000
# 2 -0.003291 0.011131 -0.002036 0.000000 0.003872 0.000000
# 3 -0.002223 -0.002036 0.011639 0.000000 0.002002 0.000000
# 4 0.000000 0.000000 0.000000 0.037290 0.000000 0.004394
# 5 0.001634 0.003872 0.002002 0.000000 0.031503 0.000000
# 6 0.000000 0.000000 0.000000 0.004394 0.000000 0.081055
#
#
# Mechanical properties :
#
#
# Convention : Reuss Voigt Hill
#
# Bulk Modulus (GPa) = 44.64143 49.69049 47.16596
# Shear Modulus (GPa) = 23.81904 28.55494 26.18699
#
# Velocity S-wave (km/s) = 3.46916 3.79842 3.63752
# Velocity P-wave (km/s) = 6.21311 6.65916 6.44000
#
# Compressibility (1/GPa) = 0.02240072
#
# Stress axis : x y z
#
# Youngs Moduli (GPa) = 67.88187 89.83792 85.92007
#
# Poissons Ratio (x) = 0.29569 0.19101
# Poissons Ratio (y) = 0.22342 0.17493
# Poissons Ratio (z) = 0.15091 0.18290
#
# Static dielectric constant tensor:
#      x y z
#    x 1.773240 0.000000 0.015300 
#    y 0.000000 1.740340 0.000000 
#    z 0.015300 0.000000 1.701740 
# 
# From -- ./inp_files/13628.got.cif
#   From: 2010.05.17/outbox.cif.g08.bks.cpg/sg10_7_cif.got.tgz:13628.got - 2010.06.03 11:33:40.
