data_PCOD9145319
_publ_section_title
;
Structure prediction by ZEFSAII (Michael W. Deem and Ramdas Pophale) SiO2 
 PCOD9145319
Probable space group: P 2/M
;
_chemical_formula_sum "Si O2"
_cell_formula_units_Z 32
_cell_length_a 12.345230
_cell_length_b 7.427619
_cell_length_c 29.602785
_cell_angle_alpha 90.000000
_cell_angle_beta 30.623381
_cell_angle_gamma 90.000000
_cell_volume 1382.719299
_symmetry_space_group_name_H-M "P 2/M"
_symmetry_group_IT_number 10
_symmetry_cell_setting 'monoclinic'
loop_
_space_group_symop_operation_xyz
x,y,z
-x,y,-z
-x,-y,-z
x,-y,z
loop_
_atom_site_type_symbol
_atom_site_label
_atom_site_fract_x
_atom_site_fract_y
_atom_site_fract_z
Si Si1 0.752104 0.781417 0.527481
Si Si2 0.608502 0.219201 0.414660
Si Si3 0.034373 0.209832 0.216194
Si Si4 0.378281 0.705878 0.162085
Si Si5 0.455469 0.218990 0.307980
Si Si6 0.181476 0.781832 0.324860
Si Si7 0.832625 0.293114 0.024055
Si Si8 0.940418 0.218899 0.150319
O O1 0.549539 0.736424 0.569555
O O2 0.706551 0.721541 0.594723
O O3 0.965412 0.720365 0.426406
O O4 0.765596 0.000000 0.524120
O O5 0.500000 0.283221 0.500000
O O6 0.843551 0.283405 0.316295
O O7 0.617322 0.000000 0.415445
O O8 0.257187 0.220065 0.162045
O O9 0.028648 0.281389 0.167187
O O10 0.980764 0.000000 0.229957
O O11 0.426989 0.500000 0.133361
O O12 0.216608 0.716107 0.261934
O O13 0.598487 0.789924 0.101087
O O14 0.374590 0.275190 0.288019
O O15 0.693617 0.272432 0.234564
O O16 0.452487 0.000000 0.309219
O O17 0.175907 0.000000 0.324692
O O18 0.798588 0.500000 0.051678
O O19 0.000000 0.212610 0.000000
O O20 0.937304 0.289138 0.937156
O O21 0.951843 0.000000 0.143865
#
# Coordination Sequence:
#
# PCOD9145319 Si02
#       8
#     4   4   4   4   4   4   4   4
#     4   9  15  26  47  80 116 145 179 221 269 325
#     4   9  15  25  46  76 110 148 186 221 257 309
#     4  10  20  36  57  83 114 146 185 227 273 328
#     4  11  24  40  57  78 108 144 183 230 279 326
#     4   9  16  29  50  83 119 144 175 224 277 327
#     4  10  19  31  54  84 112 145 184 227 275 325
#     4  10  23  43  63  82 107 144 187 226 274 341
#     4  10  20  35  59  88 116 145 179 231 284 324
#
# _framework density 23.142804000000002
#
# number of rings (size 3 to 8) (size 9 to 14) (size 15 to 20)
#    0.000    2.250    1.250    2.250    0.000    5.750 
#    0.000    2.500    0.000    5.625    0.000    0.000 
#    0.000    0.000    0.000    0.000    0.000    0.000 
#
# Total GULP energy -178791.655536 kJ/mol
# GULP energy per Si atom -5587.239236 kJ/mol
# Density = 2.309013 g / cm^3
# Si number density = 23.142804 Si / 1000 Ang^3
#
#
#
# Elastic Constant Matrix: (Units=GPa)
#
#
# Indices 1 2 3 4 5 6 
#
# 1 148.3006 -2.8601 42.9094 0.0000 -0.7915 0.0000
# 2 -2.8601 69.7689 -5.9017 0.0000 -2.4943 0.0000
# 3 42.9094 -5.9017 90.3294 0.0000 0.8743 0.0000
# 4 0.0000 0.0000 0.0000 19.7732 0.0000 8.8747
# 5 -0.7915 -2.4943 0.8743 0.0000 36.4615 0.0000
# 6 0.0000 0.0000 0.0000 8.8747 0.0000 -3.2367
#
#
#
# Elastic Compliance Matrix: (Units=1/GPa)
#
#
# Indices 1 2 3 4 5 6 
#
# 1 0.007820 0.000016 -0.003716 0.000000 0.000260 0.000000
# 2 0.000016 0.014447 0.000927 0.000000 0.000966 0.000000
# 3 -0.003716 0.000927 0.012900 0.000000 -0.000327 0.000000
# 4 0.000000 0.000000 0.000000 0.022672 0.000000 0.062165
# 5 0.000260 0.000966 -0.000327 0.000000 0.027506 0.000000
# 6 0.000000 0.000000 0.000000 0.062165 0.000000 -0.138507
#
#
# Mechanical properties :
#
#
# Convention : Reuss Voigt Hill
#
# Bulk Modulus (GPa) = 33.76193 41.85488 37.80841
# Shear Modulus (GPa) = -132.47949 28.88301 -51.79824
#
# Velocity S-wave (km/s) = -7.57421 3.53659 -4.73610
# Velocity P-wave (km/s) = 7.86583 5.89926 3.67899
#
# Compressibility (1/GPa) = 0.02961916
#
# Stress axis : x y z
#
# Youngs Moduli (GPa) = 127.87704 69.22018 77.52135
#
# Poissons Ratio (x) = -0.00107 0.28809
# Poissons Ratio (y) = -0.00198 -0.07187
# Poissons Ratio (z) = 0.47522 -0.06418
#
# Static dielectric constant tensor:
#      x y z
#    x 1.837900 0.000000 -0.020090 
#    y 0.000000 1.919490 0.000000 
#    z -0.020090 0.000000 1.849720 
# 
# From -- ./inp_files/94959.got.cif
#   From: 2010.05.17/outbox.cif.g08.bks.cpg/sg10_48_cif.got.tgz:94959.got - 2010.06.03 11:33:40.
