data_PCOD9145722
_publ_section_title
;
Structure prediction by ZEFSAII (Michael W. Deem and Ramdas Pophale) SiO2 
 PCOD9145722
Probable space group: P 2/M
;
_chemical_formula_sum "Si O2"
_cell_formula_units_Z 32
_cell_length_a 20.607042
_cell_length_b 8.881815
_cell_length_c 19.798296
_cell_angle_alpha 90.000000
_cell_angle_beta 30.066584
_cell_angle_gamma 90.000000
_cell_volume 1815.466283
_symmetry_space_group_name_H-M "P 2/M"
_symmetry_group_IT_number 10
_symmetry_cell_setting 'monoclinic'
loop_
_space_group_symop_operation_xyz
x,y,z
-x,y,-z
-x,-y,-z
x,-y,z
loop_
_atom_site_type_symbol
_atom_site_label
_atom_site_fract_x
_atom_site_fract_y
_atom_site_fract_z
Si Si1 0.776170 0.178519 0.809065
Si Si2 0.964755 0.672914 0.451692
Si Si3 0.550907 0.819163 0.112143
Si Si4 0.406008 0.817474 0.772833
Si Si5 0.306540 0.319109 0.258378
Si Si6 0.845289 0.818035 0.217035
Si Si7 0.576932 0.680419 0.499595
Si Si8 0.133694 0.182096 0.960736
O O1 0.716717 0.255522 0.795705
O O2 0.923756 0.232245 0.683908
O O3 0.773750 0.000000 0.800639
O O4 0.686511 0.215913 0.953389
O O5 0.970840 0.500000 0.423162
O O6 0.817158 0.728101 0.584308
O O7 0.000000 0.673476 0.500000
O O8 0.553680 0.774772 0.187866
O O9 0.437091 0.740657 0.173280
O O10 0.533022 0.000000 0.124489
O O11 0.499862 0.749405 0.631961
O O12 0.258040 0.767945 0.890925
O O13 0.409574 0.000000 0.764662
O O14 0.304841 0.500000 0.256281
O O15 0.722608 0.743198 0.362765
O O16 0.842518 0.780111 0.139451
O O17 0.835544 0.000000 0.231638
O O18 0.988944 0.768867 0.111727
O O19 0.500000 0.722326 0.500000
O O20 0.578909 0.500000 0.502559
O O21 0.130095 0.000000 0.966853
#
# Coordination Sequence:
#
# PCOD9145722 Si02
#       8
#     4   4   4   4   4   4   4   4
#     4  10  19  32  52  79 108 136 172 222 269 309
#     4   8  16  31  50  75 103 132 172 215 254 305
#     4  10  22  36  51  76 106 136 173 218 267 312
#     4  10  20  37  57  74 100 139 177 215 261 314
#     4  10  20  34  54  78 105 140 179 217 256 308
#     4   9  16  30  54  81 102 129 171 213 255 303
#     4  11  22  34  50  78 110 137 168 211 258 308
#     4   8  15  29  53  80 101 125 168 218 254 300
#
# _framework density 17.626325000000001
#
# number of rings (size 3 to 8) (size 9 to 14) (size 15 to 20)
#    0.000    2.500    1.250    3.000    0.000    6.250 
#    0.000    3.125    0.000    3.000    0.000    0.000 
#    0.000    0.000    0.000    0.000    0.000    0.000 
#
# Total GULP energy -178418.198336 kJ/mol
# GULP energy per Si atom -5575.568698 kJ/mol
# Density = 1.758621 g / cm^3
# Si number density = 17.626325 Si / 1000 Ang^3
#
#
#
# Elastic Constant Matrix: (Units=GPa)
#
#
# Indices 1 2 3 4 5 6 
#
# 1 27.7889 19.2453 36.0530 0.0000 19.0094 0.0000
# 2 19.2453 27.7736 41.5612 0.0000 7.9924 0.0000
# 3 36.0530 41.5612 143.4641 0.0000 6.4601 0.0000
# 4 0.0000 0.0000 0.0000 109.0029 0.0000 120.8994
# 5 19.0094 7.9924 6.4601 0.0000 18.6016 0.0000
# 6 0.0000 0.0000 0.0000 120.8994 0.0000 180.4896
#
#
#
# Elastic Compliance Matrix: (Units=1/GPa)
#
#
# Indices 1 2 3 4 5 6 
#
# 1 0.637771 -0.139274 -0.094755 0.000000 -0.559007 0.000000
# 2 -0.139274 0.103475 0.000626 0.000000 0.097651 0.000000
# 3 -0.094755 0.000626 0.026670 0.000000 0.087301 0.000000
# 4 0.000000 0.000000 0.000000 0.035689 0.000000 -0.023906
# 5 -0.559007 0.097651 0.087301 0.000000 0.552748 0.000000
# 6 0.000000 0.000000 0.000000 -0.023906 0.000000 0.021554
#
#
# Mechanical properties :
#
#
# Convention : Reuss Voigt Hill
#
# Bulk Modulus (GPa) = 3.32103 43.63840 23.47972
# Shear Modulus (GPa) = 2.57058 68.42995 35.50027
#
# Velocity S-wave (km/s) = 1.20894 6.23754 4.49268
# Velocity P-wave (km/s) = 1.95881 8.75712 6.34524
#
# Compressibility (1/GPa) = 0.30111109
#
# Stress axis : x y z
#
# Youngs Moduli (GPa) = 1.56796 9.66418 37.49530
#
# Poissons Ratio (x) = 1.34597 3.55286
# Poissons Ratio (y) = 0.21838 -0.02349
# Poissons Ratio (z) = 0.14857 -0.00605
#
# Static dielectric constant tensor:
#      x y z
#    x 1.583060 0.000000 -0.018090 
#    y 0.000000 1.592350 0.000000 
#    z -0.018090 0.000000 1.608730 
# 
# From -- ./inp_files/86100.got.cif
#   From: 2010.05.17/outbox.cif.g08.bks.cpg/sg10_44_cif.got.tgz:86100.got - 2010.06.03 11:33:40.
