data_PCOD9145214
_publ_section_title
;
Structure prediction by ZEFSAII (Michael W. Deem and Ramdas Pophale) SiO2 
 PCOD9145214
Probable space group: P 2/M
;
_chemical_formula_sum "Si O2"
_cell_formula_units_Z 30
_cell_length_a 19.017204
_cell_length_b 10.278786
_cell_length_c 12.598177
_cell_angle_alpha 90.000000
_cell_angle_beta 138.407049
_cell_angle_gamma 90.000000
_cell_volume 1634.766853
_symmetry_space_group_name_H-M "P 2/M"
_symmetry_group_IT_number 10
_symmetry_cell_setting 'monoclinic'
loop_
_space_group_symop_operation_xyz
x,y,z
-x,y,-z
-x,-y,-z
x,-y,z
loop_
_atom_site_type_symbol
_atom_site_label
_atom_site_fract_x
_atom_site_fract_y
_atom_site_fract_z
Si Si1 0.602655 0.155324 0.464779
Si Si2 0.261415 0.152487 0.584048
Si Si3 0.087061 0.353160 0.691665
Si Si4 0.372929 0.842712 0.166013
Si Si5 0.920678 0.645469 0.684947
Si Si6 0.217704 0.843357 0.168727
Si Si7 0.730405 0.154084 0.161278
Si Si8 0.000000 0.279127 0.000000
O O1 0.643635 0.172588 0.391326
O O2 0.483308 0.207167 0.339171
O O3 0.695293 0.203756 0.646656
O O4 0.596804 0.000000 0.479305
O O5 0.165815 0.246250 0.441750
O O6 0.293493 0.176017 0.742030
O O7 0.228949 0.000000 0.537779
O O8 0.132897 0.500000 0.746173
O O9 0.171446 0.243586 0.760307
O O10 0.000000 0.350851 0.500000
O O11 0.024077 0.330027 0.729614
O O12 0.269315 0.800908 0.115058
O O13 0.376758 0.000000 0.179726
O O14 0.359789 0.814455 0.026825
O O15 0.881983 0.500000 0.613165
O O16 0.952169 0.648741 0.843807
O O17 0.215387 0.000000 0.168124
O O18 0.100518 0.798356 0.065877
O O19 0.755363 0.000000 0.177524
#
# Coordination Sequence:
#
# PCOD9145214 Si02
#       8
#     4   4   4   4   4   4   4   2
#     4   9  17  32  52  76 108 147 187 221 264 323
#     4  10  20  34  54  80 108 139 178 224 274 317
#     4  10  20  35  55  76 104 148 189 216 259 325
#     4   9  18  32  51  78 112 147 184 224 267 319
#     4  11  23  38  54  76 108 145 182 218 267 328
#     4  10  19  31  51  81 114 147 178 220 274 324
#     4  10  20  33  52  83 113 139 177 228 278 314
#     4  12  22  34  54  80 109 138 179 224 275 328
#
# _framework density 18.351241000000002
#
# number of rings (size 3 to 8) (size 9 to 14) (size 15 to 20)
#    0.000    2.000    2.667    1.600    0.000    3.467 
#    0.000    2.667    0.000    0.800    0.000    2.800 
#    0.000    0.000    0.000    0.000    0.000    0.000 
#
# Total GULP energy -167178.173986 kJ/mol
# GULP energy per Si atom -5572.605800 kJ/mol
# Density = 1.830947 g / cm^3
# Si number density = 18.351241 Si / 1000 Ang^3
#
#
#
# Elastic Constant Matrix: (Units=GPa)
#
#
# Indices 1 2 3 4 5 6 
#
# 1 63.8489 16.7745 34.4845 0.0000 -9.3519 0.0000
# 2 16.7745 27.1415 17.0889 0.0000 2.9759 0.0000
# 3 34.4845 17.0889 86.9926 0.0000 -1.4499 0.0000
# 4 0.0000 0.0000 0.0000 3.2320 0.0000 -7.8321
# 5 -9.3519 2.9759 -1.4499 0.0000 35.0706 0.0000
# 6 0.0000 0.0000 0.0000 -7.8321 0.0000 8.2960
#
#
#
# Elastic Compliance Matrix: (Units=1/GPa)
#
#
# Indices 1 2 3 4 5 6 
#
# 1 0.023257 -0.010714 -0.007001 0.000000 0.006821 0.000000
# 2 -0.010714 0.047523 -0.005207 0.000000 -0.007105 0.000000
# 3 -0.007001 -0.005207 0.015280 0.000000 -0.000793 0.000000
# 4 0.000000 0.000000 0.000000 -0.240264 0.000000 -0.226829
# 5 0.006821 -0.007105 -0.000793 0.000000 0.030903 0.000000
# 6 0.000000 0.000000 0.000000 -0.226829 0.000000 -0.093604
#
#
# Mechanical properties :
#
#
# Convention : Reuss Voigt Hill
#
# Bulk Modulus (GPa) = 24.86520 34.96431 29.91476
# Shear Modulus (GPa) = -31.71437 16.62873 -7.54282
#
# Velocity S-wave (km/s) = -4.16166 3.01348 -2.02957
# Velocity P-wave (km/s) = 3.08440 5.58590 3.29308
#
# Compressibility (1/GPa) = 0.04021685
#
# Stress axis : x y z
#
# Youngs Moduli (GPa) = 42.99776 21.04259 65.44464
#
# Poissons Ratio (x) = 0.22544 0.45818
# Poissons Ratio (y) = 0.46066 0.34076
# Poissons Ratio (z) = 0.30103 0.10957
#
# Static dielectric constant tensor:
#      x y z
#    x 1.647110 0.000000 -0.029460 
#    y 0.000000 1.610430 0.000000 
#    z -0.029460 0.000000 1.654340 
# 
# From -- ./inp_files/53696.got.cif
#   From: 2010.05.17/outbox.cif.g08.bks.cpg/sg10_27_cif.got.tgz:53696.got - 2010.06.03 11:33:40.
