data_PCOD9145245
_publ_section_title
;
Structure prediction by ZEFSAII (Michael W. Deem and Ramdas Pophale) SiO2 
 PCOD9145245
Probable space group: P 2/M
;
_chemical_formula_sum "Si O2"
_cell_formula_units_Z 20
_cell_length_a 9.718783
_cell_length_b 10.171620
_cell_length_c 11.409687
_cell_angle_alpha 90.000000
_cell_angle_beta 126.256035
_cell_angle_gamma 90.000000
_cell_volume 909.529393
_symmetry_space_group_name_H-M "P 2/M"
_symmetry_group_IT_number 10
_symmetry_cell_setting 'monoclinic'
loop_
_space_group_symop_operation_xyz
x,y,z
-x,y,-z
-x,-y,-z
x,-y,z
loop_
_atom_site_type_symbol
_atom_site_label
_atom_site_fract_x
_atom_site_fract_y
_atom_site_fract_z
Si Si1 0.859596 0.260501 0.833576
Si Si2 0.314619 0.359450 0.464146
Si Si3 0.071008 0.148733 0.365032
Si Si4 0.767562 0.348432 0.218790
Si Si5 0.388808 0.652047 0.119206
O O1 0.815331 0.365821 0.711539
O O2 0.916532 0.147207 0.772524
O O3 0.688447 0.249815 0.824167
O O4 0.000000 0.294756 0.000000
O O5 0.500000 0.341245 0.500000
O O6 0.311270 0.500000 0.525169
O O7 0.239354 0.230958 0.488315
O O8 0.910399 0.240260 0.316698
O O9 0.063005 0.000000 0.402580
O O10 0.826143 0.500000 0.266344
O O11 0.588239 0.330354 0.195131
O O12 0.712394 0.335036 0.054165
O O13 0.362107 0.500000 0.144638
#
# Coordination Sequence:
#
# PCOD9145245 Si02
#       5
#     4   4   4   4   4
#     4  10  19  31  52  79 107 129 168 209 258 296
#     4   9  19  34  53  77 102 130 168 212 256 302
#     4  10  21  33  49  74 104 137 172 206 250 302
#     4   9  17  30  48  71 101 135 170 209 254 301
#     4   9  16  28  47  74 102 132 169 211 257 302
#
# _framework density 21.989391999999999
#
# number of rings (size 3 to 8) (size 9 to 14) (size 15 to 20)
#    1.200    1.400    2.000    2.400    0.000    2.400 
#    0.000    3.000    0.000    1.200    0.000    7.000 
#    0.000    0.000    0.000    0.000    0.000    0.000 
#
# Total GULP energy -111364.701079 kJ/mol
# GULP energy per Si atom -5568.235054 kJ/mol
# Density = 2.193934 g / cm^3
# Si number density = 21.989392 Si / 1000 Ang^3
#
#
#
# Elastic Constant Matrix: (Units=GPa)
#
#
# Indices 1 2 3 4 5 6 
#
# 1 125.3666 58.7521 0.0687 0.0000 4.0591 0.0000
# 2 58.7521 160.9244 26.5044 0.0000 32.9627 0.0000
# 3 0.0687 26.5044 83.0594 0.0000 -5.2792 0.0000
# 4 0.0000 0.0000 0.0000 7.1476 0.0000 3.9290
# 5 4.0591 32.9627 -5.2792 0.0000 37.1159 0.0000
# 6 0.0000 0.0000 0.0000 3.9290 0.0000 17.9579
#
#
#
# Elastic Compliance Matrix: (Units=1/GPa)
#
#
# Indices 1 2 3 4 5 6 
#
# 1 0.010024 -0.004593 0.001662 0.000000 0.003219 0.000000
# 2 -0.004593 0.010449 -0.003924 0.000000 -0.009336 0.000000
# 3 0.001662 -0.003924 0.013623 0.000000 0.005241 0.000000
# 4 0.000000 0.000000 0.000000 0.159034 0.000000 -0.034794
# 5 0.003219 -0.009336 0.005241 0.000000 0.035627 0.000000
# 6 0.000000 0.000000 0.000000 -0.034794 0.000000 0.063298
#
#
# Mechanical properties :
#
#
# Convention : Reuss Voigt Hill
#
# Bulk Modulus (GPa) = 49.05084 60.00011 54.52547
# Shear Modulus (GPa) = 15.99685 31.37929 23.68807
#
# Velocity S-wave (km/s) = 2.70011 3.78169 3.28571
# Velocity P-wave (km/s) = 5.66355 6.81274 6.26455
#
# Compressibility (1/GPa) = 0.02038701
#
# Stress axis : x y z
#
# Youngs Moduli (GPa) = 99.76283 95.69875 73.40267
#
# Poissons Ratio (x) = 0.43951 -0.12198
# Poissons Ratio (y) = 0.45817 0.28803
# Poissons Ratio (z) = -0.16579 0.37552
#
# Static dielectric constant tensor:
#      x y z
#    x 1.879330 0.000000 -0.032350 
#    y 0.000000 1.780480 0.000000 
#    z -0.032350 0.000000 1.856870 
# 
# From -- ./inp_files/63270.got.cif
#   From: 2010.05.17/outbox.cif.g08.bks.cpg/sg10_32_cif.got.tgz:63270.got - 2010.06.03 11:33:40.
