data_PCOD9145265
_publ_section_title
;
Structure prediction by ZEFSAII (Michael W. Deem and Ramdas Pophale) SiO2 
 PCOD9145265
Probable space group: P 2/M
;
_chemical_formula_sum "Si O2"
_cell_formula_units_Z 24
_cell_length_a 22.796275
_cell_length_b 11.416667
_cell_length_c 22.796020
_cell_angle_alpha 90.000000
_cell_angle_beta 166.725749
_cell_angle_gamma 90.000000
_cell_volume 1362.252200
_symmetry_space_group_name_H-M "P 2/M"
_symmetry_group_IT_number 10
_symmetry_cell_setting 'monoclinic'
loop_
_space_group_symop_operation_xyz
x,y,z
-x,y,-z
-x,-y,-z
x,-y,z
loop_
_atom_site_type_symbol
_atom_site_label
_atom_site_fract_x
_atom_site_fract_y
_atom_site_fract_z
Si Si1 0.833355 0.361105 0.166396
Si Si2 0.768964 0.253471 0.230944
Si Si3 0.569473 0.642037 0.428505
Si Si4 0.032764 0.641935 0.965241
Si Si5 0.363987 0.744122 0.635740
Si Si6 0.338916 0.000000 0.660131
Si Si7 0.202288 0.000000 0.798645
O O1 0.837096 0.500000 0.162281
O O2 0.799219 0.326616 0.200927
O O3 0.098374 0.307536 0.401387
O O4 0.598313 0.307409 0.901388
O O5 0.000000 0.277601 0.500000
O O6 0.778318 0.116960 0.221067
O O7 0.500000 0.277779 0.000000
O O8 0.573884 0.500000 0.424267
O O9 0.601891 0.704120 0.397851
O O10 0.798944 0.674363 0.695633
O O11 0.301637 0.674400 0.197990
O O12 0.031432 0.500000 0.966761
O O13 0.000000 0.684839 0.000000
O O14 0.358509 0.883010 0.640814
O O15 0.068796 0.000000 0.431551
O O16 0.567244 0.000000 0.930076
#
# Coordination Sequence:
#
# PCOD9145265 Si02
#       7
#     4   4   4   4   4   2   2
#     4  12  25  42  62  84 119 156 187 233 294 356
#     4  12  24  40  62  88 111 148 192 237 291 349
#     4  10  19  31  52  82 114 148 187 231 277 338
#     4   9  17  30  49  78 116 153 187 226 275 326
#     4  12  23  41  61  88 116 152 198 239 292 343
#     4  12  22  41  66  84 115 150 188 247 292 341
#     4  12  22  43  62  88 112 146 193 243 294 341
#
# _framework density 17.617882000000002
#
# number of rings (size 3 to 8) (size 9 to 14) (size 15 to 20)
#    0.000    0.833    3.333    5.500    0.000    4.000 
#    0.000    0.000    0.000    0.000    0.000    3.500 
#    0.000    0.000    0.000    0.000    0.000    0.000 
#
# Total GULP energy -134214.627915 kJ/mol
# GULP energy per Si atom -5592.276163 kJ/mol
# Density = 1.757778 g / cm^3
# Si number density = 17.617882 Si / 1000 Ang^3
#
#
#
# Elastic Constant Matrix: (Units=GPa)
#
#
# Indices 1 2 3 4 5 6 
#
# 1 190.1619 50.7256 116.9052 0.0000 -2.6739 0.0000
# 2 50.7256 106.8098 51.8846 0.0000 -1.2481 0.0000
# 3 116.9052 51.8846 212.3718 0.0000 -4.2890 0.0000
# 4 0.0000 0.0000 0.0000 -7.8195 0.0000 -7.6419
# 5 -2.6739 -1.2481 -4.2890 0.0000 46.2185 0.0000
# 6 0.0000 0.0000 0.0000 -7.6419 0.0000 86.1959
#
#
#
# Elastic Compliance Matrix: (Units=1/GPa)
#
#
# Indices 1 2 3 4 5 6 
#
# 1 0.008293 -0.001952 -0.004087 0.000000 0.000048 0.000000
# 2 -0.001952 0.011083 -0.001632 0.000000 0.000035 0.000000
# 3 -0.004087 -0.001632 0.007365 0.000000 0.000403 0.000000
# 4 0.000000 0.000000 0.000000 -0.117688 0.000000 -0.010434
# 5 0.000048 0.000035 0.000403 0.000000 0.021677 0.000000
# 6 0.000000 0.000000 0.000000 -0.010434 0.000000 0.010676
#
#
# Mechanical properties :
#
#
# Convention : Reuss Voigt Hill
#
# Bulk Modulus (GPa) = 87.73602 105.37493 96.55548
# Shear Modulus (GPa) = -126.74171 44.24085 -41.25043
#
# Velocity S-wave (km/s) = -8.49090 5.01656 -4.84405
# Velocity P-wave (km/s) = 6.79851 9.66932 4.86189
#
# Compressibility (1/GPa) = 0.01139783
#
# Stress axis : x y z
#
# Youngs Moduli (GPa) = 120.58825 90.22861 135.77043
#
# Poissons Ratio (x) = 0.17617 0.55489
# Poissons Ratio (y) = 0.23544 0.22160
# Poissons Ratio (z) = 0.49284 0.14727
#
# Static dielectric constant tensor:
#      x y z
#    x 1.573970 0.000000 0.000550 
#    y 0.000000 1.578180 0.000000 
#    z 0.000550 0.000000 1.580380 
# 
# From -- ./inp_files/12325.got.cif
#   From: 2010.05.17/outbox.cif.g08.bks.cpg/sg10_7_cif.got.tgz:12325.got - 2010.06.03 11:33:40.
