data_PCOD9145757
_publ_section_title
;
Structure prediction by ZEFSAII (Michael W. Deem and Ramdas Pophale) SiO2 
 PCOD9145757
Probable space group: P 2/M
;
_chemical_formula_sum "Si O2"
_cell_formula_units_Z 24
_cell_length_a 14.816442
_cell_length_b 10.820881
_cell_length_c 14.571083
_cell_angle_alpha 90.000000
_cell_angle_beta 148.791640
_cell_angle_gamma 90.000000
_cell_volume 1210.473811
_symmetry_space_group_name_H-M "P 2/M"
_symmetry_group_IT_number 10
_symmetry_cell_setting 'monoclinic'
loop_
_space_group_symop_operation_xyz
x,y,z
-x,y,-z
-x,-y,-z
x,-y,z
loop_
_atom_site_type_symbol
_atom_site_label
_atom_site_fract_x
_atom_site_fract_y
_atom_site_fract_z
Si Si1 0.339630 0.635102 0.434094
Si Si2 0.307719 0.243205 0.590102
Si Si3 0.663946 0.859105 0.859483
Si Si4 0.196203 0.858584 0.207824
Si Si5 0.312620 0.855604 0.787054
Si Si6 0.920355 0.148629 0.240322
O O1 0.500000 0.635665 0.500000
O O2 0.255316 0.500000 0.347725
O O3 0.367374 0.652177 0.568547
O O4 0.227773 0.755965 0.311149
O O5 0.462446 0.145175 0.708268
O O6 0.309502 0.244056 0.702697
O O7 0.110615 0.204933 0.397825
O O8 0.692011 0.812128 0.781771
O O9 0.723048 0.000000 0.902656
O O10 0.786766 0.804756 0.045392
O O11 0.243438 0.000000 0.276840
O O12 0.000000 0.860909 0.000000
O O13 0.167559 0.828749 0.737511
O O14 0.284954 0.000000 0.730862
O O15 0.500000 0.854416 0.000000
O O16 0.935331 0.000000 0.245220
#
# Coordination Sequence:
#
# PCOD9145757 Si02
#       6
#     4   4   4   4   4   4
#     4  11  25  44  62  86 122 167 216 259 308 374
#     4  12  21  35  59  80 113 162 207 250 302 357
#     4  10  19  32  52  84 123 159 194 246 304 360
#     4  10  21  38  61  92 127 161 204 260 314 369
#     4  10  19  33  55  87 126 162 195 245 312 376
#     4  10  20  33  54  89 127 160 199 243 303 380
#
# _framework density 19.826947000000001
#
# number of rings (size 3 to 8) (size 9 to 14) (size 15 to 20)
#    0.000    1.500    3.333    3.000    0.000    5.333 
#    0.000    0.000    0.000    2.500    0.000    0.000 
#    0.000    0.000    0.000    0.000    0.000    0.000 
#
# Total GULP energy -133609.715840 kJ/mol
# GULP energy per Si atom -5567.071493 kJ/mol
# Density = 1.978182 g / cm^3
# Si number density = 19.826947 Si / 1000 Ang^3
#
#
#
# Elastic Constant Matrix: (Units=GPa)
#
#
# Indices 1 2 3 4 5 6 
#
# 1 121.0155 31.0620 42.0909 0.0000 2.8624 0.0000
# 2 31.0620 73.0147 30.7972 0.0000 -16.0084 0.0000
# 3 42.0909 30.7972 71.9141 0.0000 4.4474 0.0000
# 4 0.0000 0.0000 0.0000 -7.8801 0.0000 2.1975
# 5 2.8624 -16.0084 4.4474 0.0000 36.5944 0.0000
# 6 0.0000 0.0000 0.0000 2.1975 0.0000 9.8646
#
#
#
# Elastic Compliance Matrix: (Units=1/GPa)
#
#
# Indices 1 2 3 4 5 6 
#
# 1 0.010755 -0.002777 -0.005016 0.000000 -0.001446 0.000000
# 2 -0.002777 0.020328 -0.007702 0.000000 0.010046 0.000000
# 3 -0.005016 -0.007702 0.020478 0.000000 -0.005465 0.000000
# 4 0.000000 0.000000 0.000000 -0.119480 0.000000 0.026617
# 5 -0.001446 0.010046 -0.005465 0.000000 0.032499 0.000000
# 6 0.000000 0.000000 0.000000 0.026617 0.000000 0.095443
#
#
# Mechanical properties :
#
#
# Convention : Reuss Voigt Hill
#
# Bulk Modulus (GPa) = 48.61047 52.64940 50.62993
# Shear Modulus (GPa) = 51.08846 18.51539 34.80193
#
# Velocity S-wave (km/s) = 5.08165 3.05921 4.19416
# Velocity P-wave (km/s) = 7.68124 6.25224 7.00328
#
# Compressibility (1/GPa) = 0.02057170
#
# Stress axis : x y z
#
# Youngs Moduli (GPa) = 92.97939 49.19280 48.83347
#
# Poissons Ratio (x) = 0.13659 0.24497
# Poissons Ratio (y) = 0.25817 0.37610
# Poissons Ratio (z) = 0.46642 0.37887
#
# Static dielectric constant tensor:
#      x y z
#    x 1.822510 0.000000 -0.043010 
#    y 0.000000 1.689720 0.000000 
#    z -0.043010 0.000000 1.756420 
# 
# From -- ./inp_files/67228.got.cif
#   From: 2010.05.17/outbox.cif.g08.bks.cpg/sg10_34_cif.got.tgz:67228.got - 2010.06.03 11:33:40.
