data_PCOD9145659
_publ_section_title
;
Structure prediction by ZEFSAII (Michael W. Deem and Ramdas Pophale) SiO2 
 PCOD9145659
Probable space group: P 2/M
;
_chemical_formula_sum "Si O2"
_cell_formula_units_Z 30
_cell_length_a 16.398409
_cell_length_b 9.189677
_cell_length_c 20.924354
_cell_angle_alpha 90.000000
_cell_angle_beta 148.638840
_cell_angle_gamma 90.000000
_cell_volume 1641.032175
_symmetry_space_group_name_H-M "P 2/M"
_symmetry_group_IT_number 10
_symmetry_cell_setting 'monoclinic'
loop_
_space_group_symop_operation_xyz
x,y,z
-x,y,-z
-x,-y,-z
x,-y,z
loop_
_atom_site_type_symbol
_atom_site_label
_atom_site_fract_x
_atom_site_fract_y
_atom_site_fract_z
Si Si1 0.370257 0.825778 0.224844
Si Si2 0.500000 0.755819 0.000000
Si Si3 0.164106 0.326752 0.977170
Si Si4 0.652398 0.672299 0.360749
Si Si5 0.190510 0.164372 0.863640
Si Si6 0.697369 0.667215 0.251645
Si Si7 0.983772 0.326755 0.362518
Si Si8 0.899461 0.833365 0.866593
O O1 0.544006 0.763252 0.335750
O O2 0.274408 0.794276 0.225832
O O3 0.364638 0.000000 0.212074
O O4 0.277246 0.746222 0.105321
O O5 0.354656 0.837715 0.934980
O O6 0.419948 0.673006 0.886855
O O7 0.177735 0.500000 0.988031
O O8 0.206380 0.263036 0.936657
O O9 0.989203 0.273698 0.879302
O O10 0.610668 0.500000 0.337509
O O11 0.630659 0.729120 0.273047
O O12 0.836066 0.688255 0.498528
O O13 0.064846 0.238412 0.732640
O O14 0.147632 0.000000 0.852510
O O15 0.728860 0.500000 0.289859
O O16 0.863645 0.725654 0.337520
O O17 0.952244 0.500000 0.331254
O O18 0.902990 0.000000 0.844997
O O19 0.000000 0.832459 0.000000
#
# Coordination Sequence:
#
# PCOD9145659 Si02
#       8
#     4   2   4   4   4   4   4   4
#     4  10  20  33  51  77 109 140 168 204 253 306
#     4  10  20  32  50  76 107 138 171 210 251 300
#     4  11  21  33  53  80 106 133 169 209 254 308
#     4  10  19  32  52  76 103 136 176 218 257 299
#     4  11  22  36  53  73 102 137 172 212 259 308
#     4   9  17  30  50  75 103 137 173 211 256 302
#     4   9  19  35  52  71  98 135 179 221 257 298
#     4   8  16  32  51  73 104 138 167 200 249 306
#
# _framework density 18.281178000000001
#
# number of rings (size 3 to 8) (size 9 to 14) (size 15 to 20)
#    0.000    2.267    0.000    4.400    0.000    7.733 
#    0.000    2.667    0.000    4.800    0.000    5.600 
#    0.000    0.000    0.000    0.000    0.000    0.000 
#
# Total GULP energy -167220.882696 kJ/mol
# GULP energy per Si atom -5574.029423 kJ/mol
# Density = 1.823957 g / cm^3
# Si number density = 18.281178 Si / 1000 Ang^3
#
#
#
# Elastic Constant Matrix: (Units=GPa)
#
#
# Indices 1 2 3 4 5 6 
#
# 1 80.3731 39.2925 24.7693 0.0000 15.3534 0.0000
# 2 39.2925 84.5474 20.4230 0.0000 4.3191 0.0000
# 3 24.7693 20.4230 50.8487 0.0000 11.8619 0.0000
# 4 0.0000 0.0000 0.0000 12.5695 0.0000 4.4617
# 5 15.3534 4.3191 11.8619 0.0000 24.7870 0.0000
# 6 0.0000 0.0000 0.0000 4.4617 0.0000 16.4101
#
#
#
# Elastic Compliance Matrix: (Units=1/GPa)
#
#
# Indices 1 2 3 4 5 6 
#
# 1 0.018970 -0.007340 -0.004334 0.000000 -0.008397 0.000000
# 2 -0.007340 0.015940 -0.003646 0.000000 0.003514 0.000000
# 3 -0.004334 -0.003646 0.025291 0.000000 -0.008783 0.000000
# 4 0.000000 0.000000 0.000000 0.088056 0.000000 -0.023941
# 5 -0.008397 0.003514 -0.008783 0.000000 0.049136 0.000000
# 6 0.000000 0.000000 0.000000 -0.023941 0.000000 0.067447
#
#
# Mechanical properties :
#
#
# Convention : Reuss Voigt Hill
#
# Bulk Modulus (GPa) = 33.82908 42.74875 38.28892
# Shear Modulus (GPa) = 16.37547 19.50561 17.94054
#
# Velocity S-wave (km/s) = 2.99616 3.27001 3.13608
# Velocity P-wave (km/s) = 5.52398 6.13938 5.83980
#
# Compressibility (1/GPa) = 0.02956036
#
# Stress axis : x y z
#
# Youngs Moduli (GPa) = 52.71438 62.73384 39.54032
#
# Poissons Ratio (x) = 0.46049 0.17135
# Poissons Ratio (y) = 0.38694 0.14418
# Poissons Ratio (z) = 0.22844 0.22876
#
# Static dielectric constant tensor:
#      x y z
#    x 1.662390 0.000000 0.026450 
#    y 0.000000 1.622910 0.000000 
#    z 0.026450 0.000000 1.634680 
# 
# From -- ./inp_files/85754.got.cif
#   From: 2010.05.17/outbox.cif.g08.bks.cpg/sg10_43_cif.got.tgz:85754.got - 2010.06.03 11:33:40.
