data_PCOD9145657
_publ_section_title
;
Structure prediction by ZEFSAII (Michael W. Deem and Ramdas Pophale) SiO2 
 PCOD9145657
Probable space group: P 2/M
;
_chemical_formula_sum "Si O2"
_cell_formula_units_Z 28
_cell_length_a 23.672618
_cell_length_b 7.565078
_cell_length_c 9.459804
_cell_angle_alpha 90.000000
_cell_angle_beta 52.024460
_cell_angle_gamma 90.000000
_cell_volume 1335.422755
_symmetry_space_group_name_H-M "P 2/M"
_symmetry_group_IT_number 10
_symmetry_cell_setting 'monoclinic'
loop_
_space_group_symop_operation_xyz
x,y,z
-x,y,-z
-x,-y,-z
x,-y,z
loop_
_atom_site_type_symbol
_atom_site_label
_atom_site_fract_x
_atom_site_fract_y
_atom_site_fract_z
Si Si1 0.500390 0.783860 0.661897
Si Si2 0.931979 0.713553 0.692568
Si Si3 0.227668 0.792403 0.053011
Si Si4 0.773267 0.296062 0.273579
Si Si5 0.356706 0.783756 0.050085
Si Si6 0.631181 0.203985 0.649461
Si Si7 0.068848 0.283749 0.981023
O O1 0.500000 0.723920 0.500000
O O2 0.569132 0.719981 0.644767
O O3 0.502730 0.000000 0.653650
O O4 0.428017 0.734732 0.854878
O O5 0.932961 0.500000 0.688572
O O6 0.938821 0.770377 0.844534
O O7 0.000000 0.777542 0.500000
O O8 0.852886 0.768378 0.765530
O O9 0.231883 0.711699 0.889284
O O10 0.240837 0.000000 0.011239
O O11 0.287095 0.723822 0.069896
O O12 0.770452 0.500000 0.321401
O O13 0.706155 0.207463 0.451391
O O14 0.852347 0.224723 0.190148
O O15 0.360558 0.720056 0.205882
O O16 0.353217 0.000000 0.058731
O O17 0.609790 0.000000 0.704878
O O18 0.070204 0.500000 0.975646
O O19 0.000000 0.225116 0.000000
#
# Coordination Sequence:
#
# PCOD9145657 Si02
#       7
#     4   4   4   4   4   4   4
#     4   9  16  28  50  77 101 130 169 207 245 294
#     4   9  18  32  50  72  99 131 167 206 248 297
#     4  10  19  33  53  74 100 134 171 210 250 296
#     4  10  20  34  52  74 101 132 168 208 251 303
#     4   9  18  31  49  77 106 131 165 209 253 295
#     4  10  19  32  52  76 103 132 164 207 253 297
#     4   8  15  29  48  68  90 121 162 203 240 284
#
# _framework density 20.967144999999999
#
# number of rings (size 3 to 8) (size 9 to 14) (size 15 to 20)
#    0.000    2.714    0.000    3.000    0.000    5.429 
#    0.000    2.857    0.000   17.143    0.000    0.000 
#    0.000    0.000    0.000    0.000    0.000    0.000 
#
# Total GULP energy -156281.660515 kJ/mol
# GULP energy per Si atom -5581.487876 kJ/mol
# Density = 2.091942 g / cm^3
# Si number density = 20.967145 Si / 1000 Ang^3
#
#
#
# Elastic Constant Matrix: (Units=GPa)
#
#
# Indices 1 2 3 4 5 6 
#
# 1 224.6545 -0.2533 103.0037 0.0000 -19.9520 0.0000
# 2 -0.2533 47.3000 -9.0904 0.0000 1.7759 0.0000
# 3 103.0037 -9.0904 147.8386 0.0000 -15.5417 0.0000
# 4 0.0000 0.0000 0.0000 14.8221 0.0000 -8.6027
# 5 -19.9520 1.7759 -15.5417 0.0000 26.8995 0.0000
# 6 0.0000 0.0000 0.0000 -8.6027 0.0000 14.1513
#
#
#
# Elastic Compliance Matrix: (Units=1/GPa)
#
#
# Indices 1 2 3 4 5 6 
#
# 1 0.006724 -0.000918 -0.004483 0.000000 0.002458 0.000000
# 2 -0.000918 0.021532 0.001855 0.000000 -0.001031 0.000000
# 3 -0.004483 0.001855 0.010262 0.000000 0.002482 0.000000
# 4 0.000000 0.000000 0.000000 0.104249 0.000000 0.063374
# 5 0.002458 -0.001031 0.002482 0.000000 0.040500 0.000000
# 6 0.000000 0.000000 0.000000 0.063374 0.000000 0.109191
#
#
# Mechanical properties :
#
#
# Convention : Reuss Voigt Hill
#
# Bulk Modulus (GPa) = 31.81950 67.45701 49.63825
# Shear Modulus (GPa) = 16.12775 32.91680 24.52227
#
# Velocity S-wave (km/s) = 2.77644 3.96652 3.42359
# Velocity P-wave (km/s) = 5.04846 7.29522 6.27325
#
# Compressibility (1/GPa) = 0.03142727
#
# Stress axis : x y z
#
# Youngs Moduli (GPa) = 148.72366 46.44259 97.44312
#
# Poissons Ratio (x) = 0.04263 0.43682
# Poissons Ratio (y) = 0.13650 -0.18077
# Poissons Ratio (z) = 0.66670 -0.08616
#
# Static dielectric constant tensor:
#      x y z
#    x 1.742780 0.000000 -0.005590 
#    y 0.000000 1.801000 0.000000 
#    z -0.005590 0.000000 1.704070 
# 
# From -- ./inp_files/34565.got.cif
#   From: 2010.05.17/outbox.cif.g08.bks.cpg/sg10_18_cif.got.tgz:34565.got - 2010.06.03 11:33:40.
