data_PCOD9145597
_publ_section_title
;
Structure prediction by ZEFSAII (Michael W. Deem and Ramdas Pophale) SiO2 
 PCOD9145597
Probable space group: P 2/M
;
_chemical_formula_sum "Si O2"
_cell_formula_units_Z 32
_cell_length_a 26.102676
_cell_length_b 8.541559
_cell_length_c 21.246259
_cell_angle_alpha 90.000000
_cell_angle_beta 22.462091
_cell_angle_gamma 90.000000
_cell_volume 1809.880693
_symmetry_space_group_name_H-M "P 2/M"
_symmetry_group_IT_number 10
_symmetry_cell_setting 'monoclinic'
loop_
_space_group_symop_operation_xyz
x,y,z
-x,y,-z
-x,-y,-z
x,-y,z
loop_
_atom_site_type_symbol
_atom_site_label
_atom_site_fract_x
_atom_site_fract_y
_atom_site_fract_z
Si Si1 0.649489 0.812227 0.761245
Si Si2 0.343254 0.311165 0.748458
Si Si3 0.935723 0.811105 0.388637
Si Si4 0.354517 0.311280 0.589252
Si Si5 0.636625 0.312359 0.918073
Si Si6 0.931669 0.189126 0.891668
Si Si7 0.915030 0.311165 0.658154
Si Si8 0.085877 0.188815 0.841948
O O1 0.661122 0.754856 0.820246
O O2 0.781906 0.759818 0.573835
O O3 0.643143 0.000000 0.768534
O O4 0.508975 0.746401 0.895561
O O5 0.338384 0.500000 0.755812
O O6 0.328261 0.263990 0.691930
O O7 0.492938 0.262945 0.599390
O O8 0.220786 0.243779 0.926748
O O9 0.000810 0.755474 0.249635
O O10 0.021172 0.757592 0.351611
O O11 0.934659 0.000000 0.388742
O O12 0.349919 0.500000 0.592513
O O13 0.237753 0.244101 0.678748
O O14 0.634833 0.500000 0.915227
O O15 0.760871 0.265710 0.820835
O O16 0.015744 0.242936 0.857329
O O17 0.933379 0.000000 0.889795
O O18 0.921985 0.500000 0.653888
O O19 0.000000 0.262963 0.500000
O O20 0.084071 0.000000 0.844224
O O21 0.000000 0.243522 0.000000
#
# Coordination Sequence:
#
# PCOD9145597 Si02
#       8
#     4   4   4   4   4   4   4   4
#     4  10  19  32  51  77 106 137 173 210 256 307
#     4   9  18  33  52  77 106 138 172 214 264 311
#     4  10  22  37  54  76 106 143 175 213 260 311
#     4   9  18  32  52  78 107 134 171 219 264 310
#     4  10  19  32  53  79 105 133 168 214 263 302
#     4  10  21  37  53  75 108 140 176 215 259 313
#     4  10  20  35  55  80 107 136 173 217 261 307
#     4  10  19  32  52  79 106 137 176 219 261 305
#
# _framework density 17.680724000000001
#
# number of rings (size 3 to 8) (size 9 to 14) (size 15 to 20)
#    0.000    2.250    2.500    2.250    0.000    3.500 
#    0.000    2.500    0.000    4.500    0.000    0.000 
#    0.000    0.000    0.000    0.000    0.000    0.000 
#
# Total GULP energy -178522.398016 kJ/mol
# GULP energy per Si atom -5578.824938 kJ/mol
# Density = 1.764048 g / cm^3
# Si number density = 17.680724 Si / 1000 Ang^3
#
#
#
# Elastic Constant Matrix: (Units=GPa)
#
#
# Indices 1 2 3 4 5 6 
#
# 1 107.7352 13.6047 88.1126 0.0000 -4.4223 0.0000
# 2 13.6047 10.8230 21.8958 0.0000 -0.5202 0.0000
# 3 88.1126 21.8958 178.8301 0.0000 -10.2305 0.0000
# 4 0.0000 0.0000 0.0000 25.0798 0.0000 -7.8557
# 5 -4.4223 -0.5202 -10.2305 0.0000 30.0198 0.0000
# 6 0.0000 0.0000 0.0000 -7.8557 0.0000 21.0634
#
#
#
# Elastic Compliance Matrix: (Units=1/GPa)
#
#
# Indices 1 2 3 4 5 6 
#
# 1 0.015787 -0.005443 -0.007123 0.000000 -0.000196 0.000000
# 2 -0.005443 0.124970 -0.012791 0.000000 -0.002995 0.000000
# 3 -0.007123 -0.012791 0.010806 0.000000 0.002412 0.000000
# 4 0.000000 0.000000 0.000000 0.045147 0.000000 0.016838
# 5 -0.000196 -0.002995 0.002412 0.000000 0.034052 0.000000
# 6 0.000000 0.000000 0.000000 0.016838 0.000000 0.053755
#
#
# Mechanical properties :
#
#
# Convention : Reuss Voigt Hill
#
# Bulk Modulus (GPa) = 9.91585 60.51272 35.21428
# Shear Modulus (GPa) = 13.55571 26.81760 20.18666
#
# Velocity S-wave (km/s) = 2.77193 3.89880 3.38262
# Velocity P-wave (km/s) = 3.98312 7.38695 5.93432
#
# Compressibility (1/GPa) = 0.10084869
#
# Stress axis : x y z
#
# Youngs Moduli (GPa) = 63.34193 8.00192 92.54288
#
# Poissons Ratio (x) = 0.04355 0.65923
# Poissons Ratio (y) = 0.34477 1.18369
# Poissons Ratio (z) = 0.45121 0.10235
#
# Static dielectric constant tensor:
#      x y z
#    x 1.580650 0.000000 -0.009490 
#    y 0.000000 1.605950 0.000000 
#    z -0.009490 0.000000 1.611050 
# 
# From -- ./inp_files/86918.got.cif
#   From: 2010.05.17/outbox.cif.g08.bks.cpg/sg10_44_cif.got.tgz:86918.got - 2010.06.03 11:33:40.
