data_PCOD9145370
_publ_section_title
;
Structure prediction by ZEFSAII (Michael W. Deem and Ramdas Pophale) SiO2 
 PCOD9145370
Probable space group: P 2/M
;
_chemical_formula_sum "Si O2"
_cell_formula_units_Z 28
_cell_length_a 14.629645
_cell_length_b 14.167497
_cell_length_c 12.959657
_cell_angle_alpha 90.000000
_cell_angle_beta 43.461123
_cell_angle_gamma 90.000000
_cell_volume 1847.659275
_symmetry_space_group_name_H-M "P 2/M"
_symmetry_group_IT_number 10
_symmetry_cell_setting 'monoclinic'
loop_
_space_group_symop_operation_xyz
x,y,z
-x,y,-z
-x,-y,-z
x,-y,z
loop_
_atom_site_type_symbol
_atom_site_label
_atom_site_fract_x
_atom_site_fract_y
_atom_site_fract_z
Si Si1 0.695864 0.614066 0.039129
Si Si2 0.580858 0.892351 0.594353
Si Si3 0.846020 0.298290 0.103875
Si Si4 0.711469 0.108007 0.267591
Si Si5 0.342717 0.608112 0.157590
Si Si6 0.357865 0.612925 0.568540
Si Si7 0.598370 0.299496 0.685300
O O1 0.685770 0.500000 0.059590
O O2 0.726537 0.633762 0.893565
O O3 0.800389 0.658267 0.032242
O O4 0.552172 0.659791 0.182267
O O5 0.430628 0.884932 0.673781
O O6 0.676191 0.875678 0.417231
O O7 0.598536 0.811794 0.664113
O O8 0.601068 0.000000 0.613100
O O9 0.806811 0.188134 0.145764
O O10 0.756114 0.350279 0.263118
O O11 0.000000 0.312473 0.000000
O O12 0.758852 0.000000 0.217374
O O13 0.309365 0.500000 0.211716
O O14 0.327438 0.671698 0.270702
O O15 0.500000 0.609450 0.000000
O O16 0.500000 0.645064 0.500000
O O17 0.358747 0.500000 0.565220
O O18 0.344322 0.652685 0.464728
#
# Coordination Sequence:
#
# PCOD9145370 Si02
#       7
#     4   4   4   4   4   4   4
#     4  10  19  32  48  68 101 138 165 195 238 292
#     4   9  16  27  50  76  98 123 155 203 256 292
#     4  12  23  33  48  74 105 134 161 197 256 299
#     4   9  17  32  48  69  98 129 164 198 241 297
#     4   8  16  28  45  71  96 127 167 200 236 280
#     4  11  20  30  48  73 100 130 162 201 245 290
#     4  11  16  28  52  74  97 121 166 211 236 283
#
# _framework density 15.154310000000001
#
# number of rings (size 3 to 8) (size 9 to 14) (size 15 to 20)
#    0.000    2.000    4.286    3.429    0.000    1.429 
#    0.000    0.000    0.000    5.571    0.000    3.000 
#    0.000    2.286    0.000    0.000    0.000    0.000 
#
# Total GULP energy -156092.447768 kJ/mol
# GULP energy per Si atom -5574.730277 kJ/mol
# Density = 1.511982 g / cm^3
# Si number density = 15.154310 Si / 1000 Ang^3
#
#
#
# Elastic Constant Matrix: (Units=GPa)
#
#
# Indices 1 2 3 4 5 6 
#
# 1 99.2170 57.7639 56.2370 0.0000 22.1659 0.0000
# 2 57.7639 113.4966 46.5294 0.0000 22.4519 0.0000
# 3 56.2370 46.5294 61.9419 0.0000 14.4692 0.0000
# 4 0.0000 0.0000 0.0000 16.5868 0.0000 9.1071
# 5 22.1659 22.4519 14.4692 0.0000 30.4537 0.0000
# 6 0.0000 0.0000 0.0000 9.1071 0.0000 6.0100
#
#
#
# Elastic Compliance Matrix: (Units=1/GPa)
#
#
# Indices 1 2 3 4 5 6 
#
# 1 0.023094 -0.003658 -0.016785 0.000000 -0.006137 0.000000
# 2 -0.003658 0.014168 -0.006191 0.000000 -0.004842 0.000000
# 3 -0.016785 -0.006191 0.036123 0.000000 -0.000381 0.000000
# 4 0.000000 0.000000 0.000000 0.358867 0.000000 -0.543798
# 5 -0.006137 -0.004842 -0.000381 0.000000 0.041054 0.000000
# 6 0.000000 0.000000 0.000000 -0.543798 0.000000 0.990416
#
#
# Mechanical properties :
#
#
# Convention : Reuss Voigt Hill
#
# Bulk Modulus (GPa) = 49.71019 66.19069 57.95044
# Shear Modulus (GPa) = 3.28149 18.21845 10.74997
#
# Velocity S-wave (km/s) = 1.47312 3.47103 2.66628
# Velocity P-wave (km/s) = 5.98058 7.73542 6.91390
#
# Compressibility (1/GPa) = 0.02011660
#
# Stress axis : x y z
#
# Youngs Moduli (GPa) = 43.30153 70.57956 27.68311
#
# Poissons Ratio (x) = 0.25819 0.46467
# Poissons Ratio (y) = 0.15840 0.17138
# Poissons Ratio (z) = 0.72684 0.43694
#
# Static dielectric constant tensor:
#      x y z
#    x 1.498330 0.000000 0.014960 
#    y 0.000000 1.521470 0.000000 
#    z 0.014960 0.000000 1.490500 
# 
# From -- ./inp_files/28978.got.cif
#   From: 2010.05.17/outbox.cif.g08.bks.cpg/sg10_15_cif.got.tgz:28978.got - 2010.06.03 11:33:40.
