data_PCOD9145302
_publ_section_title
;
Structure prediction by ZEFSAII (Michael W. Deem and Ramdas Pophale) SiO2 
 PCOD9145302
Probable space group: P 2/M
;
_chemical_formula_sum "Si O2"
_cell_formula_units_Z 32
_cell_length_a 11.475543
_cell_length_b 15.786246
_cell_length_c 13.970469
_cell_angle_alpha 90.000000
_cell_angle_beta 142.087841
_cell_angle_gamma 90.000000
_cell_volume 1555.075619
_symmetry_space_group_name_H-M "P 2/M"
_symmetry_group_IT_number 10
_symmetry_cell_setting 'monoclinic'
loop_
_space_group_symop_operation_xyz
x,y,z
-x,y,-z
-x,-y,-z
x,-y,z
loop_
_atom_site_type_symbol
_atom_site_label
_atom_site_fract_x
_atom_site_fract_y
_atom_site_fract_z
Si Si1 0.155063 0.593888 0.516414
Si Si2 0.395325 0.905234 0.115899
Si Si3 0.596379 0.134943 0.664116
Si Si4 0.065889 0.266368 0.306033
Si Si5 0.602847 0.407818 0.834789
Si Si6 0.053947 0.906603 0.215114
Si Si7 0.368481 0.736220 0.997513
Si Si8 0.665990 0.330350 0.677596
O O1 0.118243 0.500000 0.447721
O O2 0.373481 0.591979 0.689909
O O3 0.000000 0.602975 0.500000
O O4 0.140901 0.673475 0.437197
O O5 0.463331 0.896287 0.269934
O O6 0.457443 0.824373 0.093474
O O7 0.445025 0.000000 0.113539
O O8 0.164895 0.896868 0.958061
O O9 0.500000 0.108134 0.500000
O O10 0.811687 0.103419 0.789386
O O11 0.595030 0.237141 0.665241
O O12 0.126332 0.168530 0.331691
O O13 0.143237 0.311486 0.258887
O O14 0.843395 0.255228 0.178003
O O15 0.670012 0.500000 0.912028
O O16 0.659110 0.329047 0.934858
O O17 0.675819 0.390069 0.775053
O O18 0.076389 0.000000 0.271752
O O19 0.500000 0.700166 0.000000
O O20 0.500000 0.362898 0.500000
#
# Coordination Sequence:
#
# PCOD9145302 Si02
#       8
#     4   4   4   4   4   4   4   4
#     4  10  21  38  61  87 113 151 204 245 282 345
#     4  10  20  36  57  80 112 154 198 238 285 344
#     4  10  19  31  53  83 117 150 185 235 289 342
#     4  10  21  37  61  85 113 158 191 240 297 344
#     4  11  23  39  62  88 119 156 190 238 301 354
#     4   9  19  33  52  80 113 152 193 231 282 349
#     4  11  24  41  59  84 119 155 200 248 289 342
#     4  10  19  36  59  86 120 148 187 237 291 358
#
# _framework density 20.577777000000001
#
# number of rings (size 3 to 8) (size 9 to 14) (size 15 to 20)
#    0.000    1.875    2.500    1.500    0.000    4.250 
#    0.000    0.625    0.000    0.375    0.000    0.000 
#    0.000    0.000    0.000    0.000    0.000    0.000 
#
# Total GULP energy -178366.183141 kJ/mol
# GULP energy per Si atom -5573.943223 kJ/mol
# Density = 2.053094 g / cm^3
# Si number density = 20.577777 Si / 1000 Ang^3
#
#
#
# Elastic Constant Matrix: (Units=GPa)
#
#
# Indices 1 2 3 4 5 6 
#
# 1 46.1532 -18.8443 -11.6084 0.0000 8.6541 0.0000
# 2 -18.8443 70.3297 2.8462 0.0000 -13.4092 0.0000
# 3 -11.6084 2.8462 21.2581 0.0000 -4.0598 0.0000
# 4 0.0000 0.0000 0.0000 -12.0086 0.0000 24.6437
# 5 8.6541 -13.4092 -4.0598 0.0000 23.4190 0.0000
# 6 0.0000 0.0000 0.0000 24.6437 0.0000 -35.6448
#
#
#
# Elastic Compliance Matrix: (Units=1/GPa)
#
#
# Indices 1 2 3 4 5 6 
#
# 1 0.028557 0.006215 0.013886 0.000000 -0.004587 0.000000
# 2 0.006215 0.017317 0.002617 0.000000 0.008072 0.000000
# 3 0.013886 0.002617 0.055414 0.000000 0.005973 0.000000
# 4 0.000000 0.000000 0.000000 0.198835 0.000000 0.137469
# 5 -0.004587 0.008072 0.005973 0.000000 0.050053 0.000000
# 6 0.000000 0.000000 0.000000 0.137469 0.000000 0.066987
#
#
# Mechanical properties :
#
#
# Convention : Reuss Voigt Hill
#
# Bulk Modulus (GPa) = 6.81545 9.16979 7.99262
# Shear Modulus (GPa) = 11.88676 6.17628 9.03152
#
# Velocity S-wave (km/s) = 2.40604 1.73434 2.09726
# Velocity P-wave (km/s) = 3.32234 2.91143 3.12365
#
# Compressibility (1/GPa) = 0.14672543
#
# Stress axis : x y z
#
# Youngs Moduli (GPa) = 35.01723 57.74594 18.04593
#
# Poissons Ratio (x) = -0.35890 -0.25059
# Poissons Ratio (y) = -0.21764 -0.04723
# Poissons Ratio (z) = -0.48626 -0.15112
#
# Static dielectric constant tensor:
#      x y z
#    x 1.717490 0.000000 0.019050 
#    y 0.000000 1.786710 0.000000 
#    z 0.019050 0.000000 1.761640 
# 
# From -- ./inp_files/65138.got.cif
#   From: 2010.05.17/outbox.cif.g08.bks.cpg/sg10_33_cif.got.tgz:65138.got - 2010.06.03 11:33:40.
