data_PCOD9145726
_publ_section_title
;
Structure prediction by ZEFSAII (Michael W. Deem and Ramdas Pophale) SiO2 
 PCOD9145726
Probable space group: P 2/M
;
_chemical_formula_sum "Si O2"
_cell_formula_units_Z 20
_cell_length_a 9.645694
_cell_length_b 8.914074
_cell_length_c 15.279101
_cell_angle_alpha 90.000000
_cell_angle_beta 109.020143
_cell_angle_gamma 90.000000
_cell_volume 1242.009678
_symmetry_space_group_name_H-M "P 2/M"
_symmetry_group_IT_number 10
_symmetry_cell_setting 'monoclinic'
loop_
_space_group_symop_operation_xyz
x,y,z
-x,y,-z
-x,-y,-z
x,-y,z
loop_
_atom_site_type_symbol
_atom_site_label
_atom_site_fract_x
_atom_site_fract_y
_atom_site_fract_z
Si Si1 0.357087 0.679311 0.912435
Si Si2 0.511463 0.821602 0.228374
Si Si3 0.469973 0.677176 0.395436
Si Si4 0.778141 0.676211 0.781237
Si Si5 0.056787 0.821101 0.913950
O O1 0.346398 0.500000 0.902876
O O2 0.385047 0.751664 0.823388
O O3 0.211100 0.744786 0.925444
O O4 0.500000 0.715727 0.000000
O O5 0.550992 0.767744 0.335000
O O6 0.347065 0.752297 0.183540
O O7 0.506344 0.000000 0.221351
O O8 0.500000 0.727337 0.500000
O O9 0.507063 0.500000 0.396417
O O10 0.299741 0.690637 0.329876
O O11 0.791066 0.500000 0.804506
O O12 0.931009 0.757876 0.824190
O O13 0.069866 0.000000 0.908384
O O14 0.000000 0.785943 0.000000
#
# Coordination Sequence:
#
# PCOD9145726 Si02
#       5
#     4   4   4   4   4
#     4  11  23  37  54  75 103 142 184 221 262 317
#     4  10  19  32  52  79 109 137 173 219 267 312
#     4   8  16  32  55  81 108 139 177 219 263 314
#     4   9  18  33  53  77 105 138 177 215 258 312
#     4  11  23  36  52  76 107 141 176 219 270 316
#
# _framework density 16.102933
#
# number of rings (size 3 to 8) (size 9 to 14) (size 15 to 20)
#    1.200    1.000    0.000    4.200    0.000    6.800 
#    0.000    0.000    0.000    1.200    0.000    8.400 
#    0.000    0.000    0.000    0.000    0.000    0.000 
#
# Total GULP energy -111365.950380 kJ/mol
# GULP energy per Si atom -5568.297519 kJ/mol
# Density = 1.606628 g / cm^3
# Si number density = 16.102933 Si / 1000 Ang^3
#
#
#
# Elastic Constant Matrix: (Units=GPa)
#
#
# Indices 1 2 3 4 5 6 
#
# 1 114.6683 54.3250 54.5704 0.0000 -10.2600 0.0000
# 2 54.3250 80.9523 57.9343 0.0000 -7.5783 0.0000
# 3 54.5704 57.9343 110.4997 0.0000 -9.5774 0.0000
# 4 0.0000 0.0000 0.0000 41.8906 0.0000 18.8453
# 5 -10.2600 -7.5783 -9.5774 0.0000 20.1077 0.0000
# 6 0.0000 0.0000 0.0000 18.8453 0.0000 45.7228
#
#
#
# Elastic Compliance Matrix: (Units=1/GPa)
#
#
# Indices 1 2 3 4 5 6 
#
# 1 0.013567 -0.006746 -0.002903 0.000000 0.002997 0.000000
# 2 -0.006746 0.023259 -0.008764 0.000000 0.001150 0.000000
# 3 -0.002903 -0.008764 0.015295 0.000000 0.002501 0.000000
# 4 0.000000 0.000000 0.000000 0.029306 0.000000 -0.012079
# 5 0.002997 0.001150 0.002501 0.000000 0.052886 0.000000
# 6 0.000000 0.000000 0.000000 -0.012079 0.000000 0.026849
#
#
# Mechanical properties :
#
#
# Convention : Reuss Voigt Hill
#
# Bulk Modulus (GPa) = 65.37891 71.08663 68.23277
# Shear Modulus (GPa) = 24.62014 30.83025 27.72519
#
# Velocity S-wave (km/s) = 3.91439 4.38033 4.15390
# Velocity P-wave (km/s) = 7.81784 8.35608 8.09144
#
# Compressibility (1/GPa) = 0.01529545
#
# Stress axis : x y z
#
# Youngs Moduli (GPa) = 73.71087 42.99350 65.38058
#
# Poissons Ratio (x) = 0.29003 0.18982
# Poissons Ratio (y) = 0.49724 0.57297
# Poissons Ratio (z) = 0.21400 0.37678
#
# Static dielectric constant tensor:
#      x y z
#    x 1.522540 0.000000 0.011320 
#    y 0.000000 1.532790 0.000000 
#    z 0.011320 0.000000 1.554040 
# 
# From -- ./inp_files/26774.got.cif
#   From: 2010.05.17/outbox.cif.g08.bks.cpg/sg10_14_cif.got.tgz:26774.got - 2010.06.03 11:33:40.
