data_PCOD9145528
_publ_section_title
;
Structure prediction by ZEFSAII (Michael W. Deem and Ramdas Pophale) SiO2 
 PCOD9145528
Probable space group: P 2/M
;
_chemical_formula_sum "Si O2"
_cell_formula_units_Z 28
_cell_length_a 14.492819
_cell_length_b 7.478181
_cell_length_c 15.750983
_cell_angle_alpha 90.000000
_cell_angle_beta 138.817528
_cell_angle_gamma 90.000000
_cell_volume 1124.049421
_symmetry_space_group_name_H-M "P 2/M"
_symmetry_group_IT_number 10
_symmetry_cell_setting 'monoclinic'
loop_
_space_group_symop_operation_xyz
x,y,z
-x,y,-z
-x,-y,-z
x,-y,z
loop_
_atom_site_type_symbol
_atom_site_label
_atom_site_fract_x
_atom_site_fract_y
_atom_site_fract_z
Si Si1 0.861926 0.717622 0.851461
Si Si2 0.294012 0.713414 0.979499
Si Si3 0.550670 0.715490 0.263783
Si Si4 0.980091 0.301670 0.575769
Si Si5 0.457558 0.718693 0.375519
Si Si6 0.974502 0.280995 0.749938
Si Si7 0.282004 0.205542 0.790302
O O1 0.863289 0.500000 0.859352
O O2 0.702205 0.771694 0.759840
O O3 0.886749 0.768028 0.770743
O O4 0.000000 0.777626 0.000000
O O5 0.287076 0.500000 0.984770
O O6 0.134856 0.779976 0.876158
O O7 0.359812 0.755782 0.932941
O O8 0.401090 0.779811 0.123955
O O9 0.552124 0.500000 0.266059
O O10 0.558622 0.773570 0.367280
O O11 0.656291 0.764138 0.260502
O O12 0.916688 0.500000 0.517606
O O13 0.919896 0.220244 0.619769
O O14 0.143795 0.320720 0.710155
O O15 0.000000 0.205503 0.500000
O O16 0.500000 0.777412 0.500000
O O17 0.459433 0.500000 0.379230
O O18 0.973987 0.500000 0.744633
O O19 0.242139 0.000000 0.767494
#
# Coordination Sequence:
#
# PCOD9145528 Si02
#       7
#     4   4   4   4   4   4   4
#     4   9  15  24  41  66  95 126 160 200 249 304
#     4   9  17  31  50  73 101 132 167 207 254 310
#     4  10  19  32  51  72  99 136 171 206 253 310
#     4   9  18  33  52  73  98 130 167 205 250 309
#     4   9  18  30  45  71 104 132 164 213 267 312
#     4   8  14  25  43  68  96 123 154 197 248 298
#     4  11  22  33  48  73 103 133 168 212 260 309
#
# _framework density 24.909936999999999
#
# number of rings (size 3 to 8) (size 9 to 14) (size 15 to 20)
#    0.000    2.714    0.000    3.429    0.000    7.143 
#    0.000    4.286    0.000    0.429    0.000    4.000 
#    0.000   15.429    0.000    0.000    0.000    0.000 
#
# Total GULP energy -156087.948413 kJ/mol
# GULP energy per Si atom -5574.569586 kJ/mol
# Density = 2.485324 g / cm^3
# Si number density = 24.909937 Si / 1000 Ang^3
#
#
#
# Elastic Constant Matrix: (Units=GPa)
#
#
# Indices 1 2 3 4 5 6 
#
# 1 136.3033 -9.0904 36.2342 0.0000 -28.1964 0.0000
# 2 -9.0904 73.0063 -1.8989 0.0000 -1.4569 0.0000
# 3 36.2342 -1.8989 93.0053 0.0000 -34.8075 0.0000
# 4 0.0000 0.0000 0.0000 74.7501 0.0000 9.5339
# 5 -28.1964 -1.4569 -34.8075 0.0000 50.5095 0.0000
# 6 0.0000 0.0000 0.0000 9.5339 0.0000 -57.6428
#
#
#
# Elastic Compliance Matrix: (Units=1/GPa)
#
#
# Indices 1 2 3 4 5 6 
#
# 1 0.008672 0.001095 -0.002065 0.000000 0.003450 0.000000
# 2 0.001095 0.013867 0.000317 0.000000 0.001229 0.000000
# 3 -0.002065 0.000317 0.015005 0.000000 0.009197 0.000000
# 4 0.000000 0.000000 0.000000 0.013102 0.000000 0.002167
# 5 0.003450 0.001229 0.009197 0.000000 0.028097 0.000000
# 6 0.000000 0.000000 0.000000 0.002167 0.000000 -0.016990
#
#
# Mechanical properties :
#
#
# Convention : Reuss Voigt Hill
#
# Bulk Modulus (GPa) = 27.59656 39.20049 33.39852
# Shear Modulus (GPa) = 66.54366 31.99471 49.26918
#
# Velocity S-wave (km/s) = 5.17414 3.58776 4.45218
# Velocity P-wave (km/s) = 6.84092 5.73880 6.31395
#
# Compressibility (1/GPa) = 0.03623641
#
# Stress axis : x y z
#
# Youngs Moduli (GPa) = 115.31082 72.11594 66.64442
#
# Poissons Ratio (x) = -0.07896 0.13764
# Poissons Ratio (y) = -0.12626 -0.02110
# Poissons Ratio (z) = 0.23815 -0.02284
#
# Static dielectric constant tensor:
#      x y z
#    x 1.969350 0.000000 -0.021610 
#    y 0.000000 1.989290 0.000000 
#    z -0.021610 0.000000 2.122400 
# 
# From -- ./inp_files/66642.got.cif
#   From: 2010.05.17/outbox.cif.g08.bks.cpg/sg10_34_cif.got.tgz:66642.got - 2010.06.03 11:33:40.
