data_PCOD9145744
_publ_section_title
;
Structure prediction by ZEFSAII (Michael W. Deem and Ramdas Pophale) SiO2 
 PCOD9145744
Probable space group: P 2/M
;
_chemical_formula_sum "Si O2"
_cell_formula_units_Z 32
_cell_length_a 25.598647
_cell_length_b 7.390679
_cell_length_c 15.762797
_cell_angle_alpha 90.000000
_cell_angle_beta 27.643368
_cell_angle_gamma 90.000000
_cell_volume 1383.634649
_symmetry_space_group_name_H-M "P 2/M"
_symmetry_group_IT_number 10
_symmetry_cell_setting 'monoclinic'
loop_
_space_group_symop_operation_xyz
x,y,z
-x,y,-z
-x,-y,-z
x,-y,z
loop_
_atom_site_type_symbol
_atom_site_label
_atom_site_fract_x
_atom_site_fract_y
_atom_site_fract_z
Si Si1 0.357545 0.279046 0.453848
Si Si2 0.496399 0.704246 0.412709
Si Si3 0.910274 0.280807 0.905129
Si Si4 0.736600 0.789846 0.004888
Si Si5 0.844081 0.292048 0.495945
Si Si6 0.876835 0.219369 0.644421
Si Si7 0.598650 0.721407 0.795211
Si Si8 0.121138 0.279858 0.859180
O O1 0.361063 0.500000 0.449149
O O2 0.421764 0.214754 0.445324
O O3 0.414171 0.223628 0.284320
O O4 0.227111 0.224626 0.649944
O O5 0.500000 0.792358 0.500000
O O6 0.450194 0.500000 0.492454
O O7 0.623534 0.695740 0.197036
O O8 0.911945 0.500000 0.900144
O O9 0.831833 0.222550 0.940407
O O10 0.038716 0.214927 0.708047
O O11 0.864849 0.226199 0.062678
O O12 0.787407 0.721102 0.843512
O O13 0.708044 0.000000 0.034551
O O14 0.842442 0.500000 0.467791
O O15 0.853750 0.287198 0.583660
O O16 0.723113 0.216080 0.644229
O O17 0.000000 0.274564 0.500000
O O18 0.875767 0.000000 0.643021
O O19 0.597982 0.500000 0.799426
O O20 0.500000 0.782155 0.000000
O O21 0.119524 0.500000 0.860041
O O22 0.000000 0.218877 0.000000
#
# Coordination Sequence:
#
# PCOD9145744 Si02
#       8
#     4   4   4   4   4   4   4   4
#     4   9  17  30  49  74 107 145 177 212 265 322
#     4  10  21  37  58  84 113 145 183 226 272 322
#     4  10  19  32  52  81 110 136 174 226 272 322
#     4  11  23  37  55  78 106 145 186 223 271 328
#     4  10  20  32  53  81 107 136 179 228 271 319
#     4  10  21  38  55  75 108 147 183 222 274 333
#     4   9  18  31  47  74 110 142 175 218 271 326
#     4   9  16  28  50  77 107 138 170 212 265 318
#
# _framework density 23.127493000000001
#
# number of rings (size 3 to 8) (size 9 to 14) (size 15 to 20)
#    0.000    2.250    1.250    1.875    1.750    6.500 
#    0.000    0.000    0.000    1.500    0.000    1.750 
#    0.000    0.000    0.000    0.000    0.000    0.000 
#
# Total GULP energy -178894.342681 kJ/mol
# GULP energy per Si atom -5590.448209 kJ/mol
# Density = 2.307485 g / cm^3
# Si number density = 23.127493 Si / 1000 Ang^3
#
#
#
# Elastic Constant Matrix: (Units=GPa)
#
#
# Indices 1 2 3 4 5 6 
#
# 1 111.5757 -5.6606 45.9863 0.0000 7.0926 0.0000
# 2 -5.6606 81.0610 -0.5213 0.0000 0.3477 0.0000
# 3 45.9863 -0.5213 148.6024 0.0000 13.5042 0.0000
# 4 0.0000 0.0000 0.0000 254.4678 0.0000 -557.7171
# 5 7.0926 0.3477 13.5042 0.0000 45.2675 0.0000
# 6 0.0000 0.0000 0.0000 -557.7171 0.0000 1122.2706
#
#
#
# Elastic Compliance Matrix: (Units=1/GPa)
#
#
# Indices 1 2 3 4 5 6 
#
# 1 0.010333 0.000704 -0.003133 0.000000 -0.000690 0.000000
# 2 0.000704 0.012385 -0.000160 0.000000 -0.000158 0.000000
# 3 -0.003133 -0.000160 0.007867 0.000000 -0.001855 0.000000
# 4 0.000000 0.000000 0.000000 -0.044068 0.000000 -0.021900
# 5 -0.000690 -0.000158 -0.001855 0.000000 0.022754 0.000000
# 6 0.000000 0.000000 0.000000 -0.021900 0.000000 -0.009992
#
#
# Mechanical properties :
#
#
# Convention : Reuss Voigt Hill
#
# Bulk Modulus (GPa) = 39.35692 46.76087 43.05890
# Shear Modulus (GPa) = 386.86640 304.49682 345.68161
#
# Velocity S-wave (km/s) = 12.94754 11.48677 12.23897
# Velocity P-wave (km/s) = 15.51040 14.00680 14.77774
#
# Compressibility (1/GPa) = 0.02540849
#
# Stress axis : x y z
#
# Youngs Moduli (GPa) = 96.77546 80.74139 127.11735
#
# Poissons Ratio (x) = -0.05687 0.39820
# Poissons Ratio (y) = -0.06817 0.02036
# Poissons Ratio (z) = 0.30315 0.01293
#
# Static dielectric constant tensor:
#      x y z
#    x 1.821980 0.000000 0.003150 
#    y 0.000000 1.900910 0.000000 
#    z 0.003150 0.000000 1.824600 
# 
# From -- ./inp_files/71458.got.cif
#   From: 2010.05.17/outbox.cif.g08.bks.cpg/sg10_36_cif.got.tgz:71458.got - 2010.06.03 11:33:40.
