data_PCOD9145824
_publ_section_title
;
Structure prediction by ZEFSAII (Michael W. Deem and Ramdas Pophale) SiO2 
 PCOD9145824
Probable space group: P 2/M
;
_chemical_formula_sum "Si O2"
_cell_formula_units_Z 32
_cell_length_a 14.397358
_cell_length_b 7.454279
_cell_length_c 19.073479
_cell_angle_alpha 90.000000
_cell_angle_beta 134.620796
_cell_angle_gamma 90.000000
_cell_volume 1456.997282
_symmetry_space_group_name_H-M "P 2/M"
_symmetry_group_IT_number 10
_symmetry_cell_setting 'monoclinic'
loop_
_space_group_symop_operation_xyz
x,y,z
-x,y,-z
-x,-y,-z
x,-y,z
loop_
_atom_site_type_symbol
_atom_site_label
_atom_site_fract_x
_atom_site_fract_y
_atom_site_fract_z
Si Si1 0.089244 0.780364 0.201818
Si Si2 0.593372 0.210790 0.384416
Si Si3 0.195263 0.788723 0.993632
Si Si4 0.673445 0.716723 0.270895
Si Si5 0.822588 0.210678 0.599716
Si Si6 0.303216 0.780590 0.199837
Si Si7 0.960396 0.716719 0.400671
Si Si8 0.449375 0.716440 0.048377
O O1 0.131970 0.716308 0.301396
O O2 0.196194 0.731193 0.200679
O O3 0.945553 0.716649 0.103111
O O4 0.084671 0.000000 0.201408
O O5 0.662960 0.226962 0.345888
O O6 0.691332 0.287523 0.494639
O O7 0.447552 0.284379 0.297265
O O8 0.577868 0.000000 0.391779
O O9 0.175769 0.000000 0.995808
O O10 0.256994 0.716802 0.098669
O O11 0.302971 0.767481 0.990508
O O12 0.671915 0.500000 0.269601
O O13 0.548727 0.780825 0.161218
O O14 0.810746 0.773956 0.310325
O O15 0.938489 0.224058 0.604506
O O16 0.797241 0.000000 0.597770
O O17 0.309261 0.000000 0.200496
O O18 0.963872 0.500000 0.402375
O O19 0.000000 0.775625 0.500000
O O20 0.454363 0.500000 0.050625
O O21 0.500000 0.779258 0.000000
#
# Coordination Sequence:
#
# PCOD9145824 Si02
#       8
#     4   4   4   4   4   4   4   4
#     4   9  19  34  52  78 109 139 171 212 264 313
#     4  10  19  32  53  80 106 134 173 218 257 300
#     4  10  19  34  57  81 104 135 177 218 255 303
#     4  10  20  35  53  74 102 139 176 211 254 310
#     4  10  21  34  50  78 111 138 169 215 265 304
#     4   9  17  32  55  79 102 134 176 217 258 308
#     4  10  20  34  53  74  98 136 180 210 246 308
#     4  10  22  37  53  77 109 141 170 208 264 316
#
# _framework density 21.962978
#
# number of rings (size 3 to 8) (size 9 to 14) (size 15 to 20)
#    0.000    2.250    2.500    0.375    1.750    3.000 
#    0.000    2.500    0.000    3.750    0.000    1.750 
#    0.000    0.000    0.000    0.000    0.000    0.000 
#
# Total GULP energy -178789.271536 kJ/mol
# GULP energy per Si atom -5587.164736 kJ/mol
# Density = 2.191299 g / cm^3
# Si number density = 21.962978 Si / 1000 Ang^3
#
#
#
# Elastic Constant Matrix: (Units=GPa)
#
#
# Indices 1 2 3 4 5 6 
#
# 1 149.5317 -8.8696 107.0080 0.0000 7.5460 0.0000
# 2 -8.8696 65.2869 9.8162 0.0000 1.8700 0.0000
# 3 107.0080 9.8162 183.4698 0.0000 27.8750 0.0000
# 4 0.0000 0.0000 0.0000 1.0498 0.0000 -0.6388
# 5 7.5460 1.8700 27.8750 0.0000 33.8331 0.0000
# 6 0.0000 0.0000 0.0000 -0.6388 0.0000 23.6376
#
#
#
# Elastic Compliance Matrix: (Units=1/GPa)
#
#
# Indices 1 2 3 4 5 6 
#
# 1 0.012298 0.002750 -0.007864 0.000000 0.003585 0.000000
# 2 0.002750 0.016058 -0.002555 0.000000 0.000604 0.000000
# 3 -0.007864 -0.002555 0.011301 0.000000 -0.007415 0.000000
# 4 0.000000 0.000000 0.000000 0.968446 0.000000 0.026170
# 5 0.003585 0.000604 -0.007415 0.000000 0.034834 0.000000
# 6 0.000000 0.000000 0.000000 0.026170 0.000000 0.043013
#
#
# Mechanical properties :
#
#
# Convention : Reuss Voigt Hill
#
# Bulk Modulus (GPa) = 41.12196 68.24419 54.68307
# Shear Modulus (GPa) = 4.50697 31.05969 17.78333
#
# Velocity S-wave (km/s) = 1.43406 3.76464 2.84860
# Velocity P-wave (km/s) = 4.63746 7.07365 5.98091
#
# Compressibility (1/GPa) = 0.02431791
#
# Stress axis : x y z
#
# Youngs Moduli (GPa) = 81.31600 62.27600 88.49016
#
# Poissons Ratio (x) = -0.17129 0.69592
# Poissons Ratio (y) = -0.22366 0.22610
# Poissons Ratio (z) = 0.63950 0.15912
#
# Static dielectric constant tensor:
#      x y z
#    x 1.733420 0.000000 0.007730 
#    y 0.000000 1.839020 0.000000 
#    z 0.007730 0.000000 1.805180 
# 
# From -- ./inp_files/57688.got.cif
#   From: 2010.05.17/outbox.cif.g08.bks.cpg/sg10_29_cif.got.tgz:57688.got - 2010.06.03 11:33:40.
