data_PCOD9145338
_publ_section_title
;
Structure prediction by ZEFSAII (Michael W. Deem and Ramdas Pophale) SiO2 
 PCOD9145338
Probable space group: P 2/M
;
_chemical_formula_sum "Si O2"
_cell_formula_units_Z 29
_cell_length_a 14.628366
_cell_length_b 7.522555
_cell_length_c 17.306947
_cell_angle_alpha 90.000000
_cell_angle_beta 42.883627
_cell_angle_gamma 90.000000
_cell_volume 1296.036184
_symmetry_space_group_name_H-M "P 2/M"
_symmetry_group_IT_number 10
_symmetry_cell_setting 'monoclinic'
loop_
_space_group_symop_operation_xyz
x,y,z
-x,y,-z
-x,-y,-z
x,-y,z
loop_
_atom_site_type_symbol
_atom_site_label
_atom_site_fract_x
_atom_site_fract_y
_atom_site_fract_z
Si Si1 0.570483 0.297292 0.844409
Si Si2 0.181937 0.217278 0.203499
Si Si3 0.366335 0.706522 0.366445
Si Si4 0.500000 0.000000 0.000000
Si Si5 0.820540 0.215757 0.973133
Si Si6 0.124561 0.217124 0.790780
Si Si7 0.342072 0.785097 0.780263
Si Si8 0.114152 0.206409 0.623575
O O1 0.518752 0.500000 0.873935
O O2 0.709384 0.296281 0.806651
O O3 0.603579 0.226550 0.738370
O O4 0.481646 0.156267 0.945228
O O5 0.195789 0.271769 0.105389
O O6 0.029313 0.270688 0.319216
O O7 0.205233 0.000000 0.193992
O O8 0.336634 0.500000 0.375396
O O9 0.504825 0.729787 0.326941
O O10 0.238535 0.782560 0.489463
O O11 0.971454 0.266412 0.906158
O O12 0.818197 0.000000 0.973807
O O13 0.711740 0.276729 0.102646
O O14 0.237724 0.277973 0.780049
O O15 0.147111 0.279164 0.688469
O O16 0.130021 0.000000 0.789531
O O17 0.340029 0.000000 0.781898
O O18 0.084299 0.000000 0.656899
#
# Coordination Sequence:
#
# PCOD9145338 Si02
#       8
#     4   4   4   1   4   4   4   4
#     4  11  26  43  64  95 128 165 206 251 304 363
#     4   9  18  36  61  91 118 159 206 253 306 364
#     4  11  26  42  54  81 120 158 202 253 307 363
#     4  12  26  44  72  88 132 164 210 246 304 374
#     4   8  15  28  54  87 120 149 188 241 304 366
#     4   8  15  31  54  89 117 144 194 254 300 357
#     4  10  19  31  57  85 115 154 198 244 303 367
#     4   9  19  37  63  85 116 155 205 257 305 362
#
# _framework density 22.375917000000001
#
# number of rings (size 3 to 8) (size 9 to 14) (size 15 to 20)
#    0.000    2.483    0.690    2.690    3.862    3.310 
#    0.000    6.207    0.000    3.310    0.000    0.000 
#    0.000    0.000    0.000    0.000    0.000    0.000 
#
# Total GULP energy -161779.357652 kJ/mol
# GULP energy per Si atom -5578.598540 kJ/mol
# Density = 2.232499 g / cm^3
# Si number density = 22.375917 Si / 1000 Ang^3
#
#
#
# Elastic Constant Matrix: (Units=GPa)
#
#
# Indices 1 2 3 4 5 6 
#
# 1 106.2103 -4.2914 26.7793 0.0000 -23.6039 0.0000
# 2 -4.2914 71.8912 12.2485 0.0000 3.4853 0.0000
# 3 26.7793 12.2485 91.1400 0.0000 -13.4519 0.0000
# 4 0.0000 0.0000 0.0000 -14.8406 0.0000 11.7425
# 5 -23.6039 3.4853 -13.4519 0.0000 27.7879 0.0000
# 6 0.0000 0.0000 0.0000 11.7425 0.0000 27.0922
#
#
#
# Elastic Compliance Matrix: (Units=1/GPa)
#
#
# Indices 1 2 3 4 5 6 
#
# 1 0.012025 0.000671 -0.002292 0.000000 0.009021 0.000000
# 2 0.000671 0.014497 -0.002509 0.000000 -0.002463 0.000000
# 3 -0.002292 -0.002509 0.012645 0.000000 0.004489 0.000000
# 4 0.000000 0.000000 0.000000 -0.050175 0.000000 0.021747
# 5 0.009021 -0.002463 0.004489 0.000000 0.046131 0.000000
# 6 0.000000 0.000000 0.000000 0.021747 0.000000 0.027485
#
#
# Mechanical properties :
#
#
# Convention : Reuss Voigt Hill
#
# Bulk Modulus (GPa) = 32.35478 37.63491 34.99485
# Shear Modulus (GPa) = 61.59857 23.64159 42.62008
#
# Velocity S-wave (km/s) = 5.25250 3.25401 4.36906
# Velocity P-wave (km/s) = 7.16073 5.56543 6.41288
#
# Compressibility (1/GPa) = 0.03090734
#
# Stress axis : x y z
#
# Youngs Moduli (GPa) = 83.15979 68.98069 79.08032
#
# Poissons Ratio (x) = -0.04629 0.18125
# Poissons Ratio (y) = -0.05580 0.19841
# Poissons Ratio (z) = 0.19060 0.17307
#
# Static dielectric constant tensor:
#      x y z
#    x 1.839050 0.000000 -0.025680 
#    y 0.000000 1.878260 0.000000 
#    z -0.025680 0.000000 1.861450 
# 
# From -- ./inp_files/77742.got.cif
#   From: 2010.05.17/outbox.cif.g08.bks.cpg/sg10_39_cif.got.tgz:77742.got - 2010.06.03 11:33:40.
