data_PCOD9145489
_publ_section_title
;
Structure prediction by ZEFSAII (Michael W. Deem and Ramdas Pophale) SiO2 
 PCOD9145489
Probable space group: P 2/M
;
_chemical_formula_sum "Si O2"
_cell_formula_units_Z 32
_cell_length_a 24.112676
_cell_length_b 14.365172
_cell_length_c 19.317920
_cell_angle_alpha 90.000000
_cell_angle_beta 16.443129
_cell_angle_gamma 90.000000
_cell_volume 1894.089370
_symmetry_space_group_name_H-M "P 2/M"
_symmetry_group_IT_number 10
_symmetry_cell_setting 'monoclinic'
loop_
_space_group_symop_operation_xyz
x,y,z
-x,y,-z
-x,-y,-z
x,-y,z
loop_
_atom_site_type_symbol
_atom_site_label
_atom_site_fract_x
_atom_site_fract_y
_atom_site_fract_z
Si Si1 0.458238 0.801339 0.131682
Si Si2 0.015567 0.109744 0.140049
Si Si3 0.686694 0.893449 0.326435
Si Si4 0.421547 0.109880 0.392508
Si Si5 0.341421 0.601631 0.251939
Si Si6 0.067090 0.606363 0.340678
Si Si7 0.736485 0.205796 0.918547
Si Si8 0.044396 0.110086 0.637258
O O1 0.391657 0.696059 0.231677
O O2 0.646723 0.824008 0.952182
O O3 0.274204 0.867607 0.364890
O O4 0.500000 0.802483 0.000000
O O5 0.786837 0.114432 0.396568
O O6 0.046886 0.145555 0.180361
O O7 0.071262 0.000000 0.076076
O O8 0.140790 0.150097 0.926431
O O9 0.500000 0.896630 0.500000
O O10 0.619708 0.854831 0.480288
O O11 0.749198 0.000000 0.269146
O O12 0.579374 0.169782 0.162476
O O13 0.483278 0.000000 0.320885
O O14 0.351420 0.500000 0.275305
O O15 0.127482 0.611876 0.473642
O O16 0.500000 0.598324 0.000000
O O17 0.140696 0.500000 0.250311
O O18 0.000000 0.625292 0.500000
O O19 0.220530 0.684377 0.135004
O O20 0.940168 0.159137 0.697697
O O21 0.014382 0.000000 0.669032
#
# Coordination Sequence:
#
# PCOD9145489 Si02
#       8
#     4   4   4   4   4   4   4   4
#     4  11  23  38  55  73 101 140 183 224 268 319
#     4   9  17  32  51  72 102 139 179 222 263 307
#     4   9  16  27  47  74 102 134 174 217 262 313
#     4  10  19  32  50  75 106 144 179 211 260 314
#     4   9  17  33  56  80 103 126 160 215 280 332
#     4  10  20  35  57  82 105 131 171 224 280 330
#     4  12  23  35  57  78 107 140 178 221 274 320
#     4  11  23  38  53  74 106 144 185 225 263 305
#
# _framework density 16.894662
#
# number of rings (size 3 to 8) (size 9 to 14) (size 15 to 20)
#    0.000    1.875    2.500    3.000    0.000    5.750 
#    0.000    0.625    0.000    0.000    0.000    0.000 
#    0.000    7.500    0.000    0.000    0.000    0.625 
#
# Total GULP energy -178407.379635 kJ/mol
# GULP energy per Si atom -5575.230614 kJ/mol
# Density = 1.685621 g / cm^3
# Si number density = 16.894662 Si / 1000 Ang^3
#
#
#
# Elastic Constant Matrix: (Units=GPa)
#
#
# Indices 1 2 3 4 5 6 
#
# 1 96.3851 24.8257 21.9429 0.0000 -3.8003 0.0000
# 2 24.8257 59.5037 27.1405 0.0000 5.8255 0.0000
# 3 21.9429 27.1405 68.9902 0.0000 3.5779 0.0000
# 4 0.0000 0.0000 0.0000 79.9014 0.0000 -33.7495
# 5 -3.8003 5.8255 3.5779 0.0000 26.1332 0.0000
# 6 0.0000 0.0000 0.0000 -33.7495 0.0000 15.0661
#
#
#
# Elastic Compliance Matrix: (Units=1/GPa)
#
#
# Indices 1 2 3 4 5 6 
#
# 1 0.012131 -0.004299 -0.002325 0.000000 0.003041 0.000000
# 2 -0.004299 0.022324 -0.007176 0.000000 -0.004619 0.000000
# 3 -0.002325 -0.007176 0.018120 0.000000 -0.001219 0.000000
# 4 0.000000 0.000000 0.000000 0.232582 0.000000 0.521004
# 5 0.003041 -0.004619 -0.001219 0.000000 0.039904 0.000000
# 6 0.000000 0.000000 0.000000 0.521004 0.000000 1.233469
#
#
# Mechanical properties :
#
#
# Convention : Reuss Voigt Hill
#
# Bulk Modulus (GPa) = 40.03591 41.41082 40.72336
# Shear Modulus (GPa) = 3.13587 34.28480 18.71033
#
# Velocity S-wave (km/s) = 1.36388 4.50969 3.33148
# Velocity P-wave (km/s) = 5.12143 7.18894 6.24139
#
# Compressibility (1/GPa) = 0.02497758
#
# Stress axis : x y z
#
# Youngs Moduli (GPa) = 82.43044 44.79448 55.18635
#
# Poissons Ratio (x) = 0.19255 0.12832
# Poissons Ratio (y) = 0.35433 0.39599
# Poissons Ratio (z) = 0.19167 0.32142
#
# Static dielectric constant tensor:
#      x y z
#    x 1.617640 0.000000 -0.007750 
#    y 0.000000 1.576120 0.000000 
#    z -0.007750 0.000000 1.600310 
# 
# From -- ./inp_files/79717.got.cif
#   From: 2010.05.17/outbox.cif.g08.bks.cpg/sg10_40_cif.got.tgz:79717.got - 2010.06.03 11:33:40.
