data_PCOD9145664
_publ_section_title
;
Structure prediction by ZEFSAII (Michael W. Deem and Ramdas Pophale) SiO2 
 PCOD9145664
Probable space group: P 2/M
;
_chemical_formula_sum "Si O2"
_cell_formula_units_Z 32
_cell_length_a 29.698318
_cell_length_b 7.485154
_cell_length_c 19.590158
_cell_angle_alpha 90.000000
_cell_angle_beta 19.332218
_cell_angle_gamma 90.000000
_cell_volume 1441.642674
_symmetry_space_group_name_H-M "P 2/M"
_symmetry_group_IT_number 10
_symmetry_cell_setting 'monoclinic'
loop_
_space_group_symop_operation_xyz
x,y,z
-x,y,-z
-x,-y,-z
x,-y,z
loop_
_atom_site_type_symbol
_atom_site_label
_atom_site_fract_x
_atom_site_fract_y
_atom_site_fract_z
Si Si1 0.078934 0.208481 0.236124
Si Si2 0.944446 0.218919 0.289351
Si Si3 0.357439 0.782145 0.495601
Si Si4 0.171883 0.298212 0.318473
Si Si5 0.915586 0.782069 0.053089
Si Si6 0.667495 0.210639 0.047977
Si Si7 0.323927 0.216780 0.393120
Si Si8 0.583057 0.784387 0.947912
O O1 0.969280 0.215855 0.454552
O O2 0.013588 0.283247 0.260135
O O3 0.220939 0.287127 0.059274
O O4 0.103640 0.000000 0.186783
O O5 0.788468 0.276474 0.499996
O O6 0.942417 0.000000 0.294997
O O7 0.021149 0.271669 0.109889
O O8 0.242568 0.727839 0.713701
O O9 0.294670 0.731005 0.511973
O O10 0.362307 0.000000 0.489506
O O11 0.513589 0.717801 0.274685
O O12 0.142593 0.500000 0.341507
O O13 0.260512 0.221529 0.129410
O O14 0.271059 0.289139 0.242298
O O15 0.920934 0.000000 0.046130
O O16 0.000000 0.725421 0.000000
O O17 0.654221 0.000000 0.080704
O O18 0.477202 0.269668 0.157896
O O19 0.323452 0.000000 0.390749
O O20 0.598419 0.000000 0.923278
O O21 0.500000 0.730563 0.000000
#
# Coordination Sequence:
#
# PCOD9145664 Si02
#       8
#     4   4   4   4   4   4   4   4
#     4  10  21  36  53  73 101 138 179 221 262 313
#     4   9  16  27  45  74 106 135 170 208 253 307
#     4   9  15  25  44  71 100 131 168 207 252 304
#     4  12  24  36  53  77 105 135 174 226 272 312
#     4   9  14  22  41  72 108 137 161 201 256 311
#     4  10  20  36  55  73 100 139 180 219 260 313
#     4   9  14  23  43  68  98 132 165 202 242 297
#     4  10  19  32  52  76 105 143 180 211 251 311
#
# _framework density 22.196899999999999
#
# number of rings (size 3 to 8) (size 9 to 14) (size 15 to 20)
#    0.000    2.250    2.500    2.250    0.000    4.250 
#    0.000    0.625    0.000    3.750    0.000    0.875 
#    0.000    4.000    0.000    0.000    0.000    0.000 
#
# Total GULP energy -178571.164261 kJ/mol
# GULP energy per Si atom -5580.348883 kJ/mol
# Density = 2.214638 g / cm^3
# Si number density = 22.196900 Si / 1000 Ang^3
#
#
#
# Elastic Constant Matrix: (Units=GPa)
#
#
# Indices 1 2 3 4 5 6 
#
# 1 82.3231 -0.9139 67.1866 0.0000 -25.0502 0.0000
# 2 -0.9139 57.8041 -1.2858 0.0000 -5.0542 0.0000
# 3 67.1866 -1.2858 137.2809 0.0000 -24.4972 0.0000
# 4 0.0000 0.0000 0.0000 -50.6040 0.0000 12.7572
# 5 -25.0502 -5.0542 -24.4972 0.0000 38.4846 0.0000
# 6 0.0000 0.0000 0.0000 12.7572 0.0000 -28.2164
#
#
#
# Elastic Compliance Matrix: (Units=1/GPa)
#
#
# Indices 1 2 3 4 5 6 
#
# 1 0.022549 0.000913 -0.009461 0.000000 0.008775 0.000000
# 2 0.000913 0.017589 0.000266 0.000000 0.003074 0.000000
# 3 -0.009461 0.000266 0.012212 0.000000 0.001650 0.000000
# 4 0.000000 0.000000 0.000000 -0.022303 0.000000 -0.010084
# 5 0.008775 0.003074 0.001650 0.000000 0.033150 0.000000
# 6 0.000000 0.000000 0.000000 -0.010084 0.000000 -0.039999
#
#
# Mechanical properties :
#
#
# Convention : Reuss Voigt Hill
#
# Bulk Modulus (GPa) = 27.94361 45.26466 36.60414
# Shear Modulus (GPa) = 96.73105 6.09424 51.41265
#
# Velocity S-wave (km/s) = 6.60857 1.65876 4.81792
# Velocity P-wave (km/s) = 8.41708 4.90971 6.89030
#
# Compressibility (1/GPa) = 0.03578635
#
# Stress axis : x y z
#
# Youngs Moduli (GPa) = 44.34717 56.85387 81.88846
#
# Poissons Ratio (x) = -0.05193 0.77478
# Poissons Ratio (y) = -0.04050 -0.02181
# Poissons Ratio (z) = 0.41959 -0.01514
#
# Static dielectric constant tensor:
#      x y z
#    x 1.833310 0.000000 0.001360 
#    y 0.000000 1.859830 0.000000 
#    z 0.001360 0.000000 1.823380 
# 
# From -- ./inp_files/87192.got.cif
#   From: 2010.05.17/outbox.cif.g08.bks.cpg/sg10_44_cif.got.tgz:87192.got - 2010.06.03 11:33:40.
