data_PCOD9145747
_publ_section_title
;
Structure prediction by ZEFSAII (Michael W. Deem and Ramdas Pophale) SiO2 
 PCOD9145747
Probable space group: P 2/M
;
_chemical_formula_sum "Si O2"
_cell_formula_units_Z 28
_cell_length_a 15.073681
_cell_length_b 8.893620
_cell_length_c 13.725958
_cell_angle_alpha 90.000000
_cell_angle_beta 52.589272
_cell_angle_gamma 90.000000
_cell_volume 1461.590125
_symmetry_space_group_name_H-M "P 2/M"
_symmetry_group_IT_number 10
_symmetry_cell_setting 'monoclinic'
loop_
_space_group_symop_operation_xyz
x,y,z
-x,y,-z
-x,-y,-z
x,-y,z
loop_
_atom_site_type_symbol
_atom_site_label
_atom_site_fract_x
_atom_site_fract_y
_atom_site_fract_z
Si Si1 0.651387 0.179912 0.165003
Si Si2 0.625872 0.827521 0.956475
Si Si3 0.877215 0.818101 0.119869
Si Si4 0.289252 0.670468 0.282487
Si Si5 0.801337 0.680370 0.374515
Si Si6 0.094418 0.824771 0.511093
Si Si7 0.566972 0.673438 0.624381
O O1 0.774901 0.225386 0.117043
O O2 0.551333 0.244160 0.298065
O O3 0.644261 0.000000 0.175729
O O4 0.632990 0.219458 0.063996
O O5 0.684338 0.711193 0.845360
O O6 0.670435 0.000000 0.919102
O O7 0.500000 0.833236 0.000000
O O8 0.843850 0.749645 0.245990
O O9 0.878643 0.000000 0.126444
O O10 0.000000 0.771347 0.000000
O O11 0.244026 0.500000 0.322495
O O12 0.207052 0.797644 0.376120
O O13 0.391807 0.677555 0.290158
O O14 0.799411 0.500000 0.372001
O O15 0.884873 0.733924 0.404078
O O16 0.674600 0.729632 0.490583
O O17 0.000000 0.769768 0.500000
O O18 0.074949 0.000000 0.546023
O O19 0.549526 0.500000 0.608499
#
# Coordination Sequence:
#
# PCOD9145747 Si02
#       7
#     4   4   4   4   4   4   4
#     4  10  21  36  57  84 113 152 200 245 292 347
#     4  10  19  32  52  81 116 152 191 238 287 343
#     4  10  23  43  62  82 113 153 199 248 291 340
#     4  10  20  33  52  81 118 156 189 232 289 347
#     4  10  22  40  62  88 118 152 189 237 297 350
#     4  10  21  37  59  86 115 151 194 237 284 340
#     4   9  19  35  55  83 117 148 182 232 294 355
#
# _framework density 19.157216999999999
#
# number of rings (size 3 to 8) (size 9 to 14) (size 15 to 20)
#    0.000    2.143    1.429    2.143    0.000    7.429 
#    0.000    5.714    0.000    0.000    0.000    0.000 
#    0.000    0.000    0.000    0.000    0.000    0.000 
#
# Total GULP energy -156078.357247 kJ/mol
# GULP energy per Si atom -5574.227045 kJ/mol
# Density = 1.911361 g / cm^3
# Si number density = 19.157217 Si / 1000 Ang^3
#
#
#
# Elastic Constant Matrix: (Units=GPa)
#
#
# Indices 1 2 3 4 5 6 
#
# 1 124.0704 27.1872 67.9366 0.0000 -4.0104 0.0000
# 2 27.1872 18.2135 31.7050 0.0000 -0.2442 0.0000
# 3 67.9366 31.7050 131.6969 0.0000 5.4671 0.0000
# 4 0.0000 0.0000 0.0000 66.0757 0.0000 -7.3106
# 5 -4.0104 -0.2442 5.4671 0.0000 19.8289 0.0000
# 6 0.0000 0.0000 0.0000 -7.3106 0.0000 4.9926
#
#
#
# Elastic Compliance Matrix: (Units=1/GPa)
#
#
# Indices 1 2 3 4 5 6 
#
# 1 0.013068 -0.012858 -0.003792 0.000000 0.003530 0.000000
# 2 -0.012858 0.108285 -0.019608 0.000000 0.004139 0.000000
# 3 -0.003792 -0.019608 0.014477 0.000000 -0.005000 0.000000
# 4 0.000000 0.000000 0.000000 0.018060 0.000000 0.026445
# 5 0.003530 0.004139 -0.005000 0.000000 0.052575 0.000000
# 6 0.000000 0.000000 0.000000 0.026445 0.000000 0.239018
#
#
# Mechanical properties :
#
#
# Convention : Reuss Voigt Hill
#
# Bulk Modulus (GPa) = 15.79421 58.62648 37.21035
# Shear Modulus (GPa) = 9.27465 27.98958 18.63212
#
# Velocity S-wave (km/s) = 2.20269 3.82651 3.12202
# Velocity P-wave (km/s) = 3.83817 7.08464 5.69753
#
# Compressibility (1/GPa) = 0.06331434
#
# Stress axis : x y z
#
# Youngs Moduli (GPa) = 76.52195 9.23493 69.07276
#
# Poissons Ratio (x) = 0.11874 0.26195
# Poissons Ratio (y) = 0.98391 1.35436
# Poissons Ratio (z) = 0.29020 0.18108
#
# Static dielectric constant tensor:
#      x y z
#    x 1.705500 0.000000 -0.007920 
#    y 0.000000 1.656720 0.000000 
#    z -0.007920 0.000000 1.669220 
# 
# From -- ./inp_files/49631.got.cif
#   From: 2010.05.17/outbox.cif.g08.bks.cpg/sg10_25_cif.got.tgz:49631.got - 2010.06.03 11:33:40.
