data_PCOD9145872
_publ_section_title
;
Structure prediction by ZEFSAII (Michael W. Deem and Ramdas Pophale) SiO2 
 PCOD9145872
Probable space group: P 2/M
;
_chemical_formula_sum "Si O2"
_cell_formula_units_Z 24
_cell_length_a 9.109489
_cell_length_b 10.661030
_cell_length_c 23.386283
_cell_angle_alpha 90.000000
_cell_angle_beta 36.817628
_cell_angle_gamma 90.000000
_cell_volume 1361.058735
_symmetry_space_group_name_H-M "P 2/M"
_symmetry_group_IT_number 10
_symmetry_cell_setting 'monoclinic'
loop_
_space_group_symop_operation_xyz
x,y,z
-x,y,-z
-x,-y,-z
x,-y,z
loop_
_atom_site_type_symbol
_atom_site_label
_atom_site_fract_x
_atom_site_fract_y
_atom_site_fract_z
Si Si1 0.491138 0.149002 0.122836
Si Si2 0.500000 0.284795 0.000000
Si Si3 0.000000 0.731224 0.000000
Si Si4 0.033032 0.636161 0.863833
Si Si5 0.609461 0.150384 0.288849
Si Si6 0.194220 0.848409 0.323594
Si Si7 0.642290 0.152185 0.512105
O O1 0.294709 0.196129 0.230931
O O2 0.473010 0.000000 0.125588
O O3 0.457506 0.204235 0.070508
O O4 0.759669 0.186319 0.062170
O O5 0.749184 0.358869 0.934297
O O6 0.954973 0.652396 0.071348
O O7 0.137930 0.500000 0.814758
O O8 0.168941 0.756878 0.795050
O O9 0.395994 0.176443 0.309118
O O10 0.501998 0.179988 0.384839
O O11 0.669972 0.000000 0.267013
O O12 0.923207 0.802558 0.423718
O O13 0.179354 0.000000 0.324827
O O14 0.500000 0.195617 0.500000
O O15 0.651419 0.000000 0.506921
#
# Coordination Sequence:
#
# PCOD9145872 Si02
#       7
#     4   2   2   4   4   4   4
#     4  10  19  32  53  85 120 145 179 234 290 332
#     4  10  24  36  52  78 111 158 193 226 277 346
#     4  10  20  36  56  80 107 150 193 230 277 340
#     4  11  23  40  59  81 112 152 192 234 280 338
#     4  10  20  35  58  86 112 143 184 235 285 332
#     4   9  17  31  52  80 114 147 179 223 278 332
#     4   9  18  31  52  82 115 147 182 224 276 338
#
# _framework density 17.633330999999998
#
# number of rings (size 3 to 8) (size 9 to 14) (size 15 to 20)
#    0.000    2.167    1.667    1.500    2.333    5.333 
#    0.000    0.000    0.000    2.500    0.000    0.000 
#    0.000    0.000    0.000    0.000    0.000    0.000 
#
# Total GULP energy -133798.248712 kJ/mol
# GULP energy per Si atom -5574.927030 kJ/mol
# Density = 1.759320 g / cm^3
# Si number density = 17.633331 Si / 1000 Ang^3
#
#
#
# Elastic Constant Matrix: (Units=GPa)
#
#
# Indices 1 2 3 4 5 6 
#
# 1 105.9647 33.2683 56.8389 0.0000 15.3456 0.0000
# 2 33.2683 68.7461 46.9946 0.0000 1.6462 0.0000
# 3 56.8389 46.9946 124.4201 0.0000 10.0479 0.0000
# 4 0.0000 0.0000 0.0000 3.9566 0.0000 -1.3755
# 5 15.3456 1.6462 10.0479 0.0000 30.6845 0.0000
# 6 0.0000 0.0000 0.0000 -1.3755 0.0000 -4.0340
#
#
#
# Elastic Compliance Matrix: (Units=1/GPa)
#
#
# Indices 1 2 3 4 5 6 
#
# 1 0.013695 -0.003387 -0.004559 0.000000 -0.005175 0.000000
# 2 -0.003387 0.020507 -0.006416 0.000000 0.002695 0.000000
# 3 -0.004559 -0.006416 0.012666 0.000000 -0.001523 0.000000
# 4 0.000000 0.000000 0.000000 0.225961 0.000000 -0.077045
# 5 -0.005175 0.002695 -0.001523 0.000000 0.035532 0.000000
# 6 0.000000 0.000000 0.000000 -0.077045 0.000000 -0.221622
#
#
# Mechanical properties :
#
#
# Convention : Reuss Voigt Hill
#
# Bulk Modulus (GPa) = 55.11399 63.70384 59.40891
# Shear Modulus (GPa) = 41.14821 16.92335 29.03578
#
# Velocity S-wave (km/s) = 4.83592 3.10132 4.06229
# Velocity P-wave (km/s) = 7.90601 7.00212 7.46775
#
# Compressibility (1/GPa) = 0.01814421
#
# Stress axis : x y z
#
# Youngs Moduli (GPa) = 73.01704 48.76455 78.94854
#
# Poissons Ratio (x) = 0.16517 0.35995
# Poissons Ratio (y) = 0.24731 0.50652
# Poissons Ratio (z) = 0.33291 0.31287
#
# Static dielectric constant tensor:
#      x y z
#    x 1.595920 0.000000 -0.000620 
#    y 0.000000 1.572030 0.000000 
#    z -0.000620 0.000000 1.613790 
# 
# From -- ./inp_files/82428.got.cif
#   From: 2010.05.17/outbox.cif.g08.bks.cpg/sg10_42_cif.got.tgz:82428.got - 2010.06.03 11:33:40.
