data_PCOD9145655
_publ_section_title
;
Structure prediction by ZEFSAII (Michael W. Deem and Ramdas Pophale) SiO2 
 PCOD9145655
Probable space group: P 2/M
;
_chemical_formula_sum "Si O2"
_cell_formula_units_Z 24
_cell_length_a 12.312671
_cell_length_b 8.362678
_cell_length_c 21.440620
_cell_angle_alpha 90.000000
_cell_angle_beta 38.910035
_cell_angle_gamma 90.000000
_cell_volume 1386.638759
_symmetry_space_group_name_H-M "P 2/M"
_symmetry_group_IT_number 10
_symmetry_cell_setting 'monoclinic'
loop_
_space_group_symop_operation_xyz
x,y,z
-x,y,-z
-x,-y,-z
x,-y,z
loop_
_atom_site_type_symbol
_atom_site_label
_atom_site_fract_x
_atom_site_fract_y
_atom_site_fract_z
Si Si1 0.106233 0.809777 0.631876
Si Si2 0.150024 0.804746 0.886608
Si Si3 0.178197 0.192930 0.732573
Si Si4 0.554419 0.312871 0.581955
Si Si5 0.541462 0.187496 0.724547
Si Si6 0.898356 0.688964 0.607951
O O1 0.066056 0.765320 0.721766
O O2 0.285150 0.725589 0.533351
O O3 0.971325 0.764838 0.638502
O O4 0.132898 0.000000 0.618142
O O5 0.121533 0.754597 0.827258
O O6 0.343304 0.755544 0.821317
O O7 0.150599 0.000000 0.886854
O O8 0.000000 0.750100 0.000000
O O9 0.369933 0.262651 0.637235
O O10 0.191774 0.000000 0.728985
O O11 0.553623 0.500000 0.598192
O O12 0.576653 0.212738 0.635403
O O13 0.695589 0.276791 0.690432
O O14 0.550170 0.000000 0.735996
O O15 0.930932 0.500000 0.596838
O O16 0.000000 0.748420 0.500000
#
# Coordination Sequence:
#
# PCOD9145655 Si02
#       6
#     4   4   4   4   4   4
#     4  11  21  32  48  69  99 136 171 205 242 292
#     4   8  15  31  56  81 101 122 156 208 260 298
#     4   9  19  33  49  73 100 129 166 206 250 296
#     4  11  20  30  46  70 101 136 169 202 244 293
#     4  10  19  32  52  76 101 132 169 207 248 292
#     4  11  22  34  49  71 101 137 174 208 242 289
#
# _framework density 17.308042
#
# number of rings (size 3 to 8) (size 9 to 14) (size 15 to 20)
#    0.000    2.000    1.667    4.500    0.000    4.000 
#    0.000    0.000    0.000   13.500    0.000    7.000 
#    0.000    0.000    0.000    0.000    0.000    0.000 
#
# Total GULP energy -133830.181082 kJ/mol
# GULP energy per Si atom -5576.257545 kJ/mol
# Density = 1.726865 g / cm^3
# Si number density = 17.308042 Si / 1000 Ang^3
#
#
#
# Elastic Constant Matrix: (Units=GPa)
#
#
# Indices 1 2 3 4 5 6 
#
# 1 120.3648 0.5162 50.6361 0.0000 8.8816 0.0000
# 2 0.5162 11.8182 -1.1755 0.0000 -0.3811 0.0000
# 3 50.6361 -1.1755 100.2273 0.0000 -0.7607 0.0000
# 4 0.0000 0.0000 0.0000 -2.7648 0.0000 9.4918
# 5 8.8816 -0.3811 -0.7607 0.0000 6.5149 0.0000
# 6 0.0000 0.0000 0.0000 9.4918 0.0000 -43.8010
#
#
#
# Elastic Compliance Matrix: (Units=1/GPa)
#
#
# Indices 1 2 3 4 5 6 
#
# 1 0.012292 -0.001738 -0.006364 0.000000 -0.017602 0.000000
# 2 -0.001738 0.085128 0.001934 0.000000 0.007575 0.000000
# 3 -0.006364 0.001934 0.013294 0.000000 0.010341 0.000000
# 4 0.000000 0.000000 0.000000 -1.412720 0.000000 -0.306140
# 5 -0.017602 0.007575 0.010341 0.000000 0.179142 0.000000
# 6 0.000000 0.000000 0.000000 -0.306140 0.000000 -0.089172
#
#
# Mechanical properties :
#
#
# Convention : Reuss Voigt Hill
#
# Bulk Modulus (GPa) = 10.16493 36.92933 23.54713
# Shear Modulus (GPa) = -4.28482 4.15206 -0.06638
#
# Velocity S-wave (km/s) = -1.57512 1.55053 -0.19605
# Velocity P-wave (km/s) = 1.60552 4.95866 3.68552
#
# Compressibility (1/GPa) = 0.09837747
#
# Stress axis : x y z
#
# Youngs Moduli (GPa) = 81.35695 11.74707 75.22443
#
# Poissons Ratio (x) = 0.02041 0.47871
# Poissons Ratio (y) = 0.14136 -0.14546
# Poissons Ratio (z) = 0.51774 -0.02272
#
# Static dielectric constant tensor:
#      x y z
#    x 1.612830 0.000000 0.015570 
#    y 0.000000 1.583510 0.000000 
#    z 0.015570 0.000000 1.576360 
# 
# From -- ./inp_files/45128.got.cif
#   From: 2010.05.17/outbox.cif.g08.bks.cpg/sg10_23_cif.got.tgz:45128.got - 2010.06.03 11:33:40.
