data_PCOD9145114
_publ_section_title
;
Structure prediction by ZEFSAII (Michael W. Deem and Ramdas Pophale) SiO2 
 PCOD9145114
Probable space group: P 2/M
;
_chemical_formula_sum "Si O2"
_cell_formula_units_Z 20
_cell_length_a 9.949051
_cell_length_b 9.690404
_cell_length_c 9.263225
_cell_angle_alpha 90.000000
_cell_angle_beta 94.595051
_cell_angle_gamma 90.000000
_cell_volume 890.200014
_symmetry_space_group_name_H-M "P 2/M"
_symmetry_group_IT_number 10
_symmetry_cell_setting 'monoclinic'
loop_
_space_group_symop_operation_xyz
x,y,z
-x,y,-z
-x,-y,-z
x,-y,z
loop_
_atom_site_type_symbol
_atom_site_label
_atom_site_fract_x
_atom_site_fract_y
_atom_site_fract_z
Si Si1 0.701273 0.166205 0.934058
Si Si2 0.084550 0.350911 0.187084
Si Si3 0.769331 0.342498 0.200056
Si Si4 0.851878 0.226792 0.515450
Si Si5 0.582856 0.846004 0.634415
O O1 0.842335 0.222681 0.880908
O O2 0.598552 0.211000 0.797137
O O3 0.697596 0.000000 0.947102
O O4 0.688640 0.243139 0.085017
O O5 0.136369 0.500000 0.138862
O O6 0.113848 0.341702 0.361080
O O7 0.924544 0.345791 0.157314
O O8 0.719207 0.500000 0.198931
O O9 0.788165 0.282186 0.362058
O O10 0.733742 0.143610 0.583511
O O11 0.000000 0.161639 0.500000
O O12 0.500000 0.772252 0.500000
O O13 0.524052 0.000000 0.647051
#
# Coordination Sequence:
#
# PCOD9145114 Si02
#       5
#     4   4   4   4   4
#     4  10  20  32  49  75 105 138 178 222 264 311
#     4   9  17  31  51  74 104 144 182 214 258 317
#     4  10  19  31  50  77 109 142 174 214 267 320
#     4   9  18  32  54  82 106 133 177 226 262 301
#     4   9  19  37  57  75 102 143 183 216 261 323
#
# _framework density 22.466861999999999
#
# number of rings (size 3 to 8) (size 9 to 14) (size 15 to 20)
#    0.000    2.600    0.000    1.800    0.000    6.800 
#    0.000    5.000    0.000   26.400    0.000    0.000 
#    0.000    0.000    0.000    0.000    0.000    0.000 
#
# Total GULP energy -111423.592251 kJ/mol
# GULP energy per Si atom -5571.179613 kJ/mol
# Density = 2.241573 g / cm^3
# Si number density = 22.466862 Si / 1000 Ang^3
#
#
#
# Elastic Constant Matrix: (Units=GPa)
#
#
# Indices 1 2 3 4 5 6 
#
# 1 68.1887 10.8700 17.4648 0.0000 -4.5881 0.0000
# 2 10.8700 97.0229 68.4851 0.0000 7.2574 0.0000
# 3 17.4648 68.4851 238.2478 0.0000 34.4796 0.0000
# 4 0.0000 0.0000 0.0000 7.1517 0.0000 5.3817
# 5 -4.5881 7.2574 34.4796 0.0000 29.6094 0.0000
# 6 0.0000 0.0000 0.0000 5.3817 0.0000 -1.8145
#
#
#
# Elastic Compliance Matrix: (Units=1/GPa)
#
#
# Indices 1 2 3 4 5 6 
#
# 1 0.015500 -0.001022 -0.001475 0.000000 0.004370 0.000000
# 2 -0.001022 0.013046 -0.003836 0.000000 0.001111 0.000000
# 3 -0.001475 -0.003836 0.006380 0.000000 -0.006718 0.000000
# 4 0.000000 0.000000 0.000000 0.043265 0.000000 0.128321
# 5 0.004370 0.001111 -0.006718 0.000000 0.042001 0.000000
# 6 0.000000 0.000000 0.000000 0.128321 0.000000 -0.170526
#
#
# Mechanical properties :
#
#
# Convention : Reuss Voigt Hill
#
# Bulk Modulus (GPa) = 44.92355 66.34435 55.63395
# Shear Modulus (GPa) = -165.30477 27.43196 -68.93641
#
# Velocity S-wave (km/s) = -8.58702 3.49807 -5.54529
# Velocity P-wave (km/s) = 8.84743 6.77564 4.02291
#
# Compressibility (1/GPa) = 0.02226004
#
# Stress axis : x y z
#
# Youngs Moduli (GPa) = 64.51655 76.65222 156.73245
#
# Poissons Ratio (x) = 0.07837 0.23113
# Poissons Ratio (y) = 0.06597 0.60121
# Poissons Ratio (z) = 0.09514 0.29403
#
# Static dielectric constant tensor:
#      x y z
#    x 1.860650 0.000000 -0.003800 
#    y 0.000000 1.779490 0.000000 
#    z -0.003800 0.000000 1.914040 
# 
# From -- ./inp_files/23568.got.cif
#   From: 2010.05.17/outbox.cif.g08.bks.cpg/sg10_12_cif.got.tgz:23568.got - 2010.06.03 11:33:40.
