data_PCOD9145394
_publ_section_title
;
Structure prediction by ZEFSAII (Michael W. Deem and Ramdas Pophale) SiO2 
 PCOD9145394
Probable space group: P 2/M
;
_chemical_formula_sum "Si O2"
_cell_formula_units_Z 30
_cell_length_a 17.548070
_cell_length_b 15.650674
_cell_length_c 11.328930
_cell_angle_alpha 90.000000
_cell_angle_beta 144.397396
_cell_angle_gamma 90.000000
_cell_volume 1811.313407
_symmetry_space_group_name_H-M "P 2/M"
_symmetry_group_IT_number 10
_symmetry_cell_setting 'monoclinic'
loop_
_space_group_symop_operation_xyz
x,y,z
-x,y,-z
-x,-y,-z
x,-y,z
loop_
_atom_site_type_symbol
_atom_site_label
_atom_site_fract_x
_atom_site_fract_y
_atom_site_fract_z
Si Si1 0.203162 0.751342 0.942039
Si Si2 0.849485 0.241780 0.847138
Si Si3 0.616589 0.403951 0.809164
Si Si4 0.614309 0.100379 0.915167
Si Si5 0.680207 0.596469 0.608131
Si Si6 0.691575 0.102379 0.506386
Si Si7 0.000000 0.199906 0.500000
Si Si8 0.232898 0.898782 0.664254
O O1 0.081684 0.749420 0.700439
O O2 0.160219 0.751052 0.023731
O O3 0.297072 0.671754 0.031489
O O4 0.286364 0.837685 0.026577
O O5 0.781707 0.328187 0.711708
O O6 0.766994 0.161104 0.694734
O O7 0.000000 0.234468 0.000000
O O8 0.646057 0.500000 0.888956
O O9 0.461769 0.388124 0.628904
O O10 0.648532 0.403199 0.708823
O O11 0.464883 0.116852 0.690850
O O12 0.641518 0.000000 0.927197
O O13 0.645318 0.115894 0.093097
O O14 0.724606 0.500000 0.634098
O O15 0.740163 0.127079 0.436037
O O16 0.713143 0.000000 0.550820
O O17 0.106842 0.144486 0.563651
O O18 0.211213 0.000000 0.634720
#
# Coordination Sequence:
#
# PCOD9145394 Si02
#       8
#     4   4   4   4   4   4   2   4
#     4  10  20  33  49  70  97 126 161 201 236 283
#     4  11  22  33  46  69 101 132 159 191 238 289
#     4   8  14  28  50  73  94 118 152 195 239 279
#     4   9  18  32  52  74  93 121 162 205 242 275
#     4   8  15  29  50  72  93 120 155 194 235 279
#     4  10  20  33  49  71  99 128 158 196 243 288
#     4  10  19  32  49  68  94 130 168 196 230 278
#     4   9  17  31  50  70  94 126 166 204 233 271
#
# _framework density 16.562567000000001
#
# number of rings (size 3 to 8) (size 9 to 14) (size 15 to 20)
#    0.000    2.667    0.000    3.000    0.000    4.800 
#    0.000    1.667    0.000    0.000    0.000    3.733 
#    0.000   24.533    0.000    0.000    0.000    0.000 
#
# Total GULP energy -167130.917990 kJ/mol
# GULP energy per Si atom -5571.030600 kJ/mol
# Density = 1.652487 g / cm^3
# Si number density = 16.562567 Si / 1000 Ang^3
#
#
#
# Elastic Constant Matrix: (Units=GPa)
#
#
# Indices 1 2 3 4 5 6 
#
# 1 41.3945 29.4219 36.9281 0.0000 -1.3213 0.0000
# 2 29.4219 73.9648 68.2145 0.0000 5.8785 0.0000
# 3 36.9281 68.2145 123.4390 0.0000 6.9574 0.0000
# 4 0.0000 0.0000 0.0000 15.9913 0.0000 3.1748
# 5 -1.3213 5.8785 6.9574 0.0000 18.6996 0.0000
# 6 0.0000 0.0000 0.0000 3.1748 0.0000 12.6322
#
#
#
# Elastic Compliance Matrix: (Units=1/GPa)
#
#
# Indices 1 2 3 4 5 6 
#
# 1 0.036675 -0.009558 -0.006134 0.000000 0.007878 0.000000
# 2 -0.009558 0.030236 -0.013560 0.000000 -0.005135 0.000000
# 3 -0.006134 -0.013560 0.017583 0.000000 -0.002712 0.000000
# 4 0.000000 0.000000 0.000000 0.065818 0.000000 -0.016542
# 5 0.007878 -0.005135 -0.002712 0.000000 0.056657 0.000000
# 6 0.000000 0.000000 0.000000 -0.016542 0.000000 0.083320
#
#
# Mechanical properties :
#
#
# Convention : Reuss Voigt Hill
#
# Bulk Modulus (GPa) = 38.47671 56.43635 47.45653
# Shear Modulus (GPa) = 13.98776 16.41352 15.20064
#
# Velocity S-wave (km/s) = 2.90925 3.15143 3.03276
# Velocity P-wave (km/s) = 5.87933 6.88409 6.40145
#
# Compressibility (1/GPa) = 0.02598975
#
# Stress axis : x y z
#
# Youngs Moduli (GPa) = 27.26683 33.07339 56.87433
#
# Poissons Ratio (x) = 0.31610 0.34886
# Poissons Ratio (y) = 0.26060 0.77122
# Poissons Ratio (z) = 0.16725 0.44848
#
# Static dielectric constant tensor:
#      x y z
#    x 1.547630 0.000000 -0.007830 
#    y 0.000000 1.555310 0.000000 
#    z -0.007830 0.000000 1.559380 
# 
# From -- ./inp_files/53943.got.cif
#   From: 2010.05.17/outbox.cif.g08.bks.cpg/sg10_27_cif.got.tgz:53943.got - 2010.06.03 11:33:40.
