data_PCOD9145381
_publ_section_title
;
Structure prediction by ZEFSAII (Michael W. Deem and Ramdas Pophale) SiO2 
 PCOD9145381
Probable space group: P 2/M
;
_chemical_formula_sum "Si O2"
_cell_formula_units_Z 30
_cell_length_a 15.832526
_cell_length_b 7.707877
_cell_length_c 10.405180
_cell_angle_alpha 90.000000
_cell_angle_beta 116.334583
_cell_angle_gamma 90.000000
_cell_volume 1138.016739
_symmetry_space_group_name_H-M "P 2/M"
_symmetry_group_IT_number 10
_symmetry_cell_setting 'monoclinic'
loop_
_space_group_symop_operation_xyz
x,y,z
-x,y,-z
-x,-y,-z
x,-y,z
loop_
_atom_site_type_symbol
_atom_site_label
_atom_site_fract_x
_atom_site_fract_y
_atom_site_fract_z
Si Si1 0.060677 0.797004 0.407032
Si Si2 0.392526 0.204866 0.152944
Si Si3 0.210450 0.202516 0.685600
Si Si4 0.425798 0.204459 0.568937
Si Si5 0.211557 0.196742 0.196940
Si Si6 0.892881 0.303813 0.122136
Si Si7 0.403736 0.304061 0.892550
Si Si8 0.266231 0.500000 0.403631
O O1 0.157772 0.715286 0.527371
O O2 0.000000 0.784931 0.500000
O O3 0.997461 0.726737 0.248989
O O4 0.073233 0.000000 0.385968
O O5 0.500175 0.242502 0.265157
O O6 0.316470 0.238439 0.211804
O O7 0.384161 0.000000 0.120643
O O8 0.360942 0.309376 0.008039
O O9 0.169694 0.272626 0.791853
O O10 0.322130 0.221181 0.754796
O O11 0.187638 0.000000 0.672139
O O12 0.500000 0.213800 0.500000
O O13 0.344415 0.345638 0.499127
O O14 0.395877 0.000000 0.556144
O O15 0.198765 0.346213 0.291434
O O16 0.211661 0.000000 0.247879
O O17 0.142981 0.199903 0.025969
O O18 0.882675 0.500000 0.074253
O O19 0.421321 0.500000 0.862456
O O20 0.500000 0.210530 0.000000
#
# Coordination Sequence:
#
# PCOD9145381 Si02
#       8
#     4   4   4   4   4   4   4   2
#     4   8  16  29  44  63  89 119 157 200 242 286
#     4  10  21  34  49  66  88 125 164 202 250 289
#     4  10  19  32  49  65  86 123 164 206 251 288
#     4  10  20  32  46  69  94 119 162 204 240 294
#     4  11  21  31  44  68  99 128 164 203 235 288
#     4  11  19  28  43  69  95 128 164 197 241 293
#     4  11  24  36  49  70  95 124 167 216 255 290
#     4  12  21  30  48  70  89 132 157 195 246 300
#
# _framework density 26.361649
#
# number of rings (size 3 to 8) (size 9 to 14) (size 15 to 20)
#    0.000    1.733    3.333    3.400    1.867    4.000 
#    0.000    0.000    0.000    0.000    0.000    0.000 
#    0.000    0.000    0.000    2.400    0.000   15.200 
#
# Total GULP energy -167313.859195 kJ/mol
# GULP energy per Si atom -5577.128640 kJ/mol
# Density = 2.630165 g / cm^3
# Si number density = 26.361649 Si / 1000 Ang^3
#
#
#
# Elastic Constant Matrix: (Units=GPa)
#
#
# Indices 1 2 3 4 5 6 
#
# 1 77.2589 5.7073 45.8233 0.0000 21.2586 0.0000
# 2 5.7073 99.3729 43.4594 0.0000 -0.3230 0.0000
# 3 45.8233 43.4594 216.0442 0.0000 31.9386 0.0000
# 4 0.0000 0.0000 0.0000 42.0326 0.0000 7.4583
# 5 21.2586 -0.3230 31.9386 0.0000 52.9887 0.0000
# 6 0.0000 0.0000 0.0000 7.4583 0.0000 -26.3217
#
#
#
# Elastic Compliance Matrix: (Units=1/GPa)
#
#
# Indices 1 2 3 4 5 6 
#
# 1 0.015831 0.000262 -0.002714 0.000000 -0.004714 0.000000
# 2 0.000262 0.011154 -0.002518 0.000000 0.001481 0.000000
# 3 -0.002714 -0.002518 0.006095 0.000000 -0.002601 0.000000
# 4 0.000000 0.000000 0.000000 0.022652 0.000000 0.006418
# 5 -0.004714 0.001481 -0.002601 0.000000 0.022340 0.000000
# 6 0.000000 0.000000 0.000000 0.006418 0.000000 -0.036173
#
#
# Mechanical properties :
#
#
# Convention : Reuss Voigt Hill
#
# Bulk Modulus (GPa) = 43.21363 64.73955 53.97659
# Shear Modulus (GPa) = 83.96007 33.58565 58.77286
#
# Velocity S-wave (km/s) = 5.64964 3.57323 4.72686
# Velocity P-wave (km/s) = 7.68024 6.45256 7.09301
#
# Compressibility (1/GPa) = 0.02314085
#
# Stress axis : x y z
#
# Youngs Moduli (GPa) = 63.16852 89.65236 164.06167
#
# Poissons Ratio (x) = -0.02351 0.44519
# Poissons Ratio (y) = -0.01656 0.41315
# Poissons Ratio (z) = 0.17141 0.22577
#
# Static dielectric constant tensor:
#      x y z
#    x 2.280810 0.000000 -0.062030 
#    y 0.000000 1.923690 0.000000 
#    z -0.062030 0.000000 2.144340 
# 
# From -- ./inp_files/71031.got.cif
#   From: 2010.05.17/outbox.cif.g08.bks.cpg/sg10_36_cif.got.tgz:71031.got - 2010.06.03 11:33:40.
