data_PCOD9145037
_publ_section_title
;
Structure prediction by ZEFSAII (Michael W. Deem and Ramdas Pophale) SiO2 
 PCOD9145037
Probable space group: P 2/M
;
_chemical_formula_sum "Si O2"
_cell_formula_units_Z 32
_cell_length_a 15.454305
_cell_length_b 9.732373
_cell_length_c 24.574759
_cell_angle_alpha 90.000000
_cell_angle_beta 24.633005
_cell_angle_gamma 90.000000
_cell_volume 1540.599935
_symmetry_space_group_name_H-M "P 2/M"
_symmetry_group_IT_number 10
_symmetry_cell_setting 'monoclinic'
loop_
_space_group_symop_operation_xyz
x,y,z
-x,y,-z
-x,-y,-z
x,-y,z
loop_
_atom_site_type_symbol
_atom_site_label
_atom_site_fract_x
_atom_site_fract_y
_atom_site_fract_z
Si Si1 0.321826 0.842120 0.693448
Si Si2 0.149122 0.152538 0.994539
Si Si3 0.975189 0.658801 0.347651
Si Si4 0.293675 0.659959 0.002705
Si Si5 0.182157 0.341652 0.437980
Si Si6 0.167909 0.660061 0.685242
Si Si7 0.625275 0.845025 0.872278
Si Si8 0.462019 0.839890 0.726869
O O1 0.297606 0.752320 0.653089
O O2 0.455024 0.788761 0.668587
O O3 0.381195 0.000000 0.646710
O O4 0.091605 0.846954 0.852138
O O5 0.242085 0.280445 0.973451
O O6 0.235244 0.164956 0.884449
O O7 0.225525 0.000000 0.969778
O O8 0.045129 0.500000 0.297469
O O9 0.893738 0.662440 0.455889
O O10 0.820332 0.690421 0.385823
O O11 0.161191 0.766673 0.239274
O O12 0.346216 0.500000 0.973523
O O13 0.481033 0.750847 0.917435
O O14 0.077773 0.678881 0.159603
O O15 0.237568 0.500000 0.393192
O O16 0.379668 0.242994 0.326045
O O17 0.000000 0.301239 0.500000
O O18 0.219061 0.500000 0.665301
O O19 0.657210 0.000000 0.832991
O O20 0.500000 0.854415 0.000000
O O21 0.522627 0.000000 0.689978
#
# Coordination Sequence:
#
# PCOD9145037 Si02
#       8
#     4   4   4   4   4   4   4   4
#     4   9  18  34  58  87 120 152 183 226 284 344
#     4   9  18  33  55  84 118 151 187 228 277 342
#     4  10  21  39  59  78 109 151 191 237 289 338
#     4  10  19  31  49  77 114 151 185 225 277 337
#     4  10  24  44  62  82 109 147 197 246 288 333
#     4   9  18  33  54  81 111 145 183 224 278 339
#     4  11  22  33  51  82 116 147 185 230 282 343
#     4  10  21  38  60  85 114 152 193 236 288 339
#
# _framework density 20.771129999999999
#
# number of rings (size 3 to 8) (size 9 to 14) (size 15 to 20)
#    0.000    2.250    1.250    1.125    1.750    4.750 
#    0.000    0.625    0.000    7.500    0.000    0.000 
#    0.000    0.000    0.000    0.000    0.000    0.000 
#
# Total GULP energy -178501.728028 kJ/mol
# GULP energy per Si atom -5578.179001 kJ/mol
# Density = 2.072385 g / cm^3
# Si number density = 20.771130 Si / 1000 Ang^3
#
#
#
# Elastic Constant Matrix: (Units=GPa)
#
#
# Indices 1 2 3 4 5 6 
#
# 1 127.9663 45.3337 18.1825 0.0000 1.6168 0.0000
# 2 45.3337 75.0253 28.3229 0.0000 -3.5045 0.0000
# 3 18.1825 28.3229 55.5628 0.0000 6.4914 0.0000
# 4 0.0000 0.0000 0.0000 -4.3832 0.0000 6.1358
# 5 1.6168 -3.5045 6.4914 0.0000 28.0997 0.0000
# 6 0.0000 0.0000 0.0000 6.1358 0.0000 28.9228
#
#
#
# Elastic Compliance Matrix: (Units=1/GPa)
#
#
# Indices 1 2 3 4 5 6 
#
# 1 0.009993 -0.006098 -0.000006 0.000000 -0.001334 0.000000
# 2 -0.006098 0.020702 -0.009147 0.000000 0.005046 0.000000
# 3 -0.000006 -0.009147 0.023428 0.000000 -0.006553 0.000000
# 4 0.000000 0.000000 0.000000 -0.175905 0.000000 0.037317
# 5 -0.001334 0.005046 -0.006553 0.000000 0.037807 0.000000
# 6 0.000000 0.000000 0.000000 0.037317 0.000000 0.026658
#
#
# Mechanical properties :
#
#
# Convention : Reuss Voigt Hill
#
# Bulk Modulus (GPa) = 42.33478 49.13696 45.73587
# Shear Modulus (GPa) = -263.96100 21.64222 -121.15939
#
# Velocity S-wave (km/s) = -11.28524 3.23141 -7.64574
# Velocity P-wave (km/s) = 12.22223 6.13436 7.47505
#
# Compressibility (1/GPa) = 0.02362124
#
# Stress axis : x y z
#
# Youngs Moduli (GPa) = 100.07440 48.30358 42.68470
#
# Poissons Ratio (x) = 0.29456 0.00024
# Poissons Ratio (y) = 0.61027 0.39043
# Poissons Ratio (z) = 0.00056 0.44183
#
# Static dielectric constant tensor:
#      x y z
#    x 2.424580 0.000000 -0.011850 
#    y 0.000000 1.718800 0.000000 
#    z -0.011850 0.000000 1.768860 
# 
# From -- ./inp_files/89576.got.cif
#   From: 2010.05.17/outbox.cif.g08.bks.cpg/sg10_45_cif.got.tgz:89576.got - 2010.06.03 11:33:40.
