data_PCOD9145227
_publ_section_title
;
Structure prediction by ZEFSAII (Michael W. Deem and Ramdas Pophale) SiO2 
 PCOD9145227
Probable space group: P 2/M
;
_chemical_formula_sum "Si O2"
_cell_formula_units_Z 28
_cell_length_a 9.987137
_cell_length_b 16.538174
_cell_length_c 14.990505
_cell_angle_alpha 90.000000
_cell_angle_beta 137.508493
_cell_angle_gamma 90.000000
_cell_volume 1672.468357
_symmetry_space_group_name_H-M "P 2/M"
_symmetry_group_IT_number 10
_symmetry_cell_setting 'monoclinic'
loop_
_space_group_symop_operation_xyz
x,y,z
-x,y,-z
-x,-y,-z
x,-y,z
loop_
_atom_site_type_symbol
_atom_site_label
_atom_site_fract_x
_atom_site_fract_y
_atom_site_fract_z
Si Si1 0.539757 0.825966 0.282646
Si Si2 0.985562 0.784634 0.724673
Si Si3 0.535101 0.595183 0.620515
Si Si4 0.157486 0.724672 0.155526
Si Si5 0.660402 0.905416 0.156935
Si Si6 0.837230 0.683375 0.490758
Si Si7 0.325548 0.915157 0.484138
O O1 0.326059 0.786970 0.201300
O O2 0.565742 0.864636 0.198513
O O3 0.710355 0.758233 0.385761
O O4 0.585437 0.895443 0.376454
O O5 0.170586 0.842527 0.792819
O O6 0.958983 0.756605 0.813719
O O7 0.953558 0.712914 0.636970
O O8 0.801668 0.841740 0.612310
O O9 0.500000 0.619254 0.500000
O O10 0.575506 0.500000 0.644706
O O11 0.712957 0.647628 0.749190
O O12 0.329792 0.618215 0.567767
O O13 0.000000 0.708161 0.000000
O O14 0.721758 0.000000 0.204068
O O15 0.500000 0.908480 0.000000
O O16 0.000000 0.656280 0.500000
O O17 0.500000 0.921080 0.500000
O O18 0.212546 0.000000 0.430865
#
# Coordination Sequence:
#
# PCOD9145227 Si02
#       7
#     4   4   4   4   4   4   4
#     4  10  20  35  53  79 107 141 192 232 273 328
#     4  11  20  36  54  81 109 142 189 235 271 333
#     4  10  21  38  62  89 116 143 177 226 279 332
#     4  11  22  37  60  84 111 149 187 226 275 334
#     4  11  23  37  51  72 110 154 191 233 283 327
#     4  10  19  34  59  85 108 146 178 222 276 329
#     4  10  19  31  52  76 104 139 181 237 287 319
#
# _framework density 16.741721999999999
#
# number of rings (size 3 to 8) (size 9 to 14) (size 15 to 20)
#    0.000    1.571    4.286    1.714    0.000    0.571 
#    0.000    2.143    0.000    3.429    0.000    1.000 
#    0.000    0.000    0.000    0.000    0.000    0.000 
#
# Total GULP energy -156014.552223 kJ/mol
# GULP energy per Si atom -5571.948294 kJ/mol
# Density = 1.670362 g / cm^3
# Si number density = 16.741722 Si / 1000 Ang^3
#
#
#
# Elastic Constant Matrix: (Units=GPa)
#
#
# Indices 1 2 3 4 5 6 
#
# 1 131.2030 32.2306 47.3582 0.0000 -18.6986 0.0000
# 2 32.2306 54.7219 31.8303 0.0000 -11.9444 0.0000
# 3 47.3582 31.8303 91.8776 0.0000 -24.6273 0.0000
# 4 0.0000 0.0000 0.0000 20.7309 0.0000 -1.6076
# 5 -18.6986 -11.9444 -24.6273 0.0000 27.3540 0.0000
# 6 0.0000 0.0000 0.0000 -1.6076 0.0000 21.4200
#
#
#
# Elastic Compliance Matrix: (Units=1/GPa)
#
#
# Indices 1 2 3 4 5 6 
#
# 1 0.010005 -0.003441 -0.003341 0.000000 0.002329 0.000000
# 2 -0.003441 0.024368 -0.005861 0.000000 0.003011 0.000000
# 3 -0.003341 -0.005861 0.017581 0.000000 0.010986 0.000000
# 4 0.000000 0.000000 0.000000 0.048519 0.000000 0.003642
# 5 0.002329 0.003011 0.010986 0.000000 0.049355 0.000000
# 6 0.000000 0.000000 0.000000 0.003642 0.000000 0.046959
#
#
# Mechanical properties :
#
#
# Convention : Reuss Voigt Hill
#
# Bulk Modulus (GPa) = 37.49832 55.62672 46.56252
# Shear Modulus (GPa) = 21.64858 24.99321 23.32090
#
# Velocity S-wave (km/s) = 3.59986 3.86796 3.73631
# Velocity P-wave (km/s) = 6.30281 7.29703 6.81807
#
# Compressibility (1/GPa) = 0.02666786
#
# Stress axis : x y z
#
# Youngs Moduli (GPa) = 99.95177 41.03816 56.87921
#
# Poissons Ratio (x) = 0.14123 0.19001
# Poissons Ratio (y) = 0.34397 0.33337
# Poissons Ratio (z) = 0.33389 0.24052
#
# Static dielectric constant tensor:
#      x y z
#    x 1.567480 0.000000 -0.003080 
#    y 0.000000 1.566540 0.000000 
#    z -0.003080 0.000000 1.547690 
# 
# From -- ./inp_files/30097.got.cif
#   From: 2010.05.17/outbox.cif.g08.bks.cpg/sg10_16_cif.got.tgz:30097.got - 2010.06.03 11:33:40.
