data_PCOD9145903
_publ_section_title
;
Structure prediction by ZEFSAII (Michael W. Deem and Ramdas Pophale) SiO2 
 PCOD9145903
Probable space group: P 2/M
;
_chemical_formula_sum "Si O2"
_cell_formula_units_Z 28
_cell_length_a 5.343287
_cell_length_b 33.253844
_cell_length_c 7.446204
_cell_angle_alpha 90.000000
_cell_angle_beta 104.080704
_cell_angle_gamma 90.000000
_cell_volume 1283.324329
_symmetry_space_group_name_H-M "P 2/M"
_symmetry_group_IT_number 10
_symmetry_cell_setting 'monoclinic'
loop_
_space_group_symop_operation_xyz
x,y,z
-x,y,-z
-x,-y,-z
x,-y,z
loop_
_atom_site_type_symbol
_atom_site_label
_atom_site_fract_x
_atom_site_fract_y
_atom_site_fract_z
Si Si1 0.500000 0.581476 0.000000
Si Si2 0.408598 0.173630 0.780597
Si Si3 0.906140 0.213203 0.781267
Si Si4 0.292926 0.000000 0.626866
Si Si5 0.726599 0.455593 0.687383
Si Si6 0.795244 0.296701 0.615991
Si Si7 0.707841 0.912658 0.374533
Si Si8 0.959994 0.620655 0.206803
O O1 0.636551 0.552777 0.877621
O O2 0.343683 0.611888 0.840572
O O3 0.653755 0.186196 0.703539
O O4 0.339811 0.127016 0.748503
O O5 0.153446 0.200493 0.706722
O O6 0.500000 0.181091 0.000000
O O7 0.816049 0.259413 0.754711
O O8 0.000000 0.205529 0.000000
O O9 0.500000 0.000000 0.500000
O O10 0.324501 0.956477 0.724695
O O11 0.000000 0.000000 0.500000
O O12 0.500000 0.454600 0.500000
O O13 0.847903 0.500000 0.698673
O O14 0.912568 0.418347 0.683832
O O15 0.500000 0.301248 0.500000
O O16 0.000000 0.284609 0.500000
O O17 0.911672 0.338857 0.703687
O O18 0.500000 0.911457 0.500000
O O19 0.000000 0.910685 0.500000
O O20 0.000000 0.619335 0.000000
#
# Coordination Sequence:
#
# PCOD9145903 Si02
#       8
#     2   4   4   2   4   4   4   4
#     4  10  23  40  64  92 122 170 208 254 310 381
#     4  10  21  37  58  84 116 152 194 242 302 357
#     4  10  22  42  60  83 117 158 194 239 299 370
#     4   8  16  30  47  74 109 146 192 232 292 348
#     4  10  22  40  64  93 127 163 209 262 312 368
#     4  12  27  42  66  94 124 156 201 259 306 359
#     4  10  19  32  54  80 110 151 192 244 289 352
#     4  10  24  42  63  88 123 164 206 247 308 371
#
# _framework density 21.818337
#
# number of rings (size 3 to 8) (size 9 to 14) (size 15 to 20)
#    0.000    1.857    0.000    2.786    6.000    6.571 
#    3.857    1.786    0.000    0.000    0.000    9.000 
#    0.000    0.000    0.000    0.000    0.000    0.000 
#
# Total GULP energy -156175.884981 kJ/mol
# GULP energy per Si atom -5577.710178 kJ/mol
# Density = 2.176868 g / cm^3
# Si number density = 21.818337 Si / 1000 Ang^3
#
#
#
# Elastic Constant Matrix: (Units=GPa)
#
#
# Indices 1 2 3 4 5 6 
#
# 1 117.5350 45.2917 26.4967 0.0000 26.1548 0.0000
# 2 45.2917 183.1082 19.2332 0.0000 40.5067 0.0000
# 3 26.4967 19.2332 57.6872 0.0000 16.2094 0.0000
# 4 0.0000 0.0000 0.0000 36.2200 0.0000 1.7244
# 5 26.1548 40.5067 16.2094 0.0000 31.1498 0.0000
# 6 0.0000 0.0000 0.0000 1.7244 0.0000 34.3263
#
#
#
# Elastic Compliance Matrix: (Units=1/GPa)
#
#
# Indices 1 2 3 4 5 6 
#
# 1 0.010972 -0.000990 -0.002908 0.000000 -0.006412 0.000000
# 2 -0.000990 0.007760 0.000550 0.000000 -0.009546 0.000000
# 3 -0.002908 0.000550 0.021085 0.000000 -0.009245 0.000000
# 4 0.000000 0.000000 0.000000 0.027675 0.000000 -0.001390
# 5 -0.006412 -0.009546 -0.009245 0.000000 0.054711 0.000000
# 6 0.000000 0.000000 0.000000 -0.001390 0.000000 0.029202
#
#
# Mechanical properties :
#
#
# Convention : Reuss Voigt Hill
#
# Bulk Modulus (GPa) = 30.19242 60.04150 45.11696
# Shear Modulus (GPa) = 29.56096 38.15980 33.86038
#
# Velocity S-wave (km/s) = 3.68485 4.18662 3.94372
# Velocity P-wave (km/s) = 5.65440 7.13785 6.43899
#
# Compressibility (1/GPa) = 0.03312090
#
# Stress axis : x y z
#
# Youngs Moduli (GPa) = 91.14120 128.86400 47.42701
#
# Poissons Ratio (x) = 0.12758 0.13791
# Poissons Ratio (y) = 0.09023 -0.02607
# Poissons Ratio (z) = 0.26503 -0.07085
#
# Static dielectric constant tensor:
#      x y z
#    x 1.916960 0.000000 0.026940 
#    y 0.000000 1.788200 0.000000 
#    z 0.026940 0.000000 1.797040 
# 
# From -- ./inp_files/15845.got.cif
#   From: 2010.05.17/outbox.cif.g08.bks.cpg/sg10_8_cif.got.tgz:15845.got - 2010.06.03 11:33:40.
