data_PCOD9145343
_publ_section_title
;
Structure prediction by ZEFSAII (Michael W. Deem and Ramdas Pophale) SiO2 
 PCOD9145343
Probable space group: P 2/M
;
_chemical_formula_sum "Si O2"
_cell_formula_units_Z 26
_cell_length_a 22.082132
_cell_length_b 16.807220
_cell_length_c 22.024739
_cell_angle_alpha 90.000000
_cell_angle_beta 166.588524
_cell_angle_gamma 90.000000
_cell_volume 1895.956812
_symmetry_space_group_name_H-M "P 2/M"
_symmetry_group_IT_number 10
_symmetry_cell_setting 'monoclinic'
loop_
_space_group_symop_operation_xyz
x,y,z
-x,y,-z
-x,-y,-z
x,-y,z
loop_
_atom_site_type_symbol
_atom_site_label
_atom_site_fract_x
_atom_site_fract_y
_atom_site_fract_z
Si Si1 0.136740 0.756429 0.566766
Si Si2 0.888546 0.903798 0.711322
Si Si3 0.231505 0.000000 0.774444
Si Si4 0.668779 0.158047 0.053609
Si Si5 0.765797 0.902992 0.727422
Si Si6 0.270593 0.412672 0.727211
Si Si7 0.427248 0.096186 0.174186
O O1 0.239866 0.666480 0.657709
O O2 0.000000 0.762188 0.500000
O O3 0.905824 0.780664 0.295807
O O4 0.393642 0.811743 0.813312
O O5 0.808371 0.875188 0.700018
O O6 0.689648 0.878711 0.464653
O O7 0.869995 0.000000 0.695279
O O8 0.183128 0.885444 0.979775
O O9 0.231959 0.921710 0.816208
O O10 0.000000 0.000000 0.500000
O O11 0.500000 0.000000 0.000000
O O12 0.614048 0.137602 0.930441
O O13 0.500000 0.876972 0.500000
O O14 0.761107 0.000000 0.720664
O O15 0.000000 0.880009 0.000000
O O16 0.313942 0.500000 0.740581
O O17 0.000000 0.417090 0.500000
O O18 0.500000 0.399793 0.000000
O O19 0.434050 0.000000 0.171244
#
# Coordination Sequence:
#
# PCOD9145343 Si02
#       7
#     4   4   2   4   4   4   4
#     4  11  21  33  48  63  82  99 126 163 213 258
#     4   9  17  27  42  55  71  98 127 162 200 239
#     4  12  24  34  44  56  74 100 132 172 216 252
#     4  12  22  34  45  59  78 105 136 174 207 243
#     4   9  15  23  36  56  77  92 113 149 201 249
#     4   9  17  30  48  67  84 100 117 144 193 259
#     4  10  19  32  42  53  72 100 140 170 198 232
#
# _framework density 13.713392000000001
#
# number of rings (size 3 to 8) (size 9 to 14) (size 15 to 20)
#    0.000    1.846    0.769    6.462    0.000    3.692 
#    0.000    0.000    0.000    0.000    0.000    0.000 
#    0.000    0.000    0.000    0.000    0.000    0.000 
#
# Total GULP energy -144961.094384 kJ/mol
# GULP energy per Si atom -5575.426707 kJ/mol
# Density = 1.368218 g / cm^3
# Si number density = 13.713392 Si / 1000 Ang^3
#
#
#
# Elastic Constant Matrix: (Units=GPa)
#
#
# Indices 1 2 3 4 5 6 
#
# 1 44.7511 16.3953 2.0792 0.0000 -5.6693 0.0000
# 2 16.3953 51.9787 15.0979 0.0000 -0.9996 0.0000
# 3 2.0792 15.0979 81.1219 0.0000 -1.7096 0.0000
# 4 0.0000 0.0000 0.0000 16.0784 0.0000 -3.2976
# 5 -5.6693 -0.9996 -1.7096 0.0000 18.8876 0.0000
# 6 0.0000 0.0000 0.0000 -3.2976 0.0000 2.5636
#
#
#
# Elastic Compliance Matrix: (Units=1/GPa)
#
#
# Indices 1 2 3 4 5 6 
#
# 1 0.026360 -0.008477 0.001061 0.000000 0.007560 0.000000
# 2 -0.008477 0.023075 -0.004113 0.000000 -0.001696 0.000000
# 3 0.001061 -0.004113 0.013092 0.000000 0.001286 0.000000
# 4 0.000000 0.000000 0.000000 0.084484 0.000000 0.108675
# 5 0.007560 -0.001696 0.001286 0.000000 0.055240 0.000000
# 6 0.000000 0.000000 0.000000 0.108675 0.000000 0.529871
#
#
# Mechanical properties :
#
#
# Convention : Reuss Voigt Hill
#
# Bulk Modulus (GPa) = 25.33619 27.22184 26.27902
# Shear Modulus (GPa) = 6.50756 17.12455 11.81605
#
# Velocity S-wave (km/s) = 2.18076 3.53759 2.93856
# Velocity P-wave (km/s) = 4.98564 6.04812 5.54240
#
# Compressibility (1/GPa) = 0.03946923
#
# Stress axis : x y z
#
# Youngs Moduli (GPa) = 37.93624 43.33751 76.37964
#
# Poissons Ratio (x) = 0.36739 -0.08107
# Poissons Ratio (y) = 0.32160 0.31415
# Poissons Ratio (z) = -0.04027 0.17825
#
# Static dielectric constant tensor:
#      x y z
#    x 1.438850 0.000000 0.003460 
#    y 0.000000 1.467560 0.000000 
#    z 0.003460 0.000000 1.459720 
# 
# From -- ./inp_files/81274.got.cif
#   From: 2010.05.17/outbox.cif.g08.bks.cpg/sg10_41_cif.got.tgz:81274.got - 2010.06.03 11:33:40.
