data_PCOD9145362
_publ_section_title
;
Structure prediction by ZEFSAII (Michael W. Deem and Ramdas Pophale) SiO2 
 PCOD9145362
Probable space group: P 2/M
;
_chemical_formula_sum "Si O2"
_cell_formula_units_Z 32
_cell_length_a 21.823349
_cell_length_b 8.759475
_cell_length_c 31.503706
_cell_angle_alpha 90.000000
_cell_angle_beta 160.441577
_cell_angle_gamma 90.000000
_cell_volume 2016.066686
_symmetry_space_group_name_H-M "P 2/M"
_symmetry_group_IT_number 10
_symmetry_cell_setting 'monoclinic'
loop_
_space_group_symop_operation_xyz
x,y,z
-x,y,-z
-x,-y,-z
x,-y,z
loop_
_atom_site_type_symbol
_atom_site_label
_atom_site_fract_x
_atom_site_fract_y
_atom_site_fract_z
Si Si1 0.057862 0.316239 0.720507
Si Si2 0.675456 0.316111 0.586035
Si Si3 0.932753 0.682617 0.117263
Si Si4 0.326425 0.183489 0.509779
Si Si5 0.935432 0.184768 0.025825
Si Si6 0.286752 0.814755 0.200852
Si Si7 0.611314 0.323627 0.117313
Si Si8 0.282254 0.819196 0.946350
O O1 0.058179 0.500000 0.722789
O O2 0.854155 0.252521 0.586676
O O3 0.187030 0.270897 0.765118
O O4 0.154267 0.254549 0.826228
O O5 0.500000 0.274350 0.500000
O O6 0.673561 0.500000 0.578899
O O7 0.668942 0.238172 0.535960
O O8 0.864325 0.275613 0.733021
O O9 0.918366 0.500000 0.109025
O O10 0.909196 0.742887 0.054409
O O11 0.786871 0.754414 0.054242
O O12 0.512688 0.235806 0.654396
O O13 0.317183 0.000000 0.504860
O O14 0.131622 0.230240 0.133682
O O15 0.932865 0.000000 0.027581
O O16 0.784829 0.231192 0.892344
O O17 0.287206 0.000000 0.201144
O O18 0.617828 0.500000 0.135652
O O19 0.500000 0.321322 0.000000
O O20 0.489906 0.227218 0.070319
O O21 0.260943 0.000000 0.930978
#
# Coordination Sequence:
#
# PCOD9145362 Si02
#       8
#     4   4   4   4   4   4   4   4
#     4  10  19  32  47  67  98 133 162 193 238 289
#     4  10  21  34  46  63  94 134 165 194 241 293
#     4  11  21  32  47  69 101 131 161 201 244 287
#     4  11  20  30  48  73  98 126 164 203 242 288
#     4   9  17  34  55  70  92 126 167 207 249 292
#     4   8  17  33  52  73  95 124 161 210 255 286
#     4   8  16  30  47  65  92 129 161 191 235 285
#     4  11  20  30  47  71  97 127 163 199 237 285
#
# _framework density 15.872491999999999
#
# number of rings (size 3 to 8) (size 9 to 14) (size 15 to 20)
#    0.000    2.250    1.250    4.500    0.000    3.500 
#    0.000    3.125    0.000    0.000    0.000    0.875 
#    0.000    7.000    0.000    0.000    0.000    0.000 
#
# Total GULP energy -178486.630593 kJ/mol
# GULP energy per Si atom -5577.707206 kJ/mol
# Density = 1.583637 g / cm^3
# Si number density = 15.872492 Si / 1000 Ang^3
#
#
#
# Elastic Constant Matrix: (Units=GPa)
#
#
# Indices 1 2 3 4 5 6 
#
# 1 133.3403 47.0165 82.2463 0.0000 15.2092 0.0000
# 2 47.0165 46.9192 33.5686 0.0000 6.0343 0.0000
# 3 82.2463 33.5686 102.5211 0.0000 11.8544 0.0000
# 4 0.0000 0.0000 0.0000 33.3095 0.0000 -1.6907
# 5 15.2092 6.0343 11.8544 0.0000 23.3739 0.0000
# 6 0.0000 0.0000 0.0000 -1.6907 0.0000 28.8077
#
#
#
# Elastic Compliance Matrix: (Units=1/GPa)
#
#
# Indices 1 2 3 4 5 6 
#
# 1 0.018114 -0.009904 -0.010858 0.000000 -0.003723 0.000000
# 2 -0.009904 0.033413 -0.002914 0.000000 -0.000704 0.000000
# 3 -0.010858 -0.002914 0.019669 0.000000 -0.002158 0.000000
# 4 0.000000 0.000000 0.000000 0.030111 0.000000 0.001767
# 5 -0.003723 -0.000704 -0.002158 0.000000 0.046481 0.000000
# 6 0.000000 0.000000 0.000000 0.001767 0.000000 0.034817
#
#
# Mechanical properties :
#
#
# Convention : Reuss Voigt Hill
#
# Bulk Modulus (GPa) = 41.94039 67.60483 54.77261
# Shear Modulus (GPa) = 21.01679 25.09484 23.05581
#
# Velocity S-wave (km/s) = 3.64277 3.98053 3.81539
# Velocity P-wave (km/s) = 6.64633 7.98818 7.34795
#
# Compressibility (1/GPa) = 0.02384337
#
# Stress axis : x y z
#
# Youngs Moduli (GPa) = 55.20526 29.92845 50.84234
#
# Poissons Ratio (x) = 0.29642 0.55207
# Poissons Ratio (y) = 0.54676 0.14813
# Poissons Ratio (z) = 0.59945 0.08720
#
# Static dielectric constant tensor:
#      x y z
#    x 1.514950 0.000000 0.023410 
#    y 0.000000 1.530940 0.000000 
#    z 0.023410 0.000000 1.533850 
# 
# From -- ./inp_files/55278.got.cif
#   From: 2010.05.17/outbox.cif.g08.bks.cpg/sg10_28_cif.got.tgz:55278.got - 2010.06.03 11:33:40.
