data_PCOD9145876
_publ_section_title
;
Structure prediction by ZEFSAII (Michael W. Deem and Ramdas Pophale) SiO2 
 PCOD9145876
Probable space group: P 2/M
;
_chemical_formula_sum "Si O2"
_cell_formula_units_Z 29
_cell_length_a 9.493437
_cell_length_b 7.614747
_cell_length_c 26.682805
_cell_angle_alpha 90.000000
_cell_angle_beta 34.095599
_cell_angle_gamma 90.000000
_cell_volume 1081.295660
_symmetry_space_group_name_H-M "P 2/M"
_symmetry_group_IT_number 10
_symmetry_cell_setting 'monoclinic'
loop_
_space_group_symop_operation_xyz
x,y,z
-x,y,-z
-x,-y,-z
x,-y,z
loop_
_atom_site_type_symbol
_atom_site_label
_atom_site_fract_x
_atom_site_fract_y
_atom_site_fract_z
Si Si1 0.325901 0.286691 0.369661
Si Si2 0.714864 0.787000 0.090765
Si Si3 0.373291 0.798564 0.989650
Si Si4 0.246806 0.294789 0.285641
Si Si5 0.902017 0.299156 0.181965
Si Si6 0.051622 0.797426 0.724692
Si Si7 0.623457 0.794725 0.534082
Si Si8 0.500000 0.500000 0.500000
O O1 0.311827 0.500000 0.374619
O O2 0.192594 0.224216 0.357555
O O3 0.618768 0.234408 0.274861
O O4 0.256024 0.226261 0.446131
O O5 0.544939 0.727536 0.186546
O O6 0.715958 0.000000 0.090706
O O7 0.587373 0.723422 0.076593
O O8 0.000000 0.727445 0.000000
O O9 0.078000 0.800588 0.091017
O O10 0.466590 0.000000 0.959388
O O11 0.500000 0.710429 0.000000
O O12 0.197255 0.500000 0.299199
O O13 0.110566 0.214285 0.277708
O O14 0.888495 0.500000 0.169266
O O15 0.028151 0.293214 0.200271
O O16 0.332465 0.733740 0.629787
O O17 0.071400 0.000000 0.732740
O O18 0.678031 0.655467 0.474699
O O19 0.632057 0.000000 0.516744
#
# Coordination Sequence:
#
# PCOD9145876 Si02
#       8
#     4   4   4   4   4   4   4   1
#     4   9  19  37  56  84 118 151 190 242 289 338
#     4  10  21  35  49  70 105 150 197 246 302 359
#     4  10  20  32  45  64  96 138 184 238 297 354
#     4  11  22  34  57  84 114 155 199 248 306 350
#     4  10  19  32  54  76 103 141 188 244 301 349
#     4  10  21  37  57  85 118 151 198 245 286 350
#     4  10  22  39  66  98 125 163 198 231 288 344
#     4  12  22  40  72  96 140 156 184 246 270 346
#
# _framework density 26.819678
#
# number of rings (size 3 to 8) (size 9 to 14) (size 15 to 20)
#    0.000    1.931    0.690    3.103    1.931    3.862 
#    0.000    0.000    0.000    1.655    0.000    2.897 
#    0.000    0.000    0.000    0.000    0.000    0.000 
#
# Total GULP energy -162070.753815 kJ/mol
# GULP energy per Si atom -5588.646683 kJ/mol
# Density = 2.675863 g / cm^3
# Si number density = 26.819678 Si / 1000 Ang^3
#
#
#
# Elastic Constant Matrix: (Units=GPa)
#
#
# Indices 1 2 3 4 5 6 
#
# 1 175.0105 14.7592 26.9943 0.0000 30.7778 0.0000
# 2 14.7592 65.5996 -1.0468 0.0000 15.5168 0.0000
# 3 26.9943 -1.0468 124.8116 0.0000 26.1992 0.0000
# 4 0.0000 0.0000 0.0000 19.9993 0.0000 -0.6395
# 5 30.7778 15.5168 26.1992 0.0000 51.1957 0.0000
# 6 0.0000 0.0000 0.0000 -0.6395 0.0000 29.6534
#
#
#
# Elastic Compliance Matrix: (Units=1/GPa)
#
#
# Indices 1 2 3 4 5 6 
#
# 1 0.006464 -0.000681 -0.000707 0.000000 -0.003318 0.000000
# 2 -0.000681 0.016691 0.001415 0.000000 -0.005374 0.000000
# 3 -0.000707 0.001415 0.009162 0.000000 -0.004692 0.000000
# 4 0.000000 0.000000 0.000000 0.050036 0.000000 0.001079
# 5 -0.003318 -0.005374 -0.004692 0.000000 0.025557 0.000000
# 6 0.000000 0.000000 0.000000 0.001079 0.000000 0.033746
#
#
# Mechanical properties :
#
#
# Convention : Reuss Voigt Hill
#
# Bulk Modulus (GPa) = 30.89206 49.64833 40.27020
# Shear Modulus (GPa) = 32.81002 41.81737 37.31369
#
# Velocity S-wave (km/s) = 3.50145 3.95296 3.73403
# Velocity P-wave (km/s) = 5.28112 6.27588 5.79987
#
# Compressibility (1/GPa) = 0.03237077
#
# Stress axis : x y z
#
# Youngs Moduli (GPa) = 154.70512 59.91310 109.14790
#
# Poissons Ratio (x) = 0.04079 0.07720
# Poissons Ratio (y) = 0.10533 -0.15447
# Poissons Ratio (z) = 0.10943 -0.08479
#
# Static dielectric constant tensor:
#      x y z
#    x 2.198490 0.000000 -0.061280 
#    y 0.000000 1.991190 0.000000 
#    z -0.061280 0.000000 2.224010 
# 
# From -- ./inp_files/92032.got.cif
#   From: 2010.05.17/outbox.cif.g08.bks.cpg/sg10_47_cif.got.tgz:92032.got - 2010.06.03 11:33:40.
