data_PCOD9145592
_publ_section_title
;
Structure prediction by ZEFSAII (Michael W. Deem and Ramdas Pophale) SiO2 
 PCOD9145592
Probable space group: P 2/M
;
_chemical_formula_sum "Si O2"
_cell_formula_units_Z 16
_cell_length_a 12.441883
_cell_length_b 9.433137
_cell_length_c 10.220800
_cell_angle_alpha 90.000000
_cell_angle_beta 54.258925
_cell_angle_gamma 90.000000
_cell_volume 973.652434
_symmetry_space_group_name_H-M "P 2/M"
_symmetry_group_IT_number 10
_symmetry_cell_setting 'monoclinic'
loop_
_space_group_symop_operation_xyz
x,y,z
-x,y,-z
-x,-y,-z
x,-y,z
loop_
_atom_site_type_symbol
_atom_site_label
_atom_site_fract_x
_atom_site_fract_y
_atom_site_fract_z
Si Si1 0.645961 0.669667 0.950983
Si Si2 0.151260 0.330035 0.424820
Si Si3 0.311300 0.169499 0.526188
Si Si4 0.616268 0.169393 0.235060
O O1 0.649673 0.500000 0.968365
O O2 0.754166 0.707083 0.764748
O O3 0.500000 0.706295 0.000000
O O4 0.666453 0.748546 0.073057
O O5 0.159916 0.500000 0.437481
O O6 0.206969 0.251910 0.512552
O O7 0.000000 0.293672 0.500000
O O8 0.459890 0.200484 0.367795
O O9 0.312398 0.207075 0.679157
O O10 0.292431 0.000000 0.529392
O O11 0.628164 0.000000 0.208802
#
# Coordination Sequence:
#
# PCOD9145592 Si02
#       4
#     4   4   4   4
#     4  10  19  32  51  77 102 128 170 213 245 291
#     4  10  21  36  52  73 104 137 167 204 252 301
#     4   9  18  33  52  76 104 132 167 207 249 299
#     4   9  18  32  52  78 104 130 164 210 255 293
#
# _framework density 16.432969
#
# number of rings (size 3 to 8) (size 9 to 14) (size 15 to 20)
#    0.000    2.500    2.500    1.500    0.000    3.000 
#    0.000    3.750    0.000    7.500    0.000    0.000 
#    0.000    0.000    0.000    0.000    0.000    0.000 
#
# Total GULP energy -89227.754332 kJ/mol
# GULP energy per Si atom -5576.734646 kJ/mol
# Density = 1.639557 g / cm^3
# Si number density = 16.432969 Si / 1000 Ang^3
#
#
#
# Elastic Constant Matrix: (Units=GPa)
#
#
# Indices 1 2 3 4 5 6 
#
# 1 153.3241 56.7731 85.3949 0.0000 17.4440 0.0000
# 2 56.7731 25.5516 42.5613 0.0000 12.5733 0.0000
# 3 85.3949 42.5613 112.4253 0.0000 14.6481 0.0000
# 4 0.0000 0.0000 0.0000 31.0448 0.0000 15.6021
# 5 17.4440 12.5733 14.6481 0.0000 30.3348 0.0000
# 6 0.0000 0.0000 0.0000 15.6021 0.0000 33.7110
#
#
#
# Elastic Compliance Matrix: (Units=1/GPa)
#
#
# Indices 1 2 3 4 5 6 
#
# 1 0.052449 -0.155837 0.015656 0.000000 0.026871 0.000000
# 2 -0.155837 0.592874 -0.091492 0.000000 -0.111942 0.000000
# 3 0.015656 -0.091492 0.029743 0.000000 0.014557 0.000000
# 4 0.000000 0.000000 0.000000 0.041975 0.000000 -0.019427
# 5 0.026871 -0.111942 0.014557 0.000000 0.056882 0.000000
# 6 0.000000 0.000000 0.000000 -0.019427 0.000000 0.038655
#
#
# Mechanical properties :
#
#
# Convention : Reuss Voigt Hill
#
# Bulk Modulus (GPa) = 4.72324 73.41773 39.07048
# Shear Modulus (GPa) = 3.71334 26.12290 14.91812
#
# Velocity S-wave (km/s) = 1.50486 3.99138 3.01627
# Velocity P-wave (km/s) = 2.42898 8.12500 5.99648
#
# Compressibility (1/GPa) = 0.21171913
#
# Stress axis : x y z
#
# Youngs Moduli (GPa) = 19.06627 1.68670 33.62178
#
# Poissons Ratio (x) = 0.26285 -0.52639
# Poissons Ratio (y) = 2.97123 3.07613
# Poissons Ratio (z) = -0.29851 0.15432
#
# Static dielectric constant tensor:
#      x y z
#    x 1.535360 0.000000 -0.002270 
#    y 0.000000 1.540450 0.000000 
#    z -0.002270 0.000000 1.539910 
# 
# From -- ./inp_files/16547.got.cif
#   From: 2010.05.17/outbox.cif.g08.bks.cpg/sg10_9_cif.got.tgz:16547.got - 2010.06.03 11:33:40.
