data_PCOD9145996
_publ_section_title
;
Structure prediction by ZEFSAII (Michael W. Deem and Ramdas Pophale) SiO2 
 PCOD9145996
Probable space group: P 2/M
;
_chemical_formula_sum "Si O2"
_cell_formula_units_Z 28
_cell_length_a 13.881735
_cell_length_b 7.474115
_cell_length_c 14.138019
_cell_angle_alpha 90.000000
_cell_angle_beta 60.074409
_cell_angle_gamma 90.000000
_cell_volume 1271.299457
_symmetry_space_group_name_H-M "P 2/M"
_symmetry_group_IT_number 10
_symmetry_cell_setting 'monoclinic'
loop_
_space_group_symop_operation_xyz
x,y,z
-x,y,-z
-x,-y,-z
x,-y,z
loop_
_atom_site_type_symbol
_atom_site_label
_atom_site_fract_x
_atom_site_fract_y
_atom_site_fract_z
Si Si1 0.482866 0.716752 0.616231
Si Si2 0.080642 0.293979 0.539593
Si Si3 0.804101 0.716590 0.949028
Si Si4 0.389570 0.790845 0.103237
Si Si5 0.316065 0.791659 0.342318
Si Si6 0.949379 0.718987 0.233236
Si Si7 0.245054 0.281416 0.813261
O O1 0.500000 0.776230 0.500000
O O2 0.483305 0.500000 0.615765
O O3 0.582832 0.775674 0.634315
O O4 0.364372 0.775769 0.715281
O O5 0.042980 0.500000 0.569261
O O6 0.205571 0.292687 0.439836
O O7 0.073742 0.218190 0.648610
O O8 0.000000 0.211645 0.500000
O O9 0.802871 0.500000 0.948954
O O10 0.712426 0.777306 0.918975
O O11 0.927858 0.773410 0.859470
O O12 0.774479 0.775953 0.069474
O O13 0.354084 0.714827 0.222351
O O14 0.414825 0.000000 0.109452
O O15 0.500000 0.713093 0.000000
O O16 0.287868 0.000000 0.342387
O O17 0.946212 0.500000 0.233584
O O18 0.854146 0.776882 0.207094
O O19 0.244703 0.500000 0.813592
#
# Coordination Sequence:
#
# PCOD9145996 Si02
#       7
#     4   4   4   4   4   4   4
#     4  10  20  35  56  80 108 143 179 216 261 313
#     4  10  20  35  56  80 107 141 179 218 263 317
#     4  10  19  32  55  83 105 131 174 223 261 302
#     4  10  22  39  55  73 104 144 177 210 262 319
#     4  11  23  37  55  79 107 140 177 219 265 313
#     4   9  17  31  52  79 110 139 168 210 266 318
#     4   9  17  30  51  80 109 137 172 215 262 310
#
# _framework density 22.024706999999999
#
# number of rings (size 3 to 8) (size 9 to 14) (size 15 to 20)
#    0.000    2.143    0.000    3.429    0.000    7.143 
#    0.000    0.714    0.000    3.429    0.000    0.000 
#    0.000    0.000    0.000    0.000    0.000    0.000 
#
# Total GULP energy -156547.766470 kJ/mol
# GULP energy per Si atom -5590.991660 kJ/mol
# Density = 2.197458 g / cm^3
# Si number density = 22.024707 Si / 1000 Ang^3
#
#
#
# Elastic Constant Matrix: (Units=GPa)
#
#
# Indices 1 2 3 4 5 6 
#
# 1 171.6252 -22.9082 97.8376 0.0000 6.1499 0.0000
# 2 -22.9082 60.2799 -7.0477 0.0000 2.3152 0.0000
# 3 97.8376 -7.0477 220.0433 0.0000 11.6945 0.0000
# 4 0.0000 0.0000 0.0000 -1.9521 0.0000 -0.5812
# 5 6.1499 2.3152 11.6945 0.0000 48.6793 0.0000
# 6 0.0000 0.0000 0.0000 -0.5812 0.0000 29.5970
#
#
#
# Elastic Compliance Matrix: (Units=1/GPa)
#
#
# Indices 1 2 3 4 5 6 
#
# 1 0.008228 0.002723 -0.003554 0.000000 -0.000315 0.000000
# 2 0.002723 0.017595 -0.000592 0.000000 -0.001039 0.000000
# 3 -0.003554 -0.000592 0.006159 0.000000 -0.001002 0.000000
# 4 0.000000 0.000000 0.000000 -0.509283 0.000000 -0.010001
# 5 -0.000315 -0.001039 -0.001002 0.000000 0.020873 0.000000
# 6 0.000000 0.000000 0.000000 -0.010001 0.000000 0.033591
#
#
# Mechanical properties :
#
#
# Convention : Reuss Voigt Hill
#
# Bulk Modulus (GPa) = 34.32238 65.30131 49.81185
# Shear Modulus (GPa) = -12.18679 40.86928 14.34124
#
# Velocity S-wave (km/s) = -2.35484 4.31235 2.55452
# Velocity P-wave (km/s) = 2.86771 7.38300 5.60055
#
# Compressibility (1/GPa) = 0.02913551
#
# Stress axis : x y z
#
# Youngs Moduli (GPa) = 121.54206 56.83475 162.35871
#
# Poissons Ratio (x) = -0.15478 0.57707
# Poissons Ratio (y) = -0.33099 0.09613
# Poissons Ratio (z) = 0.43199 0.03365
#
# Static dielectric constant tensor:
#      x y z
#    x 1.727750 0.000000 0.011500 
#    y 0.000000 1.850810 0.000000 
#    z 0.011500 0.000000 1.777870 
# 
# From -- ./inp_files/49558.got.cif
#   From: 2010.05.17/outbox.cif.g08.bks.cpg/sg10_25_cif.got.tgz:49558.got - 2010.06.03 11:33:40.
