data_PCOD9145859
_publ_section_title
;
Structure prediction by ZEFSAII (Michael W. Deem and Ramdas Pophale) SiO2 
 PCOD9145859
Probable space group: P 2/M
;
_chemical_formula_sum "Si O2"
_cell_formula_units_Z 32
_cell_length_a 23.959086
_cell_length_b 7.372919
_cell_length_c 14.776983
_cell_angle_alpha 90.000000
_cell_angle_beta 148.278202
_cell_angle_gamma 90.000000
_cell_volume 1372.499465
_symmetry_space_group_name_H-M "P 2/M"
_symmetry_group_IT_number 10
_symmetry_cell_setting 'monoclinic'
loop_
_space_group_symop_operation_xyz
x,y,z
-x,y,-z
-x,-y,-z
x,-y,z
loop_
_atom_site_type_symbol
_atom_site_label
_atom_site_fract_x
_atom_site_fract_y
_atom_site_fract_z
Si Si1 0.815668 0.778549 0.476662
Si Si2 0.399112 0.220662 0.919934
Si Si3 0.998086 0.212346 0.395771
Si Si4 0.259139 0.780772 0.431283
Si Si5 0.406471 0.708409 0.311818
Si Si6 0.086018 0.290173 0.050230
Si Si7 0.494784 0.780109 0.238349
Si Si8 0.168411 0.719799 0.977259
O O1 0.710193 0.722992 0.276571
O O2 0.916587 0.713491 0.558706
O O3 0.802199 0.720338 0.562289
O O4 0.818170 0.000000 0.483189
O O5 0.397817 0.000000 0.917289
O O6 0.500000 0.277349 0.000000
O O7 0.422919 0.277759 0.054768
O O8 0.000000 0.288881 0.500000
O O9 0.885247 0.227386 0.190879
O O10 0.025463 0.000000 0.442926
O O11 0.197483 0.717614 0.257221
O O12 0.382259 0.724211 0.604072
O O13 0.258302 0.000000 0.429022
O O14 0.500000 0.793982 0.500000
O O15 0.395397 0.500000 0.328472
O O16 0.446628 0.712053 0.264866
O O17 0.288639 0.786628 0.153716
O O18 0.055242 0.500000 0.995035
O O19 0.100519 0.213463 0.969929
O O20 0.000000 0.206824 0.000000
O O21 0.494767 0.000000 0.240505
O O22 0.169784 0.500000 0.981500
#
# Coordination Sequence:
#
# PCOD9145859 Si02
#       8
#     4   4   4   4   4   4   4   4
#     4   9  17  31  51  77 113 148 179 217 269 329
#     4   9  15  28  51  79 110 144 177 216 268 326
#     4  10  22  37  56  84 113 145 187 231 273 319
#     4  10  19  32  53  83 112 140 176 220 274 331
#     4  10  22  40  59  78 108 151 188 221 274 338
#     4  10  21  37  58  81 105 138 183 227 271 323
#     4  10  20  32  54  85 109 136 181 229 271 319
#     4  10  22  40  59  80 109 147 187 225 274 334
#
# _framework density 23.315127
#
# number of rings (size 3 to 8) (size 9 to 14) (size 15 to 20)
#    0.000    2.250    1.250    1.500    1.750    3.250 
#    0.000    0.000    0.000    1.125    0.000    0.000 
#    0.000    0.000    0.000    0.000    0.000    0.000 
#
# Total GULP energy -178902.040407 kJ/mol
# GULP energy per Si atom -5590.688763 kJ/mol
# Density = 2.326206 g / cm^3
# Si number density = 23.315127 Si / 1000 Ang^3
#
#
#
# Elastic Constant Matrix: (Units=GPa)
#
#
# Indices 1 2 3 4 5 6 
#
# 1 130.6876 -1.0026 38.5172 0.0000 -13.6345 0.0000
# 2 -1.0026 83.1054 -12.1090 0.0000 3.8114 0.0000
# 3 38.5172 -12.1090 111.4192 0.0000 -15.5467 0.0000
# 4 0.0000 0.0000 0.0000 12.0625 0.0000 -0.1118
# 5 -13.6345 3.8114 -15.5467 0.0000 46.7306 0.0000
# 6 0.0000 0.0000 0.0000 -0.1118 0.0000 5.1491
#
#
#
# Elastic Compliance Matrix: (Units=1/GPa)
#
#
# Indices 1 2 3 4 5 6 
#
# 1 0.008644 -0.000378 -0.002803 0.000000 0.001620 0.000000
# 2 -0.000378 0.012258 0.001372 0.000000 -0.000654 0.000000
# 3 -0.002803 0.001372 0.010449 0.000000 0.002546 0.000000
# 4 0.000000 0.000000 0.000000 0.082918 0.000000 0.001800
# 5 0.001620 -0.000654 0.002546 0.000000 0.022772 0.000000
# 6 0.000000 0.000000 0.000000 0.001800 0.000000 0.194247
#
#
# Mechanical properties :
#
#
# Convention : Reuss Voigt Hill
#
# Bulk Modulus (GPa) = 36.06064 41.78038 38.92051
# Shear Modulus (GPa) = 14.52847 32.77556 23.65201
#
# Velocity S-wave (km/s) = 2.49898 3.75342 3.18850
# Velocity P-wave (km/s) = 4.88126 6.06160 5.50317
#
# Compressibility (1/GPa) = 0.02773107
#
# Stress axis : x y z
#
# Youngs Moduli (GPa) = 115.68464 81.57791 95.70668
#
# Poissons Ratio (x) = 0.03088 0.26830
# Poissons Ratio (y) = 0.04379 -0.13129
# Poissons Ratio (z) = 0.32430 -0.11191
#
# Static dielectric constant tensor:
#      x y z
#    x 1.851780 0.000000 0.000490 
#    y 0.000000 1.902740 0.000000 
#    z 0.000490 0.000000 1.855320 
# 
# From -- ./inp_files/71617.got.cif
#   From: 2010.05.17/outbox.cif.g08.bks.cpg/sg10_36_cif.got.tgz:71617.got - 2010.06.03 11:33:40.
