data_PCOD9145425
_publ_section_title
;
Structure prediction by ZEFSAII (Michael W. Deem and Ramdas Pophale) SiO2 
 PCOD9145425
Probable space group: P 2/M
;
_chemical_formula_sum "Si O2"
_cell_formula_units_Z 24
_cell_length_a 16.875688
_cell_length_b 13.377351
_cell_length_c 10.312273
_cell_angle_alpha 90.000000
_cell_angle_beta 33.277723
_cell_angle_gamma 90.000000
_cell_volume 1277.377427
_symmetry_space_group_name_H-M "P 2/M"
_symmetry_group_IT_number 10
_symmetry_cell_setting 'monoclinic'
loop_
_space_group_symop_operation_xyz
x,y,z
-x,y,-z
-x,-y,-z
x,-y,z
loop_
_atom_site_type_symbol
_atom_site_label
_atom_site_fract_x
_atom_site_fract_y
_atom_site_fract_z
Si Si1 0.398932 0.885228 0.519274
Si Si2 0.099005 0.615794 0.179957
Si Si3 0.632385 0.612073 0.664244
Si Si4 0.205942 0.325383 0.302175
Si Si5 0.556674 0.189960 0.061570
Si Si6 0.165068 0.287295 0.818558
O O1 0.500000 0.851207 0.500000
O O2 0.499748 0.877624 0.254344
O O3 0.262105 0.812740 0.689306
O O4 0.355592 0.000000 0.600871
O O5 0.061205 0.500000 0.208113
O O6 0.196601 0.622148 0.175359
O O7 0.953527 0.674044 0.419032
O O8 0.164717 0.663492 0.961463
O O9 0.578311 0.500000 0.716911
O O10 0.698237 0.621782 0.718448
O O11 0.516822 0.701050 0.810456
O O12 0.757926 0.639125 0.389905
O O13 0.275428 0.216689 0.181811
O O14 0.500000 0.154716 0.000000
O O15 0.000000 0.270094 0.000000
#
# Coordination Sequence:
#
# PCOD9145425 Si02
#       6
#     4   4   4   4   4   4
#     4  10  22  42  64  81 101 135 179 228 283 332
#     4  11  21  31  50  78 113 154 183 210 252 309
#     4  10  19  32  51  77 110 148 184 217 256 306
#     4  10  19  32  49  75 111 146 185 215 251 308
#     4   9  20  35  55  81 108 138 177 223 270 314
#     4  11  22  36  56  81 110 142 179 226 267 316
#
# _framework density 18.788495999999999
#
# number of rings (size 3 to 8) (size 9 to 14) (size 15 to 20)
#    0.000    1.833    1.667    3.500    0.000    5.667 
#    0.000    0.000    0.000    5.500    0.000    4.667 
#    0.000    0.000    0.000    0.000    0.000    0.000 
#
# Total GULP energy -133903.121259 kJ/mol
# GULP energy per Si atom -5579.296719 kJ/mol
# Density = 1.874573 g / cm^3
# Si number density = 18.788496 Si / 1000 Ang^3
#
#
#
# Elastic Constant Matrix: (Units=GPa)
#
#
# Indices 1 2 3 4 5 6 
#
# 1 58.7043 28.0217 33.2759 0.0000 15.5273 0.0000
# 2 28.0217 39.9785 19.2062 0.0000 1.8864 0.0000
# 3 33.2759 19.2062 102.5000 0.0000 24.4679 0.0000
# 4 0.0000 0.0000 0.0000 -78.2011 0.0000 -65.7632
# 5 15.5273 1.8864 24.4679 0.0000 32.5519 0.0000
# 6 0.0000 0.0000 0.0000 -65.7632 0.0000 -37.4436
#
#
#
# Elastic Compliance Matrix: (Units=1/GPa)
#
#
# Indices 1 2 3 4 5 6 
#
# 1 0.031584 -0.019727 -0.003941 0.000000 -0.010960 0.000000
# 2 -0.019727 0.040017 -0.003396 0.000000 0.009644 0.000000
# 3 -0.003941 -0.003396 0.013620 0.000000 -0.008161 0.000000
# 4 0.000000 0.000000 0.000000 0.026809 0.000000 -0.047086
# 5 -0.010960 0.009644 -0.008161 0.000000 0.041524 0.000000
# 6 0.000000 0.000000 0.000000 -0.047086 0.000000 0.055991
#
#
# Mechanical properties :
#
#
# Convention : Reuss Voigt Hill
#
# Bulk Modulus (GPa) = 32.16182 40.24337 36.20259
# Shear Modulus (GPa) = 18.24565 -8.57329 4.83618
#
# Velocity S-wave (km/s) = 3.11964 -2.13845 1.60611
# Velocity P-wave (km/s) = 5.48919 3.92025 4.76967
#
# Compressibility (1/GPa) = 0.03109277
#
# Stress axis : x y z
#
# Youngs Moduli (GPa) = 31.66172 24.98921 73.42221
#
# Poissons Ratio (x) = 0.49297 0.28933
# Poissons Ratio (y) = 0.62461 0.24934
# Poissons Ratio (z) = 0.12477 0.08486
#
# Static dielectric constant tensor:
#      x y z
#    x 1.669480 0.000000 -0.017540 
#    y 0.000000 1.626940 0.000000 
#    z -0.017540 0.000000 1.676770 
# 
# From -- ./inp_files/29294.got.cif
#   From: 2010.05.17/outbox.cif.g08.bks.cpg/sg10_15_cif.got.tgz:29294.got - 2010.06.03 11:33:40.
