data_PCOD9145165
_publ_section_title
;
Structure prediction by ZEFSAII (Michael W. Deem and Ramdas Pophale) SiO2 
 PCOD9145165
Probable space group: P 2/M
;
_chemical_formula_sum "Si O2"
_cell_formula_units_Z 32
_cell_length_a 14.471493
_cell_length_b 7.772197
_cell_length_c 12.853505
_cell_angle_alpha 90.000000
_cell_angle_beta 103.801258
_cell_angle_gamma 90.000000
_cell_volume 1403.962966
_symmetry_space_group_name_H-M "P 2/M"
_symmetry_group_IT_number 10
_symmetry_cell_setting 'monoclinic'
loop_
_space_group_symop_operation_xyz
x,y,z
-x,y,-z
-x,-y,-z
x,-y,z
loop_
_atom_site_type_symbol
_atom_site_label
_atom_site_fract_x
_atom_site_fract_y
_atom_site_fract_z
Si Si1 0.476340 0.289730 0.715757
Si Si2 0.371156 0.710284 0.065741
Si Si3 0.220471 0.295838 0.178429
Si Si4 0.622771 0.701307 0.595358
Si Si5 0.919390 0.298214 0.698162
Si Si6 0.324348 0.708410 0.829201
Si Si7 0.779218 0.196318 0.480118
Si Si8 0.129872 0.798154 0.703342
O O1 0.473485 0.500000 0.708280
O O2 0.547986 0.243266 0.829780
O O3 0.525844 0.225807 0.622131
O O4 0.376018 0.232330 0.736845
O O5 0.372209 0.500000 0.065557
O O6 0.378896 0.763590 0.948484
O O7 0.271552 0.772522 0.089431
O O8 0.209117 0.500000 0.156778
O O9 0.298707 0.274352 0.291769
O O10 0.122891 0.231929 0.203292
O O11 0.604726 0.500000 0.579311
O O12 0.680193 0.747727 0.506735
O O13 0.893517 0.500000 0.683724
O O14 0.860192 0.209683 0.590546
O O15 0.031064 0.280738 0.712952
O O16 0.324036 0.500000 0.827539
O O17 0.216924 0.772823 0.805065
O O18 0.826971 0.281750 0.391816
O O19 0.764217 0.000000 0.447791
O O20 0.109560 0.000000 0.682629
#
# Coordination Sequence:
#
# PCOD9145165 Si02
#       8
#     4   4   4   4   4   4   4   4
#     4   8  14  27  50  80 106 125 156 205 252 288
#     4   8  13  25  49  79 105 126 154 198 247 290
#     4   7  12  24  45  75 103 121 145 190 245 291
#     4   8  14  27  49  75 101 126 155 199 247 287
#     4  10  19  33  56  80  98 121 158 204 248 292
#     4  10  19  31  51  76  99 130 171 207 239 282
#     4  10  20  34  52  73  97 128 164 200 244 296
#     4  11  24  38  48  64  99 139 167 200 246 292
#
# _framework density 22.792624
#
# number of rings (size 3 to 8) (size 9 to 14) (size 15 to 20)
#    0.000    3.000    0.000    4.125    0.000    5.000 
#    0.000    1.875    0.000   16.500    0.000    0.000 
#    0.000    0.000    0.000    0.000    0.000    0.000 
#
# Total GULP energy -178397.368238 kJ/mol
# GULP energy per Si atom -5574.917757 kJ/mol
# Density = 2.274075 g / cm^3
# Si number density = 22.792624 Si / 1000 Ang^3
#
#
#
# Elastic Constant Matrix: (Units=GPa)
#
#
# Indices 1 2 3 4 5 6 
#
# 1 164.8188 0.3993 35.2264 0.0000 -29.4226 0.0000
# 2 0.3993 31.6281 -0.1239 0.0000 -9.4265 0.0000
# 3 35.2264 -0.1239 85.3650 0.0000 -24.7852 0.0000
# 4 0.0000 0.0000 0.0000 13.0459 0.0000 4.5094
# 5 -29.4226 -9.4265 -24.7852 0.0000 34.4492 0.0000
# 6 0.0000 0.0000 0.0000 4.5094 0.0000 -11.5530
#
#
#
# Elastic Compliance Matrix: (Units=1/GPa)
#
#
# Indices 1 2 3 4 5 6 
#
# 1 0.007385 0.001619 -0.001372 0.000000 0.005764 0.000000
# 2 0.001619 0.035638 0.003307 0.000000 0.013514 0.000000
# 3 -0.001372 0.003307 0.015431 0.000000 0.010836 0.000000
# 4 0.000000 0.000000 0.000000 0.067540 0.000000 0.026362
# 5 0.005764 0.013514 0.010836 0.000000 0.045445 0.000000
# 6 0.000000 0.000000 0.000000 0.026362 0.000000 -0.076268
#
#
# Mechanical properties :
#
#
# Convention : Reuss Voigt Hill
#
# Bulk Modulus (GPa) = 15.25219 39.20173 27.22696
# Shear Modulus (GPa) = 45.48875 23.60909 34.54892
#
# Velocity S-wave (km/s) = 4.47225 3.22191 3.89754
# Velocity P-wave (km/s) = 5.77704 5.57473 5.67679
#
# Compressibility (1/GPa) = 0.06556436
#
# Stress axis : x y z
#
# Youngs Moduli (GPa) = 135.40064 28.06007 64.80294
#
# Poissons Ratio (x) = -0.04544 0.08890
# Poissons Ratio (y) = -0.21925 -0.21432
# Poissons Ratio (z) = 0.18574 -0.09280
#
# Static dielectric constant tensor:
#      x y z
#    x 1.898380 0.000000 -0.018110 
#    y 0.000000 1.845440 0.000000 
#    z -0.018110 0.000000 1.995380 
# 
# From -- ./inp_files/66121.got.cif
#   From: 2010.05.17/outbox.cif.g08.bks.cpg/sg10_34_cif.got.tgz:66121.got - 2010.06.03 11:33:40.
