data_PCOD9145240
_publ_section_title
;
Structure prediction by ZEFSAII (Michael W. Deem and Ramdas Pophale) SiO2 
 PCOD9145240
Probable space group: P 2/M
;
_chemical_formula_sum "Si O2"
_cell_formula_units_Z 28
_cell_length_a 12.291442
_cell_length_b 7.697746
_cell_length_c 15.319830
_cell_angle_alpha 90.000000
_cell_angle_beta 70.289612
_cell_angle_gamma 90.000000
_cell_volume 1364.579665
_symmetry_space_group_name_H-M "P 2/M"
_symmetry_group_IT_number 10
_symmetry_cell_setting 'monoclinic'
loop_
_space_group_symop_operation_xyz
x,y,z
-x,y,-z
-x,-y,-z
x,-y,z
loop_
_atom_site_type_symbol
_atom_site_label
_atom_site_fract_x
_atom_site_fract_y
_atom_site_fract_z
Si Si1 0.805267 0.295043 0.764534
Si Si2 0.364862 0.213151 0.698181
Si Si3 0.381330 0.209221 0.326143
Si Si4 0.112486 0.206274 0.074757
Si Si5 0.979224 0.289799 0.405875
Si Si6 0.716425 0.206089 0.463925
Si Si7 0.146336 0.787436 0.869792
O O1 0.819586 0.500000 0.761496
O O2 0.692556 0.255685 0.738419
O O3 0.807819 0.238533 0.863938
O O4 0.917682 0.222169 0.683089
O O5 0.486038 0.268004 0.707055
O O6 0.353350 0.272134 0.600931
O O7 0.252876 0.271688 0.782393
O O8 0.363727 0.000000 0.697889
O O9 0.319254 0.276244 0.431514
O O10 0.381943 0.000000 0.329721
O O11 0.981140 0.270542 0.127010
O O12 0.101831 0.000000 0.067615
O O13 0.155028 0.269183 0.968723
O O14 0.981331 0.500000 0.405331
O O15 0.000000 0.231800 0.500000
O O16 0.852193 0.233614 0.411452
O O17 0.694667 0.000000 0.473290
O O18 0.148723 0.000000 0.866294
#
# Coordination Sequence:
#
# PCOD9145240 Si02
#       7
#     4   4   4   4   4   4   4
#     4  11  22  35  51  72 102 138 170 204 251 298
#     4   9  17  31  51  76 104 132 165 207 253 297
#     4  10  20  33  50  73 103 137 171 206 244 294
#     4   9  17  32  56  82 103 126 162 207 254 302
#     4  10  20  34  49  68 100 136 165 199 245 299
#     4  10  19  31  52  79 102 128 167 213 253 290
#     4   8  15  30  54  81 105 128 159 205 255 301
#
# _framework density 20.519137000000001
#
# number of rings (size 3 to 8) (size 9 to 14) (size 15 to 20)
#    0.000    2.429    1.429    2.571    0.000    4.286 
#    0.000    2.857    0.000    8.571    0.000    0.000 
#    0.000    0.000    0.000    0.000    0.000    0.000 
#
# Total GULP energy -156310.550140 kJ/mol
# GULP energy per Si atom -5582.519648 kJ/mol
# Density = 2.047243 g / cm^3
# Si number density = 20.519137 Si / 1000 Ang^3
#
#
#
# Elastic Constant Matrix: (Units=GPa)
#
#
# Indices 1 2 3 4 5 6 
#
# 1 98.0603 -16.7425 56.2108 0.0000 24.5993 0.0000
# 2 -16.7425 26.1744 1.4751 0.0000 -1.5782 0.0000
# 3 56.2108 1.4751 74.0378 0.0000 29.4218 0.0000
# 4 0.0000 0.0000 0.0000 22.3549 0.0000 49.5185
# 5 24.5993 -1.5782 29.4218 0.0000 30.8177 0.0000
# 6 0.0000 0.0000 0.0000 49.5185 0.0000 147.0569
#
#
#
# Elastic Compliance Matrix: (Units=1/GPa)
#
#
# Indices 1 2 3 4 5 6 
#
# 1 0.023176 0.015755 -0.017529 0.000000 -0.000958 0.000000
# 2 0.015755 0.049320 -0.014421 0.000000 0.003718 0.000000
# 3 -0.017529 -0.014421 0.035184 0.000000 -0.020337 0.000000
# 4 0.000000 0.000000 0.000000 0.176039 0.000000 -0.059278
# 5 -0.000958 0.003718 -0.020337 0.000000 0.052819 0.000000
# 6 0.000000 0.000000 0.000000 -0.059278 0.000000 0.026761
#
#
# Mechanical properties :
#
#
# Convention : Reuss Voigt Hill
#
# Bulk Modulus (GPa) = 13.28231 31.12879 22.20555
# Shear Modulus (GPa) = 11.88253 50.53452 31.20852
#
# Velocity S-wave (km/s) = 2.40905 4.96804 3.90416
# Velocity P-wave (km/s) = 3.77163 6.93629 5.58289
#
# Compressibility (1/GPa) = 0.07528812
#
# Stress axis : x y z
#
# Youngs Moduli (GPa) = 43.14806 20.27590 28.42225
#
# Poissons Ratio (x) = -0.31944 0.49821
# Poissons Ratio (y) = -0.67978 0.40989
# Poissons Ratio (z) = 0.75634 0.29241
#
# Static dielectric constant tensor:
#      x y z
#    x 1.722390 0.000000 0.023710 
#    y 0.000000 1.750310 0.000000 
#    z 0.023710 0.000000 1.765230 
# 
# From -- ./inp_files/49105.got.cif
#   From: 2010.05.17/outbox.cif.g08.bks.cpg/sg10_25_cif.got.tgz:49105.got - 2010.06.03 11:33:40.
