data_PCOD9145335
_publ_section_title
;
Structure prediction by ZEFSAII (Michael W. Deem and Ramdas Pophale) SiO2 
 PCOD9145335
Probable space group: P 2/M
;
_chemical_formula_sum "Si O2"
_cell_formula_units_Z 28
_cell_length_a 12.925214
_cell_length_b 13.053120
_cell_length_c 8.482710
_cell_angle_alpha 90.000000
_cell_angle_beta 48.276840
_cell_angle_gamma 90.000000
_cell_volume 1068.170096
_symmetry_space_group_name_H-M "P 2/M"
_symmetry_group_IT_number 10
_symmetry_cell_setting 'monoclinic'
loop_
_space_group_symop_operation_xyz
x,y,z
-x,y,-z
-x,-y,-z
x,-y,z
loop_
_atom_site_type_symbol
_atom_site_label
_atom_site_fract_x
_atom_site_fract_y
_atom_site_fract_z
Si Si1 0.735694 0.887956 0.059610
Si Si2 0.068980 0.115176 0.723586
Si Si3 0.317601 0.112233 0.253775
Si Si4 0.838056 0.659313 0.312746
Si Si5 0.422351 0.668357 0.236557
Si Si6 0.672481 0.323795 0.183691
Si Si7 0.086773 0.616284 0.267395
O O1 0.684167 0.883779 0.931991
O O2 0.903509 0.875498 0.881932
O O3 0.704766 0.000000 0.155423
O O4 0.664618 0.796799 0.225734
O O5 0.157356 0.117037 0.473052
O O6 0.127342 0.218833 0.743586
O O7 0.096394 0.000000 0.762035
O O8 0.398296 0.208868 0.242440
O O9 0.370471 0.000000 0.251399
O O10 0.731791 0.634163 0.563059
O O11 0.756359 0.625182 0.240135
O O12 0.983927 0.616259 0.221566
O O13 0.522981 0.640784 0.279620
O O14 0.500000 0.632401 0.000000
O O15 0.772701 0.330683 0.928704
O O16 0.120987 0.500000 0.275791
O O17 0.000000 0.663942 0.500000
#
# Coordination Sequence:
#
# PCOD9145335 Si02
#       7
#     4   4   4   4   4   4   4
#     4  10  19  31  55  91 132 174 221 266 315 369
#     4   9  18  32  54  88 129 172 216 266 318 371
#     4   9  18  32  53  85 124 175 231 274 309 359
#     4  11  24  41  66  95 134 172 213 263 321 388
#     4  11  22  39  62  91 127 176 218 269 311 374
#     4  12  24  40  63  99 134 173 212 263 327 378
#     4  11  26  48  75 101 125 159 209 265 322 389
#
# _framework density 26.213052000000001
#
# number of rings (size 3 to 8) (size 9 to 14) (size 15 to 20)
#    0.000    1.571    2.857    2.143    2.000    4.286 
#    0.000    2.143    0.000    8.571    0.000    0.000 
#    0.000    0.000    0.000    0.000    0.000    0.000 
#
# Total GULP energy -156624.763756 kJ/mol
# GULP energy per Si atom -5593.741563 kJ/mol
# Density = 2.615339 g / cm^3
# Si number density = 26.213052 Si / 1000 Ang^3
#
#
#
# Elastic Constant Matrix: (Units=GPa)
#
#
# Indices 1 2 3 4 5 6 
#
# 1 113.2977 2.8515 3.9988 0.0000 -8.3883 0.0000
# 2 2.8515 92.7686 -3.2207 0.0000 -1.2497 0.0000
# 3 3.9988 -3.2207 85.5970 0.0000 -21.8990 0.0000
# 4 0.0000 0.0000 0.0000 -8.3556 0.0000 -8.6467
# 5 -8.3883 -1.2497 -21.8990 0.0000 45.9910 0.0000
# 6 0.0000 0.0000 0.0000 -8.6467 0.0000 -33.0374
#
#
#
# Elastic Compliance Matrix: (Units=1/GPa)
#
#
# Indices 1 2 3 4 5 6 
#
# 1 0.008953 -0.000254 -0.000013 0.000000 0.001620 0.000000
# 2 -0.000254 0.010813 0.000549 0.000000 0.000509 0.000000
# 3 -0.000013 0.000549 0.013331 0.000000 0.006360 0.000000
# 4 0.000000 0.000000 0.000000 -0.164134 0.000000 0.042958
# 5 0.001620 0.000509 0.006360 0.000000 0.025081 0.000000
# 6 0.000000 0.000000 0.000000 0.042958 0.000000 -0.041512
#
#
# Mechanical properties :
#
#
# Convention : Reuss Voigt Hill
#
# Bulk Modulus (GPa) = 29.70824 33.21359 31.46092
# Shear Modulus (GPa) = -36.54695 20.12184 -8.21255
#
# Velocity S-wave (km/s) = -3.73799 2.77361 -1.77195
# Velocity P-wave (km/s) = 2.69668 4.79118 2.80030
#
# Compressibility (1/GPa) = 0.03366069
#
# Stress axis : x y z
#
# Youngs Moduli (GPa) = 111.69334 92.47937 75.01251
#
# Poissons Ratio (x) = 0.02348 0.00101
# Poissons Ratio (y) = 0.02835 -0.04118
# Poissons Ratio (z) = 0.00150 -0.05076
#
# Static dielectric constant tensor:
#      x y z
#    x 2.010770 0.000000 0.051770 
#    y 0.000000 2.083620 0.000000 
#    z 0.051770 0.000000 2.061380 
# 
# From -- ./inp_files/25175.got.cif
#   From: 2010.05.17/outbox.cif.g08.bks.cpg/sg10_13_cif.got.tgz:25175.got - 2010.06.03 11:33:40.
