data_PCOD9145663
_publ_section_title
;
Structure prediction by ZEFSAII (Michael W. Deem and Ramdas Pophale) SiO2 
 PCOD9145663
Probable space group: P 2/M
;
_chemical_formula_sum "Si O2"
_cell_formula_units_Z 32
_cell_length_a 5.214501
_cell_length_b 12.738653
_cell_length_c 26.913158
_cell_angle_alpha 90.000000
_cell_angle_beta 90.448812
_cell_angle_gamma 90.000000
_cell_volume 1787.671019
_symmetry_space_group_name_H-M "P 2/M"
_symmetry_group_IT_number 10
_symmetry_cell_setting 'monoclinic'
loop_
_space_group_symop_operation_xyz
x,y,z
-x,y,-z
-x,-y,-z
x,-y,z
loop_
_atom_site_type_symbol
_atom_site_label
_atom_site_fract_x
_atom_site_fract_y
_atom_site_fract_z
Si Si1 0.052347 0.624990 0.585632
Si Si2 0.481843 0.759929 0.940781
Si Si3 0.541176 0.874309 0.655290
Si Si4 0.981959 0.115407 0.940117
Si Si5 0.619411 0.375202 0.850527
Si Si6 0.444210 0.747910 0.445267
Si Si7 0.962446 0.250398 0.312921
Si Si8 0.115632 0.372592 0.789569
O O1 0.032885 0.500000 0.581171
O O2 0.325824 0.667521 0.567401
O O3 0.026414 0.664042 0.642597
O O4 0.822255 0.684277 0.556974
O O5 0.200135 0.801504 0.926851
O O6 0.561952 0.666371 0.905215
O O7 0.693622 0.848880 0.929533
O O8 0.500000 0.737169 0.000000
O O9 0.559164 0.835299 0.597919
O O10 0.280836 0.824218 0.676605
O O11 0.781909 0.819798 0.682969
O O12 0.545177 0.000000 0.658785
O O13 0.036588 0.000000 0.919670
O O14 0.000000 0.109417 0.000000
O O15 0.618073 0.500000 0.852166
O O16 0.389270 0.343302 0.813429
O O17 0.891346 0.343263 0.827968
O O18 0.500000 0.791390 0.500000
O O19 0.932526 0.312052 0.261551
O O20 0.108654 0.500000 0.782193
#
# Coordination Sequence:
#
# PCOD9145663 Si02
#       8
#     4   4   4   4   4   4   4   4
#     4  10  20  33  51  77 107 136 171 215 261 313
#     4  10  19  32  52  76 105 140 174 212 255 300
#     4  10  21  37  57  79 104 137 177 218 258 302
#     4   9  17  30  50  74  97 128 172 215 253 292
#     4  10  21  35  53  79 108 139 173 206 250 310
#     4  10  21  34  50  76 107 142 180 212 251 304
#     4  10  20  36  58  80 101 130 173 219 261 311
#     4  10  20  36  58  80 104 134 167 211 264 311
#
# _framework density 17.900386000000001
#
# number of rings (size 3 to 8) (size 9 to 14) (size 15 to 20)
#    0.000    2.125    0.000    3.375    0.000    3.500 
#    0.000    3.750    0.000   24.000    0.000    0.000 
#    0.000    0.000    0.000    0.000    0.000    0.000 
#
# Total GULP energy -178527.790324 kJ/mol
# GULP energy per Si atom -5578.993448 kJ/mol
# Density = 1.785964 g / cm^3
# Si number density = 17.900386 Si / 1000 Ang^3
#
#
#
# Elastic Constant Matrix: (Units=GPa)
#
#
# Indices 1 2 3 4 5 6 
#
# 1 82.1197 13.5872 -2.0059 0.0000 6.2683 0.0000
# 2 13.5872 44.2433 18.2313 0.0000 5.1462 0.0000
# 3 -2.0059 18.2313 59.8279 0.0000 6.1190 0.0000
# 4 0.0000 0.0000 0.0000 11.0922 0.0000 -0.8072
# 5 6.2683 5.1462 6.1190 0.0000 18.2326 0.0000
# 6 0.0000 0.0000 0.0000 -0.8072 0.0000 14.0521
#
#
#
# Elastic Compliance Matrix: (Units=1/GPa)
#
#
# Indices 1 2 3 4 5 6 
#
# 1 0.013291 -0.004535 0.002241 0.000000 -0.004041 0.000000
# 2 -0.004535 0.027811 -0.008267 0.000000 -0.003516 0.000000
# 3 0.002241 -0.008267 0.019830 0.000000 -0.005092 0.000000
# 4 0.000000 0.000000 0.000000 0.090532 0.000000 0.005201
# 5 -0.004041 -0.003516 -0.005092 0.000000 0.058938 0.000000
# 6 0.000000 0.000000 0.000000 0.005201 0.000000 0.071463
#
#
# Mechanical properties :
#
#
# Convention : Reuss Voigt Hill
#
# Bulk Modulus (GPa) = 25.12004 27.31287 26.21646
# Shear Modulus (GPa) = 15.80999 19.10058 17.45529
#
# Velocity S-wave (km/s) = 2.97513 3.27011 3.12610
# Velocity P-wave (km/s) = 5.08582 5.43595 5.26380
#
# Compressibility (1/GPa) = 0.03980885
#
# Stress axis : x y z
#
# Youngs Moduli (GPa) = 75.23936 35.95751 50.42922
#
# Poissons Ratio (x) = 0.16307 -0.11301
# Poissons Ratio (y) = 0.34121 0.41690
# Poissons Ratio (z) = -0.16860 0.29727
#
# Static dielectric constant tensor:
#      x y z
#    x 1.624620 0.000000 0.009650 
#    y 0.000000 1.583490 0.000000 
#    z 0.009650 0.000000 1.602730 
# 
# From -- ./inp_files/8088.got.cif
#   From: 2010.05.17/outbox.cif.g08.bks.cpg/sg10_5_cif.got.tgz:8088.got - 2010.06.03 11:33:40.
