data_PCOD9145593
_publ_section_title
;
Structure prediction by ZEFSAII (Michael W. Deem and Ramdas Pophale) SiO2 
 PCOD9145593
Probable space group: P 2/M
;
_chemical_formula_sum "Si O2"
_cell_formula_units_Z 26
_cell_length_a 7.062318
_cell_length_b 33.986460
_cell_length_c 5.254375
_cell_angle_alpha 90.000000
_cell_angle_beta 82.329583
_cell_angle_gamma 90.000000
_cell_volume 1249.887186
_symmetry_space_group_name_H-M "P 2/M"
_symmetry_group_IT_number 10
_symmetry_cell_setting 'monoclinic'
loop_
_space_group_symop_operation_xyz
x,y,z
-x,y,-z
-x,-y,-z
x,-y,z
loop_
_atom_site_type_symbol
_atom_site_label
_atom_site_fract_x
_atom_site_fract_y
_atom_site_fract_z
Si Si1 0.364940 0.415430 0.774737
Si Si2 0.132516 0.833207 0.725693
Si Si3 0.129858 0.252218 0.728743
Si Si4 0.267396 0.044689 0.075003
Si Si5 0.635405 0.500000 0.225765
Si Si6 0.277366 0.083648 0.573455
Si Si7 0.369540 0.330529 0.771651
O O1 0.500000 0.415736 0.500000
O O2 0.258894 0.457698 0.792766
O O3 0.261886 0.372971 0.802268
O O4 0.500000 0.415361 0.000000
O O5 0.234127 0.790367 0.702729
O O6 0.259643 0.871779 0.672915
O O7 0.000000 0.833080 0.500000
O O8 0.000000 0.836575 0.000000
O O9 0.249629 0.291375 0.750734
O O10 0.000000 0.256146 0.500000
O O11 0.000000 0.249030 0.000000
O O12 0.194637 0.056132 0.809221
O O13 0.222463 0.000000 0.155507
O O14 0.500000 0.047049 0.000000
O O15 0.200446 0.074719 0.305867
O O16 0.500000 0.500000 0.500000
O O17 0.500000 0.500000 0.000000
O O18 0.500000 0.074056 0.500000
O O19 0.500000 0.333285 0.500000
O O20 0.500000 0.326795 0.000000
#
# Coordination Sequence:
#
# PCOD9145593 Si02
#       7
#     4   4   4   4   2   4   4
#     4   8  14  23  38  62  93 123 155 197 247 293
#     4  10  21  37  54  71  98 133 163 197 245 297
#     4  10  21  37  54  73  99 136 174 202 247 316
#     4   9  17  30  50  76 103 128 156 193 235 280
#     4   8  12  20  34  56  88 124 154 188 238 296
#     4  10  19  32  53  78  98 123 163 202 234 276
#     4  10  19  32  51  77 103 128 164 216 262 291
#
# _framework density 20.801880000000001
#
# number of rings (size 3 to 8) (size 9 to 14) (size 15 to 20)
#    0.000    2.615    0.000    2.308    0.000    2.462 
#    0.000    2.308    0.000    9.231    0.000    1.077 
#    0.000    0.000    0.000    0.000    0.000    0.000 
#
# Total GULP energy -144821.705627 kJ/mol
# GULP energy per Si atom -5570.065601 kJ/mol
# Density = 2.075453 g / cm^3
# Si number density = 20.801880 Si / 1000 Ang^3
#
#
#
# Elastic Constant Matrix: (Units=GPa)
#
#
# Indices 1 2 3 4 5 6 
#
# 1 15.2325 -1.9823 18.3728 0.0000 5.0058 0.0000
# 2 -1.9823 171.2280 41.2757 0.0000 -9.4572 0.0000
# 3 18.3728 41.2757 158.9706 0.0000 14.8572 0.0000
# 4 0.0000 0.0000 0.0000 27.7190 0.0000 23.5150
# 5 5.0058 -9.4572 14.8572 0.0000 16.9602 0.0000
# 6 0.0000 0.0000 0.0000 23.5150 0.0000 -46.7591
#
#
#
# Elastic Compliance Matrix: (Units=1/GPa)
#
#
# Indices 1 2 3 4 5 6 
#
# 1 0.081232 0.002147 -0.008514 0.000000 -0.015320 0.000000
# 2 0.002147 0.006762 -0.002502 0.000000 0.005329 0.000000
# 3 -0.008514 -0.002502 0.008517 0.000000 -0.006343 0.000000
# 4 0.000000 0.000000 0.000000 0.025288 0.000000 0.012717
# 5 -0.015320 0.005329 -0.006343 0.000000 0.072011 0.000000
# 6 0.000000 0.000000 0.000000 0.012717 0.000000 -0.014991
#
#
# Mechanical properties :
#
#
# Convention : Reuss Voigt Hill
#
# Bulk Modulus (GPa) = 12.69471 51.19595 31.94533
# Shear Modulus (GPa) = 22.44005 18.76835 20.60420
#
# Velocity S-wave (km/s) = 3.28800 3.00699 3.15063
# Velocity P-wave (km/s) = 4.53106 6.05976 5.35029
#
# Compressibility (1/GPa) = 0.07877295
#
# Stress axis : x y z
#
# Youngs Moduli (GPa) = 12.31042 147.87505 117.41380
#
# Poissons Ratio (x) = -0.31743 0.99964
# Poissons Ratio (y) = -0.02643 0.29377
# Poissons Ratio (z) = 0.10481 0.36998
#
# Static dielectric constant tensor:
#      x y z
#    x 1.768260 0.000000 0.016600 
#    y 0.000000 1.844200 0.000000 
#    z 0.016600 0.000000 1.702660 
# 
# From -- ./inp_files/5420.got.cif
#   From: 2010.05.17/outbox.cif.g08.bks.cpg/sg10_3_cif.got.tgz:5420.got - 2010.06.03 11:33:40.
