data_PCOD9145539
_publ_section_title
;
Structure prediction by ZEFSAII (Michael W. Deem and Ramdas Pophale) SiO2 
 PCOD9145539
Probable space group: P 2/M
;
_chemical_formula_sum "Si O2"
_cell_formula_units_Z 24
_cell_length_a 18.813743
_cell_length_b 9.256242
_cell_length_c 24.816015
_cell_angle_alpha 90.000000
_cell_angle_beta 160.928041
_cell_angle_gamma 90.000000
_cell_volume 1412.097606
_symmetry_space_group_name_H-M "P 2/M"
_symmetry_group_IT_number 10
_symmetry_cell_setting 'monoclinic'
loop_
_space_group_symop_operation_xyz
x,y,z
-x,y,-z
-x,-y,-z
x,-y,z
loop_
_atom_site_type_symbol
_atom_site_label
_atom_site_fract_x
_atom_site_fract_y
_atom_site_fract_z
Si Si1 0.499003 0.828852 0.167969
Si Si2 0.083370 0.334591 0.497607
Si Si3 0.740286 0.165415 0.826056
Si Si4 0.667830 0.671456 0.667289
Si Si5 0.665645 0.171460 0.166198
Si Si6 0.825104 0.328871 0.994069
O O1 0.698172 0.759160 0.344138
O O2 0.553193 0.804864 0.143831
O O3 0.486522 0.000000 0.168298
O O4 0.281979 0.750029 0.031996
O O5 0.124006 0.500000 0.510409
O O6 0.000000 0.336210 0.500000
O O7 0.888796 0.260883 0.325224
O O8 0.634462 0.239140 0.698050
O O9 0.669646 0.000000 0.783237
O O10 0.717911 0.259168 0.863887
O O11 0.000000 0.163825 0.000000
O O12 0.500000 0.710078 0.500000
O O13 0.646216 0.500000 0.663339
O O14 0.915751 0.695119 0.825128
O O15 0.714675 0.000000 0.197586
O O16 0.500000 0.210056 0.000000
O O17 0.786279 0.500000 0.968075
#
# Coordination Sequence:
#
# PCOD9145539 Si02
#       6
#     4   4   4   4   4   4
#     4  10  19  32  51  73  98 128 164 206 250 295
#     4   9  17  30  49  72  96 124 161 201 240 287
#     4   9  17  30  49  72  96 124 161 201 240 287
#     4   9  18  33  52  73  99 133 168 202 246 299
#     4   9  18  33  52  73  99 133 168 202 246 299
#     4  10  19  32  51  73  98 128 164 206 250 295
#
# _framework density 16.995992000000001
#
# number of rings (size 3 to 8) (size 9 to 14) (size 15 to 20)
#    0.000    2.667    0.000    2.000    0.000    6.000 
#    0.000    1.667    0.000    4.000    0.000    0.000 
#    0.000    0.000    0.000    0.000    0.000    0.000 
#
# Total GULP energy -133800.446854 kJ/mol
# GULP energy per Si atom -5575.018619 kJ/mol
# Density = 1.695731 g / cm^3
# Si number density = 16.995992 Si / 1000 Ang^3
#
#
#
# Elastic Constant Matrix: (Units=GPa)
#
#
# Indices 1 2 3 4 5 6 
#
# 1 49.7365 49.7411 39.8271 0.0000 -8.6855 0.0000
# 2 49.7411 102.5496 59.2490 0.0000 -8.3946 0.0000
# 3 39.8271 59.2490 92.4373 0.0000 -28.9485 0.0000
# 4 0.0000 0.0000 0.0000 25.1688 0.0000 2.1654
# 5 -8.6855 -8.3946 -28.9485 0.0000 27.6851 0.0000
# 6 0.0000 0.0000 0.0000 2.1654 0.0000 27.6531
#
#
#
# Elastic Compliance Matrix: (Units=1/GPa)
#
#
# Indices 1 2 3 4 5 6 
#
# 1 0.042558 -0.015967 -0.008084 0.000000 0.000057 0.000000
# 2 -0.015967 0.022932 -0.010721 0.000000 -0.009266 0.000000
# 3 -0.008084 -0.010721 0.028787 0.000000 0.024314 0.000000
# 4 0.000000 0.000000 0.000000 0.040001 0.000000 -0.003132
# 5 0.000057 -0.009266 0.024314 0.000000 0.058753 0.000000
# 6 0.000000 0.000000 0.000000 -0.003132 0.000000 0.036408
#
#
# Mechanical properties :
#
#
# Convention : Reuss Voigt Hill
#
# Bulk Modulus (GPa) = 40.43182 60.26197 50.34690
# Shear Modulus (GPa) = 16.27465 22.49513 19.38489
#
# Velocity S-wave (km/s) = 3.09780 3.64202 3.38088
# Velocity P-wave (km/s) = 6.05275 7.29515 6.70280
#
# Compressibility (1/GPa) = 0.02473299
#
# Stress axis : x y z
#
# Youngs Moduli (GPa) = 23.49731 43.60806 34.73769
#
# Poissons Ratio (x) = 0.69630 0.28083
# Poissons Ratio (y) = 0.37518 0.37241
# Poissons Ratio (z) = 0.18996 0.46750
#
# Static dielectric constant tensor:
#      x y z
#    x 1.574770 0.000000 0.012160 
#    y 0.000000 1.571040 0.000000 
#    z 0.012160 0.000000 1.560760 
# 
# From -- ./inp_files/31210.got.cif
#   From: 2010.05.17/outbox.cif.g08.bks.cpg/sg10_16_cif.got.tgz:31210.got - 2010.06.03 11:33:40.
