data_PCOD9145056
_publ_section_title
;
Structure prediction by ZEFSAII (Michael W. Deem and Ramdas Pophale) SiO2 
 PCOD9145056
Probable space group: P 2/M
;
_chemical_formula_sum "Si O2"
_cell_formula_units_Z 32
_cell_length_a 12.732913
_cell_length_b 7.338621
_cell_length_c 29.820752
_cell_angle_alpha 90.000000
_cell_angle_beta 30.960945
_cell_angle_gamma 90.000000
_cell_volume 1433.531029
_symmetry_space_group_name_H-M "P 2/M"
_symmetry_group_IT_number 10
_symmetry_cell_setting 'monoclinic'
loop_
_space_group_symop_operation_xyz
x,y,z
-x,y,-z
-x,-y,-z
x,-y,z
loop_
_atom_site_type_symbol
_atom_site_label
_atom_site_fract_x
_atom_site_fract_y
_atom_site_fract_z
Si Si1 0.710739 0.290259 0.402168
Si Si2 0.711189 0.777707 0.663056
Si Si3 0.893995 0.220068 0.426635
Si Si4 0.714108 0.222760 0.942273
Si Si5 0.850887 0.778629 0.989644
Si Si6 0.576671 0.222799 0.616064
Si Si7 0.711781 0.221807 0.138370
Si Si8 0.856373 0.208085 0.250919
O O1 0.500000 0.211105 0.500000
O O2 0.668856 0.500000 0.406254
O O3 0.871107 0.280607 0.384031
O O4 0.797097 0.206512 0.325069
O O5 0.698836 0.722650 0.615692
O O6 0.500702 0.719252 0.763095
O O7 0.906156 0.717810 0.619905
O O8 0.716633 0.000000 0.661110
O O9 0.697256 0.278783 0.527462
O O10 0.896133 0.000000 0.425332
O O11 0.745968 0.278934 0.982207
O O12 0.919144 0.283491 0.840993
O O13 0.707933 0.000000 0.943180
O O14 0.500000 0.284925 0.000000
O O15 0.087721 0.722478 0.907269
O O16 0.849828 0.000000 0.989981
O O17 0.743383 0.721820 0.075231
O O18 0.343043 0.287561 0.700578
O O19 0.571681 0.000000 0.617482
O O20 0.710919 0.000000 0.139147
O O21 0.867742 0.000000 0.230215
#
# Coordination Sequence:
#
# PCOD9145056 Si02
#       8
#     4   4   4   4   4   4   4   4
#     4  11  23  38  54  71  97 132 171 215 256 298
#     4   9  16  25  41  70 102 128 159 198 245 293
#     4  10  19  31  50  74 100 130 163 205 250 297
#     4   9  17  27  41  67 102 132 160 200 247 291
#     4   8  13  22  35  53  86 128 162 190 231 285
#     4   9  16  27  45  70 101 131 163 202 245 295
#     4   8  13  21  35  56  86 126 161 190 229 286
#     4  10  19  32  54  78 100 133 172 210 251 295
#
# _framework density 22.322503999999999
#
# number of rings (size 3 to 8) (size 9 to 14) (size 15 to 20)
#    0.000    2.750    1.250    2.250    0.000    6.000 
#    0.000    3.750    0.000    2.625    0.000    0.000 
#    0.000    0.000    0.000    6.500    0.000    6.250 
#
# Total GULP energy -178740.779995 kJ/mol
# GULP energy per Si atom -5585.649375 kJ/mol
# Density = 2.227170 g / cm^3
# Si number density = 22.322504 Si / 1000 Ang^3
#
#
#
# Elastic Constant Matrix: (Units=GPa)
#
#
# Indices 1 2 3 4 5 6 
#
# 1 160.4322 -6.5535 28.8839 0.0000 -18.2322 0.0000
# 2 -6.5535 85.2399 -3.5805 0.0000 -4.0066 0.0000
# 3 28.8839 -3.5805 41.7377 0.0000 -13.7228 0.0000
# 4 0.0000 0.0000 0.0000 -16.6225 0.0000 -4.2747
# 5 -18.2322 -4.0066 -13.7228 0.0000 29.1466 0.0000
# 6 0.0000 0.0000 0.0000 -4.2747 0.0000 25.7686
#
#
#
# Elastic Compliance Matrix: (Units=1/GPa)
#
#
# Indices 1 2 3 4 5 6 
#
# 1 0.007303 0.000515 -0.004123 0.000000 0.002698 0.000000
# 2 0.000515 0.011964 0.001558 0.000000 0.002700 0.000000
# 3 -0.004123 0.001558 0.030961 0.000000 0.012212 0.000000
# 4 0.000000 0.000000 0.000000 -0.057698 0.000000 -0.009571
# 5 0.002698 0.002700 0.012212 0.000000 0.042118 0.000000
# 6 0.000000 0.000000 0.000000 -0.009571 0.000000 0.037219
#
#
# Mechanical properties :
#
#
# Convention : Reuss Voigt Hill
#
# Bulk Modulus (GPa) = 21.67891 36.10106 28.88999
# Shear Modulus (GPa) = 54.73884 25.56919 40.15402
#
# Velocity S-wave (km/s) = 4.95732 3.38811 4.24584
# Velocity P-wave (km/s) = 6.51916 5.61368 6.08329
#
# Compressibility (1/GPa) = 0.04612779
#
# Stress axis : x y z
#
# Youngs Moduli (GPa) = 136.92879 83.58722 32.29863
#
# Poissons Ratio (x) = -0.04306 0.13316
# Poissons Ratio (y) = -0.07054 -0.05031
# Poissons Ratio (z) = 0.56451 -0.13020
#
# Static dielectric constant tensor:
#      x y z
#    x 1.784200 0.000000 -0.009070 
#    y 0.000000 1.909300 0.000000 
#    z -0.009070 0.000000 1.790830 
# 
# From -- ./inp_files/49969.got.cif
#   From: 2010.05.17/outbox.cif.g08.bks.cpg/sg10_25_cif.got.tgz:49969.got - 2010.06.03 11:33:40.
