data_PCOD9145691
_publ_section_title
;
Structure prediction by ZEFSAII (Michael W. Deem and Ramdas Pophale) SiO2 
 PCOD9145691
Probable space group: P 2/M
;
_chemical_formula_sum "Si O2"
_cell_formula_units_Z 32
_cell_length_a 14.983286
_cell_length_b 7.505915
_cell_length_c 25.259584
_cell_angle_alpha 90.000000
_cell_angle_beta 148.229409
_cell_angle_gamma 90.000000
_cell_volume 1495.723638
_symmetry_space_group_name_H-M "P 2/M"
_symmetry_group_IT_number 10
_symmetry_cell_setting 'monoclinic'
loop_
_space_group_symop_operation_xyz
x,y,z
-x,y,-z
-x,-y,-z
x,-y,z
loop_
_atom_site_type_symbol
_atom_site_label
_atom_site_fract_x
_atom_site_fract_y
_atom_site_fract_z
Si Si1 0.181727 0.799528 0.602118
Si Si2 0.757491 0.703005 0.250700
Si Si3 0.552840 0.781606 0.777608
Si Si4 0.049996 0.785418 0.315606
Si Si5 0.571441 0.217360 0.478442
Si Si6 0.383691 0.214369 0.070557
Si Si7 0.031599 0.218121 0.844548
Si Si8 0.707770 0.217512 0.747339
O O1 0.207011 0.811015 0.678011
O O2 0.358408 0.721251 0.670564
O O3 0.000000 0.712698 0.500000
O O4 0.171447 0.000000 0.573705
O O5 0.770085 0.500000 0.274315
O O6 0.564114 0.737133 0.135982
O O7 0.895580 0.737036 0.275715
O O8 0.610212 0.724560 0.865040
O O9 0.669970 0.726066 0.788125
O O10 0.548579 0.000000 0.776370
O O11 0.234019 0.723496 0.428479
O O12 0.016401 0.723830 0.238766
O O13 0.057792 0.000000 0.317854
O O14 0.500000 0.269834 0.500000
O O15 0.444558 0.274668 0.368276
O O16 0.570643 0.000000 0.477237
O O17 0.375762 0.000000 0.067649
O O18 0.217123 0.278020 0.956376
O O19 0.885611 0.273691 0.811821
O O20 0.032053 0.000000 0.844303
O O21 0.708002 0.000000 0.747404
#
# Coordination Sequence:
#
# PCOD9145691 Si02
#       8
#     4   4   4   4   4   4   4   4
#     4   9  18  33  54  80 107 136 173 213 255 304
#     4  11  23  37  52  73 103 139 177 218 261 306
#     4   8  15  26  43  71 106 134 159 198 252 309
#     4  10  19  32  52  78 104 135 173 214 260 311
#     4   9  15  25  44  73 108 135 160 205 260 309
#     4   9  18  35  53  72 101 135 171 217 267 311
#     4   9  17  29  49  76 104 132 168 216 266 311
#     4   9  15  24  42  76 110 131 160 204 257 314
#
# _framework density 21.394326
#
# number of rings (size 3 to 8) (size 9 to 14) (size 15 to 20)
#    0.000    2.750    1.250    1.875    1.750    1.250 
#    0.000    5.625    0.000    0.375    0.000   10.500 
#    0.000    0.000    0.000    0.000    0.000    0.000 
#
# Total GULP energy -178619.663113 kJ/mol
# GULP energy per Si atom -5581.864472 kJ/mol
# Density = 2.134563 g / cm^3
# Si number density = 21.394326 Si / 1000 Ang^3
#
#
#
# Elastic Constant Matrix: (Units=GPa)
#
#
# Indices 1 2 3 4 5 6 
#
# 1 123.2335 -4.7524 27.9842 0.0000 37.2766 0.0000
# 2 -4.7524 61.7766 2.6344 0.0000 0.7521 0.0000
# 3 27.9842 2.6344 113.1163 0.0000 42.5693 0.0000
# 4 0.0000 0.0000 0.0000 24.6569 0.0000 5.4561
# 5 37.2766 0.7521 42.5693 0.0000 27.5957 0.0000
# 6 0.0000 0.0000 0.0000 5.4561 0.0000 -43.7821
#
#
#
# Elastic Compliance Matrix: (Units=1/GPa)
#
#
# Indices 1 2 3 4 5 6 
#
# 1 0.018473 0.001452 0.011447 0.000000 -0.042651 0.000000
# 2 0.001452 0.016319 0.000396 0.000000 -0.003018 0.000000
# 3 0.011447 0.000396 0.028185 0.000000 -0.058952 0.000000
# 4 0.000000 0.000000 0.000000 0.039468 0.000000 0.004918
# 5 -0.042651 -0.003018 -0.058952 0.000000 0.184873 0.000000
# 6 0.000000 0.000000 0.000000 0.004918 0.000000 -0.022227
#
#
# Mechanical properties :
#
#
# Convention : Reuss Voigt Hill
#
# Bulk Modulus (GPa) = 11.16468 38.87318 25.01893
# Shear Modulus (GPa) = 18.63209 19.84479 19.23844
#
# Velocity S-wave (km/s) = 2.95428 3.04891 3.00197
# Velocity P-wave (km/s) = 4.10694 5.53207 4.87189
#
# Compressibility (1/GPa) = 0.08956813
#
# Stress axis : x y z
#
# Youngs Moduli (GPa) = 54.13404 61.27860 35.48021
#
# Poissons Ratio (x) = -0.08899 -0.40615
# Poissons Ratio (y) = -0.07862 -0.01407
# Poissons Ratio (z) = -0.61968 -0.02430
#
# Static dielectric constant tensor:
#      x y z
#    x 1.737350 0.000000 0.015580 
#    y 0.000000 1.829680 0.000000 
#    z 0.015580 0.000000 1.753370 
# 
# From -- ./inp_files/66467.got.cif
#   From: 2010.05.17/outbox.cif.g08.bks.cpg/sg10_34_cif.got.tgz:66467.got - 2010.06.03 11:33:40.
