data_PCOD9145623
_publ_section_title
;
Structure prediction by ZEFSAII (Michael W. Deem and Ramdas Pophale) SiO2 
 PCOD9145623
Probable space group: P 2/M
;
_chemical_formula_sum "Si O2"
_cell_formula_units_Z 28
_cell_length_a 30.590712
_cell_length_b 7.555394
_cell_length_c 9.369523
_cell_angle_alpha 90.000000
_cell_angle_beta 141.256917
_cell_angle_gamma 90.000000
_cell_volume 1355.252095
_symmetry_space_group_name_H-M "P 2/M"
_symmetry_group_IT_number 10
_symmetry_cell_setting 'monoclinic'
loop_
_space_group_symop_operation_xyz
x,y,z
-x,y,-z
-x,-y,-z
x,-y,z
loop_
_atom_site_type_symbol
_atom_site_label
_atom_site_fract_x
_atom_site_fract_y
_atom_site_fract_z
Si Si1 0.511404 0.296649 0.873120
Si Si2 0.931948 0.216390 0.410745
Si Si3 0.219946 0.788083 0.639459
Si Si4 0.372513 0.705234 0.042191
Si Si5 0.068211 0.216323 0.257430
Si Si6 0.370926 0.204449 0.367941
Si Si7 0.780561 0.213893 0.022336
O O1 0.534633 0.500000 0.956962
O O2 0.570445 0.217296 0.920401
O O3 0.438112 0.296085 0.604148
O O4 0.500000 0.215191 0.000000
O O5 0.936943 0.266788 0.589595
O O6 0.855972 0.274254 0.158143
O O7 0.000000 0.277181 0.500000
O O8 0.931587 0.000000 0.405872
O O9 0.144209 0.727214 0.391241
O O10 0.217498 0.749122 0.803022
O O11 0.223324 0.000000 0.631606
O O12 0.294316 0.716140 0.779115
O O13 0.389929 0.500000 0.112971
O O14 0.372936 0.790508 0.200313
O O15 0.068721 0.000000 0.255142
O O16 0.000000 0.276884 0.000000
O O17 0.374840 0.000000 0.422526
O O18 0.295013 0.278919 0.221153
O O19 0.778510 0.000000 0.002553
#
# Coordination Sequence:
#
# PCOD9145623 Si02
#       7
#     4   4   4   4   4   4   4
#     4  10  22  38  51  66  94 128 157 188 230 281
#     4   8  12  19  33  53  80 113 143 171 208 257
#     4   8  14  26  44  65  91 119 147 187 234 273
#     4  10  19  32  52  73  91 118 159 199 232 274
#     4   8  13  22  37  58  84 114 146 180 223 270
#     4  10  19  32  52  75  97 120 151 195 239 278
#     4   7  12  23  38  59  87 115 141 175 222 266
#
# _framework density 20.660361000000002
#
# number of rings (size 3 to 8) (size 9 to 14) (size 15 to 20)
#    0.000    3.286    0.000    3.857    0.000    3.143 
#    0.000    1.429    0.000    3.857    0.000    0.000 
#    0.000   57.143    0.000    0.000    0.000    0.000 
#
# Total GULP energy -155936.780395 kJ/mol
# GULP energy per Si atom -5569.170728 kJ/mol
# Density = 2.061334 g / cm^3
# Si number density = 20.660361 Si / 1000 Ang^3
#
#
#
# Elastic Constant Matrix: (Units=GPa)
#
#
# Indices 1 2 3 4 5 6 
#
# 1 128.8413 -4.1579 73.9656 0.0000 46.2348 0.0000
# 2 -4.1579 43.6964 -4.9462 0.0000 2.5284 0.0000
# 3 73.9656 -4.9462 123.4483 0.0000 40.1590 0.0000
# 4 0.0000 0.0000 0.0000 40.6012 0.0000 18.2935
# 5 46.2348 2.5284 40.1590 0.0000 33.8528 0.0000
# 6 0.0000 0.0000 0.0000 18.2935 0.0000 14.8538
#
#
#
# Elastic Compliance Matrix: (Units=1/GPa)
#
#
# Indices 1 2 3 4 5 6 
#
# 1 0.016629 0.002185 -0.003965 0.000000 -0.018171 0.000000
# 2 0.002185 0.023720 0.001935 0.000000 -0.007051 0.000000
# 3 -0.003965 0.001935 0.014394 0.000000 -0.011805 0.000000
# 4 0.000000 0.000000 0.000000 0.055336 0.000000 -0.068150
# 5 -0.018171 -0.007051 -0.011805 0.000000 0.068887 0.000000
# 6 0.000000 0.000000 0.000000 -0.068150 0.000000 0.151255
#
#
# Mechanical properties :
#
#
# Convention : Reuss Voigt Hill
#
# Bulk Modulus (GPa) = 18.16417 47.30100 32.73259
# Shear Modulus (GPa) = 14.35705 33.26986 23.81346
#
# Velocity S-wave (km/s) = 2.63897 4.01724 3.39870
# Velocity P-wave (km/s) = 4.25399 6.66797 5.59278
#
# Compressibility (1/GPa) = 0.05505343
#
# Stress axis : x y z
#
# Youngs Moduli (GPa) = 60.13762 42.15831 69.47427
#
# Poissons Ratio (x) = -0.09211 0.27543
# Poissons Ratio (y) = -0.13139 -0.13444
# Poissons Ratio (z) = 0.23842 -0.08158
#
# Static dielectric constant tensor:
#      x y z
#    x 1.760700 0.000000 0.044520 
#    y 0.000000 1.774390 0.000000 
#    z 0.044520 0.000000 1.741210 
# 
# From -- ./inp_files/38046.got.cif
#   From: 2010.05.17/outbox.cif.g08.bks.cpg/sg10_20_cif.got.tgz:38046.got - 2010.06.03 11:33:40.
