data_PCOD9145264
_publ_section_title
;
Structure prediction by ZEFSAII (Michael W. Deem and Ramdas Pophale) SiO2 
 PCOD9145264
Probable space group: P 2/M
;
_chemical_formula_sum "Si O2"
_cell_formula_units_Z 28
_cell_length_a 13.967787
_cell_length_b 14.022207
_cell_length_c 7.789065
_cell_angle_alpha 90.000000
_cell_angle_beta 77.097529
_cell_angle_gamma 90.000000
_cell_volume 1487.042041
_symmetry_space_group_name_H-M "P 2/M"
_symmetry_group_IT_number 10
_symmetry_cell_setting 'monoclinic'
loop_
_space_group_symop_operation_xyz
x,y,z
-x,y,-z
-x,-y,-z
x,-y,z
loop_
_atom_site_type_symbol
_atom_site_label
_atom_site_fract_x
_atom_site_fract_y
_atom_site_fract_z
Si Si1 0.909821 0.262380 0.442783
Si Si2 0.261675 0.896317 0.892412
Si Si3 0.233887 0.112903 0.304193
Si Si4 0.384350 0.723497 0.248993
Si Si5 0.382790 0.290424 0.847918
Si Si6 0.944169 0.899293 0.200586
Si Si7 0.270412 0.612410 0.590153
O O1 0.845545 0.183347 0.575574
O O2 0.968608 0.194812 0.289744
O O3 0.833037 0.331951 0.382512
O O4 0.000000 0.314873 0.500000
O O5 0.334974 0.811726 0.826997
O O6 0.171082 0.894276 0.798489
O O7 0.310094 0.000000 0.862842
O O8 0.220164 0.886983 0.103091
O O9 0.336896 0.170488 0.290749
O O10 0.232934 0.000000 0.357541
O O11 0.500937 0.717273 0.227527
O O12 0.332674 0.654840 0.406180
O O13 0.364892 0.692928 0.058546
O O14 0.328644 0.362623 0.741776
O O15 0.965825 0.000000 0.282928
O O16 0.000000 0.901193 0.000000
O O17 0.257472 0.500000 0.579455
#
# Coordination Sequence:
#
# PCOD9145264 Si02
#       7
#     4   4   4   4   4   4   4
#     4  11  22  37  57  80 109 149 189 240 287 336
#     4   9  17  31  52  80 116 153 187 223 267 330
#     4   9  18  33  54  84 119 154 188 223 271 333
#     4   9  21  36  60  90 117 150 189 234 279 339
#     4  10  19  38  60  86 119 152 189 230 286 341
#     4  10  19  31  52  82 112 146 184 222 268 331
#     4  11  24  42  62  82 110 147 192 247 300 345
#
# _framework density 18.829326999999999
#
# number of rings (size 3 to 8) (size 9 to 14) (size 15 to 20)
#    0.000    2.143    1.429    1.714    0.000    4.857 
#    0.000    4.286    0.000    3.000    0.000    0.000 
#    0.000    0.000    0.000    0.000    0.000    0.000 
#
# Total GULP energy -156084.757236 kJ/mol
# GULP energy per Si atom -5574.455616 kJ/mol
# Density = 1.878647 g / cm^3
# Si number density = 18.829327 Si / 1000 Ang^3
#
#
#
# Elastic Constant Matrix: (Units=GPa)
#
#
# Indices 1 2 3 4 5 6 
#
# 1 106.7980 36.5667 26.5409 0.0000 9.2351 0.0000
# 2 36.5667 111.3547 27.3130 0.0000 4.9615 0.0000
# 3 26.5409 27.3130 41.1028 0.0000 -3.4263 0.0000
# 4 0.0000 0.0000 0.0000 19.9265 0.0000 8.0397
# 5 9.2351 4.9615 -3.4263 0.0000 19.9204 0.0000
# 6 0.0000 0.0000 0.0000 8.0397 0.0000 -34.9428
#
#
#
# Elastic Compliance Matrix: (Units=1/GPa)
#
#
# Indices 1 2 3 4 5 6 
#
# 1 0.012408 -0.002016 -0.007213 0.000000 -0.006491 0.000000
# 2 -0.002016 0.011373 -0.006507 0.000000 -0.003017 0.000000
# 3 -0.007213 -0.006507 0.034215 0.000000 0.010850 0.000000
# 4 0.000000 0.000000 0.000000 0.045922 0.000000 0.010566
# 5 -0.006491 -0.003017 0.010850 0.000000 0.055827 0.000000
# 6 0.000000 0.000000 0.000000 0.010566 0.000000 -0.026187
#
#
# Mechanical properties :
#
#
# Convention : Reuss Voigt Hill
#
# Bulk Modulus (GPa) = 37.70283 48.89963 43.30123
# Shear Modulus (GPa) = 28.75706 12.23649 20.49677
#
# Velocity S-wave (km/s) = 3.91224 2.55201 3.30291
# Velocity P-wave (km/s) = 6.36195 5.89152 6.13125
#
# Compressibility (1/GPa) = 0.02652321
#
# Stress axis : x y z
#
# Youngs Moduli (GPa) = 80.59572 87.92932 29.22661
#
# Poissons Ratio (x) = 0.17726 0.21082
# Poissons Ratio (y) = 0.16248 0.19018
# Poissons Ratio (z) = 0.58136 0.57216
#
# Static dielectric constant tensor:
#      x y z
#    x 1.684390 0.000000 0.020280 
#    y 0.000000 1.635810 0.000000 
#    z 0.020280 0.000000 1.698540 
# 
# From -- ./inp_files/28208.got.cif
#   From: 2010.05.17/outbox.cif.g08.bks.cpg/sg10_15_cif.got.tgz:28208.got - 2010.06.03 11:33:40.
