data_PCOD9145647
_publ_section_title
;
Structure prediction by ZEFSAII (Michael W. Deem and Ramdas Pophale) SiO2 
 PCOD9145647
Probable space group: P 2/M
;
_chemical_formula_sum "Si O2"
_cell_formula_units_Z 24
_cell_length_a 17.086004
_cell_length_b 7.514314
_cell_length_c 23.537087
_cell_angle_alpha 90.000000
_cell_angle_beta 156.820849
_cell_angle_gamma 90.000000
_cell_volume 1189.449034
_symmetry_space_group_name_H-M "P 2/M"
_symmetry_group_IT_number 10
_symmetry_cell_setting 'monoclinic'
loop_
_space_group_symop_operation_xyz
x,y,z
-x,y,-z
-x,-y,-z
x,-y,z
loop_
_atom_site_type_symbol
_atom_site_label
_atom_site_fract_x
_atom_site_fract_y
_atom_site_fract_z
Si Si1 0.556941 0.710533 0.789124
Si Si2 0.526736 0.786930 0.954107
Si Si3 0.225564 0.285822 0.652995
Si Si4 0.714592 0.793303 0.656414
Si Si5 0.782691 0.716211 0.832189
Si Si6 0.860665 0.215677 0.091659
O O1 0.524004 0.500000 0.760343
O O2 0.366876 0.783564 0.696359
O O3 0.620307 0.779353 0.769867
O O4 0.743683 0.733779 0.956181
O O5 0.340085 0.752343 0.788181
O O6 0.548136 0.000000 0.972374
O O7 0.500000 0.717110 0.000000
O O8 0.722501 0.720761 0.051304
O O9 0.218912 0.500000 0.643257
O O10 0.000000 0.219326 0.500000
O O11 0.500000 0.711693 0.500000
O O12 0.748084 0.784654 0.746136
O O13 0.913675 0.717438 0.760339
O O14 0.705794 0.000000 0.632283
O O15 0.778317 0.500000 0.827119
O O16 0.000000 0.768014 0.000000
O O17 0.865095 0.000000 0.095986
#
# Coordination Sequence:
#
# PCOD9145647 Si02
#       6
#     4   4   4   4   4   4
#     4   9  17  31  51  73  97 125 160 199 238 282
#     4   9  18  33  52  73  96 126 164 202 239 283
#     4   9  18  33  52  73 100 129 157 196 244 289
#     4  10  21  35  49  70 101 132 161 197 242 287
#     4  10  19  32  52  75  97 124 162 202 238 284
#     4   9  17  31  51  70  94 128 164 198 236 284
#
# _framework density 20.177410999999999
#
# number of rings (size 3 to 8) (size 9 to 14) (size 15 to 20)
#    0.000    2.667    1.667    0.000    0.000    2.000 
#    3.000    0.000    0.000    0.000    0.000    0.000 
#    0.000    0.000    0.000    0.000    0.000    0.000 
#
# Total GULP energy -133869.846315 kJ/mol
# GULP energy per Si atom -5577.910263 kJ/mol
# Density = 2.013149 g / cm^3
# Si number density = 20.177411 Si / 1000 Ang^3
#
#
#
# Elastic Constant Matrix: (Units=GPa)
#
#
# Indices 1 2 3 4 5 6 
#
# 1 145.7713 0.5989 79.2755 0.0000 21.3354 0.0000
# 2 0.5989 49.9027 -7.1545 0.0000 2.8513 0.0000
# 3 79.2755 -7.1545 144.4867 0.0000 32.6811 0.0000
# 4 0.0000 0.0000 0.0000 18.3397 0.0000 -1.9183
# 5 21.3354 2.8513 32.6811 0.0000 28.4999 0.0000
# 6 0.0000 0.0000 0.0000 -1.9183 0.0000 18.7523
#
#
#
# Elastic Compliance Matrix: (Units=1/GPa)
#
#
# Indices 1 2 3 4 5 6 
#
# 1 0.009859 -0.000772 -0.005125 0.000000 -0.001427 0.000000
# 2 -0.000772 0.020636 0.002405 0.000000 -0.004245 0.000000
# 3 -0.005125 0.002405 0.012204 0.000000 -0.010399 0.000000
# 4 0.000000 0.000000 0.000000 0.055116 0.000000 0.005638
# 5 -0.001427 -0.004245 -0.010399 0.000000 0.048505 0.000000
# 6 0.000000 0.000000 0.000000 0.005638 0.000000 0.053903
#
#
# Mechanical properties :
#
#
# Convention : Reuss Voigt Hill
#
# Bulk Modulus (GPa) = 27.99816 53.95561 40.97689
# Shear Modulus (GPa) = 22.81948 30.94778 26.88363
#
# Velocity S-wave (km/s) = 3.36660 3.92060 3.65411
# Velocity P-wave (km/s) = 5.38684 6.87703 6.17704
#
# Compressibility (1/GPa) = 0.03571664
#
# Stress axis : x y z
#
# Youngs Moduli (GPa) = 101.42850 48.45975 81.93977
#
# Poissons Ratio (x) = 0.03739 0.41994
# Poissons Ratio (y) = 0.07826 -0.19709
# Poissons Ratio (z) = 0.51981 -0.11656
#
# Static dielectric constant tensor:
#      x y z
#    x 1.729380 0.000000 0.047320 
#    y 0.000000 1.742540 0.000000 
#    z 0.047320 0.000000 1.689480 
# 
# From -- ./inp_files/33778.got.cif
#   From: 2010.05.17/outbox.cif.g08.bks.cpg/sg10_17_cif.got.tgz:33778.got - 2010.06.03 11:33:40.
