data_PCOD9145822
_publ_section_title
;
Structure prediction by ZEFSAII (Michael W. Deem and Ramdas Pophale) SiO2 
 PCOD9145822
Probable space group: P 2/M
;
_chemical_formula_sum "Si O2"
_cell_formula_units_Z 26
_cell_length_a 5.368877
_cell_length_b 25.527970
_cell_length_c 9.545574
_cell_angle_alpha 90.000000
_cell_angle_beta 121.697863
_cell_angle_gamma 90.000000
_cell_volume 1113.127571
_symmetry_space_group_name_H-M "P 2/M"
_symmetry_group_IT_number 10
_symmetry_cell_setting 'monoclinic'
loop_
_space_group_symop_operation_xyz
x,y,z
-x,y,-z
-x,-y,-z
x,-y,z
loop_
_atom_site_type_symbol
_atom_site_label
_atom_site_fract_x
_atom_site_fract_y
_atom_site_fract_z
Si Si1 0.345525 0.560110 0.300243
Si Si2 0.215834 0.812429 0.463561
Si Si3 0.157392 0.174051 0.904234
Si Si4 0.342251 0.076249 0.596825
Si Si5 0.351380 0.000000 0.106550
Si Si6 0.157460 0.300289 0.901669
Si Si7 0.145433 0.612526 0.694887
O O1 0.500000 0.564506 0.500000
O O2 0.374730 0.500000 0.263429
O O3 0.519401 0.596998 0.242000
O O4 0.011312 0.574733 0.238136
O O5 0.500000 0.781449 0.500000
O O6 0.342217 0.860521 0.593055
O O7 0.000000 0.781598 0.500000
O O8 0.036975 0.840716 0.286904
O O9 0.133384 0.237467 0.887041
O O10 0.500000 0.159837 0.000000
O O11 0.000000 0.156750 0.000000
O O12 0.500000 0.059829 0.500000
O O13 0.522023 0.050131 0.773559
O O14 0.000000 0.060754 0.500000
O O15 0.500000 0.000000 0.000000
O O16 0.000000 0.000000 0.000000
O O17 0.059254 0.331203 0.734968
O O18 0.500000 0.312760 0.000000
O O19 0.000000 0.315672 0.000000
O O20 0.000000 0.606919 0.500000
#
# Coordination Sequence:
#
# PCOD9145822 Si02
#       7
#     4   4   4   4   2   4   4
#     4   9  17  30  50  76 106 138 177 228 279 325
#     4  10  21  39  61  89 121 158 193 240 302 351
#     4  10  21  39  61  86 113 150 198 239 286 356
#     4  10  21  41  63  87 123 163 199 244 302 351
#     4  12  24  40  64  94 124 162 210 254 292 350
#     4  10  21  37  56  78 111 147 177 225 291 344
#     4  10  19  32  53  80 103 134 184 230 270 331
#
# _framework density 23.357610000000001
#
# number of rings (size 3 to 8) (size 9 to 14) (size 15 to 20)
#    0.000    2.000    0.000    3.692    0.000    2.462 
#    0.000   20.769    0.000    9.231    0.000    0.000 
#    0.000    0.000    0.000    0.000    0.000    0.000 
#
# Total GULP energy -145150.768230 kJ/mol
# GULP energy per Si atom -5582.721855 kJ/mol
# Density = 2.330445 g / cm^3
# Si number density = 23.357610 Si / 1000 Ang^3
#
#
#
# Elastic Constant Matrix: (Units=GPa)
#
#
# Indices 1 2 3 4 5 6 
#
# 1 247.1456 29.7174 67.8572 0.0000 -15.3283 0.0000
# 2 29.7174 42.4468 11.6144 0.0000 -10.8290 0.0000
# 3 67.8572 11.6144 76.5701 0.0000 -8.6955 0.0000
# 4 0.0000 0.0000 0.0000 24.1007 0.0000 -28.3104
# 5 -15.3283 -10.8290 -8.6955 0.0000 42.4502 0.0000
# 6 0.0000 0.0000 0.0000 -28.3104 0.0000 91.7873
#
#
#
# Elastic Compliance Matrix: (Units=1/GPa)
#
#
# Indices 1 2 3 4 5 6 
#
# 1 0.005634 -0.002586 -0.004550 0.000000 0.000442 0.000000
# 2 -0.002586 0.027159 -0.001174 0.000000 0.005754 0.000000
# 3 -0.004550 -0.001174 0.017456 0.000000 0.001633 0.000000
# 4 0.000000 0.000000 0.000000 0.065067 0.000000 0.020069
# 5 0.000442 0.005754 0.001633 0.000000 0.025519 0.000000
# 6 0.000000 0.000000 0.000000 0.020069 0.000000 0.017085
#
#
# Mechanical properties :
#
#
# Convention : Reuss Voigt Hill
#
# Bulk Modulus (GPa) = 29.73775 64.94895 47.34335
# Shear Modulus (GPa) = 26.91784 48.79920 37.85852
#
# Velocity S-wave (km/s) = 3.39842 4.57576 4.03031
# Velocity P-wave (km/s) = 5.30642 7.46883 6.47849
#
# Compressibility (1/GPa) = 0.03362730
#
# Stress axis : x y z
#
# Youngs Moduli (GPa) = 177.49382 36.82039 57.28682
#
# Poissons Ratio (x) = 0.09523 0.26067
# Poissons Ratio (y) = 0.45908 0.06726
# Poissons Ratio (z) = 0.80766 0.04323
#
# Static dielectric constant tensor:
#      x y z
#    x 1.940550 0.000000 0.008870 
#    y 0.000000 1.897450 0.000000 
#    z 0.008870 0.000000 1.926580 
# 
# From -- ./inp_files/15851.got.cif
#   From: 2010.05.17/outbox.cif.g08.bks.cpg/sg10_8_cif.got.tgz:15851.got - 2010.06.03 11:33:40.
