data_PCOD9145157
_publ_section_title
;
Structure prediction by ZEFSAII (Michael W. Deem and Ramdas Pophale) SiO2 
 PCOD9145157
Probable space group: P 2/M
;
_chemical_formula_sum "Si O2"
_cell_formula_units_Z 32
_cell_length_a 14.690074
_cell_length_b 7.438175
_cell_length_c 25.423630
_cell_angle_alpha 90.000000
_cell_angle_beta 149.976406
_cell_angle_gamma 90.000000
_cell_volume 1389.976798
_symmetry_space_group_name_H-M "P 2/M"
_symmetry_group_IT_number 10
_symmetry_cell_setting 'monoclinic'
loop_
_space_group_symop_operation_xyz
x,y,z
-x,y,-z
-x,-y,-z
x,-y,z
loop_
_atom_site_type_symbol
_atom_site_label
_atom_site_fract_x
_atom_site_fract_y
_atom_site_fract_z
Si Si1 0.913866 0.783263 0.186662
Si Si2 0.435516 0.780296 0.526543
Si Si3 0.801958 0.784339 0.754393
Si Si4 0.463781 0.295463 0.037694
Si Si5 0.866355 0.710904 0.389090
Si Si6 0.029799 0.217102 0.356408
Si Si7 0.083655 0.712003 0.988394
Si Si8 0.511597 0.721553 0.836146
O O1 0.754788 0.702864 0.071731
O O2 0.101357 0.734512 0.252202
O O3 0.911453 0.726263 0.246205
O O4 0.898042 0.000000 0.176944
O O5 0.500000 0.725950 0.500000
O O6 0.594083 0.722896 0.646427
O O7 0.235977 0.723242 0.445951
O O8 0.429713 0.000000 0.522260
O O9 0.797120 0.000000 0.753972
O O10 0.935157 0.729417 0.867960
O O11 0.532311 0.500000 0.069204
O O12 0.500000 0.204112 0.000000
O O13 0.528398 0.215580 0.124289
O O14 0.846813 0.500000 0.391454
O O15 0.659433 0.781278 0.283947
O O16 0.000000 0.789546 0.500000
O O17 0.953786 0.724712 0.374645
O O18 0.029477 0.000000 0.356480
O O19 0.112210 0.500000 0.010959
O O20 0.286012 0.783042 0.077446
O O21 0.000000 0.788815 0.000000
O O22 0.513199 0.500000 0.838653
#
# Coordination Sequence:
#
# PCOD9145157 Si02
#       8
#     4   4   4   4   4   4   4   4
#     4  10  19  31  51  80 111 139 172 220 270 315
#     4   9  16  31  55  80 111 150 182 212 267 339
#     4  10  19  33  55  81 108 141 181 221 264 318
#     4  10  19  31  51  76 104 143 182 212 256 325
#     4  10  22  40  60  79 105 145 188 230 273 319
#     4  10  20  35  57  84 112 144 183 225 271 325
#     4  10  21  37  57  79 107 145 183 221 269 325
#     4   9  18  35  55  77 106 141 179 216 267 329
#
# _framework density 23.021968000000001
#
# number of rings (size 3 to 8) (size 9 to 14) (size 15 to 20)
#    0.000    2.250    2.500    0.750    0.000    3.250 
#    0.000    3.125    0.000    0.750    0.000    0.000 
#    0.000    0.000    0.000    0.000    0.000    0.000 
#
# Total GULP energy -178673.545293 kJ/mol
# GULP energy per Si atom -5583.548290 kJ/mol
# Density = 2.296957 g / cm^3
# Si number density = 23.021968 Si / 1000 Ang^3
#
#
#
# Elastic Constant Matrix: (Units=GPa)
#
#
# Indices 1 2 3 4 5 6 
#
# 1 88.4027 -2.3333 54.3598 0.0000 -8.2851 0.0000
# 2 -2.3333 70.9959 2.8491 0.0000 1.5875 0.0000
# 3 54.3598 2.8491 180.1357 0.0000 -3.1510 0.0000
# 4 0.0000 0.0000 0.0000 19.8752 0.0000 -7.1774
# 5 -8.2851 1.5875 -3.1510 0.0000 38.8133 0.0000
# 6 0.0000 0.0000 0.0000 -7.1774 0.0000 21.5437
#
#
#
# Elastic Compliance Matrix: (Units=1/GPa)
#
#
# Indices 1 2 3 4 5 6 
#
# 1 0.014186 0.000577 -0.004243 0.000000 0.002660 0.000000
# 2 0.000577 0.014131 -0.000406 0.000000 -0.000488 0.000000
# 3 -0.004243 -0.000406 0.006832 0.000000 -0.000335 0.000000
# 4 0.000000 0.000000 0.000000 0.057195 0.000000 0.019055
# 5 0.002660 -0.000488 -0.000335 0.000000 0.026325 0.000000
# 6 0.000000 0.000000 0.000000 0.019055 0.000000 0.052765
#
#
# Mechanical properties :
#
#
# Convention : Reuss Voigt Hill
#
# Bulk Modulus (GPa) = 37.03079 49.92059 43.47569
# Shear Modulus (GPa) = 26.51367 35.02371 30.76869
#
# Velocity S-wave (km/s) = 3.39731 3.90464 3.65977
# Velocity P-wave (km/s) = 5.61327 6.48531 6.06498
#
# Compressibility (1/GPa) = 0.02700456
#
# Stress axis : x y z
#
# Youngs Moduli (GPa) = 70.49334 70.76390 146.35943
#
# Poissons Ratio (x) = -0.04083 0.62107
# Poissons Ratio (y) = -0.04068 0.05945
# Poissons Ratio (z) = 0.29913 0.02874
#
# Static dielectric constant tensor:
#      x y z
#    x 1.869420 0.000000 0.034530 
#    y 0.000000 1.862990 0.000000 
#    z 0.034530 0.000000 1.883860 
# 
# From -- ./inp_files/50759.got.cif
#   From: 2010.05.17/outbox.cif.g08.bks.cpg/sg10_26_cif.got.tgz:50759.got - 2010.06.03 11:33:40.
