data_PCOD9145116
_publ_section_title
;
Structure prediction by ZEFSAII (Michael W. Deem and Ramdas Pophale) SiO2 
 PCOD9145116
Probable space group: P 2/M
;
_chemical_formula_sum "Si O2"
_cell_formula_units_Z 32
_cell_length_a 29.000574
_cell_length_b 7.460340
_cell_length_c 12.904093
_cell_angle_alpha 90.000000
_cell_angle_beta 149.845884
_cell_angle_gamma 90.000000
_cell_volume 1402.425448
_symmetry_space_group_name_H-M "P 2/M"
_symmetry_group_IT_number 10
_symmetry_cell_setting 'monoclinic'
loop_
_space_group_symop_operation_xyz
x,y,z
-x,y,-z
-x,-y,-z
x,-y,z
loop_
_atom_site_type_symbol
_atom_site_label
_atom_site_fract_x
_atom_site_fract_y
_atom_site_fract_z
Si Si1 0.865287 0.708768 0.005398
Si Si2 0.723455 0.718543 0.558206
Si Si3 0.035617 0.717637 0.455677
Si Si4 0.675928 0.708850 0.249573
Si Si5 0.752112 0.207656 0.174044
Si Si6 0.486579 0.720368 0.807253
Si Si7 0.477443 0.705579 0.565458
Si Si8 0.284254 0.216179 0.122497
O O1 0.879176 0.500000 0.006848
O O2 0.799664 0.785614 0.787694
O O3 0.807948 0.722327 0.000840
O O4 0.964732 0.782478 0.229491
O O5 0.725868 0.500000 0.572649
O O6 0.736249 0.775470 0.463151
O O7 0.617989 0.774329 0.375437
O O8 0.034233 0.500000 0.453805
O O9 0.139010 0.774156 0.632617
O O10 0.000000 0.776849 0.500000
O O11 0.662896 0.500000 0.247988
O O12 0.720950 0.718239 0.223918
O O13 0.571736 0.781928 0.042315
O O14 0.727640 0.000000 0.130178
O O15 0.708593 0.280834 0.982406
O O16 0.485849 0.500000 0.806973
O O17 0.511516 0.781407 0.739115
O O18 0.500000 0.795183 0.500000
O O19 0.509521 0.500000 0.623827
O O20 0.367323 0.709577 0.352020
O O21 0.286521 0.000000 0.128019
#
# Coordination Sequence:
#
# PCOD9145116 Si02
#       8
#     4   4   4   4   4   4   4   4
#     4  10  19  35  59  85 112 138 174 227 278 324
#     4   9  17  32  57  86 113 142 181 232 281 319
#     4  10  20  35  60  89 110 138 182 228 275 331
#     4  10  20  35  58  84 109 144 191 233 270 322
#     4  11  24  39  55  78 114 152 182 224 280 332
#     4   9  16  29  53  84 112 140 181 231 276 318
#     4  10  19  31  50  77 109 146 184 225 274 324
#     4  11  22  34  51  77 110 147 181 217 270 331
#
# _framework density 22.817610999999999
#
# number of rings (size 3 to 8) (size 9 to 14) (size 15 to 20)
#    0.000    2.000    2.500    1.875    0.000    5.000 
#    0.000    1.875    0.000    4.500    0.000    0.000 
#    0.000    0.000    0.000    0.000    0.000    0.000 
#
# Total GULP energy -178674.090542 kJ/mol
# GULP energy per Si atom -5583.565329 kJ/mol
# Density = 2.276568 g / cm^3
# Si number density = 22.817611 Si / 1000 Ang^3
#
#
#
# Elastic Constant Matrix: (Units=GPa)
#
#
# Indices 1 2 3 4 5 6 
#
# 1 70.2628 -9.8581 42.6517 0.0000 -20.1866 0.0000
# 2 -9.8581 69.3631 9.8308 0.0000 -3.5444 0.0000
# 3 42.6517 9.8308 157.4664 0.0000 -24.9616 0.0000
# 4 0.0000 0.0000 0.0000 41.3288 0.0000 47.8766
# 5 -20.1866 -3.5444 -24.9616 0.0000 44.5048 0.0000
# 6 0.0000 0.0000 0.0000 47.8766 0.0000 11.0051
#
#
#
# Elastic Compliance Matrix: (Units=1/GPa)
#
#
# Indices 1 2 3 4 5 6 
#
# 1 0.019329 0.003710 -0.004424 0.000000 0.006582 0.000000
# 2 0.003710 0.015278 -0.001645 0.000000 0.001977 0.000000
# 3 -0.004424 -0.001645 0.008026 0.000000 0.002364 0.000000
# 4 0.000000 0.000000 0.000000 -0.005990 0.000000 0.026058
# 5 0.006582 0.001977 0.002364 0.000000 0.026938 0.000000
# 6 0.000000 0.000000 0.000000 0.026058 0.000000 -0.022494
#
#
# Mechanical properties :
#
#
# Convention : Reuss Voigt Hill
#
# Bulk Modulus (GPa) = 26.37403 42.48236 34.42820
# Shear Modulus (GPa) = 85.55018 36.33227 60.94122
#
# Velocity S-wave (km/s) = 6.12980 3.99468 5.17358
# Velocity P-wave (km/s) = 7.85385 6.31944 7.12805
#
# Compressibility (1/GPa) = 0.03791609
#
# Stress axis : x y z
#
# Youngs Moduli (GPa) = 51.73520 65.45164 124.59020
#
# Poissons Ratio (x) = -0.24285 0.55117
# Poissons Ratio (y) = -0.19196 0.20501
# Poissons Ratio (z) = 0.22887 0.10770
#
# Static dielectric constant tensor:
#      x y z
#    x 1.870850 0.000000 -0.022290 
#    y 0.000000 1.884940 0.000000 
#    z -0.022290 0.000000 1.875920 
# 
# From -- ./inp_files/49847.got.cif
#   From: 2010.05.17/outbox.cif.g08.bks.cpg/sg10_25_cif.got.tgz:49847.got - 2010.06.03 11:33:40.
