data_PCOD9145671
_publ_section_title
;
Structure prediction by ZEFSAII (Michael W. Deem and Ramdas Pophale) SiO2 
 PCOD9145671
Probable space group: P 2/M
;
_chemical_formula_sum "Si O2"
_cell_formula_units_Z 32
_cell_length_a 21.734574
_cell_length_b 8.575147
_cell_length_c 26.789004
_cell_angle_alpha 90.000000
_cell_angle_beta 159.684424
_cell_angle_gamma 90.000000
_cell_volume 1733.473629
_symmetry_space_group_name_H-M "P 2/M"
_symmetry_group_IT_number 10
_symmetry_cell_setting 'monoclinic'
loop_
_space_group_symop_operation_xyz
x,y,z
-x,y,-z
-x,-y,-z
x,-y,z
loop_
_atom_site_type_symbol
_atom_site_label
_atom_site_fract_x
_atom_site_fract_y
_atom_site_fract_z
Si Si1 0.526588 0.187204 0.350681
Si Si2 0.485202 0.688434 0.046550
Si Si3 0.793260 0.314142 0.839107
Si Si4 0.097713 0.188493 0.774359
Si Si5 0.200034 0.688343 0.639180
Si Si6 0.168909 0.187656 0.342518
Si Si7 0.706674 0.686464 0.664404
Si Si8 0.212810 0.188583 0.537648
O O1 0.330455 0.244633 0.212319
O O2 0.654014 0.240523 0.493135
O O3 0.624836 0.237050 0.374835
O O4 0.528183 0.000000 0.351988
O O5 0.488437 0.500000 0.049128
O O6 0.649178 0.741497 0.206529
O O7 0.500000 0.740698 0.000000
O O8 0.293786 0.743938 0.920023
O O9 0.761510 0.500000 0.815380
O O10 0.745692 0.248805 0.748646
O O11 0.000000 0.286612 0.000000
O O12 0.995080 0.235672 0.747059
O O13 0.968704 0.234727 0.629775
O O14 0.106774 0.000000 0.780616
O O15 0.200838 0.500000 0.641049
O O16 0.233599 0.743312 0.608337
O O17 0.000000 0.741322 0.500000
O O18 0.179401 0.247763 0.294467
O O19 0.169786 0.000000 0.342487
O O20 0.500000 0.718204 0.500000
O O21 0.733448 0.500000 0.685208
O O22 0.211533 0.000000 0.539455
#
# Coordination Sequence:
#
# PCOD9145671 Si02
#       8
#     4   4   4   4   4   4   4   4
#     4   9  18  34  55  77 103 135 175 218 259 310
#     4  10  21  37  57  82 111 142 177 218 263 312
#     4  10  21  36  51  72 104 139 173 216 267 313
#     4   9  19  36  56  80 110 142 178 218 265 319
#     4  10  21  37  57  82 110 141 180 220 260 311
#     4   9  18  33  54  79 104 134 173 218 263 308
#     4  10  19  32  52  77 102 132 176 220 259 310
#     4   9  19  36  57  81 108 140 179 221 264 315
#
# _framework density 18.460045000000001
#
# number of rings (size 3 to 8) (size 9 to 14) (size 15 to 20)
#    0.000    2.500    1.250    2.250    0.000    4.500 
#    2.250    2.500    0.000    0.000    0.000    0.000 
#    0.000    0.000    0.000    0.000    0.000    0.000 
#
# Total GULP energy -178401.206942 kJ/mol
# GULP energy per Si atom -5575.037717 kJ/mol
# Density = 1.841803 g / cm^3
# Si number density = 18.460045 Si / 1000 Ang^3
#
#
#
# Elastic Constant Matrix: (Units=GPa)
#
#
# Indices 1 2 3 4 5 6 
#
# 1 144.2059 13.8553 101.0726 0.0000 4.6536 0.0000
# 2 13.8553 25.9120 -76.5810 0.0000 5.1691 0.0000
# 3 101.0726 -76.5810 566.9490 0.0000 -11.8810 0.0000
# 4 0.0000 0.0000 0.0000 -284.7144 0.0000 -95.3612
# 5 4.6536 5.1691 -11.8810 0.0000 29.4449 0.0000
# 6 0.0000 0.0000 0.0000 -95.3612 0.0000 1.3192
#
#
#
# Elastic Compliance Matrix: (Units=1/GPa)
#
#
# Indices 1 2 3 4 5 6 
#
# 1 0.012891 -0.022729 -0.005373 0.000000 -0.000215 0.000000
# 2 -0.022729 0.106157 0.018230 0.000000 -0.007688 0.000000
# 3 -0.005373 0.018230 0.005179 0.000000 -0.000262 0.000000
# 4 0.000000 0.000000 0.000000 -0.000139 0.000000 -0.010071
# 5 -0.000215 -0.007688 -0.000262 0.000000 0.035240 0.000000
# 6 0.000000 0.000000 0.000000 -0.010071 0.000000 0.030067
#
#
# Mechanical properties :
#
#
# Convention : Reuss Voigt Hill
#
# Bulk Modulus (GPa) = 9.57091 90.41785 49.99438
# Shear Modulus (GPa) = 20.49481 -4.20872 8.14305
#
# Velocity S-wave (km/s) = 3.33562 -1.51158 2.10256
# Velocity P-wave (km/s) = 4.47561 6.78529 5.74766
#
# Compressibility (1/GPa) = 0.10448323
#
# Stress axis : x y z
#
# Youngs Moduli (GPa) = 77.57375 9.42005 193.10242
#
# Poissons Ratio (x) = 0.21411 1.03749
# Poissons Ratio (y) = 1.76315 -3.52026
# Poissons Ratio (z) = 0.41678 -0.17173
#
# Static dielectric constant tensor:
#      x y z
#    x 1.633830 0.000000 -0.007490 
#    y 0.000000 1.637350 0.000000 
#    z -0.007490 0.000000 1.619920 
# 
# From -- ./inp_files/93817.got.cif
#   From: 2010.05.17/outbox.cif.g08.bks.cpg/sg10_47_cif.got.tgz:93817.got - 2010.06.03 11:33:40.
