data_PCOD9145195
_publ_section_title
;
Structure prediction by ZEFSAII (Michael W. Deem and Ramdas Pophale) SiO2 
 PCOD9145195
Probable space group: P 2/M
;
_chemical_formula_sum "Si O2"
_cell_formula_units_Z 28
_cell_length_a 9.862669
_cell_length_b 15.416736
_cell_length_c 22.312890
_cell_angle_alpha 90.000000
_cell_angle_beta 28.111879
_cell_angle_gamma 90.000000
_cell_volume 1598.612375
_symmetry_space_group_name_H-M "P 2/M"
_symmetry_group_IT_number 10
_symmetry_cell_setting 'monoclinic'
loop_
_space_group_symop_operation_xyz
x,y,z
-x,y,-z
-x,-y,-z
x,-y,z
loop_
_atom_site_type_symbol
_atom_site_label
_atom_site_fract_x
_atom_site_fract_y
_atom_site_fract_z
Si Si1 0.169955 0.901244 0.371485
Si Si2 0.322142 0.402394 0.349344
Si Si3 0.141465 0.265237 0.011248
Si Si4 0.855862 0.906103 0.122369
Si Si5 0.764784 0.269500 0.720758
Si Si6 0.108381 0.399487 0.800837
Si Si7 0.157381 0.601577 0.642651
O O1 0.513503 0.896203 0.249341
O O2 0.104829 0.821325 0.352972
O O3 0.000000 0.889902 0.500000
O O4 0.110891 0.000000 0.372686
O O5 0.370079 0.500000 0.305234
O O6 0.347252 0.325935 0.291998
O O7 0.558135 0.390197 0.309003
O O8 0.000000 0.399784 0.500000
O O9 0.993031 0.179354 0.096476
O O10 0.074479 0.342961 0.082034
O O11 0.479874 0.251457 0.870486
O O12 0.000000 0.280110 0.000000
O O13 0.914443 0.000000 0.128149
O O14 0.000000 0.908457 0.000000
O O15 0.987946 0.331811 0.667083
O O16 0.030821 0.500000 0.838552
O O17 0.082610 0.378783 0.740965
O O18 0.500000 0.609225 0.500000
O O19 0.083170 0.500000 0.658927
#
# Coordination Sequence:
#
# PCOD9145195 Si02
#       7
#     4   4   4   4   4   4   4
#     4  10  20  33  54  88 122 150 190 241 292 346
#     4  10  19  31  51  79 106 137 180 232 284 332
#     4  11  20  34  53  85 116 144 189 237 283 345
#     4   9  16  31  53  79 115 150 177 223 288 342
#     4  12  21  34  58  83 110 148 188 237 288 337
#     4  10  21  36  53  75 112 150 183 234 287 338
#     4  10  23  42  59  79 110 153 200 239 287 352
#
# _framework density 17.51519
#
# number of rings (size 3 to 8) (size 9 to 14) (size 15 to 20)
#    0.000    1.714    4.286    1.714    0.000    5.429 
#    0.000    1.429    0.000    1.286    0.000    2.000 
#    0.000    0.000    0.000    0.000    0.000    0.000 
#
# Total GULP energy -156160.319339 kJ/mol
# GULP energy per Si atom -5577.154262 kJ/mol
# Density = 1.747532 g / cm^3
# Si number density = 17.515190 Si / 1000 Ang^3
#
#
#
# Elastic Constant Matrix: (Units=GPa)
#
#
# Indices 1 2 3 4 5 6 
#
# 1 55.6065 61.8109 19.7530 0.0000 0.2728 0.0000
# 2 61.8109 127.4073 37.7877 0.0000 9.1078 0.0000
# 3 19.7530 37.7877 85.0911 0.0000 3.9904 0.0000
# 4 0.0000 0.0000 0.0000 26.4215 0.0000 3.0730
# 5 0.2728 9.1078 3.9904 0.0000 17.9628 0.0000
# 6 0.0000 0.0000 0.0000 3.0730 0.0000 17.0793
#
#
#
# Elastic Compliance Matrix: (Units=1/GPa)
#
#
# Indices 1 2 3 4 5 6 
#
# 1 0.040674 -0.020151 -0.000953 0.000000 0.009811 0.000000
# 2 -0.020151 0.019277 -0.003475 0.000000 -0.008696 0.000000
# 3 -0.000953 -0.003475 0.013575 0.000000 -0.001239 0.000000
# 4 0.000000 0.000000 0.000000 0.038657 0.000000 -0.006955
# 5 0.009811 -0.008696 -0.001239 0.000000 0.060206 0.000000
# 6 0.000000 0.000000 0.000000 -0.006955 0.000000 0.059802
#
#
# Mechanical properties :
#
#
# Convention : Reuss Voigt Hill
#
# Bulk Modulus (GPa) = 41.03963 56.31203 48.67583
# Shear Modulus (GPa) = 17.27283 22.20960 19.74122
#
# Velocity S-wave (km/s) = 3.14373 3.56479 3.36086
# Velocity P-wave (km/s) = 6.05468 7.01169 6.55069
#
# Compressibility (1/GPa) = 0.02436669
#
# Stress axis : x y z
#
# Youngs Moduli (GPa) = 24.58602 51.87421 73.66625
#
# Poissons Ratio (x) = 1.04533 0.07022
# Poissons Ratio (y) = 0.49544 0.25600
# Poissons Ratio (z) = 0.02344 0.18027
#
# Static dielectric constant tensor:
#      x y z
#    x 1.567730 0.000000 -0.000730 
#    y 0.000000 1.642490 0.000000 
#    z -0.000730 0.000000 1.601880 
# 
# From -- ./inp_files/82883.got.cif
#   From: 2010.05.17/outbox.cif.g08.bks.cpg/sg10_42_cif.got.tgz:82883.got - 2010.06.03 11:33:40.
