data_PCOD9145904
_publ_section_title
;
Structure prediction by ZEFSAII (Michael W. Deem and Ramdas Pophale) SiO2 
 PCOD9145904
Probable space group: P 2/M
;
_chemical_formula_sum "Si O2"
_cell_formula_units_Z 28
_cell_length_a 12.869791
_cell_length_b 7.451158
_cell_length_c 13.485200
_cell_angle_alpha 90.000000
_cell_angle_beta 110.536368
_cell_angle_gamma 90.000000
_cell_volume 1210.980411
_symmetry_space_group_name_H-M "P 2/M"
_symmetry_group_IT_number 10
_symmetry_cell_setting 'monoclinic'
loop_
_space_group_symop_operation_xyz
x,y,z
-x,y,-z
-x,-y,-z
x,-y,z
loop_
_atom_site_type_symbol
_atom_site_label
_atom_site_fract_x
_atom_site_fract_y
_atom_site_fract_z
Si Si1 0.788974 0.284097 0.263862
Si Si2 0.374659 0.782729 0.434094
Si Si3 0.978245 0.718121 0.727945
Si Si4 0.169548 0.706706 0.501504
Si Si5 0.345792 0.779895 0.198723
Si Si6 0.462446 0.786693 0.880779
Si Si7 0.892129 0.206678 0.912971
O O1 0.791962 0.500000 0.268948
O O2 0.892718 0.228280 0.230761
O O3 0.813103 0.215076 0.383494
O O4 0.666732 0.238066 0.185806
O O5 0.500000 0.729552 0.500000
O O6 0.286156 0.713087 0.482996
O O7 0.347180 0.723945 0.313569
O O8 0.368975 0.000000 0.436218
O O9 0.970724 0.500000 0.728596
O O10 0.919632 0.781169 0.606572
O O11 0.915436 0.788622 0.803200
O O12 0.135603 0.500000 0.505499
O O13 0.454936 0.719183 0.177133
O O14 0.230567 0.718072 0.110872
O O15 0.344321 0.000000 0.199384
O O16 0.481081 0.000000 0.889761
O O17 0.500000 0.713977 0.000000
O O18 0.887342 0.000000 0.945761
O O19 0.000000 0.291521 0.000000
#
# Coordination Sequence:
#
# PCOD9145904 Si02
#       7
#     4   4   4   4   4   4   4
#     4  10  22  39  58  82 115 152 187 230 283 335
#     4  10  19  32  54  80 111 147 181 223 277 331
#     4  10  21  38  59  84 115 149 187 231 282 335
#     4  10  20  36  57  82 112 146 187 229 278 335
#     4   9  18  35  54  80 114 143 176 225 281 329
#     4  10  22  39  61  85 111 147 192 235 277 331
#     4  10  21  36  59  85 112 146 186 231 281 334
#
# _framework density 23.121762
#
# number of rings (size 3 to 8) (size 9 to 14) (size 15 to 20)
#    0.000    2.143    1.429    1.286    2.000    4.857 
#    0.000    1.429    0.000    2.571    0.000    0.000 
#    0.000    0.000    0.000    0.000    0.000    0.000 
#
# Total GULP energy -156496.570831 kJ/mol
# GULP energy per Si atom -5589.163244 kJ/mol
# Density = 2.306914 g / cm^3
# Si number density = 23.121762 Si / 1000 Ang^3
#
#
#
# Elastic Constant Matrix: (Units=GPa)
#
#
# Indices 1 2 3 4 5 6 
#
# 1 127.6257 -11.0993 9.7461 0.0000 28.4085 0.0000
# 2 -11.0993 70.2696 -7.3142 0.0000 -0.2171 0.0000
# 3 9.7461 -7.3142 74.9956 0.0000 29.1131 0.0000
# 4 0.0000 0.0000 0.0000 7.9559 0.0000 2.3591
# 5 28.4085 -0.2171 29.1131 0.0000 44.5750 0.0000
# 6 0.0000 0.0000 0.0000 2.3591 0.0000 19.0712
#
#
#
# Elastic Compliance Matrix: (Units=1/GPa)
#
#
# Indices 1 2 3 4 5 6 
#
# 1 0.009432 0.001644 0.001695 0.000000 -0.007110 0.000000
# 2 0.001644 0.014706 0.002143 0.000000 -0.002376 0.000000
# 3 0.001695 0.002143 0.018404 0.000000 -0.013090 0.000000
# 4 0.000000 0.000000 0.000000 0.130478 0.000000 -0.016140
# 5 -0.007110 -0.002376 -0.013090 0.000000 0.035503 0.000000
# 6 0.000000 0.000000 0.000000 -0.016140 0.000000 0.054431
#
#
# Mechanical properties :
#
#
# Convention : Reuss Voigt Hill
#
# Bulk Modulus (GPa) = 18.68960 28.39512 23.54236
# Shear Modulus (GPa) = 18.53042 33.09100 25.81071
#
# Velocity S-wave (km/s) = 2.83402 3.78717 3.34473
# Velocity P-wave (km/s) = 4.33700 5.60633 5.01201
#
# Compressibility (1/GPa) = 0.05350568
#
# Stress axis : x y z
#
# Youngs Moduli (GPa) = 106.02698 67.99804 54.33488
#
# Poissons Ratio (x) = -0.11180 -0.09208
# Poissons Ratio (y) = -0.17433 -0.11643
# Poissons Ratio (z) = -0.17968 -0.14571
#
# Static dielectric constant tensor:
#      x y z
#    x 1.823460 0.000000 0.013570 
#    y 0.000000 1.903170 0.000000 
#    z 0.013570 0.000000 1.852530 
# 
# From -- ./inp_files/48968.got.cif
#   From: 2010.05.17/outbox.cif.g08.bks.cpg/sg10_25_cif.got.tgz:48968.got - 2010.06.03 11:33:40.
