data_PCOD9145327
_publ_section_title
;
Structure prediction by ZEFSAII (Michael W. Deem and Ramdas Pophale) SiO2 
 PCOD9145327
Probable space group: P 2/M
;
_chemical_formula_sum "Si O2"
_cell_formula_units_Z 28
_cell_length_a 11.018357
_cell_length_b 9.559641
_cell_length_c 16.213824
_cell_angle_alpha 90.000000
_cell_angle_beta 132.556101
_cell_angle_gamma 90.000000
_cell_volume 1258.011813
_symmetry_space_group_name_H-M "P 2/M"
_symmetry_group_IT_number 10
_symmetry_cell_setting 'monoclinic'
loop_
_space_group_symop_operation_xyz
x,y,z
-x,y,-z
-x,-y,-z
x,-y,z
loop_
_atom_site_type_symbol
_atom_site_label
_atom_site_fract_x
_atom_site_fract_y
_atom_site_fract_z
Si Si1 0.272513 0.338546 0.561266
Si Si2 0.738607 0.843979 0.292135
Si Si3 0.593232 0.837361 0.660500
Si Si4 0.193374 0.834747 0.075932
Si Si5 0.166757 0.340584 0.331952
Si Si6 0.112463 0.146631 0.812384
Si Si7 0.416938 0.250156 0.042126
O O1 0.314293 0.500000 0.598093
O O2 0.209003 0.264346 0.614337
O O3 0.432542 0.249175 0.610767
O O4 0.160557 0.337982 0.428375
O O5 0.865705 0.851440 0.275624
O O6 0.567542 0.801245 0.168325
O O7 0.717662 0.000000 0.318143
O O8 0.713535 0.828237 0.794659
O O9 0.687370 0.760121 0.630083
O O10 0.558754 0.000000 0.627598
O O11 0.280755 0.725604 0.052670
O O12 0.211750 0.000000 0.056611
O O13 0.000000 0.809070 0.000000
O O14 0.197182 0.500000 0.320114
O O15 0.999515 0.277648 0.217607
O O16 0.030797 0.000000 0.800181
O O17 0.296136 0.151269 0.933064
O O18 0.500000 0.331197 0.000000
#
# Coordination Sequence:
#
# PCOD9145327 Si02
#       7
#     4   4   4   4   4   4   4
#     4  11  24  41  61  85 120 166 208 248 304 370
#     4  10  20  37  63  94 122 156 204 255 304 362
#     4  11  22  38  64  92 118 153 204 258 306 359
#     4  10  19  31  54  90 126 156 191 242 303 365
#     4  11  25  43  60  83 122 167 205 248 309 374
#     4  10  21  37  63  94 122 156 203 255 305 360
#     4  10  19  35  62  94 127 161 200 251 313 375
#
# _framework density 22.257342999999999
#
# number of rings (size 3 to 8) (size 9 to 14) (size 15 to 20)
#    0.000    1.571    1.429    3.857    0.000    9.429 
#    0.000    3.571    0.000    4.286    0.000    0.000 
#    0.000    0.000    0.000    0.000    0.000    0.000 
#
# Total GULP energy -156009.429711 kJ/mol
# GULP energy per Si atom -5571.765347 kJ/mol
# Density = 2.220668 g / cm^3
# Si number density = 22.257343 Si / 1000 Ang^3
#
#
#
# Elastic Constant Matrix: (Units=GPa)
#
#
# Indices 1 2 3 4 5 6 
#
# 1 50.8549 16.7235 11.4819 0.0000 -9.0021 0.0000
# 2 16.7235 122.5413 37.5264 0.0000 -3.3548 0.0000
# 3 11.4819 37.5264 76.4558 0.0000 -14.4895 0.0000
# 4 0.0000 0.0000 0.0000 -2.6881 0.0000 -35.3039
# 5 -9.0021 -3.3548 -14.4895 0.0000 44.2058 0.0000
# 6 0.0000 0.0000 0.0000 -35.3039 0.0000 93.5480
#
#
#
# Elastic Compliance Matrix: (Units=1/GPa)
#
#
# Indices 1 2 3 4 5 6 
#
# 1 0.021420 -0.002416 -0.001321 0.000000 0.003746 0.000000
# 2 -0.002416 0.009908 -0.004746 0.000000 -0.001296 0.000000
# 3 -0.001321 -0.004746 0.016514 0.000000 0.004784 0.000000
# 4 0.000000 0.000000 0.000000 -0.062456 0.000000 -0.023570
# 5 0.003746 -0.001296 0.004784 0.000000 0.024854 0.000000
# 6 0.000000 0.000000 0.000000 -0.023570 0.000000 0.001795
#
#
# Mechanical properties :
#
#
# Convention : Reuss Voigt Hill
#
# Bulk Modulus (GPa) = 32.38805 42.36840 37.37822
# Shear Modulus (GPa) = 127.25242 39.28782 83.27012
#
# Velocity S-wave (km/s) = 7.56950 4.20594 6.12321
# Velocity P-wave (km/s) = 9.53833 6.53174 8.17445
#
# Compressibility (1/GPa) = 0.03087559
#
# Stress axis : x y z
#
# Youngs Moduli (GPa) = 46.68622 100.92733 60.55545
#
# Poissons Ratio (x) = 0.24385 0.07999
# Poissons Ratio (y) = 0.11280 0.28739
# Poissons Ratio (z) = 0.06167 0.47899
#
# Static dielectric constant tensor:
#      x y z
#    x 1.870820 0.000000 -0.047260 
#    y 0.000000 1.794300 0.000000 
#    z -0.047260 0.000000 1.838110 
# 
# From -- ./inp_files/63899.got.cif
#   From: 2010.05.17/outbox.cif.g08.bks.cpg/sg10_32_cif.got.tgz:63899.got - 2010.06.03 11:33:40.
