data_PCOD9145575
_publ_section_title
;
Structure prediction by ZEFSAII (Michael W. Deem and Ramdas Pophale) SiO2 
 PCOD9145575
Probable space group: P 2/M
;
_chemical_formula_sum "Si O2"
_cell_formula_units_Z 32
_cell_length_a 15.770038
_cell_length_b 13.229007
_cell_length_c 9.089354
_cell_angle_alpha 90.000000
_cell_angle_beta 93.890870
_cell_angle_gamma 90.000000
_cell_volume 1891.868061
_symmetry_space_group_name_H-M "P 2/M"
_symmetry_group_IT_number 10
_symmetry_cell_setting 'monoclinic'
loop_
_space_group_symop_operation_xyz
x,y,z
-x,y,-z
-x,-y,-z
x,-y,z
loop_
_atom_site_type_symbol
_atom_site_label
_atom_site_fract_x
_atom_site_fract_y
_atom_site_fract_z
Si Si1 0.051980 0.613961 0.352679
Si Si2 0.418410 0.267431 0.400146
Si Si3 0.881959 0.119063 0.912524
Si Si4 0.267979 0.881470 0.326981
Si Si5 0.834349 0.239494 0.456508
Si Si6 0.956937 0.787094 0.206731
Si Si7 0.521780 0.620390 0.164236
Si Si8 0.686135 0.619518 0.361165
O O1 0.076172 0.500000 0.312447
O O2 0.127491 0.688518 0.410496
O O3 0.000000 0.606709 0.500000
O O4 0.994662 0.673491 0.227458
O O5 0.500000 0.226368 0.500000
O O6 0.353748 0.182881 0.337486
O O7 0.459516 0.328936 0.272821
O O8 0.364884 0.342127 0.500328
O O9 0.794425 0.140151 0.817871
O O10 0.960385 0.142988 0.811062
O O11 0.884848 0.000000 0.952279
O O12 0.898985 0.187158 0.058800
O O13 0.216858 0.847896 0.467373
O O14 0.285125 0.000000 0.330902
O O15 0.905740 0.198973 0.352890
O O16 0.769809 0.312317 0.360694
O O17 0.509131 0.500000 0.169565
O O18 0.619268 0.638240 0.222451
O O19 0.500000 0.657094 0.000000
O O20 0.705181 0.500000 0.372572
#
# Coordination Sequence:
#
# PCOD9145575 Si02
#       8
#     4   4   4   4   4   4   4   4
#     4   9  17  30  49  72  99 131 164 203 250 300
#     4   9  18  33  53  76 103 132 162 199 254 308
#     4  10  21  37  53  71  99 135 175 219 266 303
#     4  10  21  35  53  75 100 130 169 216 260 304
#     4  10  19  32  51  76 100 129 173 215 254 298
#     4  10  19  33  53  72  99 135 172 211 257 305
#     4   9  17  30  51  78 104 130 165 204 242 292
#     4   9  17  30  50  75 102 134 167 201 246 300
#
# _framework density 16.914497999999998
#
# number of rings (size 3 to 8) (size 9 to 14) (size 15 to 20)
#    0.000    2.500    1.250    1.500    0.000    4.250 
#    0.000    2.500    0.000    0.375    0.000    0.000 
#    0.000    0.000    0.000    0.000    0.000    0.000 
#
# Total GULP energy -178232.903585 kJ/mol
# GULP energy per Si atom -5569.778237 kJ/mol
# Density = 1.687600 g / cm^3
# Si number density = 16.914498 Si / 1000 Ang^3
#
#
#
# Elastic Constant Matrix: (Units=GPa)
#
#
# Indices 1 2 3 4 5 6 
#
# 1 56.4382 16.8875 30.5937 0.0000 16.2151 0.0000
# 2 16.8875 56.5089 37.4994 0.0000 20.0164 0.0000
# 3 30.5937 37.4994 76.0551 0.0000 22.8325 0.0000
# 4 0.0000 0.0000 0.0000 21.0510 0.0000 5.7993
# 5 16.2151 20.0164 22.8325 0.0000 22.7145 0.0000
# 6 0.0000 0.0000 0.0000 5.7993 0.0000 26.8919
#
#
#
# Elastic Compliance Matrix: (Units=1/GPa)
#
#
# Indices 1 2 3 4 5 6 
#
# 1 0.024459 0.001533 -0.007085 0.000000 -0.011689 0.000000
# 2 0.001533 0.030232 -0.010307 0.000000 -0.017375 0.000000
# 3 -0.007085 -0.010307 0.024111 0.000000 -0.010096 0.000000
# 4 0.000000 0.000000 0.000000 0.050504 0.000000 -0.010891
# 5 -0.011689 -0.017375 -0.010096 0.000000 0.077829 0.000000
# 6 0.000000 0.000000 0.000000 -0.010891 0.000000 0.039535
#
#
# Mechanical properties :
#
#
# Convention : Reuss Voigt Hill
#
# Bulk Modulus (GPa) = 21.23853 39.88484 30.56168
# Shear Modulus (GPa) = 17.00197 21.06624 19.03410
#
# Velocity S-wave (km/s) = 3.17388 3.53293 3.35821
# Velocity P-wave (km/s) = 5.10049 6.34615 5.75711
#
# Compressibility (1/GPa) = 0.04708425
#
# Stress axis : x y z
#
# Youngs Moduli (GPa) = 40.88469 33.07717 41.47453
#
# Poissons Ratio (x) = -0.05070 0.29387
# Poissons Ratio (y) = -0.06267 0.42746
# Poissons Ratio (z) = 0.28969 0.34091
#
# Static dielectric constant tensor:
#      x y z
#    x 1.585330 0.000000 0.028390 
#    y 0.000000 1.556160 0.000000 
#    z 0.028390 0.000000 1.573050 
# 
# From -- ./inp_files/28614.got.cif
#   From: 2010.05.17/outbox.cif.g08.bks.cpg/sg10_15_cif.got.tgz:28614.got - 2010.06.03 11:33:40.
