data_PCOD9145437
_publ_section_title
;
Structure prediction by ZEFSAII (Michael W. Deem and Ramdas Pophale) SiO2 
 PCOD9145437
Probable space group: P 2/M
;
_chemical_formula_sum "Si O2"
_cell_formula_units_Z 24
_cell_length_a 11.695028
_cell_length_b 8.868732
_cell_length_c 10.247792
_cell_angle_alpha 90.000000
_cell_angle_beta 71.888524
_cell_angle_gamma 90.000000
_cell_volume 1010.238620
_symmetry_space_group_name_H-M "P 2/M"
_symmetry_group_IT_number 10
_symmetry_cell_setting 'monoclinic'
loop_
_space_group_symop_operation_xyz
x,y,z
-x,y,-z
-x,-y,-z
x,-y,z
loop_
_atom_site_type_symbol
_atom_site_label
_atom_site_fract_x
_atom_site_fract_y
_atom_site_fract_z
Si Si1 0.624372 0.828394 0.379301
Si Si2 0.069536 0.176693 0.278230
Si Si3 0.723660 0.173255 0.015125
Si Si4 0.896425 0.330332 0.147812
Si Si5 0.498217 0.324915 0.815065
Si Si6 0.266812 0.817363 0.395750
O O1 0.500000 0.848774 0.500000
O O2 0.582663 0.712015 0.284662
O O3 0.712958 0.771801 0.461296
O O4 0.656798 0.000000 0.325105
O O5 0.136697 0.226937 0.385798
O O6 0.961650 0.268822 0.253115
O O7 0.035144 0.000000 0.300759
O O8 0.179275 0.188682 0.134317
O O9 0.798579 0.219944 0.118482
O O10 0.601612 0.268771 0.044399
O O11 0.685970 0.000000 0.031465
O O12 0.849129 0.500000 0.180233
O O13 0.000000 0.336461 0.000000
O O14 0.522240 0.500000 0.823047
O O15 0.623392 0.241935 0.734020
O O16 0.272879 0.000000 0.389359
#
# Coordination Sequence:
#
# PCOD9145437 Si02
#       6
#     4   4   4   4   4   4
#     4   8  15  30  50  68  89 121 159 195 231 276
#     4   9  18  32  51  73  95 124 160 194 230 278
#     4  10  19  32  50  70  95 127 162 195 230 277
#     4   9  17  30  48  70  96 124 156 194 234 276
#     4  11  21  31  46  70  99 127 158 196 238 280
#     4   9  18  33  51  71  96 125 158 194 233 280
#
# _framework density 23.756762999999999
#
# number of rings (size 3 to 8) (size 9 to 14) (size 15 to 20)
#    0.000    2.667    0.000    3.500    0.000    7.000 
#    0.000    3.333    0.000    1.000    0.000    7.000 
#    0.000    0.000    0.000    0.000    0.000    0.000 
#
# Total GULP energy -133994.787880 kJ/mol
# GULP energy per Si atom -5583.116162 kJ/mol
# Density = 2.370269 g / cm^3
# Si number density = 23.756763 Si / 1000 Ang^3
#
#
#
# Elastic Constant Matrix: (Units=GPa)
#
#
# Indices 1 2 3 4 5 6 
#
# 1 104.9298 33.9549 14.2644 0.0000 17.2347 0.0000
# 2 33.9549 74.2026 -12.3181 0.0000 3.3427 0.0000
# 3 14.2644 -12.3181 31.7348 0.0000 14.4176 0.0000
# 4 0.0000 0.0000 0.0000 10.4246 0.0000 2.3098
# 5 17.2347 3.3427 14.4176 0.0000 57.0302 0.0000
# 6 0.0000 0.0000 0.0000 2.3098 0.0000 21.5267
#
#
#
# Elastic Compliance Matrix: (Units=1/GPa)
#
#
# Indices 1 2 3 4 5 6 
#
# 1 0.013262 -0.007348 -0.008121 0.000000 -0.001524 0.000000
# 2 -0.007348 0.018812 0.011407 0.000000 -0.001766 0.000000
# 3 -0.008121 0.011407 0.043810 0.000000 -0.009290 0.000000
# 4 0.000000 0.000000 0.000000 0.098263 0.000000 -0.010544
# 5 -0.001524 -0.001766 -0.009290 0.000000 0.020447 0.000000
# 6 0.000000 0.000000 0.000000 -0.010544 0.000000 0.047585
#
#
# Mechanical properties :
#
#
# Convention : Reuss Voigt Hill
#
# Bulk Modulus (GPa) = 14.75783 31.40774 23.08279
# Shear Modulus (GPa) = 18.32229 29.46069 23.89149
#
# Velocity S-wave (km/s) = 2.78014 3.52532 3.17467
# Velocity P-wave (km/s) = 4.06585 5.46075 4.81409
#
# Compressibility (1/GPa) = 0.06776063
#
# Stress axis : x y z
#
# Youngs Moduli (GPa) = 75.40093 53.15623 22.82588
#
# Poissons Ratio (x) = 0.39061 0.18537
# Poissons Ratio (y) = 0.55407 -0.26038
# Poissons Ratio (z) = 0.61234 -0.60638
#
# Static dielectric constant tensor:
#      x y z
#    x 1.891450 0.000000 -0.021840 
#    y 0.000000 1.812800 0.000000 
#    z -0.021840 0.000000 2.116330 
# 
# From -- ./inp_files/45139.got.cif
#   From: 2010.05.17/outbox.cif.g08.bks.cpg/sg10_23_cif.got.tgz:45139.got - 2010.06.03 11:33:40.
