data_PCOD9145188
_publ_section_title
;
Structure prediction by ZEFSAII (Michael W. Deem and Ramdas Pophale) SiO2 
 PCOD9145188
Probable space group: P 2/M
;
_chemical_formula_sum "Si O2"
_cell_formula_units_Z 32
_cell_length_a 17.046500
_cell_length_b 8.956718
_cell_length_c 13.353941
_cell_angle_alpha 90.000000
_cell_angle_beta 122.523078
_cell_angle_gamma 90.000000
_cell_volume 1719.140127
_symmetry_space_group_name_H-M "P 2/M"
_symmetry_group_IT_number 10
_symmetry_cell_setting 'monoclinic'
loop_
_space_group_symop_operation_xyz
x,y,z
-x,y,-z
-x,-y,-z
x,-y,z
loop_
_atom_site_type_symbol
_atom_site_label
_atom_site_fract_x
_atom_site_fract_y
_atom_site_fract_z
Si Si1 0.737233 0.827318 0.799022
Si Si2 0.090405 0.326244 0.457118
Si Si3 0.898381 0.679278 0.233402
Si Si4 0.230602 0.821881 0.708135
Si Si5 0.618013 0.826636 0.339798
Si Si6 0.205740 0.834364 0.392130
Si Si7 0.916578 0.319659 0.017194
Si Si8 0.537309 0.321481 0.636826
O O1 0.771260 0.824754 0.707607
O O2 0.817196 0.742717 0.914379
O O3 0.636616 0.750836 0.729341
O O4 0.729898 0.000000 0.826117
O O5 0.096035 0.500000 0.489284
O O6 0.152911 0.230063 0.574476
O O7 0.138895 0.296003 0.383428
O O8 0.983748 0.283720 0.366751
O O9 0.889139 0.500000 0.227923
O O10 0.804541 0.751047 0.212587
O O11 0.926445 0.725334 0.140444
O O12 0.329237 0.776235 0.725742
O O13 0.231173 0.000000 0.715293
O O14 0.699195 0.823832 0.479568
O O15 0.535425 0.729959 0.328333
O O16 0.589069 0.000000 0.308350
O O17 0.165091 0.000000 0.385655
O O18 0.915619 0.500000 0.012555
O O19 0.000000 0.268751 0.000000
O O20 0.500000 0.274083 0.500000
O O21 0.545380 0.500000 0.640524
#
# Coordination Sequence:
#
# PCOD9145188 Si02
#       8
#     4   4   4   4   4   4   4   4
#     4  11  22  36  56  81 113 152 191 232 280 335
#     4  10  19  31  51  78 108 143 185 228 276 333
#     4  10  21  36  54  77 106 144 187 232 281 329
#     4  10  21  35  53  79 110 145 183 227 280 335
#     4   9  18  34  52  75 110 147 178 216 275 334
#     4   9  18  31  48  74 109 146 181 220 271 329
#     4  10  22  41  61  82 113 151 192 238 282 326
#     4  11  22  34  54  86 117 147 186 228 278 339
#
# _framework density 18.613956999999999
#
# number of rings (size 3 to 8) (size 9 to 14) (size 15 to 20)
#    0.000    2.000    1.250    3.375    0.000    8.250 
#    0.000    0.000    0.000    0.750    0.000    5.250 
#    0.000    0.000    0.000    0.000    0.000    0.000 
#
# Total GULP energy -178487.680332 kJ/mol
# GULP energy per Si atom -5577.740010 kJ/mol
# Density = 1.857159 g / cm^3
# Si number density = 18.613957 Si / 1000 Ang^3
#
#
#
# Elastic Constant Matrix: (Units=GPa)
#
#
# Indices 1 2 3 4 5 6 
#
# 1 132.9849 34.9685 33.9249 0.0000 -4.0561 0.0000
# 2 34.9685 25.1206 12.1016 0.0000 1.8711 0.0000
# 3 33.9249 12.1016 50.2784 0.0000 2.5894 0.0000
# 4 0.0000 0.0000 0.0000 21.8085 0.0000 2.1234
# 5 -4.0561 1.8711 2.5894 0.0000 28.0079 0.0000
# 6 0.0000 0.0000 0.0000 2.1234 0.0000 38.4020
#
#
#
# Elastic Compliance Matrix: (Units=1/GPa)
#
#
# Indices 1 2 3 4 5 6 
#
# 1 0.013189 -0.016112 -0.005199 0.000000 0.003467 0.000000
# 2 -0.016112 0.064827 -0.004409 0.000000 -0.006257 0.000000
# 3 -0.005199 -0.004409 0.024599 0.000000 -0.002733 0.000000
# 4 0.000000 0.000000 0.000000 0.046102 0.000000 -0.002549
# 5 0.003467 -0.006257 -0.002733 0.000000 0.036877 0.000000
# 6 0.000000 0.000000 0.000000 -0.002549 0.000000 0.026181
#
#
# Mechanical properties :
#
#
# Convention : Reuss Voigt Hill
#
# Bulk Modulus (GPa) = 19.54160 41.15265 30.34713
# Shear Modulus (GPa) = 17.83965 26.13628 21.98796
#
# Velocity S-wave (km/s) = 3.09916 3.75123 3.44068
# Velocity P-wave (km/s) = 4.82986 6.39678 5.66773
#
# Compressibility (1/GPa) = 0.05117289
#
# Stress axis : x y z
#
# Youngs Moduli (GPa) = 75.82361 15.42569 40.65129
#
# Poissons Ratio (x) = 0.24854 0.21136
# Poissons Ratio (y) = 1.22169 0.17925
# Poissons Ratio (z) = 0.39423 0.06802
#
# Static dielectric constant tensor:
#      x y z
#    x 1.681260 0.000000 -0.031660 
#    y 0.000000 1.636540 0.000000 
#    z -0.031660 0.000000 1.644080 
# 
# From -- ./inp_files/66563.got.cif
#   From: 2010.05.17/outbox.cif.g08.bks.cpg/sg10_34_cif.got.tgz:66563.got - 2010.06.03 11:33:40.
