data_PCOD9145799
_publ_section_title
;
Structure prediction by ZEFSAII (Michael W. Deem and Ramdas Pophale) SiO2 
 PCOD9145799
Probable space group: P 2/M
;
_chemical_formula_sum "Si O2"
_cell_formula_units_Z 28
_cell_length_a 15.497728
_cell_length_b 12.922512
_cell_length_c 9.225396
_cell_angle_alpha 90.000000
_cell_angle_beta 64.805706
_cell_angle_gamma 90.000000
_cell_volume 1671.806164
_symmetry_space_group_name_H-M "P 2/M"
_symmetry_group_IT_number 10
_symmetry_cell_setting 'monoclinic'
loop_
_space_group_symop_operation_xyz
x,y,z
-x,y,-z
-x,-y,-z
x,-y,z
loop_
_atom_site_type_symbol
_atom_site_label
_atom_site_fract_x
_atom_site_fract_y
_atom_site_fract_z
Si Si1 0.220206 0.816177 0.768444
Si Si2 0.099983 0.618489 0.504057
Si Si3 0.427518 0.881899 0.662595
Si Si4 0.896680 0.000000 0.998405
Si Si5 0.105101 0.000000 0.352902
Si Si6 0.225365 0.816667 0.414899
Si Si7 0.566994 0.881498 0.831888
Si Si8 0.900972 0.382861 0.149508
O O1 0.328319 0.824995 0.744444
O O2 0.218831 0.835953 0.594376
O O3 0.176218 0.703980 0.828359
O O4 0.159250 0.900689 0.899112
O O5 0.124907 0.500000 0.444159
O O6 0.180241 0.704041 0.416598
O O7 0.083757 0.619405 0.688532
O O8 0.000000 0.646011 0.500000
O O9 0.500000 0.829725 0.500000
O O10 0.491956 0.890302 0.756423
O O11 0.404420 0.000000 0.627773
O O12 0.900712 0.000000 0.819320
O O13 0.000000 0.000000 0.000000
O O14 0.162669 0.099170 0.372996
O O15 0.000000 0.000000 0.500000
O O16 0.335038 0.828423 0.286382
O O17 0.592848 0.000000 0.860043
O O18 0.500000 0.829700 0.000000
O O19 0.873051 0.500000 0.128528
O O20 0.000000 0.358120 0.000000
#
# Coordination Sequence:
#
# PCOD9145799 Si02
#       8
#     4   4   4   2   2   4   4   4
#     4  11  21  35  58  82 111 145 184 226 274 327
#     4   9  19  36  58  82 106 140 187 227 268 327
#     4  10  19  32  53  78 106 145 183 222 265 326
#     4  12  26  38  52  80 114 146 180 222 273 336
#     4  12  26  38  52  78 116 149 176 220 277 337
#     4  11  21  36  58  81 111 148 179 227 279 325
#     4  10  21  34  53  78 111 144 184 226 268 323
#     4   9  19  36  57  81 109 142 181 228 274 322
#
# _framework density 16.748352000000001
#
# number of rings (size 3 to 8) (size 9 to 14) (size 15 to 20)
#    0.000    1.714    2.857    2.143    2.000    3.429 
#    0.000    0.000    0.000    1.714    0.000    0.000 
#    0.000    0.000    0.000    0.000    0.000    0.000 
#
# Total GULP energy -156076.807720 kJ/mol
# GULP energy per Si atom -5574.171704 kJ/mol
# Density = 1.671023 g / cm^3
# Si number density = 16.748352 Si / 1000 Ang^3
#
#
#
# Elastic Constant Matrix: (Units=GPa)
#
#
# Indices 1 2 3 4 5 6 
#
# 1 142.2784 74.0865 57.4347 0.0000 -29.9310 0.0000
# 2 74.0865 93.9901 46.9219 0.0000 -23.8925 0.0000
# 3 57.4347 46.9219 102.4061 0.0000 -24.3182 0.0000
# 4 0.0000 0.0000 0.0000 20.9204 0.0000 6.0204
# 5 -29.9310 -23.8925 -24.3182 0.0000 29.4960 0.0000
# 6 0.0000 0.0000 0.0000 6.0204 0.0000 99.9941
#
#
#
# Elastic Compliance Matrix: (Units=1/GPa)
#
#
# Indices 1 2 3 4 5 6 
#
# 1 0.013212 -0.007853 -0.002659 0.000000 0.004853 0.000000
# 2 -0.007853 0.019903 -0.003455 0.000000 0.005304 0.000000
# 3 -0.002659 -0.003455 0.014342 0.000000 0.006327 0.000000
# 4 0.000000 0.000000 0.000000 0.048643 0.000000 -0.002929
# 5 0.004853 0.005304 0.006327 0.000000 0.048341 0.000000
# 6 0.000000 0.000000 0.000000 -0.002929 0.000000 0.010177
#
#
# Mechanical properties :
#
#
# Convention : Reuss Voigt Hill
#
# Bulk Modulus (GPa) = 51.22511 77.28455 64.25483
# Shear Modulus (GPa) = 26.44654 40.76418 33.60536
#
# Velocity S-wave (km/s) = 3.97804 4.93883 4.48424
# Velocity P-wave (km/s) = 7.19384 8.87510 8.07833
#
# Compressibility (1/GPa) = 0.01952168
#
# Stress axis : x y z
#
# Youngs Moduli (GPa) = 75.68769 50.24424 69.72390
#
# Poissons Ratio (x) = 0.39457 0.18542
# Poissons Ratio (y) = 0.59437 0.24093
# Poissons Ratio (z) = 0.20128 0.17362
#
# Static dielectric constant tensor:
#      x y z
#    x 1.525180 0.000000 -0.021040 
#    y 0.000000 1.568180 0.000000 
#    z -0.021040 0.000000 1.575910 
# 
# From -- ./inp_files/28275.got.cif
#   From: 2010.05.17/outbox.cif.g08.bks.cpg/sg10_15_cif.got.tgz:28275.got - 2010.06.03 11:33:40.
