data_PCOD9145383
_publ_section_title
;
Structure prediction by ZEFSAII (Michael W. Deem and Ramdas Pophale) SiO2 
 PCOD9145383
Probable space group: P 2/M
;
_chemical_formula_sum "Si O2"
_cell_formula_units_Z 24
_cell_length_a 16.936963
_cell_length_b 10.945432
_cell_length_c 19.930230
_cell_angle_alpha 90.000000
_cell_angle_beta 20.560502
_cell_angle_gamma 90.000000
_cell_volume 1297.569580
_symmetry_space_group_name_H-M "P 2/M"
_symmetry_group_IT_number 10
_symmetry_cell_setting 'monoclinic'
loop_
_space_group_symop_operation_xyz
x,y,z
-x,y,-z
-x,-y,-z
x,-y,z
loop_
_atom_site_type_symbol
_atom_site_label
_atom_site_fract_x
_atom_site_fract_y
_atom_site_fract_z
Si Si1 0.233341 0.867944 0.854881
Si Si2 0.937626 0.705065 0.906937
Si Si3 0.318913 0.364586 0.703615
Si Si4 0.452322 0.361232 0.249969
Si Si5 0.406106 0.351930 0.003755
Si Si6 0.899211 0.647433 0.362888
O O1 0.348318 0.748780 0.730460
O O2 0.348858 0.000000 0.758264
O O3 0.156459 0.833479 0.990970
O O4 0.000000 0.877421 0.000000
O O5 0.080335 0.648463 0.854581
O O6 0.089675 0.705823 0.719757
O O7 0.710679 0.634801 0.068267
O O8 0.500000 0.356970 0.500000
O O9 0.337275 0.500000 0.720213
O O10 0.367511 0.500000 0.309763
O O11 0.464025 0.305387 0.166047
O O12 0.294604 0.306909 0.433028
O O13 0.429372 0.500000 0.984363
O O14 0.500000 0.307678 0.000000
O O15 0.141548 0.328972 0.203954
O O16 0.876196 0.500000 0.370390
#
# Coordination Sequence:
#
# PCOD9145383 Si02
#       6
#     4   4   4   4   4   4
#     4   9  20  37  53  69  95 130 168 209 258 307
#     4  10  19  32  49  65  96 125 164 208 253 294
#     4  10  21  33  50  77 100 126 170 216 257 301
#     4   9  17  27  43  66  95 130 162 202 251 292
#     4   8  14  25  39  60  93 132 169 200 235 289
#     4   9  17  27  42  67  95 127 164 201 249 296
#
# _framework density 18.496117999999999
#
# number of rings (size 3 to 8) (size 9 to 14) (size 15 to 20)
#    0.000    2.833    0.000    2.500    2.333    5.333 
#    0.000    3.333    0.000    0.000    0.000    0.000 
#    0.000   10.667    0.000   12.000    0.000    1.333 
#
# Total GULP energy -133654.450366 kJ/mol
# GULP energy per Si atom -5568.935432 kJ/mol
# Density = 1.845402 g / cm^3
# Si number density = 18.496118 Si / 1000 Ang^3
#
#
#
# Elastic Constant Matrix: (Units=GPa)
#
#
# Indices 1 2 3 4 5 6 
#
# 1 111.1461 25.0242 43.6147 0.0000 21.8733 0.0000
# 2 25.0242 88.6375 25.5413 0.0000 15.7028 0.0000
# 3 43.6147 25.5413 103.9361 0.0000 35.6148 0.0000
# 4 0.0000 0.0000 0.0000 10.7874 0.0000 -6.1280
# 5 21.8733 15.7028 35.6148 0.0000 30.3445 0.0000
# 6 0.0000 0.0000 0.0000 -6.1280 0.0000 8.3748
#
#
#
# Elastic Compliance Matrix: (Units=1/GPa)
#
#
# Indices 1 2 3 4 5 6 
#
# 1 0.011300 -0.001652 -0.003074 0.000000 -0.003683 0.000000
# 2 -0.001652 0.012789 -0.000987 0.000000 -0.004269 0.000000
# 3 -0.003074 -0.000987 0.017094 0.000000 -0.017337 0.000000
# 4 0.000000 0.000000 0.000000 0.158645 0.000000 0.116085
# 5 -0.003683 -0.004269 -0.017337 0.000000 0.058167 0.000000
# 6 0.000000 0.000000 0.000000 0.116085 0.000000 0.204349
#
#
# Mechanical properties :
#
#
# Convention : Reuss Voigt Hill
#
# Bulk Modulus (GPa) = 33.60420 54.67557 44.13988
# Shear Modulus (GPa) = 10.33722 23.87064 17.10393
#
# Velocity S-wave (km/s) = 2.36664 3.59636 3.04424
# Velocity P-wave (km/s) = 5.06712 6.84615 6.02268
#
# Compressibility (1/GPa) = 0.02975819
#
# Stress axis : x y z
#
# Youngs Moduli (GPa) = 88.49462 78.19252 58.49874
#
# Poissons Ratio (x) = 0.12918 0.17982
# Poissons Ratio (y) = 0.14620 0.05772
# Poissons Ratio (z) = 0.27203 0.07715
#
# Static dielectric constant tensor:
#      x y z
#    x 1.677290 0.000000 0.023970 
#    y 0.000000 1.657680 0.000000 
#    z 0.023970 0.000000 1.682840 
# 
# From -- ./inp_files/85774.got.cif
#   From: 2010.05.17/outbox.cif.g08.bks.cpg/sg10_43_cif.got.tgz:85774.got - 2010.06.03 11:33:40.
