data_PCOD9145648
_publ_section_title
;
Structure prediction by ZEFSAII (Michael W. Deem and Ramdas Pophale) SiO2 
 PCOD9145648
Probable space group: P 2/M
;
_chemical_formula_sum "Si O2"
_cell_formula_units_Z 24
_cell_length_a 15.113790
_cell_length_b 9.346062
_cell_length_c 8.812807
_cell_angle_alpha 90.000000
_cell_angle_beta 114.829742
_cell_angle_gamma 90.000000
_cell_volume 1129.773712
_symmetry_space_group_name_H-M "P 2/M"
_symmetry_group_IT_number 10
_symmetry_cell_setting 'monoclinic'
loop_
_space_group_symop_operation_xyz
x,y,z
-x,y,-z
-x,-y,-z
x,-y,z
loop_
_atom_site_type_symbol
_atom_site_label
_atom_site_fract_x
_atom_site_fract_y
_atom_site_fract_z
Si Si1 0.993022 0.662676 0.675136
Si Si2 0.805269 0.829121 0.651362
Si Si3 0.536549 0.338851 0.688191
Si Si4 0.675849 0.339739 0.327361
Si Si5 0.610400 0.163585 0.007661
Si Si6 0.102310 0.835868 0.977753
O O1 0.975161 0.500000 0.716532
O O2 0.904212 0.767126 0.650803
O O3 0.000000 0.660036 0.500000
O O4 0.086361 0.728169 0.828428
O O5 0.722682 0.747477 0.499250
O O6 0.798319 0.000000 0.627900
O O7 0.816027 0.799446 0.838753
O O8 0.500000 0.280857 0.500000
O O9 0.577100 0.500000 0.692582
O O10 0.437704 0.354115 0.713602
O O11 0.603064 0.238824 0.839083
O O12 0.718333 0.500000 0.345418
O O13 0.677321 0.252462 0.171881
O O14 0.642715 0.000000 0.018740
O O15 0.500000 0.160876 0.000000
O O16 0.114822 0.000000 0.935757
O O17 0.000000 0.831813 0.000000
#
# Coordination Sequence:
#
# PCOD9145648 Si02
#       6
#     4   4   4   4   4   4
#     4  10  20  33  51  76 102 129 164 203 242 289
#     4  10  20  34  52  74 100 129 164 204 246 293
#     4   9  18  33  52  74 100 131 166 204 247 294
#     4  10  19  32  52  75  99 129 165 204 247 293
#     4   9  17  30  49  72  98 130 167 203 241 291
#     4   8  16  31  50  71  95 128 166 200 239 290
#
# _framework density 21.243192000000001
#
# number of rings (size 3 to 8) (size 9 to 14) (size 15 to 20)
#    0.000    2.667    0.000    3.000    0.000    8.000 
#    0.000    1.667    0.000    6.000    0.000    0.000 
#    0.000    0.000    0.000    0.000    0.000    0.000 
#
# Total GULP energy -133898.753978 kJ/mol
# GULP energy per Si atom -5579.114749 kJ/mol
# Density = 2.119484 g / cm^3
# Si number density = 21.243192 Si / 1000 Ang^3
#
#
#
# Elastic Constant Matrix: (Units=GPa)
#
#
# Indices 1 2 3 4 5 6 
#
# 1 28.7916 7.6506 1.8223 0.0000 4.5120 0.0000
# 2 7.6506 148.7650 108.6980 0.0000 5.4893 0.0000
# 3 1.8223 108.6980 168.2894 0.0000 0.2569 0.0000
# 4 0.0000 0.0000 0.0000 25.4475 0.0000 1.2429
# 5 4.5120 5.4893 0.2569 0.0000 19.9732 0.0000
# 6 0.0000 0.0000 0.0000 1.2429 0.0000 59.7031
#
#
#
# Elastic Compliance Matrix: (Units=1/GPa)
#
#
# Indices 1 2 3 4 5 6 
#
# 1 0.036505 -0.002495 0.001228 0.000000 -0.007577 0.000000
# 2 -0.002495 0.013134 -0.008452 0.000000 -0.002937 0.000000
# 3 0.001228 -0.008452 0.011385 0.000000 0.001899 0.000000
# 4 0.000000 0.000000 0.000000 0.039337 0.000000 -0.000819
# 5 -0.007577 -0.002937 0.001899 0.000000 0.052562 0.000000
# 6 0.000000 0.000000 0.000000 -0.000819 0.000000 0.016767
#
#
# Mechanical properties :
#
#
# Convention : Reuss Voigt Hill
#
# Bulk Modulus (GPa) = 24.04647 64.68751 44.36699
# Shear Modulus (GPa) = 24.63187 36.20309 30.41748
#
# Velocity S-wave (km/s) = 3.40886 4.13270 3.78811
# Velocity P-wave (km/s) = 5.18054 7.29995 6.32959
#
# Compressibility (1/GPa) = 0.04158614
#
# Stress axis : x y z
#
# Youngs Moduli (GPa) = 27.39357 76.13688 87.83472
#
# Poissons Ratio (x) = 0.18995 -0.10783
# Poissons Ratio (y) = 0.06834 0.74237
# Poissons Ratio (z) = -0.03363 0.64350
#
# Static dielectric constant tensor:
#      x y z
#    x 1.825980 0.000000 0.026170 
#    y 0.000000 1.747270 0.000000 
#    z 0.026170 0.000000 1.780950 
# 
# From -- ./inp_files/33435.got.cif
#   From: 2010.05.17/outbox.cif.g08.bks.cpg/sg10_17_cif.got.tgz:33435.got - 2010.06.03 11:33:40.
