data_PCOD9145932
_publ_section_title
;
Structure prediction by ZEFSAII (Michael W. Deem and Ramdas Pophale) SiO2 
 PCOD9145932
Probable space group: P 2/M
;
_chemical_formula_sum "Si O2"
_cell_formula_units_Z 24
_cell_length_a 14.973762
_cell_length_b 7.699078
_cell_length_c 8.077671
_cell_angle_alpha 90.000000
_cell_angle_beta 101.312908
_cell_angle_gamma 90.000000
_cell_volume 913.134234
_symmetry_space_group_name_H-M "P 2/M"
_symmetry_group_IT_number 10
_symmetry_cell_setting 'monoclinic'
loop_
_space_group_symop_operation_xyz
x,y,z
-x,y,-z
-x,-y,-z
x,-y,z
loop_
_atom_site_type_symbol
_atom_site_label
_atom_site_fract_x
_atom_site_fract_y
_atom_site_fract_z
Si Si1 0.217692 0.211480 0.032366
Si Si2 0.106739 0.699671 0.661450
Si Si3 0.056800 0.792974 0.183019
Si Si4 0.390488 0.204911 0.272957
Si Si5 0.720489 0.711802 0.439306
Si Si6 0.560084 0.299769 0.167711
O O1 0.157314 0.269752 0.170534
O O2 0.320973 0.265465 0.102857
O O3 0.215672 0.000000 0.023719
O O4 0.167259 0.280005 0.851634
O O5 0.098627 0.500000 0.614742
O O6 0.176457 0.779874 0.551998
O O7 0.005503 0.753979 0.680916
O O8 0.060215 0.000000 0.178676
O O9 0.000000 0.733131 0.000000
O O10 0.332728 0.233880 0.416971
O O11 0.487404 0.294838 0.292008
O O12 0.406644 0.000000 0.263673
O O13 0.722086 0.500000 0.435598
O O14 0.654622 0.775835 0.266277
O O15 0.577193 0.500000 0.129944
O O16 0.500000 0.215732 0.000000
#
# Coordination Sequence:
#
# PCOD9145932 Si02
#       6
#     4   4   4   4   4   4
#     4   9  19  35  53  76 107 141 176 215 263 316
#     4  10  19  32  54  82 106 134 178 224 261 304
#     4   8  15  30  51  74 104 140 174 213 263 313
#     4  11  23  37  55  80 108 139 177 219 260 305
#     4  10  22  38  54  76 109 144 174 209 261 321
#     4  10  21  39  61  81 104 138 175 211 260 319
#
# _framework density 26.283100999999998
#
# number of rings (size 3 to 8) (size 9 to 14) (size 15 to 20)
#    0.000    2.333    0.000    3.500    0.000   10.000 
#    0.000    0.833    0.000    5.000    0.000    0.000 
#    0.000    0.000    0.000    0.000    0.000    0.000 
#
# Total GULP energy -134147.671692 kJ/mol
# GULP energy per Si atom -5589.486321 kJ/mol
# Density = 2.622328 g / cm^3
# Si number density = 26.283101 Si / 1000 Ang^3
#
#
#
# Elastic Constant Matrix: (Units=GPa)
#
#
# Indices 1 2 3 4 5 6 
#
# 1 180.6580 17.2753 10.1222 0.0000 -12.3992 0.0000
# 2 17.2753 65.9649 -7.8319 0.0000 0.3171 0.0000
# 3 10.1222 -7.8319 91.7100 0.0000 -17.8615 0.0000
# 4 0.0000 0.0000 0.0000 26.7410 0.0000 -9.9118
# 5 -12.3992 0.3171 -17.8615 0.0000 53.7145 0.0000
# 6 0.0000 0.0000 0.0000 -9.9118 0.0000 22.3092
#
#
#
# Elastic Compliance Matrix: (Units=1/GPa)
#
#
# Indices 1 2 3 4 5 6 
#
# 1 0.005798 -0.001589 -0.000549 0.000000 0.001165 0.000000
# 2 -0.001589 0.015757 0.001531 0.000000 0.000049 0.000000
# 3 -0.000549 0.001531 0.011835 0.000000 0.003800 0.000000
# 4 0.000000 0.000000 0.000000 0.044768 0.000000 0.019890
# 5 0.001165 0.000049 0.003800 0.000000 0.020149 0.000000
# 6 0.000000 0.000000 0.000000 0.019890 0.000000 0.053662
#
#
# Mechanical properties :
#
#
# Convention : Reuss Voigt Hill
#
# Bulk Modulus (GPa) = 31.07907 41.94048 36.50977
# Shear Modulus (GPa) = 30.50464 41.80409 36.15436
#
# Velocity S-wave (km/s) = 3.41048 3.99247 3.71290
# Velocity P-wave (km/s) = 5.23057 6.10287 5.68348
#
# Compressibility (1/GPa) = 0.03217600
#
# Stress axis : x y z
#
# Youngs Moduli (GPa) = 172.47308 63.46288 84.49324
#
# Poissons Ratio (x) = 0.10085 0.04636
# Poissons Ratio (y) = 0.27409 -0.12933
# Poissons Ratio (z) = 0.09464 -0.09714
#
# Static dielectric constant tensor:
#      x y z
#    x 2.069930 0.000000 -0.027080 
#    y 0.000000 1.954730 0.000000 
#    z -0.027080 0.000000 2.206460 
# 
# From -- ./inp_files/27194.got.cif
#   From: 2010.05.17/outbox.cif.g08.bks.cpg/sg10_14_cif.got.tgz:27194.got - 2010.06.03 11:33:40.
