data_PCOD9145682
_publ_section_title
;
Structure prediction by ZEFSAII (Michael W. Deem and Ramdas Pophale) SiO2 
 PCOD9145682
Probable space group: P 2/M
;
_chemical_formula_sum "Si O2"
_cell_formula_units_Z 28
_cell_length_a 19.417122
_cell_length_b 14.476602
_cell_length_c 8.849242
_cell_angle_alpha 90.000000
_cell_angle_beta 137.354386
_cell_angle_gamma 90.000000
_cell_volume 1685.164727
_symmetry_space_group_name_H-M "P 2/M"
_symmetry_group_IT_number 10
_symmetry_cell_setting 'monoclinic'
loop_
_space_group_symop_operation_xyz
x,y,z
-x,y,-z
-x,-y,-z
x,-y,z
loop_
_atom_site_type_symbol
_atom_site_label
_atom_site_fract_x
_atom_site_fract_y
_atom_site_fract_z
Si Si1 0.889570 0.273517 0.879613
Si Si2 0.137321 0.894753 0.395328
Si Si3 0.057019 0.168527 0.740710
Si Si4 0.745688 0.104727 0.108490
Si Si5 0.394139 0.265779 0.242360
Si Si6 0.291586 0.393956 0.324075
Si Si7 0.505601 0.393953 0.839158
O O1 0.861184 0.183512 0.731455
O O2 0.802434 0.349963 0.737908
O O3 0.903403 0.242308 0.075326
O O4 0.000000 0.305468 0.000000
O O5 0.218206 0.876299 0.660421
O O6 0.027632 0.888101 0.302014
O O7 0.150897 0.000000 0.360891
O O8 0.152251 0.112840 0.828558
O O9 0.000000 0.207517 0.500000
O O10 0.707577 0.000000 0.040593
O O11 0.665449 0.177372 0.915213
O O12 0.500000 0.242832 0.500000
O O13 0.322854 0.326452 0.237389
O O14 0.425854 0.331025 0.155317
O O15 0.271682 0.500000 0.244449
O O16 0.392424 0.394925 0.589130
O O17 0.543138 0.500000 0.900427
O O18 0.500000 0.359110 0.000000
#
# Coordination Sequence:
#
# PCOD9145682 Si02
#       7
#     4   4   4   4   4   4   4
#     4  10  20  33  52  80 107 144 173 211 261 311
#     4   9  19  32  50  77 107 137 176 220 257 299
#     4   9  17  32  52  75 103 137 177 217 255 301
#     4  10  19  32  52  77 106 139 174 213 259 311
#     4  10  20  35  55  78 104 140 173 217 263 307
#     4  10  20  36  55  78 106 137 175 215 264 311
#     4   9  19  35  58  83 101 127 173 224 267 308
#
# _framework density 16.615586
#
# number of rings (size 3 to 8) (size 9 to 14) (size 15 to 20)
#    0.000    2.429    1.429    0.857    2.000    7.143 
#    0.000    0.000    0.000    0.857    0.000    0.000 
#    0.000    0.000    0.000    0.000    0.000    0.000 
#
# Total GULP energy -156009.381109 kJ/mol
# GULP energy per Si atom -5571.763611 kJ/mol
# Density = 1.657777 g / cm^3
# Si number density = 16.615586 Si / 1000 Ang^3
#
#
#
# Elastic Constant Matrix: (Units=GPa)
#
#
# Indices 1 2 3 4 5 6 
#
# 1 78.1241 45.2976 44.7390 0.0000 1.1265 0.0000
# 2 45.2976 87.6870 54.3336 0.0000 11.5713 0.0000
# 3 44.7390 54.3336 59.4535 0.0000 -1.0350 0.0000
# 4 0.0000 0.0000 0.0000 -3.8032 0.0000 -8.6965
# 5 1.1265 11.5713 -1.0350 0.0000 24.4340 0.0000
# 6 0.0000 0.0000 0.0000 -8.6965 0.0000 12.1858
#
#
#
# Elastic Compliance Matrix: (Units=1/GPa)
#
#
# Indices 1 2 3 4 5 6 
#
# 1 0.022760 -0.002473 -0.014877 0.000000 -0.000509 0.000000
# 2 -0.002473 0.031899 -0.027573 0.000000 -0.016160 0.000000
# 3 -0.014877 -0.027573 0.053491 0.000000 0.016009 0.000000
# 4 0.000000 0.000000 0.000000 -0.099905 0.000000 -0.071298
# 5 -0.000509 -0.016160 0.016009 0.000000 0.049281 0.000000
# 6 0.000000 0.000000 0.000000 -0.071298 0.000000 0.031181
#
#
# Mechanical properties :
#
#
# Convention : Reuss Voigt Hill
#
# Bulk Modulus (GPa) = 54.62300 57.11165 55.86732
# Shear Modulus (GPa) = 27.07765 11.95626 19.51696
#
# Velocity S-wave (km/s) = 4.04128 2.68541 3.43099
# Velocity P-wave (km/s) = 7.39742 6.63794 7.02794
#
# Compressibility (1/GPa) = 0.01830731
#
# Stress axis : x y z
#
# Youngs Moduli (GPa) = 43.93603 31.34903 18.69457
#
# Poissons Ratio (x) = 0.07751 0.27811
# Poissons Ratio (y) = 0.10863 0.51546
# Poissons Ratio (z) = 0.65361 0.86438
#
# Static dielectric constant tensor:
#      x y z
#    x 1.558380 0.000000 -0.001480 
#    y 0.000000 1.549370 0.000000 
#    z -0.001480 0.000000 1.567680 
# 
# From -- ./inp_files/24883.got.cif
#   From: 2010.05.17/outbox.cif.g08.bks.cpg/sg10_13_cif.got.tgz:24883.got - 2010.06.03 11:33:40.
