data_PCOD9145680
_publ_section_title
;
Structure prediction by ZEFSAII (Michael W. Deem and Ramdas Pophale) SiO2 
 PCOD9145680
Probable space group: P 2/M
;
_chemical_formula_sum "Si O2"
_cell_formula_units_Z 32
_cell_length_a 12.603054
_cell_length_b 8.717306
_cell_length_c 20.720120
_cell_angle_alpha 90.000000
_cell_angle_beta 53.923993
_cell_angle_gamma 90.000000
_cell_volume 1839.877197
_symmetry_space_group_name_H-M "P 2/M"
_symmetry_group_IT_number 10
_symmetry_cell_setting 'monoclinic'
loop_
_space_group_symop_operation_xyz
x,y,z
-x,y,-z
-x,-y,-z
x,-y,z
loop_
_atom_site_type_symbol
_atom_site_label
_atom_site_fract_x
_atom_site_fract_y
_atom_site_fract_z
Si Si1 0.144436 0.185242 0.973406
Si Si2 0.649367 0.185151 0.708338
Si Si3 0.885216 0.683451 0.877524
Si Si4 0.105545 0.685231 0.626730
Si Si5 0.822971 0.816130 0.765083
Si Si6 0.148218 0.315335 0.467362
Si Si7 0.647307 0.185075 0.209569
Si Si8 0.814306 0.684091 0.262687
O O1 0.253758 0.235129 0.882770
O O2 0.145999 0.000000 0.976488
O O3 0.165425 0.251830 0.036912
O O4 0.000000 0.232273 0.000000
O O5 0.710052 0.232495 0.755573
O O6 0.746082 0.242956 0.617898
O O7 0.500773 0.238493 0.750166
O O8 0.649309 0.000000 0.707366
O O9 0.879172 0.500000 0.878945
O O10 0.812882 0.748198 0.840373
O O11 0.039482 0.728194 0.814415
O O12 0.088932 0.500000 0.633575
O O13 0.165003 0.727962 0.536434
O O14 0.188188 0.727222 0.660786
O O15 0.961690 0.757622 0.686827
O O16 0.825336 0.000000 0.768068
O O17 0.156917 0.500000 0.459049
O O18 0.000000 0.271365 0.500000
O O19 0.706389 0.241748 0.255858
O O20 0.647579 0.000000 0.209631
O O21 0.804048 0.500000 0.261925
#
# Coordination Sequence:
#
# PCOD9145680 Si02
#       8
#     4   4   4   4   4   4   4   4
#     4  10  19  33  55  81 105 136 180 224 263 311
#     4  10  22  37  53  77 109 143 176 216 265 316
#     4  10  20  33  53  80 109 136 171 221 268 311
#     4   9  18  33  52  79 109 135 170 219 268 309
#     4  10  19  32  52  77 105 138 176 213 261 316
#     4  10  19  33  56  81 106 138 178 220 263 311
#     4  10  21  37  54  75 108 142 175 217 265 316
#     4   9  18  32  51  76 105 136 171 212 261 315
#
# _framework density 17.392465999999999
#
# number of rings (size 3 to 8) (size 9 to 14) (size 15 to 20)
#    0.000    2.250    2.500    1.500    0.000    4.500 
#    0.000    1.250    0.000    7.500    0.000    0.000 
#    0.000    0.000    0.000    0.000    0.000    0.000 
#
# Total GULP energy -178520.619493 kJ/mol
# GULP energy per Si atom -5578.769359 kJ/mol
# Density = 1.735288 g / cm^3
# Si number density = 17.392466 Si / 1000 Ang^3
#
#
#
# Elastic Constant Matrix: (Units=GPa)
#
#
# Indices 1 2 3 4 5 6 
#
# 1 173.6305 33.0854 93.9731 0.0000 15.3616 0.0000
# 2 33.0854 10.6818 23.3393 0.0000 3.5266 0.0000
# 3 93.9731 23.3393 116.2111 0.0000 12.7263 0.0000
# 4 0.0000 0.0000 0.0000 19.2271 0.0000 5.6188
# 5 15.3616 3.5266 12.7263 0.0000 31.4188 0.0000
# 6 0.0000 0.0000 0.0000 5.6188 0.0000 22.3423
#
#
#
# Elastic Compliance Matrix: (Units=1/GPa)
#
#
# Indices 1 2 3 4 5 6 
#
# 1 0.015702 -0.036992 -0.005108 0.000000 -0.001456 0.000000
# 2 -0.036992 0.254848 -0.021051 0.000000 -0.001992 0.000000
# 3 -0.005108 -0.021051 0.017194 0.000000 -0.002104 0.000000
# 4 0.000000 0.000000 0.000000 0.056135 0.000000 -0.014117
# 5 -0.001456 -0.001992 -0.002104 0.000000 0.033616 0.000000
# 6 0.000000 0.000000 0.000000 -0.014117 0.000000 0.048308
#
#
# Mechanical properties :
#
#
# Convention : Reuss Voigt Hill
#
# Bulk Modulus (GPa) = 6.19422 66.81323 36.50372
# Shear Modulus (GPa) = 8.25191 24.60601 16.42896
#
# Velocity S-wave (km/s) = 2.18056 3.76540 3.07677
# Velocity P-wave (km/s) = 3.14785 7.57646 5.80137
#
# Compressibility (1/GPa) = 0.16144094
#
# Stress axis : x y z
#
# Youngs Moduli (GPa) = 63.68719 3.92391 58.15919
#
# Poissons Ratio (x) = 0.14515 0.29710
# Poissons Ratio (y) = 2.35590 1.22433
# Poissons Ratio (z) = 0.32534 0.08260
#
# Static dielectric constant tensor:
#      x y z
#    x 1.591230 0.000000 0.013640 
#    y 0.000000 1.590350 0.000000 
#    z 0.013640 0.000000 1.573420 
# 
# From -- ./inp_files/49778.got.cif
#   From: 2010.05.17/outbox.cif.g08.bks.cpg/sg10_25_cif.got.tgz:49778.got - 2010.06.03 11:33:40.
