data_PCOD9145206
_publ_section_title
;
Structure prediction by ZEFSAII (Michael W. Deem and Ramdas Pophale) SiO2 
 PCOD9145206
Probable space group: P 2/M
;
_chemical_formula_sum "Si O2"
_cell_formula_units_Z 28
_cell_length_a 5.362103
_cell_length_b 17.950053
_cell_length_c 15.563775
_cell_angle_alpha 90.000000
_cell_angle_beta 64.469537
_cell_angle_gamma 90.000000
_cell_volume 1351.742187
_symmetry_space_group_name_H-M "P 2/M"
_symmetry_group_IT_number 10
_symmetry_cell_setting 'monoclinic'
loop_
_space_group_symop_operation_xyz
x,y,z
-x,y,-z
-x,-y,-z
x,-y,z
loop_
_atom_site_type_symbol
_atom_site_label
_atom_site_fract_x
_atom_site_fract_y
_atom_site_fract_z
Si Si1 0.522748 0.370942 0.795711
Si Si2 0.638479 0.188486 0.390026
Si Si3 0.241111 0.090357 0.787440
Si Si4 0.286284 0.272418 0.968071
Si Si5 0.142762 0.712942 0.389698
Si Si6 0.898763 0.418339 0.893531
Si Si7 0.623795 0.087235 0.886872
O O1 0.431358 0.294879 0.858433
O O2 0.726135 0.351697 0.687975
O O3 0.705017 0.413379 0.839144
O O4 0.223256 0.407427 0.822356
O O5 0.500000 0.163454 0.500000
O O6 0.679463 0.121790 0.317338
O O7 0.410169 0.240320 0.378802
O O8 0.915996 0.236129 0.372411
O O9 0.432514 0.117290 0.838258
O O10 0.929787 0.119412 0.845373
O O11 0.245605 0.000000 0.787820
O O12 0.500000 0.235525 0.000000
O O13 0.199211 0.350234 0.030901
O O14 0.000000 0.231132 0.000000
O O15 0.000000 0.687586 0.500000
O O16 0.858035 0.500000 0.938859
O O17 0.660192 0.000000 0.858216
O O18 0.500000 0.086014 0.000000
#
# Coordination Sequence:
#
# PCOD9145206 Si02
#       7
#     4   4   4   4   4   4   4
#     4  10  19  32  52  74  99 134 174 213 252 296
#     4  10  21  37  57  80 104 134 177 228 277 326
#     4  10  19  32  54  83 112 141 173 218 277 330
#     4   8  16  27  44  71 101 130 160 194 243 298
#     4  10  21  38  58  75  96 136 187 227 260 311
#     4  10  19  31  51  80 109 135 166 204 257 324
#     4   9  17  30  50  75 106 144 180 208 241 303
#
# _framework density 20.714009000000001
#
# number of rings (size 3 to 8) (size 9 to 14) (size 15 to 20)
#    0.000    2.429    0.000    2.571    0.000    7.143 
#    0.000    0.000    0.000   33.429    0.000    0.000 
#    0.000    0.000    0.000    0.000    0.000    0.000 
#
# Total GULP energy -156248.638816 kJ/mol
# GULP energy per Si atom -5580.308529 kJ/mol
# Density = 2.066686 g / cm^3
# Si number density = 20.714009 Si / 1000 Ang^3
#
#
#
# Elastic Constant Matrix: (Units=GPa)
#
#
# Indices 1 2 3 4 5 6 
#
# 1 196.1399 26.7682 46.8861 0.0000 6.7438 0.0000
# 2 26.7682 50.8648 18.3688 0.0000 -0.4164 0.0000
# 3 46.8861 18.3688 95.5110 0.0000 4.7328 0.0000
# 4 0.0000 0.0000 0.0000 26.1608 0.0000 1.9928
# 5 6.7438 -0.4164 4.7328 0.0000 24.1470 0.0000
# 6 0.0000 0.0000 0.0000 1.9928 0.0000 -41.9096
#
#
#
# Elastic Compliance Matrix: (Units=1/GPa)
#
#
# Indices 1 2 3 4 5 6 
#
# 1 0.006044 -0.002302 -0.002463 0.000000 -0.001245 0.000000
# 2 -0.002302 0.022037 -0.003190 0.000000 0.001648 0.000000
# 3 -0.002463 -0.003190 0.012381 0.000000 -0.001794 0.000000
# 4 0.000000 0.000000 0.000000 0.038087 0.000000 0.001811
# 5 -0.001245 0.001648 -0.001794 0.000000 0.042141 0.000000
# 6 0.000000 0.000000 0.000000 0.001811 0.000000 -0.023775
#
#
# Mechanical properties :
#
#
# Convention : Reuss Voigt Hill
#
# Bulk Modulus (GPa) = 40.72718 58.50685 49.61702
# Shear Modulus (GPa) = 41.31956 18.37914 29.84935
#
# Velocity S-wave (km/s) = 4.47112 2.98196 3.80020
# Velocity P-wave (km/s) = 6.80874 6.33739 6.57729
#
# Compressibility (1/GPa) = 0.02455362
#
# Stress axis : x y z
#
# Youngs Moduli (GPa) = 165.45338 45.37892 80.76697
#
# Poissons Ratio (x) = 0.10444 0.19890
# Poissons Ratio (y) = 0.38080 0.25764
# Poissons Ratio (z) = 0.40745 0.14476
#
# Static dielectric constant tensor:
#      x y z
#    x 1.813590 0.000000 -0.044350 
#    y 0.000000 1.768790 0.000000 
#    z -0.044350 0.000000 1.877320 
# 
# From -- ./inp_files/59377.got.cif
#   From: 2010.05.17/outbox.cif.g08.bks.cpg/sg10_30_cif.got.tgz:59377.got - 2010.06.03 11:33:40.
