data_PCOD9145014
_publ_section_title
;
Structure prediction by ZEFSAII (Michael W. Deem and Ramdas Pophale) SiO2 
 PCOD9145014
Probable space group: P 2/M
;
_chemical_formula_sum "Si O2"
_cell_formula_units_Z 20
_cell_length_a 12.146448
_cell_length_b 13.710534
_cell_length_c 15.269157
_cell_angle_alpha 90.000000
_cell_angle_beta 154.684694
_cell_angle_gamma 90.000000
_cell_volume 1087.315996
_symmetry_space_group_name_H-M "P 2/M"
_symmetry_group_IT_number 10
_symmetry_cell_setting 'monoclinic'
loop_
_space_group_symop_operation_xyz
x,y,z
-x,y,-z
-x,-y,-z
x,-y,z
loop_
_atom_site_type_symbol
_atom_site_label
_atom_site_fract_x
_atom_site_fract_y
_atom_site_fract_z
Si Si1 0.729198 0.729985 0.001748
Si Si2 0.749801 0.385909 0.623854
Si Si3 0.743263 0.612528 0.411404
Si Si4 0.893261 0.787401 0.310072
Si Si5 0.373137 0.885174 0.711851
O O1 0.001133 0.679912 0.176854
O O2 0.751393 0.766186 0.117978
O O3 0.498136 0.653741 0.816942
O O4 0.632876 0.825461 0.880248
O O5 0.500000 0.358629 0.500000
O O6 0.811554 0.500000 0.686561
O O7 0.684936 0.379608 0.473798
O O8 0.792118 0.500000 0.426435
O O9 0.990691 0.682168 0.580379
O O10 0.148967 0.854257 0.483066
O O11 0.737032 0.841322 0.274865
O O12 0.403710 0.000000 0.739754
#
# Coordination Sequence:
#
# PCOD9145014 Si02
#       5
#     4   4   4   4   4
#     4  10  19  31  49  75 102 129 163 204 248 291
#     4   9  18  33  53  76 102 132 164 200 243 290
#     4   9  18  32  49  73 105 135 164 197 237 291
#     4   9  18  32  49  72 102 132 164 201 242 288
#     4  10  20  34  53  74  96 127 168 209 248 292
#
# _framework density 18.393916000000001
#
# number of rings (size 3 to 8) (size 9 to 14) (size 15 to 20)
#    0.000    2.600    0.000    2.400    0.000    4.000 
#    0.000   12.000    0.000   23.400    0.000   12.600 
#    0.000    0.000    0.000    0.000    0.000    0.000 
#
# Total GULP energy -111409.236063 kJ/mol
# GULP energy per Si atom -5570.461803 kJ/mol
# Density = 1.835205 g / cm^3
# Si number density = 18.393916 Si / 1000 Ang^3
#
#
#
# Elastic Constant Matrix: (Units=GPa)
#
#
# Indices 1 2 3 4 5 6 
#
# 1 45.0875 19.1782 25.5604 0.0000 7.1411 0.0000
# 2 19.1782 157.3092 58.8248 0.0000 11.7686 0.0000
# 3 25.5604 58.8248 140.4214 0.0000 5.8022 0.0000
# 4 0.0000 0.0000 0.0000 2.9252 0.0000 14.4897
# 5 7.1411 11.7686 5.8022 0.0000 20.0280 0.0000
# 6 0.0000 0.0000 0.0000 14.4897 0.0000 8.7362
#
#
#
# Elastic Compliance Matrix: (Units=1/GPa)
#
#
# Indices 1 2 3 4 5 6 
#
# 1 0.026097 -0.001139 -0.003964 0.000000 -0.007487 0.000000
# 2 -0.001139 0.007846 -0.002941 0.000000 -0.003352 0.000000
# 3 -0.003964 -0.002941 0.009054 0.000000 0.000519 0.000000
# 4 0.000000 0.000000 0.000000 -0.047378 0.000000 0.078579
# 5 -0.007487 -0.003352 0.000519 0.000000 0.054419 0.000000
# 6 0.000000 0.000000 0.000000 0.078579 0.000000 -0.015864
#
#
# Mechanical properties :
#
#
# Convention : Reuss Voigt Hill
#
# Bulk Modulus (GPa) = 37.16292 61.10502 49.13397
# Shear Modulus (GPa) = 84.41354 22.28819 53.35087
#
# Velocity S-wave (km/s) = 6.78172 3.48475 5.39144
# Velocity P-wave (km/s) = 9.03162 7.03446 8.09487
#
# Compressibility (1/GPa) = 0.02690854
#
# Stress axis : x y z
#
# Youngs Moduli (GPa) = 38.31924 127.44708 110.45387
#
# Poissons Ratio (x) = 0.14519 0.43780
# Poissons Ratio (y) = 0.04365 0.32486
# Poissons Ratio (z) = 0.15188 0.37483
#
# Static dielectric constant tensor:
#      x y z
#    x 1.672870 0.000000 -0.013810 
#    y 0.000000 1.642740 0.000000 
#    z -0.013810 0.000000 1.680460 
# 
# From -- ./inp_files/69017.got.cif
#   From: 2010.05.17/outbox.cif.g08.bks.cpg/sg10_35_cif.got.tgz:69017.got - 2010.06.03 11:33:40.
