data_PCOD9145104
_publ_section_title
;
Structure prediction by ZEFSAII (Michael W. Deem and Ramdas Pophale) SiO2 
 PCOD9145104
Probable space group: P 2/M
;
_chemical_formula_sum "Si O2"
_cell_formula_units_Z 24
_cell_length_a 22.125625
_cell_length_b 12.354418
_cell_length_c 15.111718
_cell_angle_alpha 90.000000
_cell_angle_beta 19.156026
_cell_angle_gamma 90.000000
_cell_volume 1355.480170
_symmetry_space_group_name_H-M "P 2/M"
_symmetry_group_IT_number 10
_symmetry_cell_setting 'monoclinic'
loop_
_space_group_symop_operation_xyz
x,y,z
-x,y,-z
-x,-y,-z
x,-y,z
loop_
_atom_site_type_symbol
_atom_site_label
_atom_site_fract_x
_atom_site_fract_y
_atom_site_fract_z
Si Si1 0.523737 0.615554 0.846025
Si Si2 0.447223 0.721319 0.777341
Si Si3 0.839416 0.372005 0.959905
Si Si4 0.192452 0.373339 0.785222
Si Si5 0.214552 0.871419 0.226512
Si Si6 0.767958 0.715331 0.635527
O O1 0.620945 0.500000 0.717294
O O2 0.448222 0.631995 0.853165
O O3 0.659440 0.710946 0.691963
O O4 0.345925 0.623754 0.154208
O O5 0.659596 0.714496 0.453374
O O6 0.328067 0.685556 0.858447
O O7 0.349779 0.820589 0.964536
O O8 0.837621 0.500000 0.942653
O O9 0.024693 0.317720 0.667375
O O10 0.831584 0.360151 0.076474
O O11 0.253800 0.500000 0.686257
O O12 0.000000 0.361629 0.000000
O O13 0.249913 0.817049 0.273902
O O14 0.000000 0.846315 0.500000
O O15 0.236372 0.000000 0.199935
#
# Coordination Sequence:
#
# PCOD9145104 Si02
#       6
#     4   4   4   4   4   4
#     4  10  19  31  50  76 119 152 175 218 273 338
#     4  11  21  35  55  83 109 148 193 230 276 328
#     4  11  20  31  52  81 116 148 186 227 265 329
#     4  10  21  36  55  80 116 158 187 216 268 335
#     4  10  21  40  61  81 108 142 187 244 296 332
#     4  10  19  33  51  80 106 147 187 220 275 332
#
# _framework density 17.705902999999999
#
# number of rings (size 3 to 8) (size 9 to 14) (size 15 to 20)
#    0.000    1.667    1.667    5.000    0.000    2.667 
#    0.000    9.167    0.000    3.500    0.000    0.000 
#    0.000    0.000    0.000    0.000    0.000    0.000 
#
# Total GULP energy -133658.884937 kJ/mol
# GULP energy per Si atom -5569.120206 kJ/mol
# Density = 1.766560 g / cm^3
# Si number density = 17.705903 Si / 1000 Ang^3
#
#
#
# Elastic Constant Matrix: (Units=GPa)
#
#
# Indices 1 2 3 4 5 6 
#
# 1 91.9529 36.1865 26.2568 0.0000 -5.4094 0.0000
# 2 36.1865 88.2408 37.4783 0.0000 -0.5537 0.0000
# 3 26.2568 37.4783 100.4948 0.0000 -3.5310 0.0000
# 4 0.0000 0.0000 0.0000 21.6827 0.0000 -1.3578
# 5 -5.4094 -0.5537 -3.5310 0.0000 27.4085 0.0000
# 6 0.0000 0.0000 0.0000 -1.3578 0.0000 16.4667
#
#
#
# Elastic Compliance Matrix: (Units=1/GPa)
#
#
# Indices 1 2 3 4 5 6 
#
# 1 0.013354 -0.004770 -0.001628 0.000000 0.002330 0.000000
# 2 -0.004770 0.015173 -0.004455 0.000000 -0.001209 0.000000
# 3 -0.001628 -0.004455 0.012078 0.000000 0.001145 0.000000
# 4 0.000000 0.000000 0.000000 0.046359 0.000000 0.003823
# 5 0.002330 -0.001209 0.001145 0.000000 0.037068 0.000000
# 6 0.000000 0.000000 0.000000 0.003823 0.000000 0.061044
#
#
# Mechanical properties :
#
#
# Convention : Reuss Voigt Hill
#
# Bulk Modulus (GPa) = 52.91365 53.39240 53.15303
# Shear Modulus (GPa) = 23.46508 25.16273 24.31391
#
# Velocity S-wave (km/s) = 3.64437 3.77390 3.70970
# Velocity P-wave (km/s) = 6.90349 7.01501 6.95948
#
# Compressibility (1/GPa) = 0.01889871
#
# Stress axis : x y z
#
# Youngs Moduli (GPa) = 74.88176 65.90501 82.79662
#
# Poissons Ratio (x) = 0.31438 0.13482
# Poissons Ratio (y) = 0.35721 0.36885
# Poissons Ratio (z) = 0.12193 0.29360
#
# Static dielectric constant tensor:
#      x y z
#    x 1.673480 0.000000 0.003350 
#    y 0.000000 1.579760 0.000000 
#    z 0.003350 0.000000 1.642380 
# 
# From -- ./inp_files/24017.got.cif
#   From: 2010.05.17/outbox.cif.g08.bks.cpg/sg10_13_cif.got.tgz:24017.got - 2010.06.03 11:33:40.
