data_PCOD9145071
_publ_section_title
;
Structure prediction by ZEFSAII (Michael W. Deem and Ramdas Pophale) SiO2 
 PCOD9145071
Probable space group: P 2/M
;
_chemical_formula_sum "Si O2"
_cell_formula_units_Z 32
_cell_length_a 32.481047
_cell_length_b 9.541722
_cell_length_c 11.817450
_cell_angle_alpha 90.000000
_cell_angle_beta 29.459338
_cell_angle_gamma 90.000000
_cell_volume 1801.250693
_symmetry_space_group_name_H-M "P 2/M"
_symmetry_group_IT_number 10
_symmetry_cell_setting 'monoclinic'
loop_
_space_group_symop_operation_xyz
x,y,z
-x,y,-z
-x,-y,-z
x,-y,z
loop_
_atom_site_type_symbol
_atom_site_label
_atom_site_fract_x
_atom_site_fract_y
_atom_site_fract_z
Si Si1 0.400709 0.664471 0.240812
Si Si2 0.777549 0.168920 0.749134
Si Si3 0.503818 0.657002 0.626096
Si Si4 0.914887 0.665893 0.553107
Si Si5 0.890594 0.334886 0.878758
Si Si6 0.339186 0.842767 0.761108
Si Si7 0.332532 0.665593 0.149542
Si Si8 0.735905 0.159718 0.300413
O O1 0.396766 0.500000 0.283695
O O2 0.357802 0.677443 0.219998
O O3 0.343642 0.760238 0.457136
O O4 0.500000 0.702050 0.000000
O O5 0.862082 0.238767 0.594387
O O6 0.742852 0.241235 0.718361
O O7 0.783464 0.000000 0.726471
O O8 0.709591 0.204407 0.010425
O O9 0.500000 0.650305 0.500000
O O10 0.514381 0.500000 0.647413
O O11 0.583780 0.748443 0.459606
O O12 0.416763 0.711509 0.882251
O O13 0.898686 0.500000 0.571432
O O14 0.890984 0.693427 0.742083
O O15 0.014550 0.689740 0.307185
O O16 0.871802 0.500000 0.937011
O O17 0.821831 0.244587 0.108659
O O18 0.277633 0.845861 0.802294
O O19 0.370419 0.000000 0.708310
O O20 0.317403 0.500000 0.160586
O O21 0.740232 0.000000 0.332362
#
# Coordination Sequence:
#
# PCOD9145071 Si02
#       8
#     4   4   4   4   4   4   4   4
#     4  10  22  41  62  81 106 144 192 240 280 322
#     4  11  21  33  51  78 114 149 179 214 269 335
#     4  10  19  31  50  74  99 133 176 222 269 319
#     4   9  18  33  54  82 115 148 183 225 273 328
#     4   9  18  33  55  83 113 147 186 226 273 328
#     4  10  21  33  46  73 110 145 176 214 266 324
#     4  10  21  37  55  78 106 139 184 231 278 329
#     4  11  22  36  55  81 113 146 186 229 275 329
#
# _framework density 17.765435
#
# number of rings (size 3 to 8) (size 9 to 14) (size 15 to 20)
#    0.000    2.000    2.500    2.250    0.000    4.500 
#    0.000    1.250    0.000    0.750    0.000    5.250 
#    0.000    0.000    0.000    0.000    0.000    0.000 
#
# Total GULP energy -178440.438513 kJ/mol
# GULP energy per Si atom -5576.263704 kJ/mol
# Density = 1.772500 g / cm^3
# Si number density = 17.765435 Si / 1000 Ang^3
#
#
#
# Elastic Constant Matrix: (Units=GPa)
#
#
# Indices 1 2 3 4 5 6 
#
# 1 76.4247 41.3433 22.3142 0.0000 -17.7542 0.0000
# 2 41.3433 81.5504 66.2763 0.0000 -23.2241 0.0000
# 3 22.3142 66.2763 92.5318 0.0000 -16.6887 0.0000
# 4 0.0000 0.0000 0.0000 76.1395 0.0000 -42.2911
# 5 -17.7542 -23.2241 -16.6887 0.0000 28.3959 0.0000
# 6 0.0000 0.0000 0.0000 -42.2911 0.0000 46.7257
#
#
#
# Elastic Compliance Matrix: (Units=1/GPa)
#
#
# Indices 1 2 3 4 5 6 
#
# 1 0.019664 -0.013029 0.005465 0.000000 0.004851 0.000000
# 2 -0.013029 0.043026 -0.025501 0.000000 0.012056 0.000000
# 3 0.005465 -0.025501 0.027527 0.000000 -0.001262 0.000000
# 4 0.000000 0.000000 0.000000 0.026412 0.000000 0.023905
# 5 0.004851 0.012056 -0.001262 0.000000 0.047368 0.000000
# 6 0.000000 0.000000 0.000000 0.023905 0.000000 0.043038
#
#
# Mechanical properties :
#
#
# Convention : Reuss Voigt Hill
#
# Bulk Modulus (GPa) = 41.51715 56.70829 49.11272
# Shear Modulus (GPa) = 17.78137 38.29044 28.03590
#
# Velocity S-wave (km/s) = 3.16713 4.64759 3.97686
# Velocity P-wave (km/s) = 6.06586 7.79680 6.98515
#
# Compressibility (1/GPa) = 0.02408643
#
# Stress axis : x y z
#
# Youngs Moduli (GPa) = 50.85354 23.24193 36.32810
#
# Poissons Ratio (x) = 0.30282 -0.19853
# Poissons Ratio (y) = 0.66258 0.92640
# Poissons Ratio (z) = -0.27791 0.59269
#
# Static dielectric constant tensor:
#      x y z
#    x 1.625210 0.000000 -0.001890 
#    y 0.000000 1.621200 0.000000 
#    z -0.001890 0.000000 1.593800 
# 
# From -- ./inp_files/58168.got.cif
#   From: 2010.05.17/outbox.cif.g08.bks.cpg/sg10_30_cif.got.tgz:58168.got - 2010.06.03 11:33:40.
