data_PCOD9145982
_publ_section_title
;
Structure prediction by ZEFSAII (Michael W. Deem and Ramdas Pophale) SiO2 
 PCOD9145982
Probable space group: P 2/M
;
_chemical_formula_sum "Si O2"
_cell_formula_units_Z 32
_cell_length_a 28.937392
_cell_length_b 9.077902
_cell_length_c 23.383497
_cell_angle_alpha 90.000000
_cell_angle_beta 17.438727
_cell_angle_gamma 90.000000
_cell_volume 1840.858342
_symmetry_space_group_name_H-M "P 2/M"
_symmetry_group_IT_number 10
_symmetry_cell_setting 'monoclinic'
loop_
_space_group_symop_operation_xyz
x,y,z
-x,y,-z
-x,-y,-z
x,-y,z
loop_
_atom_site_type_symbol
_atom_site_label
_atom_site_fract_x
_atom_site_fract_y
_atom_site_fract_z
Si Si1 0.867950 0.173781 0.023743
Si Si2 0.501151 0.672414 0.256229
Si Si3 0.682852 0.174465 0.359912
Si Si4 0.625525 0.325837 0.236134
Si Si5 0.177816 0.324320 0.695408
Si Si6 0.702892 0.175098 0.925170
Si Si7 0.659847 0.822782 0.842383
Si Si8 0.020736 0.329957 0.544595
O O1 0.761597 0.194076 0.205664
O O2 0.774191 0.239543 0.081693
O O3 0.897592 0.000000 0.982505
O O4 0.023604 0.262729 0.850165
O O5 0.512847 0.500000 0.226814
O O6 0.592240 0.694041 0.208275
O O7 0.324504 0.704875 0.481432
O O8 0.573305 0.768917 0.121363
O O9 0.521798 0.259090 0.556787
O O10 0.790852 0.240899 0.281989
O O11 0.658756 0.000000 0.397636
O O12 0.637599 0.500000 0.233457
O O13 0.171759 0.500000 0.712715
O O14 0.658040 0.212769 0.912432
O O15 0.866690 0.249041 0.747779
O O16 0.720273 0.000000 0.907401
O O17 0.816380 0.747714 0.634178
O O18 0.674725 0.000000 0.819227
O O19 0.500000 0.778848 0.000000
O O20 0.023137 0.500000 0.559885
O O21 0.000000 0.325733 0.500000
#
# Coordination Sequence:
#
# PCOD9145982 Si02
#       8
#     4   4   4   4   4   4   4   4
#     4  11  22  34  51  77 106 134 166 212 268 317
#     4   9  20  38  55  73  99 132 172 215 256 300
#     4  10  20  34  52  76 105 134 167 211 264 317
#     4  10  21  36  54  75 100 133 172 214 260 311
#     4  10  21  36  54  75 101 137 177 215 258 311
#     4  10  19  32  55  80 100 133 175 209 248 300
#     4   9  18  33  52  78 112 140 165 205 252 296
#     4   9  17  30  50  76 105 136 169 205 244 288
#
# _framework density 17.383196000000002
#
# number of rings (size 3 to 8) (size 9 to 14) (size 15 to 20)
#    0.000    2.250    0.000    3.750    0.000   10.250 
#    0.000    1.250    0.000    3.000    0.000    0.000 
#    0.000    0.000    0.000    0.000    0.000    0.000 
#
# Total GULP energy -178582.964427 kJ/mol
# GULP energy per Si atom -5580.717638 kJ/mol
# Density = 1.734363 g / cm^3
# Si number density = 17.383196 Si / 1000 Ang^3
#
#
#
# Elastic Constant Matrix: (Units=GPa)
#
#
# Indices 1 2 3 4 5 6 
#
# 1 41.8607 25.3875 33.7262 0.0000 -14.5736 0.0000
# 2 25.3875 54.0102 22.8454 0.0000 9.3053 0.0000
# 3 33.7262 22.8454 19.4666 0.0000 -3.0925 0.0000
# 4 0.0000 0.0000 0.0000 35.8989 0.0000 -1.9682
# 5 -14.5736 9.3053 -3.0925 0.0000 28.6143 0.0000
# 6 0.0000 0.0000 0.0000 -1.9682 0.0000 18.5488
#
#
#
# Elastic Compliance Matrix: (Units=1/GPa)
#
#
# Indices 1 2 3 4 5 6 
#
# 1 -0.041232 -0.019314 0.093366 0.000000 -0.004629 0.000000
# 2 -0.019314 0.038011 -0.014930 0.000000 -0.023811 0.000000
# 3 0.093366 -0.014930 -0.086017 0.000000 0.043111 0.000000
# 4 0.000000 0.000000 0.000000 0.028019 0.000000 0.002973
# 5 -0.004629 -0.023811 0.043111 0.000000 0.044993 0.000000
# 6 0.000000 0.000000 0.000000 0.002973 0.000000 0.054227
#
#
# Mechanical properties :
#
#
# Convention : Reuss Voigt Hill
#
# Bulk Modulus (GPa) = 34.47609 31.02844 32.75227
# Shear Modulus (GPa) = -70.84680 18.83764 -26.00458
#
# Velocity S-wave (km/s) = -6.39096 3.29548 -3.87196
# Velocity P-wave (km/s) = 5.88074 5.68935 1.05224
#
# Compressibility (1/GPa) = 0.02900561
#
# Stress axis : x y z
#
# Youngs Moduli (GPa) = -24.25289 26.30816 -11.62559
#
# Poissons Ratio (x) = 0.50810 1.08543
# Poissons Ratio (y) = -0.46841 -0.17357
# Poissons Ratio (z) = 2.26439 0.39279
#
# Static dielectric constant tensor:
#      x y z
#    x 1.580890 0.000000 -0.010290 
#    y 0.000000 1.579270 0.000000 
#    z -0.010290 0.000000 1.583610 
# 
# From -- ./inp_files/86905.got.cif
#   From: 2010.05.17/outbox.cif.g08.bks.cpg/sg10_44_cif.got.tgz:86905.got - 2010.06.03 11:33:40.
