data_PCOD9145103
_publ_section_title
;
Structure prediction by ZEFSAII (Michael W. Deem and Ramdas Pophale) SiO2 
 PCOD9145103
Probable space group: P 2/M
;
_chemical_formula_sum "Si O2"
_cell_formula_units_Z 28
_cell_length_a 19.969459
_cell_length_b 7.614434
_cell_length_c 23.116520
_cell_angle_alpha 90.000000
_cell_angle_beta 18.962545
_cell_angle_gamma 90.000000
_cell_volume 1142.201971
_symmetry_space_group_name_H-M "P 2/M"
_symmetry_group_IT_number 10
_symmetry_cell_setting 'monoclinic'
loop_
_space_group_symop_operation_xyz
x,y,z
-x,y,-z
-x,-y,-z
x,-y,z
loop_
_atom_site_type_symbol
_atom_site_label
_atom_site_fract_x
_atom_site_fract_y
_atom_site_fract_z
Si Si1 0.860438 0.697150 0.252099
Si Si2 0.240379 0.288722 0.789356
Si Si3 0.691493 0.798343 0.086645
Si Si4 0.656846 0.214901 0.981130
Si Si5 0.412299 0.747559 0.413030
Si Si6 0.788121 0.214370 0.643743
Si Si7 0.921558 0.799009 0.411710
O O1 0.930157 0.500000 0.179963
O O2 0.738862 0.758952 0.294927
O O3 0.722174 0.685642 0.422047
O O4 0.069122 0.800602 0.092454
O O5 0.286560 0.500000 0.759408
O O6 0.393325 0.187056 0.706794
O O7 0.000000 0.261726 0.000000
O O8 0.680360 0.739884 0.029610
O O9 0.557088 0.686707 0.241104
O O10 0.608531 0.000000 0.158463
O O11 0.426937 0.272012 0.152048
O O12 0.664141 0.000000 0.972920
O O13 0.856430 0.282354 0.784143
O O14 0.220080 0.805783 0.529536
O O15 0.803442 0.272263 0.564144
O O16 0.000000 0.270864 0.500000
O O17 0.780921 0.000000 0.652313
O O18 0.965990 0.000000 0.391896
#
# Coordination Sequence:
#
# PCOD9145103 Si02
#       7
#     4   4   4   4   4   4   4
#     4  11  24  41  62  88 118 154 201 255 307 355
#     4  10  21  39  59  80 111 151 193 247 307 354
#     4  11  22  37  60  87 120 160 199 244 301 363
#     4   9  17  31  50  75 110 151 189 231 287 347
#     4  12  21  34  59  84 110 152 199 241 294 357
#     4   9  17  29  47  75 112 152 192 233 284 350
#     4  10  19  31  50  76 110 152 192 233 291 353
#
# _framework density 24.514054000000002
#
# number of rings (size 3 to 8) (size 9 to 14) (size 15 to 20)
#    0.000    1.714    4.286    1.286    0.000    2.857 
#    0.000    5.000    0.000    4.286    0.000    0.000 
#    0.000    6.286    0.000    0.000    0.000    0.000 
#
# Total GULP energy -155894.442377 kJ/mol
# GULP energy per Si atom -5567.658656 kJ/mol
# Density = 2.445826 g / cm^3
# Si number density = 24.514054 Si / 1000 Ang^3
#
#
#
# Elastic Constant Matrix: (Units=GPa)
#
#
# Indices 1 2 3 4 5 6 
#
# 1 52.5510 -0.5376 13.0377 0.0000 -23.1625 0.0000
# 2 -0.5376 54.6538 10.2685 0.0000 0.1037 0.0000
# 3 13.0377 10.2685 193.6723 0.0000 -16.8981 0.0000
# 4 0.0000 0.0000 0.0000 -33.2734 0.0000 3.4714
# 5 -23.1625 0.1037 -16.8981 0.0000 49.0867 0.0000
# 6 0.0000 0.0000 0.0000 3.4714 0.0000 3.6912
#
#
#
# Elastic Compliance Matrix: (Units=1/GPa)
#
#
# Indices 1 2 3 4 5 6 
#
# 1 0.024112 0.000342 -0.000669 0.000000 0.011147 0.000000
# 2 0.000342 0.018493 -0.001024 0.000000 -0.000230 0.000000
# 3 -0.000669 -0.001024 0.005397 0.000000 0.001545 0.000000
# 4 0.000000 0.000000 0.000000 -0.027369 0.000000 0.025739
# 5 0.011147 -0.000230 0.001545 0.000000 0.026164 0.000000
# 6 0.000000 0.000000 0.000000 0.025739 0.000000 0.246711
#
#
# Mechanical properties :
#
#
# Convention : Reuss Voigt Hill
#
# Bulk Modulus (GPa) = 22.07470 38.49049 30.28260
# Shear Modulus (GPa) = 16.06118 22.44144 19.25131
#
# Velocity S-wave (km/s) = 2.56243 3.02893 2.80539
# Velocity P-wave (km/s) = 4.21654 5.28848 4.78264
#
# Compressibility (1/GPa) = 0.04530073
#
# Stress axis : x y z
#
# Youngs Moduli (GPa) = 41.47396 54.07420 185.27355
#
# Poissons Ratio (x) = -0.01847 0.12390
# Poissons Ratio (y) = -0.01417 0.18964
# Poissons Ratio (z) = 0.02773 0.05535
#
# Static dielectric constant tensor:
#      x y z
#    x 1.915720 0.000000 -0.006160 
#    y 0.000000 2.020950 0.000000 
#    z -0.006160 0.000000 1.917340 
# 
# From -- ./inp_files/79482.got.cif
#   From: 2010.05.17/outbox.cif.g08.bks.cpg/sg10_40_cif.got.tgz:79482.got - 2010.06.03 11:33:40.
