data_PCOD9145867
_publ_section_title
;
Structure prediction by ZEFSAII (Michael W. Deem and Ramdas Pophale) SiO2 
 PCOD9145867
Probable space group: P 2/M
;
_chemical_formula_sum "Si O2"
_cell_formula_units_Z 32
_cell_length_a 11.087343
_cell_length_b 8.977001
_cell_length_c 30.464799
_cell_angle_alpha 90.000000
_cell_angle_beta 146.523364
_cell_angle_gamma 90.000000
_cell_volume 1672.549152
_symmetry_space_group_name_H-M "P 2/M"
_symmetry_group_IT_number 10
_symmetry_cell_setting 'monoclinic'
loop_
_space_group_symop_operation_xyz
x,y,z
-x,y,-z
-x,-y,-z
x,-y,z
loop_
_atom_site_type_symbol
_atom_site_label
_atom_site_fract_x
_atom_site_fract_y
_atom_site_fract_z
Si Si1 0.717176 0.678821 0.039431
Si Si2 0.659369 0.822287 0.670667
Si Si3 0.445263 0.821919 0.093832
Si Si4 0.432583 0.822200 0.191900
Si Si5 0.090717 0.329341 0.764758
Si Si6 0.895221 0.670519 0.336399
Si Si7 0.203017 0.677277 0.202328
Si Si8 0.652052 0.820634 0.504206
O O1 0.705754 0.500000 0.030516
O O2 0.946657 0.713721 0.132529
O O3 0.500000 0.726101 0.000000
O O4 0.714116 0.755731 0.991014
O O5 0.646608 0.749408 0.714583
O O6 0.473801 0.782377 0.578914
O O7 0.886559 0.762163 0.720153
O O8 0.664104 0.000000 0.675935
O O9 0.390256 0.785004 0.127777
O O10 0.680359 0.748377 0.155284
O O11 0.458180 0.000000 0.094271
O O12 0.676741 0.765705 0.277597
O O13 0.270362 0.741646 0.175796
O O14 0.419086 0.000000 0.192546
O O15 0.087582 0.500000 0.780353
O O16 0.074538 0.332519 0.707104
O O17 0.864880 0.500000 0.342140
O O18 0.113821 0.742792 0.421955
O O19 0.226626 0.500000 0.210044
O O20 0.500000 0.778657 0.500000
O O21 0.679523 0.000000 0.514593
#
# Coordination Sequence:
#
# PCOD9145867 Si02
#       8
#     4   4   4   4   4   4   4   4
#     4  10  22  40  61  87 121 156 189 234 295 354
#     4  11  22  36  57  84 117 156 196 238 291 350
#     4  10  21  36  59  88 115 151 197 244 290 342
#     4  10  22  41  62  84 116 156 200 244 291 347
#     4  10  19  32  53  83 119 154 189 235 291 349
#     4  10  20  34  57  87 118 152 193 242 291 341
#     4  11  24  41  61  85 116 155 198 244 292 346
#     4  10  20  35  56  86 123 157 191 236 292 354
#
# _framework density 19.132472
#
# number of rings (size 3 to 8) (size 9 to 14) (size 15 to 20)
#    0.000    1.750    1.250    3.000    0.000    6.500 
#    0.000    3.125    0.000    3.750    0.000    0.000 
#    0.000    0.000    0.000    0.000    0.000    0.000 
#
# Total GULP energy -178778.861866 kJ/mol
# GULP energy per Si atom -5586.839433 kJ/mol
# Density = 1.908893 g / cm^3
# Si number density = 19.132472 Si / 1000 Ang^3
#
#
#
# Elastic Constant Matrix: (Units=GPa)
#
#
# Indices 1 2 3 4 5 6 
#
# 1 68.5440 27.6627 30.3739 0.0000 -4.0390 0.0000
# 2 27.6627 54.3485 44.0813 0.0000 -9.9404 0.0000
# 3 30.3739 44.0813 114.0979 0.0000 -17.4155 0.0000
# 4 0.0000 0.0000 0.0000 31.6508 0.0000 -1.2136
# 5 -4.0390 -9.9404 -17.4155 0.0000 19.0993 0.0000
# 6 0.0000 0.0000 0.0000 -1.2136 0.0000 31.5346
#
#
#
# Elastic Compliance Matrix: (Units=1/GPa)
#
#
# Indices 1 2 3 4 5 6 
#
# 1 0.018719 -0.008186 -0.002169 0.000000 -0.002279 0.000000
# 2 -0.008186 0.030835 -0.008769 0.000000 0.006321 0.000000
# 3 -0.002169 -0.008769 0.013897 0.000000 0.007649 0.000000
# 4 0.000000 0.000000 0.000000 0.031641 0.000000 0.001218
# 5 -0.002279 0.006321 0.007649 0.000000 0.062141 0.000000
# 6 0.000000 0.000000 0.000000 0.001218 0.000000 0.031758
#
#
# Mechanical properties :
#
#
# Convention : Reuss Voigt Hill
#
# Bulk Modulus (GPa) = 39.67528 49.02514 44.35021
# Shear Modulus (GPa) = 21.21877 25.44843 23.33360
#
# Velocity S-wave (km/s) = 3.33385 3.65103 3.49604
# Velocity P-wave (km/s) = 5.96670 6.59189 6.28707
#
# Compressibility (1/GPa) = 0.02520461
#
# Stress axis : x y z
#
# Youngs Moduli (GPa) = 53.42023 32.43082 71.95745
#
# Poissons Ratio (x) = 0.26548 0.15605
# Poissons Ratio (y) = 0.43730 0.63099
# Poissons Ratio (z) = 0.11585 0.28438
#
# Static dielectric constant tensor:
#      x y z
#    x 1.675020 0.000000 -0.018770 
#    y 0.000000 1.637200 0.000000 
#    z -0.018770 0.000000 1.654980 
# 
# From -- ./inp_files/95099.got.cif
#   From: 2010.05.17/outbox.cif.g08.bks.cpg/sg10_48_cif.got.tgz:95099.got - 2010.06.03 11:33:40.
