data_PCOD9145837
_publ_section_title
;
Structure prediction by ZEFSAII (Michael W. Deem and Ramdas Pophale) SiO2 
 PCOD9145837
Probable space group: P 2/M
;
_chemical_formula_sum "Si O2"
_cell_formula_units_Z 26
_cell_length_a 21.219519
_cell_length_b 8.446660
_cell_length_c 14.663160
_cell_angle_alpha 90.000000
_cell_angle_beta 149.947936
_cell_angle_gamma 90.000000
_cell_volume 1316.136529
_symmetry_space_group_name_H-M "P 2/M"
_symmetry_group_IT_number 10
_symmetry_cell_setting 'monoclinic'
loop_
_space_group_symop_operation_xyz
x,y,z
-x,y,-z
-x,-y,-z
x,-y,z
loop_
_atom_site_type_symbol
_atom_site_label
_atom_site_fract_x
_atom_site_fract_y
_atom_site_fract_z
Si Si1 0.596649 0.819721 0.008585
Si Si2 0.196225 0.313181 0.610878
Si Si3 0.668345 0.314374 0.772469
Si Si4 0.769154 0.322866 0.083023
Si Si5 0.000000 0.741988 0.500000
Si Si6 0.334039 0.310825 0.609916
Si Si7 0.600259 0.814295 0.500602
O O1 0.669180 0.709118 0.171048
O O2 0.679150 0.799899 0.020458
O O3 0.599300 0.000000 0.043830
O O4 0.457748 0.766910 0.809079
O O5 0.158927 0.500000 0.574325
O O6 0.218102 0.274472 0.532673
O O7 0.101077 0.202621 0.549569
O O8 0.668324 0.500000 0.749054
O O9 0.534036 0.271927 0.651074
O O10 0.675572 0.217299 0.688453
O O11 0.773269 0.285440 0.981251
O O12 0.711870 0.500000 0.017900
O O13 0.898004 0.328279 0.300998
O O14 0.348722 0.500000 0.628833
O O15 0.330734 0.250982 0.502293
O O16 0.576093 0.000000 0.459132
#
# Coordination Sequence:
#
# PCOD9145837 Si02
#       7
#     4   4   4   4   2   4   4
#     4  11  21  32  50  77 110 143 178 220 268 327
#     4  10  21  36  56  76 104 142 181 226 272 322
#     4  10  19  32  53  80 111 147 179 219 266 324
#     4  10  19  33  57  81 110 145 180 223 268 316
#     4  10  19  38  61  84 105 136 187 230 269 318
#     4  11  21  34  52  77 108 143 179 220 273 329
#     4  11  21  33  52  79 111 145 178 222 271 326
#
# _framework density 19.754788999999999
#
# number of rings (size 3 to 8) (size 9 to 14) (size 15 to 20)
#    0.000    1.538    1.538    7.385    0.000    3.692 
#    0.000    6.154    0.000    0.923    0.000    5.385 
#    0.000    0.000    0.000    0.000    0.000    0.000 
#
# Total GULP energy -144838.962374 kJ/mol
# GULP energy per Si atom -5570.729322 kJ/mol
# Density = 1.970983 g / cm^3
# Si number density = 19.754789 Si / 1000 Ang^3
#
#
#
# Elastic Constant Matrix: (Units=GPa)
#
#
# Indices 1 2 3 4 5 6 
#
# 1 148.6923 15.5959 38.3457 0.0000 -16.0075 0.0000
# 2 15.5959 52.4162 2.4379 0.0000 9.7310 0.0000
# 3 38.3457 2.4379 59.3271 0.0000 -5.9295 0.0000
# 4 0.0000 0.0000 0.0000 -10.5571 0.0000 -20.0066
# 5 -16.0075 9.7310 -5.9295 0.0000 18.8708 0.0000
# 6 0.0000 0.0000 0.0000 -20.0066 0.0000 -77.9093
#
#
#
# Elastic Compliance Matrix: (Units=1/GPa)
#
#
# Indices 1 2 3 4 5 6 
#
# 1 0.009373 -0.004132 -0.005039 0.000000 0.008498 0.000000
# 2 -0.004132 0.023156 0.000181 0.000000 -0.015389 0.000000
# 3 -0.005039 0.000181 0.020306 0.000000 0.002013 0.000000
# 4 0.000000 0.000000 0.000000 -0.184517 0.000000 0.047383
# 5 0.008498 -0.015389 0.002013 0.000000 0.068769 0.000000
# 6 0.000000 0.000000 0.000000 0.047383 0.000000 -0.025003
#
#
# Mechanical properties :
#
#
# Convention : Reuss Voigt Hill
#
# Bulk Modulus (GPa) = 28.68994 41.46608 35.07801
# Shear Modulus (GPa) = -85.73857 -0.31538 -43.02698
#
# Velocity S-wave (km/s) = -6.59512 -0.40000 -4.67202
# Velocity P-wave (km/s) = 6.59087 4.56318 3.36281
#
# Compressibility (1/GPa) = 0.03485542
#
# Stress axis : x y z
#
# Youngs Moduli (GPa) = 106.68806 43.18515 49.24563
#
# Poissons Ratio (x) = 0.17845 0.24815
# Poissons Ratio (y) = 0.44086 -0.00892
# Poissons Ratio (z) = 0.53761 -0.00783
#
# Static dielectric constant tensor:
#      x y z
#    x 1.752730 0.000000 -0.018250 
#    y 0.000000 1.685390 0.000000 
#    z -0.018250 0.000000 1.697740 
# 
# From -- ./inp_files/70058.got.cif
#   From: 2010.05.17/outbox.cif.g08.bks.cpg/sg10_36_cif.got.tgz:70058.got - 2010.06.03 11:33:40.
