data_PCOD9145228
_publ_section_title
;
Structure prediction by ZEFSAII (Michael W. Deem and Ramdas Pophale) SiO2 
 PCOD9145228
Probable space group: P 2/M
;
_chemical_formula_sum "Si O2"
_cell_formula_units_Z 21
_cell_length_a 7.145689
_cell_length_b 7.834968
_cell_length_c 18.016907
_cell_angle_alpha 90.000000
_cell_angle_beta 62.762169
_cell_angle_gamma 90.000000
_cell_volume 896.848742
_symmetry_space_group_name_H-M "P 2/M"
_symmetry_group_IT_number 10
_symmetry_cell_setting 'monoclinic'
loop_
_space_group_symop_operation_xyz
x,y,z
-x,y,-z
-x,-y,-z
x,-y,z
loop_
_atom_site_type_symbol
_atom_site_label
_atom_site_fract_x
_atom_site_fract_y
_atom_site_fract_z
Si Si1 0.369885 0.193534 0.114078
Si Si2 0.779638 0.185038 0.697511
Si Si3 0.500000 0.500000 0.000000
Si Si4 0.295833 0.199061 0.724712
Si Si5 0.585508 0.500000 0.398269
Si Si6 0.845186 0.202012 0.091190
Si Si7 0.135912 0.500000 0.403774
O O1 0.228697 0.206928 0.212803
O O2 0.347931 0.347914 0.062212
O O3 0.609050 0.214936 0.101564
O O4 0.344311 0.000000 0.089147
O O5 0.537173 0.190854 0.712574
O O6 0.901922 0.334065 0.636884
O O7 0.864326 0.000000 0.662875
O O8 0.298872 0.329481 0.654929
O O9 0.165658 0.262702 0.821286
O O10 0.240867 0.000000 0.717571
O O11 0.500000 0.500000 0.500000
O O12 0.373815 0.500000 0.388026
O O13 0.892745 0.000000 0.089076
O O14 0.000000 0.275348 0.000000
O O15 0.000000 0.500000 0.500000
#
# Coordination Sequence:
#
# PCOD9145228 Si02
#       7
#     4   4   1   4   2   4   2
#     4   9  18  31  48  70  96 128 168 203 233 283
#     4   8  15  30  50  70  91 120 160 203 241 279
#     4  12  20  28  44  66  94 132 168 198 228 276
#     4   8  15  29  50  74  95 123 161 196 235 288
#     4  10  20  33  50  71  99 132 159 198 245 297
#     4   8  14  28  52  77 100 123 157 207 250 281
#     4  10  19  31  52  76  95 118 155 211 252 288
#
# _framework density 23.415320999999999
#
# number of rings (size 3 to 8) (size 9 to 14) (size 15 to 20)
#    0.000    3.238    0.000    3.143    0.000    3.048 
#    0.000    1.905    8.381    0.000    0.000    0.000 
#    0.000    0.000    0.000    0.000    0.000    0.000 
#
# Total GULP energy -116972.371394 kJ/mol
# GULP energy per Si atom -5570.112924 kJ/mol
# Density = 2.336203 g / cm^3
# Si number density = 23.415321 Si / 1000 Ang^3
#
#
#
# Elastic Constant Matrix: (Units=GPa)
#
#
# Indices 1 2 3 4 5 6 
#
# 1 94.1761 7.8312 7.4723 0.0000 10.9262 0.0000
# 2 7.8312 202.1180 131.9339 0.0000 13.0405 0.0000
# 3 7.4723 131.9339 199.9030 0.0000 4.6754 0.0000
# 4 0.0000 0.0000 0.0000 40.9518 0.0000 2.7265
# 5 10.9262 13.0405 4.6754 0.0000 27.7016 0.0000
# 6 0.0000 0.0000 0.0000 2.7265 0.0000 -8.1565
#
#
#
# Elastic Compliance Matrix: (Units=1/GPa)
#
#
# Indices 1 2 3 4 5 6 
#
# 1 0.011148 0.000098 -0.000379 0.000000 -0.004379 0.000000
# 2 0.000098 0.008973 -0.005849 0.000000 -0.003276 0.000000
# 3 -0.000379 -0.005849 0.008844 0.000000 0.001410 0.000000
# 4 0.000000 0.000000 0.000000 0.023887 0.000000 0.007985
# 5 -0.004379 -0.003276 0.001410 0.000000 0.039130 0.000000
# 6 0.000000 0.000000 0.000000 0.007985 0.000000 -0.119932
#
#
# Mechanical properties :
#
#
# Convention : Reuss Voigt Hill
#
# Bulk Modulus (GPa) = 59.86163 87.85243 73.85703
# Shear Modulus (GPa) = -494.12001 35.36333 -229.37834
#
# Velocity S-wave (km/s) = -14.54243 3.89043 -9.90825
# Velocity P-wave (km/s) = 16.01112 7.60140 9.96430
#
# Compressibility (1/GPa) = 0.01670519
#
# Stress axis : x y z
#
# Youngs Moduli (GPa) = 89.69877 111.44070 113.06914
#
# Poissons Ratio (x) = -0.01092 0.04285
# Poissons Ratio (y) = -0.00879 0.66139
# Poissons Ratio (z) = 0.03399 0.65186
#
# Static dielectric constant tensor:
#      x y z
#    x 1.912400 0.000000 -0.002010 
#    y 0.000000 1.855930 0.000000 
#    z -0.002010 0.000000 1.861180 
# 
# From -- ./inp_files/75887.got.cif
#   From: 2010.05.17/outbox.cif.g08.bks.cpg/sg10_38_cif.got.tgz:75887.got - 2010.06.03 11:33:40.
