data_PCOD9145172
_publ_section_title
;
Structure prediction by ZEFSAII (Michael W. Deem and Ramdas Pophale) SiO2 
 PCOD9145172
Probable space group: P 2/M
;
_chemical_formula_sum "Si O2"
_cell_formula_units_Z 28
_cell_length_a 18.342348
_cell_length_b 18.872836
_cell_length_c 10.165670
_cell_angle_alpha 90.000000
_cell_angle_beta 154.444954
_cell_angle_gamma 90.000000
_cell_volume 1518.050214
_symmetry_space_group_name_H-M "P 2/M"
_symmetry_group_IT_number 10
_symmetry_cell_setting 'monoclinic'
loop_
_space_group_symop_operation_xyz
x,y,z
-x,y,-z
-x,-y,-z
x,-y,z
loop_
_atom_site_type_symbol
_atom_site_label
_atom_site_fract_x
_atom_site_fract_y
_atom_site_fract_z
Si Si1 0.014914 0.422589 0.865515
Si Si2 0.649450 0.000000 0.137392
Si Si3 0.401594 0.866130 0.132964
Si Si4 0.514198 0.277883 0.865323
Si Si5 0.851125 0.722117 0.865323
Si Si6 0.768631 0.866130 0.867036
Si Si7 0.649399 0.422589 0.134485
Si Si8 0.987943 0.000000 0.137392
O O1 0.084927 0.500000 0.939303
O O2 0.828528 0.416335 0.500000
O O3 0.000000 0.424121 0.000000
O O4 0.117342 0.351086 0.005148
O O5 0.500000 0.000000 0.000000
O O6 0.634525 0.930551 0.022912
O O7 0.826431 0.000000 0.500000
O O8 0.398493 0.791075 0.053528
O O9 0.590864 0.874502 0.500000
O O10 0.275929 0.866907 0.051857
O O11 0.326512 0.283113 0.500000
O O12 0.500000 0.269871 0.000000
O O13 0.612195 0.351086 0.994852
O O14 0.844964 0.791075 0.946471
O O15 0.000000 0.730129 0.000000
O O16 0.888387 0.930551 0.022912
O O17 0.645624 0.500000 0.060698
O O18 0.500000 0.424121 0.000000
O O19 0.000000 0.000000 0.000000
#
# Coordination Sequence:
#
# PCOD9145172 Si02
#       8
#     4   2   4   4   4   4   4   2
#     4   9  16  26  43  69 101 135 171 215 266 314
#     4  12  25  40  61  87 111 139 177 218 263 314
#     4  10  22  40  59  80 110 145 178 217 267 318
#     4  10  19  31  51  77 104 137 176 218 264 314
#     4  10  19  31  51  77 104 137 176 218 264 314
#     4  10  22  40  59  80 110 145 178 217 267 318
#     4   9  16  26  43  69 101 135 171 215 266 314
#     4  12  25  40  61  87 111 139 177 218 263 314
#
# _framework density 18.444714000000001
#
# number of rings (size 3 to 8) (size 9 to 14) (size 15 to 20)
#    0.000    2.000    0.000    6.000    0.000    8.571 
#    0.000    0.000    0.000    0.857    0.000    6.000 
#    0.000    0.000    0.000    0.000    0.000    0.000 
#
# Total GULP energy -156261.260528 kJ/mol
# GULP energy per Si atom -5580.759305 kJ/mol
# Density = 1.840273 g / cm^3
# Si number density = 18.444714 Si / 1000 Ang^3
#
#
#
# Elastic Constant Matrix: (Units=GPa)
#
#
# Indices 1 2 3 4 5 6 
#
# 1 97.2792 89.6930 46.1634 0.0000 1.3204 0.0000
# 2 89.6930 236.8400 85.5175 0.0000 0.3578 0.0000
# 3 46.1634 85.5175 69.6485 0.0000 1.0475 0.0000
# 4 0.0000 0.0000 0.0000 36.9437 0.0000 -5.1757
# 5 1.3204 0.3578 1.0475 0.0000 17.8775 0.0000
# 6 0.0000 0.0000 0.0000 -5.1757 0.0000 -23.4534
#
#
#
# Elastic Compliance Matrix: (Units=1/GPa)
#
#
# Indices 1 2 3 4 5 6 
#
# 1 0.017131 -0.004295 -0.006068 0.000000 -0.000824 0.000000
# 2 -0.004295 0.008665 -0.007801 0.000000 0.000601 0.000000
# 3 -0.006068 -0.007801 0.027974 0.000000 -0.001035 0.000000
# 4 0.000000 0.000000 0.000000 0.026256 0.000000 -0.005794
# 5 -0.000824 0.000601 -0.001035 0.000000 0.056046 0.000000
# 6 0.000000 0.000000 0.000000 -0.005794 0.000000 -0.041359
#
#
# Mechanical properties :
#
#
# Convention : Reuss Voigt Hill
#
# Bulk Modulus (GPa) = 57.33766 94.05728 75.69747
# Shear Modulus (GPa) = 36.53499 18.43314 27.48407
#
# Velocity S-wave (km/s) = 4.45543 3.16471 3.86434
# Velocity P-wave (km/s) = 7.59088 8.02862 7.81282
#
# Compressibility (1/GPa) = 0.01744054
#
# Stress axis : x y z
#
# Youngs Moduli (GPa) = 58.37464 115.40913 35.74760
#
# Poissons Ratio (x) = 0.49571 0.21692
# Poissons Ratio (y) = 0.25073 0.27887
# Poissons Ratio (z) = 0.35422 0.90033
#
# Static dielectric constant tensor:
#      x y z
#    x 1.598990 0.000000 -0.001790 
#    y 0.000000 1.671960 0.000000 
#    z -0.001790 0.000000 1.619870 
# 
# From -- ./inp_files/56126.got.cif
#   From: 2010.05.17/outbox.cif.g08.bks.cpg/sg10_29_cif.got.tgz:56126.got - 2010.06.03 11:33:40.
