data_PCOD9145254
_publ_section_title
;
Structure prediction by ZEFSAII (Michael W. Deem and Ramdas Pophale) SiO2 
 PCOD9145254
Probable space group: P 2/M
;
_chemical_formula_sum "Si O2"
_cell_formula_units_Z 28
_cell_length_a 29.496484
_cell_length_b 7.690121
_cell_length_c 9.167873
_cell_angle_alpha 90.000000
_cell_angle_beta 140.022182
_cell_angle_gamma 90.000000
_cell_volume 1336.100274
_symmetry_space_group_name_H-M "P 2/M"
_symmetry_group_IT_number 10
_symmetry_cell_setting 'monoclinic'
loop_
_space_group_symop_operation_xyz
x,y,z
-x,y,-z
-x,-y,-z
x,-y,z
loop_
_atom_site_type_symbol
_atom_site_label
_atom_site_fract_x
_atom_site_fract_y
_atom_site_fract_z
Si Si1 0.845130 0.295196 0.267062
Si Si2 0.707265 0.795767 0.450134
Si Si3 0.564247 0.296681 0.252392
Si Si4 0.427279 0.287287 0.397497
Si Si5 0.849900 0.202843 0.941429
Si Si6 0.998141 0.789959 0.665793
Si Si7 0.710791 0.711211 0.120181
O O1 0.835206 0.500000 0.218325
O O2 0.845191 0.212394 0.105883
O O3 0.781005 0.230941 0.208013
O O4 0.921516 0.267964 0.529987
O O5 0.637066 0.714414 0.344615
O O6 0.709075 0.773556 0.281462
O O7 0.703569 0.000000 0.477743
O O8 0.779441 0.720882 0.697234
O O9 0.546445 0.500000 0.230773
O O10 0.573456 0.224405 0.437617
O O11 0.500000 0.219381 0.000000
O O12 0.500000 0.235374 0.500000
O O13 0.425104 0.500000 0.391927
O O14 0.358653 0.231108 0.138585
O O15 0.927122 0.274618 0.087215
O O16 0.850989 0.000000 0.901709
O O17 0.000000 0.736422 0.500000
O O18 0.998827 0.000000 0.672204
O O19 0.711173 0.500000 0.124533
#
# Coordination Sequence:
#
# PCOD9145254 Si02
#       7
#     4   4   4   4   4   4   4
#     4  10  19  31  52  81 107 134 173 221 269 316
#     4  11  23  37  54  77 106 140 180 222 261 306
#     4  10  20  36  60  85 109 140 174 211 261 315
#     4   9  17  32  56  82 104 132 173 212 247 301
#     4   9  19  35  53  75 104 139 177 217 264 318
#     4   8  15  30  51  73 101 137 175 215 261 316
#     4  10  21  36  52  74 107 141 174 215 263 315
#
# _framework density 20.956512
#
# number of rings (size 3 to 8) (size 9 to 14) (size 15 to 20)
#    0.000    2.429    0.000    3.429    0.000    8.571 
#    0.000    1.429    0.000    6.000    0.000    0.000 
#    0.000    0.000    0.000    0.000    0.000    0.000 
#
# Total GULP energy -156254.361607 kJ/mol
# GULP energy per Si atom -5580.512915 kJ/mol
# Density = 2.090881 g / cm^3
# Si number density = 20.956512 Si / 1000 Ang^3
#
#
#
# Elastic Constant Matrix: (Units=GPa)
#
#
# Indices 1 2 3 4 5 6 
#
# 1 126.6288 -19.7104 86.1091 0.0000 23.2265 0.0000
# 2 -19.7104 30.0128 -7.3099 0.0000 1.9554 0.0000
# 3 86.1091 -7.3099 184.3184 0.0000 25.9125 0.0000
# 4 0.0000 0.0000 0.0000 13.9514 0.0000 -0.0087
# 5 23.2265 1.9554 25.9125 0.0000 37.9106 0.0000
# 6 0.0000 0.0000 0.0000 -0.0087 0.0000 36.3064
#
#
#
# Elastic Compliance Matrix: (Units=1/GPa)
#
#
# Indices 1 2 3 4 5 6 
#
# 1 0.013760 0.008062 -0.005382 0.000000 -0.005167 0.000000
# 2 0.008062 0.038665 -0.001392 0.000000 -0.005982 0.000000
# 3 -0.005382 -0.001392 0.008199 0.000000 -0.002235 0.000000
# 4 0.000000 0.000000 0.000000 0.071678 0.000000 0.000017
# 5 -0.005167 -0.005982 -0.002235 0.000000 0.031380 0.000000
# 6 0.000000 0.000000 0.000000 0.000017 0.000000 0.027543
#
#
# Mechanical properties :
#
#
# Convention : Reuss Voigt Hill
#
# Bulk Modulus (GPa) = 15.82300 51.01530 33.41915
# Shear Modulus (GPa) = 23.84205 36.42508 30.13356
#
# Velocity S-wave (km/s) = 3.37663 4.17361 3.79609
# Velocity P-wave (km/s) = 4.77168 6.90084 5.93256
#
# Compressibility (1/GPa) = 0.06319915
#
# Stress axis : x y z
#
# Youngs Moduli (GPa) = 72.67641 25.86352 121.97052
#
# Poissons Ratio (x) = -0.20852 0.65644
# Poissons Ratio (y) = -0.58593 0.16979
# Poissons Ratio (z) = 0.39114 0.03600
#
# Static dielectric constant tensor:
#      x y z
#    x 1.710480 0.000000 0.028860 
#    y 0.000000 1.798660 0.000000 
#    z 0.028860 0.000000 1.768050 
# 
# From -- ./inp_files/37236.got.cif
#   From: 2010.05.17/outbox.cif.g08.bks.cpg/sg10_19_cif.got.tgz:37236.got - 2010.06.03 11:33:40.
