data_PCOD9145601
_publ_section_title
;
Structure prediction by ZEFSAII (Michael W. Deem and Ramdas Pophale) SiO2 
 PCOD9145601
Probable space group: P 2/M
;
_chemical_formula_sum "Si O2"
_cell_formula_units_Z 28
_cell_length_a 9.811271
_cell_length_b 13.108645
_cell_length_c 14.325258
_cell_angle_alpha 90.000000
_cell_angle_beta 44.853502
_cell_angle_gamma 90.000000
_cell_volume 1299.443045
_symmetry_space_group_name_H-M "P 2/M"
_symmetry_group_IT_number 10
_symmetry_cell_setting 'monoclinic'
loop_
_space_group_symop_operation_xyz
x,y,z
-x,y,-z
-x,-y,-z
x,-y,z
loop_
_atom_site_type_symbol
_atom_site_label
_atom_site_fract_x
_atom_site_fract_y
_atom_site_fract_z
Si Si1 0.634218 0.617061 0.849202
Si Si2 0.068025 0.890151 0.777774
Si Si3 0.621463 0.888403 0.208438
Si Si4 0.070437 0.614454 0.615202
Si Si5 0.309448 0.671476 0.879283
Si Si6 0.342888 0.202025 0.495856
Si Si7 0.050393 0.662681 0.829825
O O1 0.672449 0.500000 0.858864
O O2 0.503853 0.621786 0.820357
O O3 0.848525 0.655202 0.718780
O O4 0.500000 0.660531 0.000000
O O5 0.197983 0.896000 0.808267
O O6 0.203176 0.873854 0.621375
O O7 0.985026 0.777087 0.830750
O O8 0.964547 0.000000 0.821079
O O9 0.661871 0.793444 0.121993
O O10 0.447827 0.855623 0.361068
O O11 0.591554 0.000000 0.180495
O O12 0.088967 0.500000 0.565033
O O13 0.224180 0.701370 0.513735
O O14 0.101811 0.606898 0.711219
O O15 0.232797 0.662687 0.810783
O O16 0.135923 0.625184 0.024501
O O17 0.500000 0.233400 0.500000
#
# Coordination Sequence:
#
# PCOD9145601 Si02
#       7
#     4   4   4   4   4   4   4
#     4  10  20  36  56  75  98 136 177 209 254 315
#     4   8  14  26  47  75 104 133 169 213 256 302
#     4   9  17  30  50  75 104 138 171 206 254 306
#     4  10  20  35  55  77 102 136 177 214 255 308
#     4  10  19  32  51  77 109 137 167 212 259 305
#     4   9  17  31  51  77 105 136 175 217 255 293
#     4   9  18  30  49  80 108 132 167 213 264 305
#
# _framework density 21.547692999999999
#
# number of rings (size 3 to 8) (size 9 to 14) (size 15 to 20)
#    0.000    2.714    1.429    1.286    0.000    3.143 
#    0.000    5.714    0.000    7.286    0.000    0.000 
#    0.000    0.000    0.000    0.000    0.000    0.000 
#
# Total GULP energy -155879.416744 kJ/mol
# GULP energy per Si atom -5567.122027 kJ/mol
# Density = 2.149865 g / cm^3
# Si number density = 21.547693 Si / 1000 Ang^3
#
#
#
# Elastic Constant Matrix: (Units=GPa)
#
#
# Indices 1 2 3 4 5 6 
#
# 1 76.6700 9.4232 1.3481 0.0000 -16.3629 0.0000
# 2 9.4232 92.6104 0.7297 0.0000 -5.4001 0.0000
# 3 1.3481 0.7297 31.1419 0.0000 1.0097 0.0000
# 4 0.0000 0.0000 0.0000 -60.5833 0.0000 -47.3132
# 5 -16.3629 -5.4001 1.0097 0.0000 22.3959 0.0000
# 6 0.0000 0.0000 0.0000 -47.3132 0.0000 -40.7406
#
#
#
# Elastic Compliance Matrix: (Units=1/GPa)
#
#
# Indices 1 2 3 4 5 6 
#
# 1 0.015563 -0.000923 -0.001015 0.000000 0.011194 0.000000
# 2 -0.000923 0.011010 -0.000283 0.000000 0.001993 0.000000
# 3 -0.001015 -0.000283 0.032235 0.000000 -0.002263 0.000000
# 4 0.000000 0.000000 0.000000 -0.177397 0.000000 0.206016
# 5 0.011194 0.001993 -0.002263 0.000000 0.053412 0.000000
# 6 0.000000 0.000000 0.000000 0.206016 0.000000 -0.263798
#
#
# Mechanical properties :
#
#
# Convention : Reuss Voigt Hill
#
# Bulk Modulus (GPa) = 18.39337 24.82491 21.60914
# Shear Modulus (GPa) = -16.31799 -3.19084 -9.75442
#
# Velocity S-wave (km/s) = -2.75489 -1.21821 -2.12996
# Velocity P-wave (km/s) = 1.25082 3.09309 2.00033
#
# Compressibility (1/GPa) = 0.05436743
#
# Stress axis : x y z
#
# Youngs Moduli (GPa) = 64.25409 90.82416 31.02216
#
# Poissons Ratio (x) = 0.08382 0.03149
# Poissons Ratio (y) = 0.05930 0.00877
# Poissons Ratio (z) = 0.06522 0.02567
#
# Static dielectric constant tensor:
#      x y z
#    x 1.778870 0.000000 -0.011620 
#    y 0.000000 1.896050 0.000000 
#    z -0.011620 0.000000 1.831680 
# 
# From -- ./inp_files/29580.got.cif
#   From: 2010.05.17/outbox.cif.g08.bks.cpg/sg10_15_cif.got.tgz:29580.got - 2010.06.03 11:33:40.
