data_PCOD9145971
_publ_section_title
;
Structure prediction by ZEFSAII (Michael W. Deem and Ramdas Pophale) SiO2 
 PCOD9145971
Probable space group: P 2/M
;
_chemical_formula_sum "Si O2"
_cell_formula_units_Z 32
_cell_length_a 20.380810
_cell_length_b 20.133431
_cell_length_c 11.624221
_cell_angle_alpha 90.000000
_cell_angle_beta 160.012654
_cell_angle_gamma 90.000000
_cell_volume 1630.388702
_symmetry_space_group_name_H-M "P 2/M"
_symmetry_group_IT_number 10
_symmetry_cell_setting 'monoclinic'
loop_
_space_group_symop_operation_xyz
x,y,z
-x,y,-z
-x,-y,-z
x,-y,z
loop_
_atom_site_type_symbol
_atom_site_label
_atom_site_fract_x
_atom_site_fract_y
_atom_site_fract_z
Si Si1 0.497303 0.801243 0.133428
Si Si2 0.988019 0.272605 0.113267
Si Si3 0.785760 0.200047 0.127400
Si Si4 0.291013 0.678476 0.166108
Si Si5 0.139656 0.130925 0.141102
Si Si6 0.351723 0.338698 0.842861
Si Si7 0.040333 0.426381 0.433421
Si Si8 0.269661 0.926752 0.119235
O O1 0.679627 0.835133 0.495498
O O2 0.500000 0.818176 0.000000
O O3 0.319644 0.817293 0.926499
O O4 0.479503 0.720753 0.106416
O O5 0.172455 0.301773 0.483337
O O6 0.787418 0.291153 0.843645
O O7 0.986638 0.192852 0.113761
O O8 0.000000 0.293321 0.000000
O O9 0.000000 0.225043 0.500000
O O10 0.697383 0.260048 0.905991
O O11 0.795081 0.133530 0.067475
O O12 0.500000 0.647378 0.500000
O O13 0.129616 0.622931 0.882562
O O14 0.204694 0.087578 0.141910
O O15 0.000000 0.094612 0.000000
O O16 0.243031 0.389771 0.745587
O O17 0.500000 0.372965 0.000000
O O18 0.037086 0.500000 0.373395
O O19 0.000000 0.433831 0.500000
O O20 0.500000 0.925088 0.500000
O O21 0.205804 0.000000 0.975952
#
# Coordination Sequence:
#
# PCOD9145971 Si02
#       8
#     4   4   4   4   4   4   4   4
#     4  11  22  35  57  93 121 150 192 258 310 347
#     4  10  19  32  54  87 119 147 185 252 303 351
#     4  12  23  38  65  91 122 153 204 254 304 358
#     4  11  21  36  61  90 117 153 204 250 304 352
#     4  11  21  36  62  87 121 154 199 248 306 359
#     4  10  20  35  56  85 117 152 200 242 301 353
#     4  10  22  39  56  82 121 161 197 244 303 360
#     4  11  24  44  63  86 121 166 207 246 304 360
#
# _framework density 19.627222
#
# number of rings (size 3 to 8) (size 9 to 14) (size 15 to 20)
#    0.000    1.250    2.500    6.750    1.750    2.000 
#    0.000    0.000    0.000    6.750    0.000    0.000 
#    0.000    0.500    0.000    0.000    0.000    0.000 
#
# Total GULP energy -178382.781187 kJ/mol
# GULP energy per Si atom -5574.461912 kJ/mol
# Density = 1.958255 g / cm^3
# Si number density = 19.627222 Si / 1000 Ang^3
#
#
#
# Elastic Constant Matrix: (Units=GPa)
#
#
# Indices 1 2 3 4 5 6 
#
# 1 145.7219 17.9913 24.8330 0.0000 29.1663 0.0000
# 2 17.9913 67.0515 -1.5117 0.0000 -6.4820 0.0000
# 3 24.8330 -1.5117 52.8684 0.0000 21.4294 0.0000
# 4 0.0000 0.0000 0.0000 -6.6686 0.0000 -3.8045
# 5 29.1663 -6.4820 21.4294 0.0000 38.6410 0.0000
# 6 0.0000 0.0000 0.0000 -3.8045 0.0000 23.1183
#
#
#
# Elastic Compliance Matrix: (Units=1/GPa)
#
#
# Indices 1 2 3 4 5 6 
#
# 1 0.008754 -0.002983 -0.001698 0.000000 -0.006167 0.000000
# 2 -0.002983 0.016201 -0.000193 0.000000 0.005077 0.000000
# 3 -0.001698 -0.000193 0.024768 0.000000 -0.012487 0.000000
# 4 0.000000 0.000000 0.000000 -0.137086 0.000000 -0.022560
# 5 -0.006167 0.005077 -0.012487 0.000000 0.038310 0.000000
# 6 0.000000 0.000000 0.000000 -0.022560 0.000000 0.039543
#
#
# Mechanical properties :
#
#
# Convention : Reuss Voigt Hill
#
# Bulk Modulus (GPa) = 25.01583 38.69631 31.85607
# Shear Modulus (GPa) = 368.60922 25.97343 197.29132
#
# Velocity S-wave (km/s) = 13.71907 3.64172 10.03680
# Velocity P-wave (km/s) = 16.23957 6.11892 12.27120
#
# Compressibility (1/GPa) = 0.03997469
#
# Stress axis : x y z
#
# Youngs Moduli (GPa) = 114.22943 61.72518 40.37447
#
# Poissons Ratio (x) = 0.18415 0.06855
# Poissons Ratio (y) = 0.34079 0.00780
# Poissons Ratio (z) = 0.19393 0.01192
#
# Static dielectric constant tensor:
#      x y z
#    x 1.770020 0.000000 0.026460 
#    y 0.000000 1.713200 0.000000 
#    z 0.026460 0.000000 1.647790 
# 
# From -- ./inp_files/56155.got.cif
#   From: 2010.05.17/outbox.cif.g08.bks.cpg/sg10_29_cif.got.tgz:56155.got - 2010.06.03 11:33:40.
