data_PCOD9145765
_publ_section_title
;
Structure prediction by ZEFSAII (Michael W. Deem and Ramdas Pophale) SiO2 
 PCOD9145765
Probable space group: P 2/M
;
_chemical_formula_sum "Si O2"
_cell_formula_units_Z 20
_cell_length_a 20.443674
_cell_length_b 12.232317
_cell_length_c 10.703842
_cell_angle_alpha 90.000000
_cell_angle_beta 25.519693
_cell_angle_gamma 90.000000
_cell_volume 1153.199719
_symmetry_space_group_name_H-M "P 2/M"
_symmetry_group_IT_number 10
_symmetry_cell_setting 'monoclinic'
loop_
_space_group_symop_operation_xyz
x,y,z
-x,y,-z
-x,-y,-z
x,-y,z
loop_
_atom_site_type_symbol
_atom_site_label
_atom_site_fract_x
_atom_site_fract_y
_atom_site_fract_z
Si Si1 0.327401 0.267940 0.835822
Si Si2 0.124145 0.500000 0.553497
Si Si3 0.766448 0.500000 0.115499
Si Si4 0.244034 0.734684 0.268247
Si Si5 0.957024 0.874396 0.721953
Si Si6 0.500000 0.310195 0.000000
Si Si7 0.675547 0.500000 0.558572
O O1 0.500000 0.244441 0.500000
O O2 0.285668 0.391519 0.867218
O O3 0.304767 0.253966 0.023130
O O4 0.201835 0.188731 0.989924
O O5 0.197604 0.608527 0.369156
O O6 0.172720 0.500000 0.616282
O O7 0.947585 0.500000 0.824366
O O8 0.699255 0.500000 0.370878
O O9 0.375532 0.758099 0.140663
O O10 0.095038 0.807846 0.545246
O O11 0.000000 0.873576 0.500000
O O12 0.948116 0.000000 0.777832
O O13 0.582277 0.392858 0.761467
#
# Coordination Sequence:
#
# PCOD9145765 Si02
#       7
#     4   2   2   4   4   2   2
#     4  11  22  32  52  81 109 135 166 214 265 305
#     4  10  19  32  53  76 104 144 171 206 249 310
#     4  12  20  31  49  81 112 133 167 213 259 305
#     4  10  19  35  54  78 104 138 176 206 256 310
#     4   9  19  36  55  74 100 135 176 216 254 305
#     4   9  18  34  53  72 106 146 171 207 246 306
#     4   9  19  31  47  76 111 142 172 199 248 313
#
# _framework density 17.343050000000002
#
# number of rings (size 3 to 8) (size 9 to 14) (size 15 to 20)
#    0.000    2.000    2.000    3.000    0.000    1.200 
#    0.000    0.500    0.000    0.000    0.000   18.200 
#    0.000    0.000    0.000    0.000    0.000    0.000 
#
# Total GULP energy -111601.233673 kJ/mol
# GULP energy per Si atom -5580.061684 kJ/mol
# Density = 1.730358 g / cm^3
# Si number density = 17.343050 Si / 1000 Ang^3
#
#
#
# Elastic Constant Matrix: (Units=GPa)
#
#
# Indices 1 2 3 4 5 6 
#
# 1 100.3244 44.7068 47.1681 0.0000 -36.2339 0.0000
# 2 44.7068 112.4171 42.8637 0.0000 -26.9817 0.0000
# 3 47.1681 42.8637 101.0334 0.0000 -32.0679 0.0000
# 4 0.0000 0.0000 0.0000 3.0986 0.0000 -0.9834
# 5 -36.2339 -26.9817 -32.0679 0.0000 37.5054 0.0000
# 6 0.0000 0.0000 0.0000 -0.9834 0.0000 -3.0070
#
#
#
# Elastic Compliance Matrix: (Units=1/GPa)
#
#
# Indices 1 2 3 4 5 6 
#
# 1 0.016826 -0.002742 -0.002963 0.000000 0.011750 0.000000
# 2 -0.002742 0.011851 -0.002584 0.000000 0.003668 0.000000
# 3 -0.002963 -0.002584 0.014930 0.000000 0.008045 0.000000
# 4 0.000000 0.000000 0.000000 0.292382 0.000000 -0.095621
# 5 0.011750 0.003668 0.008045 0.000000 0.047532 0.000000
# 6 0.000000 0.000000 0.000000 -0.095621 0.000000 -0.301289
#
#
# Mechanical properties :
#
#
# Convention : Reuss Voigt Hill
#
# Bulk Modulus (GPa) = 36.99377 64.80581 50.89979
# Shear Modulus (GPa) = 46.37368 19.45514 32.91441
#
# Velocity S-wave (km/s) = 5.17659 3.35294 4.36115
# Velocity P-wave (km/s) = 7.55688 7.24139 7.40081
#
# Compressibility (1/GPa) = 0.02703158
#
# Stress axis : x y z
#
# Youngs Moduli (GPa) = 59.43141 84.37878 66.97707
#
# Poissons Ratio (x) = 0.23134 0.19844
# Poissons Ratio (y) = 0.16294 0.17305
# Poissons Ratio (z) = 0.17608 0.21801
#
# Static dielectric constant tensor:
#      x y z
#    x 1.603280 0.000000 -0.022480 
#    y 0.000000 1.564180 0.000000 
#    z -0.022480 0.000000 1.589840 
# 
# From -- ./inp_files/23150.got.cif
#   From: 2010.05.17/outbox.cif.g08.bks.cpg/sg10_12_cif.got.tgz:23150.got - 2010.06.03 11:33:40.
