data_PCOD9145315
_publ_section_title
;
Structure prediction by ZEFSAII (Michael W. Deem and Ramdas Pophale) SiO2 
 PCOD9145315
Probable space group: P 2/M
;
_chemical_formula_sum "Si O2"
_cell_formula_units_Z 28
_cell_length_a 11.634433
_cell_length_b 7.286824
_cell_length_c 27.370823
_cell_angle_alpha 90.000000
_cell_angle_beta 30.390480
_cell_angle_gamma 90.000000
_cell_volume 1173.891172
_symmetry_space_group_name_H-M "P 2/M"
_symmetry_group_IT_number 10
_symmetry_cell_setting 'monoclinic'
loop_
_space_group_symop_operation_xyz
x,y,z
-x,y,-z
-x,-y,-z
x,-y,z
loop_
_atom_site_type_symbol
_atom_site_label
_atom_site_fract_x
_atom_site_fract_y
_atom_site_fract_z
Si Si1 0.777535 0.276743 0.942073
Si Si2 0.409865 0.277768 0.245529
Si Si3 0.932035 0.278440 0.257506
Si Si4 0.437063 0.208779 0.469132
Si Si5 0.101806 0.276777 0.911125
Si Si6 0.353558 0.277164 0.156354
Si Si7 0.061030 0.209171 0.531400
O O1 0.765119 0.500000 0.942981
O O2 0.913751 0.218220 0.844482
O O3 0.937459 0.223003 0.928259
O O4 0.525370 0.217041 0.050505
O O5 0.398635 0.500000 0.250657
O O6 0.637473 0.220153 0.189910
O O7 0.435559 0.222034 0.179603
O O8 0.177177 0.208623 0.353034
O O9 0.913415 0.500000 0.262889
O O10 0.678677 0.207166 0.353119
O O11 0.092014 0.225320 0.244323
O O12 0.500000 0.289719 0.500000
O O13 0.249000 0.288788 0.500491
O O14 0.359021 0.000000 0.507922
O O15 0.100956 0.500000 0.912028
O O16 0.000000 0.217029 0.000000
O O17 0.359560 0.500000 0.152823
O O18 0.000000 0.289885 0.500000
O O19 0.140335 0.000000 0.492476
#
# Coordination Sequence:
#
# PCOD9145315 Si02
#       7
#     4   4   4   4   4   4   4
#     4   9  16  27  45  73 110 142 167 198 249 313
#     4  10  19  31  54  81 104 134 175 216 254 299
#     4  10  20  31  52  82 107 132 169 218 263 298
#     4  10  22  41  60  75  98 139 183 216 259 321
#     4   9  15  26  45  74 108 139 168 202 246 303
#     4   9  16  29  48  77 112 141 167 203 254 311
#     4  10  23  41  57  75 103 139 175 216 270 321
#
# _framework density 23.852295000000002
#
# number of rings (size 3 to 8) (size 9 to 14) (size 15 to 20)
#    0.000    2.429    1.429    1.286    2.000    2.857 
#    0.000    0.000    0.000    3.000    0.000    0.000 
#    0.000    0.000    0.000    0.000    0.000    0.000 
#
# Total GULP energy -156351.660330 kJ/mol
# GULP energy per Si atom -5583.987869 kJ/mol
# Density = 2.379801 g / cm^3
# Si number density = 23.852295 Si / 1000 Ang^3
#
#
#
# Elastic Constant Matrix: (Units=GPa)
#
#
# Indices 1 2 3 4 5 6 
#
# 1 148.7513 4.8444 56.0186 0.0000 -20.2516 0.0000
# 2 4.8444 99.4741 -5.8201 0.0000 0.9788 0.0000
# 3 56.0186 -5.8201 143.7697 0.0000 -24.5743 0.0000
# 4 0.0000 0.0000 0.0000 22.6182 0.0000 -6.3176
# 5 -20.2516 0.9788 -24.5743 0.0000 49.0123 0.0000
# 6 0.0000 0.0000 0.0000 -6.3176 0.0000 -20.0271
#
#
#
# Elastic Compliance Matrix: (Units=1/GPa)
#
#
# Indices 1 2 3 4 5 6 
#
# 1 0.008073 -0.000578 -0.002840 0.000000 0.001923 0.000000
# 2 -0.000578 0.010118 0.000612 0.000000 -0.000134 0.000000
# 3 -0.002840 0.000612 0.008623 0.000000 0.003138 0.000000
# 4 0.000000 0.000000 0.000000 0.040632 0.000000 -0.012818
# 5 0.001923 -0.000134 0.003138 0.000000 0.022774 0.000000
# 6 0.000000 0.000000 0.000000 -0.012818 0.000000 -0.045889
#
#
# Mechanical properties :
#
#
# Convention : Reuss Voigt Hill
#
# Bulk Modulus (GPa) = 47.16660 55.78677 51.47668
# Shear Modulus (GPa) = 87.70182 32.78415 60.24298
#
# Velocity S-wave (km/s) = 6.07030 3.71140 5.03105
# Velocity P-wave (km/s) = 8.30354 6.46569 7.44157
#
# Compressibility (1/GPa) = 0.02120144
#
# Stress axis : x y z
#
# Youngs Moduli (GPa) = 123.87133 98.83222 115.96407
#
# Poissons Ratio (x) = 0.05715 0.32936
# Poissons Ratio (y) = 0.07163 -0.07097
# Poissons Ratio (z) = 0.35182 -0.06048
#
# Static dielectric constant tensor:
#      x y z
#    x 1.907640 0.000000 0.017680 
#    y 0.000000 1.959490 0.000000 
#    z 0.017680 0.000000 1.828100 
# 
# From -- ./inp_files/77794.got.cif
#   From: 2010.05.17/outbox.cif.g08.bks.cpg/sg10_39_cif.got.tgz:77794.got - 2010.06.03 11:33:40.
