data_PCOD9145209
_publ_section_title
;
Structure prediction by ZEFSAII (Michael W. Deem and Ramdas Pophale) SiO2 
 PCOD9145209
Probable space group: P 2/M
;
_chemical_formula_sum "Si O2"
_cell_formula_units_Z 18
_cell_length_a 16.863777
_cell_length_b 10.921057
_cell_length_c 5.043878
_cell_angle_alpha 90.000000
_cell_angle_beta 90.386390
_cell_angle_gamma 90.000000
_cell_volume 928.911249
_symmetry_space_group_name_H-M "P 2/M"
_symmetry_group_IT_number 10
_symmetry_cell_setting 'monoclinic'
loop_
_space_group_symop_operation_xyz
x,y,z
-x,y,-z
-x,-y,-z
x,-y,z
loop_
_atom_site_type_symbol
_atom_site_label
_atom_site_fract_x
_atom_site_fract_y
_atom_site_fract_z
Si Si1 0.412048 0.145498 0.545046
Si Si2 0.150969 0.750008 0.830744
Si Si3 0.689698 0.146126 0.944682
Si Si4 0.059547 0.500000 0.750857
Si Si5 0.077310 0.143715 0.346246
O O1 0.500000 0.196914 0.500000
O O2 0.345982 0.188753 0.335392
O O3 0.416991 0.000000 0.487166
O O4 0.380284 0.157436 0.840949
O O5 0.237327 0.772177 0.955512
O O6 0.093812 0.797519 0.064805
O O7 0.118034 0.616742 0.758456
O O8 0.145592 0.829973 0.562363
O O9 0.713402 0.000000 0.935330
O O10 0.000000 0.500000 0.500000
O O11 0.000000 0.500000 0.000000
O O12 0.000000 0.191218 0.500000
O O13 0.067785 0.000000 0.303152
#
# Coordination Sequence:
#
# PCOD9145209 Si02
#       5
#     4   4   4   2   4
#     4   9  17  30  49  77 113 147 175 206 259 335
#     4  12  23  38  57  81 110 145 189 238 281 328
#     4  10  19  31  51  80 111 141 175 222 277 326
#     4  12  26  44  62  78 105 150 199 242 280 328
#     4  11  22  36  56  81 110 142 177 225 287 349
#
# _framework density 19.377526
#
# number of rings (size 3 to 8) (size 9 to 14) (size 15 to 20)
#    0.000    1.333    0.000    8.000    0.000    6.222 
#    0.000    0.000    0.000    0.000    0.000    4.667 
#    0.000    0.000    0.000    0.000    0.000    0.000 
#
# Total GULP energy -100541.904815 kJ/mol
# GULP energy per Si atom -5585.661379 kJ/mol
# Density = 1.933342 g / cm^3
# Si number density = 19.377526 Si / 1000 Ang^3
#
#
#
# Elastic Constant Matrix: (Units=GPa)
#
#
# Indices 1 2 3 4 5 6 
#
# 1 72.1436 18.9942 -8.1944 0.0000 -1.8224 0.0000
# 2 18.9942 71.1313 15.2866 0.0000 -4.5772 0.0000
# 3 -8.1944 15.2866 89.2645 0.0000 6.8438 0.0000
# 4 0.0000 0.0000 0.0000 16.1416 0.0000 4.9992
# 5 -1.8224 -4.5772 6.8438 0.0000 19.8586 0.0000
# 6 0.0000 0.0000 0.0000 4.9992 0.0000 22.0634
#
#
#
# Elastic Compliance Matrix: (Units=1/GPa)
#
#
# Indices 1 2 3 4 5 6 
#
# 1 0.015313 -0.004594 0.002225 0.000000 -0.000420 0.000000
# 2 -0.004594 0.016348 -0.003572 0.000000 0.004577 0.000000
# 3 0.002225 -0.003572 0.012394 0.000000 -0.004890 0.000000
# 4 0.000000 0.000000 0.000000 0.066627 0.000000 -0.015097
# 5 -0.000420 0.004577 -0.004890 0.000000 0.053058 0.000000
# 6 0.000000 0.000000 0.000000 -0.015097 0.000000 0.048745
#
#
# Mechanical properties :
#
#
# Convention : Reuss Voigt Hill
#
# Bulk Modulus (GPa) = 31.08425 31.63469 31.35947
# Shear Modulus (GPa) = 21.26838 25.37624 23.32231
#
# Velocity S-wave (km/s) = 3.31657 3.62273 3.47302
# Velocity P-wave (km/s) = 5.54458 5.81891 5.68340
#
# Compressibility (1/GPa) = 0.03217063
#
# Stress axis : x y z
#
# Youngs Moduli (GPa) = 65.30448 61.17125 80.68696
#
# Poissons Ratio (x) = 0.28103 -0.17950
# Poissons Ratio (y) = 0.30002 0.28823
# Poissons Ratio (z) = -0.14528 0.21852
#
# Static dielectric constant tensor:
#      x y z
#    x 1.742840 0.000000 0.024350 
#    y 0.000000 1.663310 0.000000 
#    z 0.024350 0.000000 1.683600 
# 
# From -- ./inp_files/8779.got.cif
#   From: 2010.05.17/outbox.cif.g08.bks.cpg/sg10_5_cif.got.tgz:8779.got - 2010.06.03 11:33:40.
