data_PCOD9145081
_publ_section_title
;
Structure prediction by ZEFSAII (Michael W. Deem and Ramdas Pophale) SiO2 
 PCOD9145081
Probable space group: P 2/M
;
_chemical_formula_sum "Si O2"
_cell_formula_units_Z 32
_cell_length_a 15.009756
_cell_length_b 8.591090
_cell_length_c 26.560397
_cell_angle_alpha 90.000000
_cell_angle_beta 147.744402
_cell_angle_gamma 90.000000
_cell_volume 1827.895409
_symmetry_space_group_name_H-M "P 2/M"
_symmetry_group_IT_number 10
_symmetry_cell_setting 'monoclinic'
loop_
_space_group_symop_operation_xyz
x,y,z
-x,y,-z
-x,-y,-z
x,-y,z
loop_
_atom_site_type_symbol
_atom_site_label
_atom_site_fract_x
_atom_site_fract_y
_atom_site_fract_z
Si Si1 0.277469 0.314625 0.948462
Si Si2 0.762788 0.310896 0.610241
Si Si3 0.936113 0.814261 0.065467
Si Si4 0.637961 0.316132 0.858446
Si Si5 0.443724 0.311610 0.392417
Si Si6 0.423844 0.816061 0.843992
Si Si7 0.319615 0.185693 0.228491
Si Si8 0.859851 0.688188 0.226426
O O1 0.306216 0.500000 0.963930
O O2 0.439714 0.231217 0.048411
O O3 0.770364 0.270404 0.130915
O O4 0.127313 0.270780 0.914472
O O5 0.765575 0.500000 0.612559
O O6 0.620534 0.267150 0.502091
O O7 0.697400 0.263094 0.634248
O O8 0.948298 0.258617 0.685447
O O9 0.124005 0.770936 0.141039
O O10 0.927937 0.000000 0.069264
O O11 0.804138 0.767638 0.959338
O O12 0.662326 0.500000 0.874188
O O13 0.489406 0.264874 0.824582
O O14 0.611088 0.265871 0.788409
O O15 0.439093 0.500000 0.386247
O O16 0.410939 0.238341 0.322850
O O17 0.246098 0.758665 0.778904
O O18 0.426634 0.000000 0.838383
O O19 0.329066 0.000000 0.227244
O O20 0.857295 0.500000 0.229006
#
# Coordination Sequence:
#
# PCOD9145081 Si02
#       8
#     4   4   4   4   4   4   4   4
#     4  10  19  31  50  75 103 135 172 211 247 291
#     4   8  16  32  55  80 106 133 165 209 251 291
#     4  10  20  33  49  72 106 140 167 202 250 300
#     4  11  22  36  54  73  96 131 174 215 251 293
#     4   9  17  33  56  80 104 134 170 204 246 297
#     4  11  22  35  50  70 101 137 170 209 255 300
#     4  11  22  34  50  75 106 137 167 204 252 301
#     4  10  19  32  51  75 102 134 172 211 250 293
#
# _framework density 17.506471000000001
#
# number of rings (size 3 to 8) (size 9 to 14) (size 15 to 20)
#    0.000    2.000    0.000    7.125    0.000    7.000 
#    0.000    2.500    0.000    0.750    0.000    5.250 
#    0.000    0.000    0.000    0.000    0.000    0.000 
#
# Total GULP energy -178721.262280 kJ/mol
# GULP energy per Si atom -5585.039446 kJ/mol
# Density = 1.746663 g / cm^3
# Si number density = 17.506471 Si / 1000 Ang^3
#
#
#
# Elastic Constant Matrix: (Units=GPa)
#
#
# Indices 1 2 3 4 5 6 
#
# 1 97.2163 3.9046 52.0964 0.0000 -0.8314 0.0000
# 2 3.9046 18.0168 -1.4820 0.0000 0.9058 0.0000
# 3 52.0964 -1.4820 45.6817 0.0000 1.3901 0.0000
# 4 0.0000 0.0000 0.0000 34.2610 0.0000 -34.2091
# 5 -0.8314 0.9058 1.3901 0.0000 29.7489 0.0000
# 6 0.0000 0.0000 0.0000 -34.2091 0.0000 95.1620
#
#
#
# Elastic Compliance Matrix: (Units=1/GPa)
#
#
# Indices 1 2 3 4 5 6 
#
# 1 0.027922 -0.008829 -0.032207 0.000000 0.002554 0.000000
# 2 -0.008829 0.058538 0.012047 0.000000 -0.002592 0.000000
# 3 -0.032207 0.012047 0.059133 0.000000 -0.004030 0.000000
# 4 0.000000 0.000000 0.000000 0.045530 0.000000 0.016367
# 5 0.002554 -0.002592 -0.004030 0.000000 0.033953 0.000000
# 6 0.000000 0.000000 0.000000 0.016367 0.000000 0.016392
#
#
# Mechanical properties :
#
#
# Convention : Reuss Voigt Hill
#
# Bulk Modulus (GPa) = 11.41350 29.99475 20.70413
# Shear Modulus (GPa) = 15.21361 38.92744 27.07053
#
# Velocity S-wave (km/s) = 2.95113 4.72062 3.93659
# Velocity P-wave (km/s) = 4.25980 6.84712 5.70215
#
# Compressibility (1/GPa) = 0.08761552
#
# Stress axis : x y z
#
# Youngs Moduli (GPa) = 35.81422 17.08279 16.91089
#
# Poissons Ratio (x) = 0.15082 0.54465
# Poissons Ratio (y) = 0.31620 -0.20372
# Poissons Ratio (z) = 1.15346 -0.20579
#
# Static dielectric constant tensor:
#      x y z
#    x 1.594810 0.000000 0.010370 
#    y 0.000000 1.588930 0.000000 
#    z 0.010370 0.000000 1.584720 
# 
# From -- ./inp_files/93131.got.cif
#   From: 2010.05.17/outbox.cif.g08.bks.cpg/sg10_47_cif.got.tgz:93131.got - 2010.06.03 11:33:40.
