data_PCOD9145369
_publ_section_title
;
Structure prediction by ZEFSAII (Michael W. Deem and Ramdas Pophale) SiO2 
 PCOD9145369
Probable space group: P 2/M
;
_chemical_formula_sum "Si O2"
_cell_formula_units_Z 28
_cell_length_a 17.237198
_cell_length_b 9.164725
_cell_length_c 21.039356
_cell_angle_alpha 90.000000
_cell_angle_beta 34.995896
_cell_angle_gamma 90.000000
_cell_volume 1906.186642
_symmetry_space_group_name_H-M "P 2/M"
_symmetry_group_IT_number 10
_symmetry_cell_setting 'monoclinic'
loop_
_space_group_symop_operation_xyz
x,y,z
-x,y,-z
-x,-y,-z
x,-y,z
loop_
_atom_site_type_symbol
_atom_site_label
_atom_site_fract_x
_atom_site_fract_y
_atom_site_fract_z
Si Si1 0.126081 0.674577 0.369538
Si Si2 0.126317 0.175360 0.232691
Si Si3 0.583219 0.674299 0.764633
Si Si4 0.586402 0.674065 0.503961
Si Si5 0.600302 0.674764 0.991391
Si Si6 0.835609 0.170847 0.380420
Si Si7 0.409441 0.829679 0.372423
O O1 0.126955 0.500000 0.355757
O O2 0.117088 0.760018 0.309715
O O3 0.267367 0.710177 0.309231
O O4 0.000000 0.706107 0.500000
O O5 0.260163 0.240959 0.111170
O O6 0.988996 0.216875 0.287523
O O7 0.132367 0.000000 0.230964
O O8 0.579378 0.500000 0.756526
O O9 0.557800 0.755850 0.715889
O O10 0.476422 0.709651 0.891672
O O11 0.500000 0.712490 0.500000
O O12 0.588231 0.500000 0.509807
O O13 0.740022 0.735669 0.398251
O O14 0.530026 0.748447 0.606330
O O15 0.624325 0.500000 0.972921
O O16 0.500000 0.709455 0.000000
O O17 0.752017 0.182958 0.503207
O O18 0.830962 0.000000 0.365536
O O19 0.443997 0.000000 0.349477
#
# Coordination Sequence:
#
# PCOD9145369 Si02
#       7
#     4   4   4   4   4   4   4
#     4  10  20  32  48  68  91 126 166 201 247 294
#     4  11  21  33  48  69  96 126 166 209 244 284
#     4  10  19  32  48  67  93 126 168 211 243 282
#     4   9  17  30  51  78 103 127 157 190 229 287
#     4  10  20  36  51  64  89 128 174 215 249 286
#     4   8  18  32  46  70 102 130 155 190 239 289
#     4   9  18  31  48  71 103 130 154 189 239 294
#
# _framework density 14.689012
#
# number of rings (size 3 to 8) (size 9 to 14) (size 15 to 20)
#    0.857    1.571    1.429    1.714    0.000    4.000 
#    0.000    0.000    0.000    0.000    0.000    1.000 
#    0.000    8.000    0.000    0.000    0.000    0.000 
#
# Total GULP energy -155878.835025 kJ/mol
# GULP energy per Si atom -5567.101251 kJ/mol
# Density = 1.465558 g / cm^3
# Si number density = 14.689012 Si / 1000 Ang^3
#
#
#
# Elastic Constant Matrix: (Units=GPa)
#
#
# Indices 1 2 3 4 5 6 
#
# 1 132.5690 66.7239 69.2624 0.0000 5.3266 0.0000
# 2 66.7239 54.6630 51.6637 0.0000 2.6292 0.0000
# 3 69.2624 51.6637 99.0999 0.0000 0.1167 0.0000
# 4 0.0000 0.0000 0.0000 17.4510 0.0000 -4.3158
# 5 5.3266 2.6292 0.1167 0.0000 9.1334 0.0000
# 6 0.0000 0.0000 0.0000 -4.3158 0.0000 14.8847
#
#
#
# Elastic Compliance Matrix: (Units=1/GPa)
#
#
# Indices 1 2 3 4 5 6 
#
# 1 0.020118 -0.021708 -0.002738 0.000000 -0.005449 0.000000
# 2 -0.021708 0.060450 -0.016337 0.000000 -0.004533 0.000000
# 3 -0.002738 -0.016337 0.020514 0.000000 0.006037 0.000000
# 4 0.000000 0.000000 0.000000 0.061730 0.000000 0.017898
# 5 -0.005449 -0.004533 0.006037 0.000000 0.113894 0.000000
# 6 0.000000 0.000000 0.000000 0.017898 0.000000 0.072373
#
#
# Mechanical properties :
#
#
# Convention : Reuss Voigt Hill
#
# Bulk Modulus (GPa) = 51.23650 73.51465 62.37558
# Shear Modulus (GPa) = 11.43772 14.87260 13.15516
#
# Velocity S-wave (km/s) = 2.79347 3.18543 2.99587
# Velocity P-wave (km/s) = 6.73507 7.98031 7.38399
#
# Compressibility (1/GPa) = 0.01951733
#
# Stress axis : x y z
#
# Youngs Moduli (GPa) = 49.70584 16.54262 48.74664
#
# Poissons Ratio (x) = 0.35910 0.13346
# Poissons Ratio (y) = 1.07900 0.79638
# Poissons Ratio (z) = 0.13608 0.27026
#
# Static dielectric constant tensor:
#      x y z
#    x 1.466170 0.000000 -0.006920 
#    y 0.000000 1.489260 0.000000 
#    z -0.006920 0.000000 1.476060 
# 
# From -- ./inp_files/77733.got.cif
#   From: 2010.05.17/outbox.cif.g08.bks.cpg/sg10_39_cif.got.tgz:77733.got - 2010.06.03 11:33:40.
