data_PCOD9145143
_publ_section_title
;
Structure prediction by ZEFSAII (Michael W. Deem and Ramdas Pophale) SiO2 
 PCOD9145143
Probable space group: P 2/M
;
_chemical_formula_sum "Si O2"
_cell_formula_units_Z 24
_cell_length_a 8.321319
_cell_length_b 20.197335
_cell_length_c 8.156037
_cell_angle_alpha 90.000000
_cell_angle_beta 65.157569
_cell_angle_gamma 90.000000
_cell_volume 1243.930386
_symmetry_space_group_name_H-M "P 2/M"
_symmetry_group_IT_number 10
_symmetry_cell_setting 'monoclinic'
loop_
_space_group_symop_operation_xyz
x,y,z
-x,y,-z
-x,-y,-z
x,-y,z
loop_
_atom_site_type_symbol
_atom_site_label
_atom_site_fract_x
_atom_site_fract_y
_atom_site_fract_z
Si Si1 0.296059 0.000000 0.652165
Si Si2 0.309130 0.354968 0.156568
Si Si3 0.998645 0.896535 0.800074
Si Si4 0.828352 0.365260 0.452971
Si Si5 0.705767 0.000000 0.951422
Si Si6 0.704029 0.500000 0.853966
Si Si7 0.008652 0.254575 0.191529
Si Si8 0.295496 0.500000 0.541508
O O1 0.500000 0.000000 0.500000
O O2 0.171536 0.063485 0.662702
O O3 0.293966 0.000000 0.850935
O O4 0.325680 0.358455 0.346785
O O5 0.230937 0.426255 0.127012
O O6 0.184871 0.293995 0.166045
O O7 0.500000 0.346831 0.000000
O O8 0.996052 0.820735 0.745513
O O9 0.819998 0.937461 0.837884
O O10 0.000000 0.896512 0.000000
O O11 0.796706 0.432036 0.365416
O O12 0.000000 0.372432 0.500000
O O13 0.856026 0.300538 0.333806
O O14 0.500000 0.000000 0.000000
O O15 0.721259 0.500000 0.649344
O O16 0.500000 0.500000 0.000000
O O17 0.000000 0.253733 0.000000
O O18 0.500000 0.500000 0.500000
#
# Coordination Sequence:
#
# PCOD9145143 Si02
#       8
#     2   4   4   4   2   2   4   2
#     4   9  17  35  58  78 100 133 169 203 250 298
#     4   9  18  34  53  72  97 134 171 209 256 306
#     4   8  17  35  54  73 106 140 164 199 251 303
#     4   9  19  35  51  70 100 135 166 204 260 309
#     4   9  17  33  58  82 102 131 169 205 242 294
#     4   8  16  31  49  68  95 127 164 209 260 299
#     4  10  20  34  51  74 103 136 169 204 247 299
#     4  10  19  31  51  74  95 123 169 221 255 291
#
# _framework density 19.293682
#
# number of rings (size 3 to 8) (size 9 to 14) (size 15 to 20)
#    0.000    3.000    0.000    1.250    0.000    6.667 
#    0.000   13.333    0.000    0.000    0.000    0.000 
#    0.000    0.000    0.000    0.000    0.000    0.000 
#
# Total GULP energy -133608.016395 kJ/mol
# GULP energy per Si atom -5567.000683 kJ/mol
# Density = 1.924977 g / cm^3
# Si number density = 19.293682 Si / 1000 Ang^3
#
#
#
# Elastic Constant Matrix: (Units=GPa)
#
#
# Indices 1 2 3 4 5 6 
#
# 1 63.2560 59.3744 9.5007 0.0000 -21.9087 0.0000
# 2 59.3744 226.3557 46.7951 0.0000 -24.5088 0.0000
# 3 9.5007 46.7951 78.6479 0.0000 -35.7137 0.0000
# 4 0.0000 0.0000 0.0000 12.4001 0.0000 9.4583
# 5 -21.9087 -24.5088 -35.7137 0.0000 30.8703 0.0000
# 6 0.0000 0.0000 0.0000 9.4583 0.0000 9.8549
#
#
#
# Elastic Compliance Matrix: (Units=1/GPa)
#
#
# Indices 1 2 3 4 5 6 
#
# 1 0.035163 -0.008855 0.019299 0.000000 0.040252 0.000000
# 2 -0.008855 0.007286 -0.007358 0.000000 -0.009012 0.000000
# 3 0.019299 -0.007358 0.038614 0.000000 0.052527 0.000000
# 4 0.000000 0.000000 0.000000 0.300992 0.000000 -0.288880
# 5 0.040252 -0.009012 0.052527 0.000000 0.114575 0.000000
# 6 0.000000 0.000000 0.000000 -0.288880 0.000000 0.378727
#
#
# Mechanical properties :
#
#
# Convention : Reuss Voigt Hill
#
# Bulk Modulus (GPa) = 11.46313 66.62224 39.04268
# Shear Modulus (GPa) = 5.56631 27.46435 16.51533
#
# Velocity S-wave (km/s) = 1.70038 3.77701 2.92892
# Velocity P-wave (km/s) = 3.13199 7.32302 5.63187
#
# Compressibility (1/GPa) = 0.08723623
#
# Stress axis : x y z
#
# Youngs Moduli (GPa) = 28.43888 137.25304 25.89758
#
# Poissons Ratio (x) = 1.21537 -0.49981
# Poissons Ratio (y) = 0.25182 0.19054
# Poissons Ratio (z) = -0.54885 1.00985
#
# Static dielectric constant tensor:
#      x y z
#    x 1.694230 0.000000 -0.012630 
#    y 0.000000 1.714750 0.000000 
#    z -0.012630 0.000000 1.676180 
# 
# From -- ./inp_files/19931.got.cif
#   From: 2010.05.17/outbox.cif.g08.bks.cpg/sg10_10_cif.got.tgz:19931.got - 2010.06.03 11:33:40.
