data_PCOD9145877
_publ_section_title
;
Structure prediction by ZEFSAII (Michael W. Deem and Ramdas Pophale) SiO2 
 PCOD9145877
Probable space group: P 2/M
;
_chemical_formula_sum "Si O2"
_cell_formula_units_Z 32
_cell_length_a 21.075992
_cell_length_b 17.420670
_cell_length_c 21.010997
_cell_angle_alpha 90.000000
_cell_angle_beta 13.880101
_cell_angle_gamma 90.000000
_cell_volume 1850.603183
_symmetry_space_group_name_H-M "P 2/M"
_symmetry_group_IT_number 10
_symmetry_cell_setting 'monoclinic'
loop_
_space_group_symop_operation_xyz
x,y,z
-x,y,-z
-x,-y,-z
x,-y,z
loop_
_atom_site_type_symbol
_atom_site_label
_atom_site_fract_x
_atom_site_fract_y
_atom_site_fract_z
Si Si1 0.533143 0.909948 0.662505
Si Si2 0.643015 0.587733 0.495784
Si Si3 0.764109 0.282904 0.277476
Si Si4 0.048414 0.266345 0.239421
Si Si5 0.984693 0.175932 0.860681
Si Si6 0.738364 0.089310 0.717780
Si Si7 0.196903 0.587466 0.030550
Si Si8 0.564741 0.181361 0.763275
O O1 0.548859 0.877754 0.719376
O O2 0.810582 0.889738 0.359779
O O3 0.478089 0.000000 0.715680
O O4 0.302935 0.861400 0.852142
O O5 0.571513 0.500000 0.547078
O O6 0.661641 0.645502 0.419209
O O7 0.432072 0.613918 0.754535
O O8 0.929356 0.586130 0.249732
O O9 0.500000 0.252471 0.500000
O O10 0.898208 0.221237 0.193828
O O11 0.000000 0.306605 0.000000
O O12 0.031062 0.234351 0.183803
O O13 0.768794 0.247982 0.543537
O O14 0.141328 0.353588 0.141355
O O15 0.274543 0.216879 0.053580
O O16 0.668872 0.138776 0.723962
O O17 0.000000 0.115449 0.500000
O O18 0.778752 0.000000 0.659319
O O19 0.500000 0.092064 0.000000
O O20 0.256708 0.500000 0.992391
#
# Coordination Sequence:
#
# PCOD9145877 Si02
#       8
#     4   4   4   4   4   4   4   4
#     4  10  20  35  57  78 100 128 162 219 267 308
#     4  10  21  35  53  75 103 137 171 208 252 316
#     4  12  24  36  55  74 100 135 174 217 252 318
#     4  10  19  32  54  76 106 136 169 221 263 302
#     4  10  21  35  53  75 100 128 167 209 269 320
#     4  10  20  34  52  75 114 158 183 206 246 302
#     4  10  19  33  54  77 107 140 168 205 266 327
#     4  10  20  32  52  83 108 137 178 217 248 300
#
# _framework density 17.29166
#
# number of rings (size 3 to 8) (size 9 to 14) (size 15 to 20)
#    0.000    1.750    1.250    3.750    3.500    0.500 
#    0.000    3.750    0.000    7.500    0.000    0.000 
#    0.000   10.000    0.000    0.000    0.000    0.000 
#
# Total GULP energy -178660.834041 kJ/mol
# GULP energy per Si atom -5583.151064 kJ/mol
# Density = 1.725230 g / cm^3
# Si number density = 17.291660 Si / 1000 Ang^3
#
#
#
# Elastic Constant Matrix: (Units=GPa)
#
#
# Indices 1 2 3 4 5 6 
#
# 1 76.2363 35.7334 10.7719 0.0000 -19.8531 0.0000
# 2 35.7334 68.6544 -0.1781 0.0000 0.2526 0.0000
# 3 10.7719 -0.1781 69.2721 0.0000 -12.8920 0.0000
# 4 0.0000 0.0000 0.0000 39.4388 0.0000 -21.7239
# 5 -19.8531 0.2526 -12.8920 0.0000 24.8986 0.0000
# 6 0.0000 0.0000 0.0000 -21.7239 0.0000 119.8870
#
#
#
# Elastic Compliance Matrix: (Units=1/GPa)
#
#
# Indices 1 2 3 4 5 6 
#
# 1 0.024043 -0.012585 -0.000199 0.000000 0.019196 0.000000
# 2 -0.012585 0.021154 0.000115 0.000000 -0.010190 0.000000
# 3 -0.000199 0.000115 0.015977 0.000000 0.008113 0.000000
# 4 0.000000 0.000000 0.000000 0.028167 0.000000 0.005104
# 5 0.019196 -0.010190 0.008113 0.000000 0.059773 0.000000
# 6 0.000000 0.000000 0.000000 0.005104 0.000000 0.009266
#
#
# Mechanical properties :
#
#
# Convention : Reuss Voigt Hill
#
# Bulk Modulus (GPa) = 27.90477 34.09081 30.99779
# Shear Modulus (GPa) = 25.55424 48.03391 36.79407
#
# Velocity S-wave (km/s) = 3.84843 5.27626 4.61787
# Velocity P-wave (km/s) = 5.99333 7.54166 6.81163
#
# Compressibility (1/GPa) = 0.03583617
#
# Stress axis : x y z
#
# Youngs Moduli (GPa) = 41.59244 47.27288 62.59035
#
# Poissons Ratio (x) = 0.59493 0.01243
# Poissons Ratio (y) = 0.52344 -0.00720
# Poissons Ratio (z) = 0.00826 -0.00543
#
# Static dielectric constant tensor:
#      x y z
#    x 1.556290 0.000000 -0.008040 
#    y 0.000000 1.602770 0.000000 
#    z -0.008040 0.000000 1.584820 
# 
# From -- ./inp_files/91141.got.cif
#   From: 2010.05.17/outbox.cif.g08.bks.cpg/sg10_46_cif.got.tgz:91141.got - 2010.06.03 11:33:40.
