data_PCOD9145357
_publ_section_title
;
Structure prediction by ZEFSAII (Michael W. Deem and Ramdas Pophale) SiO2 
 PCOD9145357
Probable space group: P 2/M
;
_chemical_formula_sum "Si O2"
_cell_formula_units_Z 32
_cell_length_a 29.095376
_cell_length_b 7.253864
_cell_length_c 8.610952
_cell_angle_alpha 90.000000
_cell_angle_beta 129.280953
_cell_angle_gamma 90.000000
_cell_volume 1406.740439
_symmetry_space_group_name_H-M "P 2/M"
_symmetry_group_IT_number 10
_symmetry_cell_setting 'monoclinic'
loop_
_space_group_symop_operation_xyz
x,y,z
-x,y,-z
-x,-y,-z
x,-y,z
loop_
_atom_site_type_symbol
_atom_site_label
_atom_site_fract_x
_atom_site_fract_y
_atom_site_fract_z
Si Si1 0.937215 0.723824 0.936067
Si Si2 0.759006 0.292262 0.733182
Si Si3 0.186858 0.724161 0.475438
Si Si4 0.366500 0.778448 0.423763
Si Si5 0.496822 0.775577 0.822766
Si Si6 0.433381 0.222462 0.293632
Si Si7 0.813977 0.723981 0.175900
Si Si8 0.937598 0.276279 0.295366
O O1 0.938161 0.500000 0.939747
O O2 0.881149 0.775320 0.710510
O O3 0.929222 0.782494 0.098339
O O4 0.000000 0.784343 0.000000
O O5 0.784666 0.500000 0.786960
O O6 0.777396 0.214609 0.603933
O O7 0.688323 0.298153 0.600666
O O8 0.780079 0.212457 0.945621
O O9 0.190889 0.500000 0.488499
O O10 0.203358 0.785680 0.686373
O O11 0.431740 0.726431 0.622918
O O12 0.375770 0.716914 0.264323
O O13 0.360522 0.000000 0.419353
O O14 0.555846 0.718324 0.857575
O O15 0.497271 0.000000 0.820143
O O16 0.500000 0.707428 0.000000
O O17 0.500000 0.271451 0.500000
O O18 0.431656 0.000000 0.300767
O O19 0.808819 0.500000 0.167238
O O20 0.882220 0.773795 0.285025
O O21 0.938750 0.500000 0.294931
O O22 0.000000 0.214929 0.500000
#
# Coordination Sequence:
#
# PCOD9145357 Si02
#       8
#     4   4   4   4   4   4   4   4
#     4   9  14  20  32  53  80 110 145 187 234 277
#     4  10  19  32  47  63  91 128 160 185 219 273
#     4   9  16  27  41  57  82 119 156 188 226 274
#     4   9  17  30  48  70  94 119 150 187 225 265
#     4   8  13  24  45  71  94 115 143 182 227 270
#     4   7  11  22  41  62  84 110 137 170 214 257
#     4   9  16  27  41  57  81 118 157 187 224 276
#     4   9  14  20  32  53  80 110 146 188 232 277
#
# _framework density 22.747620999999999
#
# number of rings (size 3 to 8) (size 9 to 14) (size 15 to 20)
#    0.000    3.250    1.250    2.250    0.000    3.000 
#    2.250    0.000    0.000    3.750    0.000    0.000 
#    0.000    1.000    0.000    0.000    0.000    0.000 
#
# Total GULP energy -178197.403885 kJ/mol
# GULP energy per Si atom -5568.668871 kJ/mol
# Density = 2.269585 g / cm^3
# Si number density = 22.747621 Si / 1000 Ang^3
#
#
#
# Elastic Constant Matrix: (Units=GPa)
#
#
# Indices 1 2 3 4 5 6 
#
# 1 196.5720 4.0560 52.0763 0.0000 -30.0896 0.0000
# 2 4.0560 98.1510 4.4320 0.0000 -4.2258 0.0000
# 3 52.0763 4.4320 61.3671 0.0000 -31.1746 0.0000
# 4 0.0000 0.0000 0.0000 -24.2721 0.0000 5.6076
# 5 -30.0896 -4.2258 -31.1746 0.0000 43.9299 0.0000
# 6 0.0000 0.0000 0.0000 5.6076 0.0000 -7.1771
#
#
#
# Elastic Compliance Matrix: (Units=1/GPa)
#
#
# Indices 1 2 3 4 5 6 
#
# 1 0.006583 -0.000003 -0.005153 0.000000 0.000852 0.000000
# 2 -0.000003 0.010236 -0.000372 0.000000 0.000719 0.000000
# 3 -0.005153 -0.000372 0.029530 0.000000 0.017390 0.000000
# 4 0.000000 0.000000 0.000000 -0.050275 0.000000 -0.039280
# 5 0.000852 0.000719 0.017390 0.000000 0.035757 0.000000
# 6 0.000000 0.000000 0.000000 -0.039280 0.000000 -0.170023
#
#
# Mechanical properties :
#
#
# Convention : Reuss Voigt Hill
#
# Bulk Modulus (GPa) = 28.33432 53.02430 40.67931
# Shear Modulus (GPa) = -43.33798 22.19787 -10.57005
#
# Velocity S-wave (km/s) = -4.36956 3.12722 -2.15795
# Velocity P-wave (km/s) = 3.60199 6.03322 3.42238
#
# Compressibility (1/GPa) = 0.03529289
#
# Stress axis : x y z
#
# Youngs Moduli (GPa) = 151.90963 97.69217 33.86441
#
# Poissons Ratio (x) = 0.00026 0.17452
# Poissons Ratio (y) = 0.00040 0.01259
# Poissons Ratio (z) = 0.78286 0.03632
#
# Static dielectric constant tensor:
#      x y z
#    x 1.871900 0.000000 -0.090730 
#    y 0.000000 1.945320 0.000000 
#    z -0.090730 0.000000 1.918850 
# 
# From -- ./inp_files/37464.got.cif
#   From: 2010.05.17/outbox.cif.g08.bks.cpg/sg10_19_cif.got.tgz:37464.got - 2010.06.03 11:33:40.
