data_PCOD9145665
_publ_section_title
;
Structure prediction by ZEFSAII (Michael W. Deem and Ramdas Pophale) SiO2 
 PCOD9145665
Probable space group: P 2/M
;
_chemical_formula_sum "Si O2"
_cell_formula_units_Z 28
_cell_length_a 15.105054
_cell_length_b 7.605368
_cell_length_c 12.356214
_cell_angle_alpha 90.000000
_cell_angle_beta 114.859915
_cell_angle_gamma 90.000000
_cell_volume 1287.944671
_symmetry_space_group_name_H-M "P 2/M"
_symmetry_group_IT_number 10
_symmetry_cell_setting 'monoclinic'
loop_
_space_group_symop_operation_xyz
x,y,z
-x,y,-z
-x,-y,-z
x,-y,z
loop_
_atom_site_type_symbol
_atom_site_label
_atom_site_fract_x
_atom_site_fract_y
_atom_site_fract_z
Si Si1 0.423404 0.714699 0.308814
Si Si2 0.359557 0.286936 0.509649
Si Si3 0.712136 0.702786 0.944066
Si Si4 0.828810 0.297113 0.199950
Si Si5 0.895871 0.213685 0.893006
Si Si6 0.821687 0.798431 0.436615
Si Si7 0.948463 0.205209 0.687548
O O1 0.420255 0.500000 0.306374
O O2 0.535818 0.762752 0.385359
O O3 0.364111 0.768618 0.386189
O O4 0.373968 0.780863 0.173605
O O5 0.352251 0.500000 0.508676
O O6 0.271384 0.211235 0.533015
O O7 0.683956 0.500000 0.950333
O O8 0.807234 0.710893 0.915969
O O9 0.748738 0.780469 0.076724
O O10 0.841237 0.500000 0.174413
O O11 0.801676 0.289108 0.311639
O O12 0.935632 0.215334 0.241741
O O13 0.899106 0.277540 0.770683
O O14 0.887965 0.000000 0.890604
O O15 0.000000 0.257991 0.000000
O O16 0.908883 0.719509 0.554456
O O17 0.846193 0.000000 0.421019
O O18 0.921147 0.000000 0.669814
#
# Coordination Sequence:
#
# PCOD9145665 Si02
#       7
#     4   4   4   4   4   4   4
#     4   8  16  33  58  85 109 134 164 208 266 316
#     4   9  17  34  60  84 106 133 169 212 259 312
#     4  10  20  34  53  79 109 138 173 215 259 306
#     4  11  23  36  52  75 104 140 181 220 255 301
#     4  10  19  32  52  76 106 139 169 206 256 313
#     4  11  23  37  54  75 104 140 177 218 262 306
#     4  10  21  37  54  75 104 140 176 213 262 312
#
# _framework density 21.740064
#
# number of rings (size 3 to 8) (size 9 to 14) (size 15 to 20)
#    0.000    2.143    1.429    3.000    0.000    4.286 
#    0.000    2.857    0.000    4.286    0.000    0.000 
#    0.000    0.000    0.000    0.000    0.000    0.000 
#
# Total GULP energy -156381.110648 kJ/mol
# GULP energy per Si atom -5585.039666 kJ/mol
# Density = 2.169058 g / cm^3
# Si number density = 21.740064 Si / 1000 Ang^3
#
#
#
# Elastic Constant Matrix: (Units=GPa)
#
#
# Indices 1 2 3 4 5 6 
#
# 1 17.2722 -6.7426 20.5854 0.0000 -3.0919 0.0000
# 2 -6.7426 47.8763 8.9319 0.0000 -1.4697 0.0000
# 3 20.5854 8.9319 201.9163 0.0000 1.4475 0.0000
# 4 0.0000 0.0000 0.0000 2.7098 0.0000 -2.8970
# 5 -3.0919 -1.4697 1.4475 0.0000 28.6736 0.0000
# 6 0.0000 0.0000 0.0000 -2.8970 0.0000 23.6884
#
#
#
# Elastic Compliance Matrix: (Units=1/GPa)
#
#
# Indices 1 2 3 4 5 6 
#
# 1 0.073991 0.012217 -0.008149 0.000000 0.009016 0.000000
# 2 0.012217 0.023115 -0.002287 0.000000 0.002618 0.000000
# 3 -0.008149 -0.002287 0.005894 0.000000 -0.001293 0.000000
# 4 0.000000 0.000000 0.000000 0.424544 0.000000 0.051920
# 5 0.009016 0.002618 -0.001293 0.000000 0.036047 0.000000
# 6 0.000000 0.000000 0.000000 0.051920 0.000000 0.048564
#
#
# Mechanical properties :
#
#
# Convention : Reuss Voigt Hill
#
# Bulk Modulus (GPa) = 9.38401 34.73491 22.05946
# Shear Modulus (GPa) = 7.76262 27.30037 17.53149
#
# Velocity S-wave (km/s) = 1.89167 3.54752 2.84282
# Velocity P-wave (km/s) = 3.01613 5.72642 4.57651
#
# Compressibility (1/GPa) = 0.10656421
#
# Stress axis : x y z
#
# Youngs Moduli (GPa) = 13.51507 43.26233 169.67202
#
# Poissons Ratio (x) = -0.52856 1.38258
# Poissons Ratio (y) = -0.16512 0.38801
# Poissons Ratio (z) = 0.11013 0.09893
#
# Static dielectric constant tensor:
#      x y z
#    x 1.730650 0.000000 0.007900 
#    y 0.000000 1.820750 0.000000 
#    z 0.007900 0.000000 1.859600 
# 
# From -- ./inp_files/49145.got.cif
#   From: 2010.05.17/outbox.cif.g08.bks.cpg/sg10_25_cif.got.tgz:49145.got - 2010.06.03 11:33:40.
