data_PCOD9145819
_publ_section_title
;
Structure prediction by ZEFSAII (Michael W. Deem and Ramdas Pophale) SiO2 
 PCOD9145819
Probable space group: P 2/M
;
_chemical_formula_sum "Si O2"
_cell_formula_units_Z 22
_cell_length_a 10.977602
_cell_length_b 13.288257
_cell_length_c 7.130663
_cell_angle_alpha 90.000000
_cell_angle_beta 86.311523
_cell_angle_gamma 90.000000
_cell_volume 1038.017968
_symmetry_space_group_name_H-M "P 2/M"
_symmetry_group_IT_number 10
_symmetry_cell_setting 'monoclinic'
loop_
_space_group_symop_operation_xyz
x,y,z
-x,y,-z
-x,-y,-z
x,-y,z
loop_
_atom_site_type_symbol
_atom_site_label
_atom_site_fract_x
_atom_site_fract_y
_atom_site_fract_z
Si Si1 0.967729 0.117774 0.277925
Si Si2 0.779800 0.797002 0.836915
Si Si3 0.623220 0.389046 0.868157
Si Si4 0.353855 0.000000 0.010658
Si Si5 0.359638 0.000000 0.568624
Si Si6 0.500000 0.677363 0.500000
Si Si7 0.738323 0.791339 0.429654
O O1 0.082477 0.163314 0.156837
O O2 0.000000 0.117065 0.500000
O O3 0.847269 0.188078 0.274672
O O4 0.947831 0.000000 0.229940
O O5 0.710273 0.701109 0.931331
O O6 0.784732 0.750129 0.622518
O O7 0.700126 0.896925 0.896679
O O8 0.679888 0.500000 0.883262
O O9 0.571907 0.377714 0.659303
O O10 0.500000 0.384993 0.000000
O O11 0.332818 0.000000 0.790785
O O12 0.500000 0.000000 0.000000
O O13 0.500000 0.000000 0.500000
O O14 0.296892 0.902554 0.498088
O O15 0.608571 0.742669 0.391482
#
# Coordination Sequence:
#
# PCOD9145819 Si02
#       7
#     4   4   4   2   2   2   4
#     4   9  16  30  52  76 110 151 187 217 262 336
#     4  10  20  36  55  78 111 145 187 226 277 332
#     4  10  22  39  62  84 108 144 189 242 291 339
#     4  12  24  31  50  79 113 147 179 230 278 338
#     4  12  22  31  46  75 117 148 180 220 274 336
#     4  10  21  35  60  84 114 141 190 238 289 332
#     4  10  19  32  53  79 110 151 183 222 269 337
#
# _framework density 21.194237000000001
#
# number of rings (size 3 to 8) (size 9 to 14) (size 15 to 20)
#    0.000    1.818    2.727    2.455    5.091    0.000 
#    0.000    1.818    0.000   14.727    0.000    2.545 
#    0.000    0.000    0.000    0.000    0.000    0.000 
#
# Total GULP energy -122500.324695 kJ/mol
# GULP energy per Si atom -5568.196577 kJ/mol
# Density = 2.114600 g / cm^3
# Si number density = 21.194237 Si / 1000 Ang^3
#
#
#
# Elastic Constant Matrix: (Units=GPa)
#
#
# Indices 1 2 3 4 5 6 
#
# 1 141.9394 59.5309 29.5206 0.0000 -43.2660 0.0000
# 2 59.5309 140.9599 24.8701 0.0000 -26.6698 0.0000
# 3 29.5206 24.8701 96.3218 0.0000 -17.4723 0.0000
# 4 0.0000 0.0000 0.0000 16.3975 0.0000 -2.3102
# 5 -43.2660 -26.6698 -17.4723 0.0000 45.2472 0.0000
# 6 0.0000 0.0000 0.0000 -2.3102 0.0000 25.8560
#
#
#
# Elastic Compliance Matrix: (Units=1/GPa)
#
#
# Indices 1 2 3 4 5 6 
#
# 1 0.011058 -0.002875 -0.001114 0.000000 0.008449 0.000000
# 2 -0.002875 0.008886 -0.001034 0.000000 0.002089 0.000000
# 3 -0.001114 -0.001034 0.011491 0.000000 0.002762 0.000000
# 4 0.000000 0.000000 0.000000 0.061763 0.000000 0.005518
# 5 0.008449 0.002089 0.002762 0.000000 0.032478 0.000000
# 6 0.000000 0.000000 0.000000 0.005518 0.000000 0.039169
#
#
# Mechanical properties :
#
#
# Convention : Reuss Voigt Hill
#
# Bulk Modulus (GPa) = 46.75291 67.45158 57.10225
# Shear Modulus (GPa) = 27.46918 35.18677 31.32797
#
# Velocity S-wave (km/s) = 3.60400 4.07898 3.84882
# Velocity P-wave (km/s) = 6.27898 7.35382 6.83755
#
# Compressibility (1/GPa) = 0.02138904
#
# Stress axis : x y z
#
# Youngs Moduli (GPa) = 90.42981 112.53444 87.02097
#
# Poissons Ratio (x) = 0.32354 0.09696
# Poissons Ratio (y) = 0.25999 0.09000
# Poissons Ratio (z) = 0.10075 0.11639
#
# Static dielectric constant tensor:
#      x y z
#    x 1.860240 0.000000 0.105590 
#    y 0.000000 1.773260 0.000000 
#    z 0.105590 0.000000 1.980130 
# 
# From -- ./inp_files/23970.got.cif
#   From: 2010.05.17/outbox.cif.g08.bks.cpg/sg10_12_cif.got.tgz:23970.got - 2010.06.03 11:33:40.
