data_PCOD9145290
_publ_section_title
;
Structure prediction by ZEFSAII (Michael W. Deem and Ramdas Pophale) SiO2 
 PCOD9145290
Probable space group: P 2/M
;
_chemical_formula_sum "Si O2"
_cell_formula_units_Z 32
_cell_length_a 14.511378
_cell_length_b 9.110508
_cell_length_c 20.779987
_cell_angle_alpha 90.000000
_cell_angle_beta 43.463024
_cell_angle_gamma 90.000000
_cell_volume 1889.788434
_symmetry_space_group_name_H-M "P 2/M"
_symmetry_group_IT_number 10
_symmetry_cell_setting 'monoclinic'
loop_
_space_group_symop_operation_xyz
x,y,z
-x,y,-z
-x,-y,-z
x,-y,z
loop_
_atom_site_type_symbol
_atom_site_label
_atom_site_fract_x
_atom_site_fract_y
_atom_site_fract_z
Si Si1 0.357223 0.824529 0.692038
Si Si2 0.925897 0.825045 0.223230
Si Si3 0.924856 0.325365 0.356058
Si Si4 0.357787 0.674894 0.830505
Si Si5 0.080577 0.175806 0.393328
Si Si6 0.369351 0.172312 0.298328
Si Si7 0.074739 0.325060 0.029819
Si Si8 0.343395 0.827602 0.465978
O O1 0.231487 0.792910 0.710649
O O2 0.337381 0.744889 0.770251
O O3 0.505038 0.787191 0.590873
O O4 0.360087 0.000000 0.702760
O O5 0.968810 0.743711 0.266114
O O6 0.007411 0.765503 0.120823
O O7 0.940599 0.000000 0.222038
O O8 0.930151 0.500000 0.351928
O O9 0.773695 0.269168 0.445692
O O10 0.014759 0.261487 0.368123
O O11 0.362564 0.500000 0.821239
O O12 0.498897 0.735680 0.784071
O O13 0.230451 0.711424 0.939180
O O14 0.235554 0.212963 0.327876
O O15 0.000000 0.206558 0.500000
O O16 0.069871 0.000000 0.387458
O O17 0.340868 0.187498 0.389418
O O18 0.396678 0.000000 0.273779
O O19 0.061985 0.500000 0.049215
O O20 0.000000 0.296539 0.000000
O O21 0.319567 0.000000 0.493507
#
# Coordination Sequence:
#
# PCOD9145290 Si02
#       8
#     4   4   4   4   4   4   4   4
#     4   9  19  34  53  77 106 143 187 228 264 311
#     4  11  23  38  57  79 106 146 192 233 270 319
#     4  12  25  37  52  79 114 147 181 227 278 330
#     4  10  19  31  53  82 114 146 174 217 274 327
#     4  10  19  37  61  81 106 144 185 225 272 321
#     4   9  18  33  56  82 109 141 179 226 269 315
#     4  10  20  36  56  81 114 148 179 220 277 328
#     4   9  17  34  54  75 107 146 185 221 265 319
#
# _framework density 16.933112000000001
#
# number of rings (size 3 to 8) (size 9 to 14) (size 15 to 20)
#    0.000    2.000    2.500    2.625    0.000    5.000 
#    0.000    2.500    0.000    0.750    0.000    5.250 
#    0.000    0.000    0.000    0.000    0.000    0.000 
#
# Total GULP energy -178651.465080 kJ/mol
# GULP energy per Si atom -5582.858284 kJ/mol
# Density = 1.689457 g / cm^3
# Si number density = 16.933112 Si / 1000 Ang^3
#
#
#
# Elastic Constant Matrix: (Units=GPa)
#
#
# Indices 1 2 3 4 5 6 
#
# 1 103.5233 60.6378 59.5190 0.0000 -1.5712 0.0000
# 2 60.6378 62.4727 47.5993 0.0000 1.1620 0.0000
# 3 59.5190 47.5993 74.2605 0.0000 -4.7621 0.0000
# 4 0.0000 0.0000 0.0000 29.7045 0.0000 -1.6619
# 5 -1.5712 1.1620 -4.7621 0.0000 22.8305 0.0000
# 6 0.0000 0.0000 0.0000 -1.6619 0.0000 22.2331
#
#
#
# Elastic Compliance Matrix: (Units=1/GPa)
#
#
# Indices 1 2 3 4 5 6 
#
# 1 0.025016 -0.017708 -0.008647 0.000000 0.000819 0.000000
# 2 -0.017708 0.044613 -0.014825 0.000000 -0.006582 0.000000
# 3 -0.008647 -0.014825 0.030315 0.000000 0.006483 0.000000
# 4 0.000000 0.000000 0.000000 0.033806 0.000000 0.002527
# 5 0.000819 -0.006582 0.006483 0.000000 0.045545 0.000000
# 6 0.000000 0.000000 0.000000 0.002527 0.000000 0.045167
#
#
# Mechanical properties :
#
#
# Convention : Reuss Voigt Hill
#
# Bulk Modulus (GPa) = 56.87191 63.97428 60.42310
# Shear Modulus (GPa) = 15.99065 19.78699 17.88882
#
# Velocity S-wave (km/s) = 3.07635 3.42210 3.25382
# Velocity P-wave (km/s) = 6.80277 7.31279 7.06239
#
# Compressibility (1/GPa) = 0.01758337
#
# Stress axis : x y z
#
# Youngs Moduli (GPa) = 39.97473 22.41501 32.98711
#
# Poissons Ratio (x) = 0.39693 0.28524
# Poissons Ratio (y) = 0.70787 0.48904
# Poissons Ratio (z) = 0.34566 0.33231
#
# Static dielectric constant tensor:
#      x y z
#    x 1.574370 0.000000 -0.017210 
#    y 0.000000 1.557700 0.000000 
#    z -0.017210 0.000000 1.563240 
# 
# From -- ./inp_files/69987.got.cif
#   From: 2010.05.17/outbox.cif.g08.bks.cpg/sg10_35_cif.got.tgz:69987.got - 2010.06.03 11:33:40.
