data_PCOD9145304
_publ_section_title
;
Structure prediction by ZEFSAII (Michael W. Deem and Ramdas Pophale) SiO2 
 PCOD9145304
Probable space group: P 2/M
;
_chemical_formula_sum "Si O2"
_cell_formula_units_Z 16
_cell_length_a 8.892376
_cell_length_b 12.699307
_cell_length_c 9.333492
_cell_angle_alpha 90.000000
_cell_angle_beta 54.085564
_cell_angle_gamma 90.000000
_cell_volume 853.630874
_symmetry_space_group_name_H-M "P 2/M"
_symmetry_group_IT_number 10
_symmetry_cell_setting 'monoclinic'
loop_
_space_group_symop_operation_xyz
x,y,z
-x,y,-z
-x,-y,-z
x,-y,z
loop_
_atom_site_type_symbol
_atom_site_label
_atom_site_fract_x
_atom_site_fract_y
_atom_site_fract_z
Si Si1 0.039664 0.268821 0.145251
Si Si2 0.296182 0.879334 0.180977
Si Si3 0.339884 0.500000 0.470947
Si Si4 0.950356 0.500000 0.860145
Si Si5 0.201322 0.291911 0.460200
O O1 0.162630 0.176388 0.140726
O O2 0.134863 0.384470 0.118621
O O3 0.851349 0.268862 0.345305
O O4 0.000000 0.258209 0.000000
O O5 0.280670 0.807333 0.331061
O O6 0.242208 0.000000 0.239994
O O7 0.500000 0.877814 0.000000
O O8 0.500000 0.500000 0.500000
O O9 0.334026 0.393205 0.382592
O O10 0.140650 0.500000 0.663099
O O11 0.000000 0.500000 0.000000
O O12 0.000000 0.316457 0.500000
#
# Coordination Sequence:
#
# PCOD9145304 Si02
#       5
#     4   4   2   2   4
#     4   9  18  34  57  80 105 137 174 214 255 310
#     4  10  22  38  53  73 104 139 178 223 265 305
#     4  10  19  31  53  84 111 133 167 215 259 305
#     4   8  16  31  49  76 109 135 160 201 256 307
#     4   9  19  35  55  77 108 143 173 206 257 318
#
# _framework density 18.743465
#
# number of rings (size 3 to 8) (size 9 to 14) (size 15 to 20)
#    0.000    2.750    0.000    0.375    0.000   14.000 
#    0.000    1.250    0.000    3.750    0.000    0.000 
#    0.000    0.000    0.000    0.000    0.000    0.000 
#
# Total GULP energy -89129.715520 kJ/mol
# GULP energy per Si atom -5570.607220 kJ/mol
# Density = 1.870080 g / cm^3
# Si number density = 18.743465 Si / 1000 Ang^3
#
#
#
# Elastic Constant Matrix: (Units=GPa)
#
#
# Indices 1 2 3 4 5 6 
#
# 1 31.8837 58.4766 15.8014 0.0000 4.9647 0.0000
# 2 58.4766 215.3246 55.7447 0.0000 12.7408 0.0000
# 3 15.8014 55.7447 93.6867 0.0000 33.7296 0.0000
# 4 0.0000 0.0000 0.0000 28.5939 0.0000 6.8265
# 5 4.9647 12.7408 33.7296 0.0000 23.4044 0.0000
# 6 0.0000 0.0000 0.0000 6.8265 0.0000 -4.7107
#
#
#
# Elastic Compliance Matrix: (Units=1/GPa)
#
#
# Indices 1 2 3 4 5 6 
#
# 1 0.063072 -0.017282 0.002234 0.000000 -0.007191 0.000000
# 2 -0.017282 0.010372 -0.005287 0.000000 0.005639 0.000000
# 3 0.002234 -0.005287 0.026141 0.000000 -0.035269 0.000000
# 4 0.000000 0.000000 0.000000 0.025983 0.000000 0.037653
# 5 -0.007191 0.005639 -0.035269 0.000000 0.092011 0.000000
# 6 0.000000 0.000000 0.000000 0.037653 0.000000 -0.157717
#
#
# Mechanical properties :
#
#
# Convention : Reuss Voigt Hill
#
# Bulk Modulus (GPa) = 16.97358 66.77114 41.87236
# Shear Modulus (GPa) = 41.60767 23.51567 32.56167
#
# Velocity S-wave (km/s) = 4.71664 3.54588 4.17253
# Velocity P-wave (km/s) = 6.22396 7.24330 6.75289
#
# Compressibility (1/GPa) = 0.05891508
#
# Stress axis : x y z
#
# Youngs Moduli (GPa) = 15.85492 96.40878 38.25439
#
# Poissons Ratio (x) = 1.66609 -0.08545
# Poissons Ratio (y) = 0.27400 0.20226
# Poissons Ratio (z) = -0.03542 0.50974
#
# Static dielectric constant tensor:
#      x y z
#    x 1.637700 0.000000 -0.003040 
#    y 0.000000 1.702990 0.000000 
#    z -0.003040 0.000000 1.717800 
# 
# From -- ./inp_files/17077.got.cif
#   From: 2010.05.17/outbox.cif.g08.bks.cpg/sg10_9_cif.got.tgz:17077.got - 2010.06.03 11:33:40.
