data_PCOD9145838
_publ_section_title
;
Structure prediction by ZEFSAII (Michael W. Deem and Ramdas Pophale) SiO2 
 PCOD9145838
Probable space group: P 2/M
;
_chemical_formula_sum "Si O2"
_cell_formula_units_Z 22
_cell_length_a 14.748701
_cell_length_b 13.270378
_cell_length_c 16.213793
_cell_angle_alpha 90.000000
_cell_angle_beta 19.428253
_cell_angle_gamma 90.000000
_cell_volume 1055.548386
_symmetry_space_group_name_H-M "P 2/M"
_symmetry_group_IT_number 10
_symmetry_cell_setting 'monoclinic'
loop_
_space_group_symop_operation_xyz
x,y,z
-x,y,-z
-x,-y,-z
x,-y,z
loop_
_atom_site_type_symbol
_atom_site_label
_atom_site_fract_x
_atom_site_fract_y
_atom_site_fract_z
Si Si1 0.477647 0.113616 0.297480
Si Si2 0.594463 0.277946 0.512732
Si Si3 0.780819 0.312552 0.019176
Si Si4 0.011888 0.189117 0.589382
Si Si5 0.500000 0.721315 0.000000
Si Si6 0.315625 0.387952 0.312670
O O1 0.394110 0.166594 0.455445
O O2 0.700954 0.194221 0.073104
O O3 0.213451 0.116639 0.464340
O O4 0.576169 0.000000 0.221205
O O5 0.500000 0.274425 0.500000
O O6 0.370415 0.332694 0.763281
O O7 0.896753 0.324469 0.258333
O O8 0.615390 0.377440 0.094776
O O9 0.697287 0.204659 0.881350
O O10 0.000000 0.170992 0.500000
O O11 0.138961 0.298763 0.503093
O O12 0.337513 0.648167 0.199698
O O13 0.210029 0.500000 0.412622
#
# Coordination Sequence:
#
# PCOD9145838 Si02
#       6
#     4   4   4   4   2   4
#     4   9  20  35  56  83 112 148 189 231 280 335
#     4  10  20  38  61  83 112 151 185 234 287 333
#     4   9  21  38  57  84 114 149 183 231 283 338
#     4   9  19  35  51  77 113 147 187 229 277 333
#     4  10  19  32  53  80 112 148 191 232 281 328
#     4  10  20  34  55  81 112 148 189 234 282 331
#
# _framework density 20.842247
#
# number of rings (size 3 to 8) (size 9 to 14) (size 15 to 20)
#    1.091    1.455    0.000    1.909    0.000    5.455 
#    0.000    1.364    0.000    3.273    0.000    0.000 
#    0.000    0.000    0.000    0.000    0.000    0.000 
#
# Total GULP energy -122489.406122 kJ/mol
# GULP energy per Si atom -5567.700278 kJ/mol
# Density = 2.079481 g / cm^3
# Si number density = 20.842247 Si / 1000 Ang^3
#
#
#
# Elastic Constant Matrix: (Units=GPa)
#
#
# Indices 1 2 3 4 5 6 
#
# 1 93.5848 -11.1510 3.9343 0.0000 -4.6338 0.0000
# 2 -11.1510 27.5458 0.5150 0.0000 2.9108 0.0000
# 3 3.9343 0.5150 71.4256 0.0000 -5.0041 0.0000
# 4 0.0000 0.0000 0.0000 6.7410 0.0000 1.5090
# 5 -4.6338 2.9108 -5.0041 0.0000 29.8463 0.0000
# 6 0.0000 0.0000 0.0000 1.5090 0.0000 4.5606
#
#
#
# Elastic Compliance Matrix: (Units=1/GPa)
#
#
# Indices 1 2 3 4 5 6 
#
# 1 0.011301 0.004456 -0.000569 0.000000 0.001225 0.000000
# 2 0.004456 0.038457 -0.000746 0.000000 -0.003184 0.000000
# 3 -0.000569 -0.000746 0.014203 0.000000 0.002366 0.000000
# 4 0.000000 0.000000 0.000000 0.160212 0.000000 -0.053009
# 5 0.001225 -0.003184 0.002366 0.000000 0.034402 0.000000
# 6 0.000000 0.000000 0.000000 -0.053009 0.000000 0.236806
#
#
# Mechanical properties :
#
#
# Convention : Reuss Voigt Hill
#
# Bulk Modulus (GPa) = 14.23600 19.90585 17.07093
# Shear Modulus (GPa) = 9.75583 21.51345 15.63464
#
# Velocity S-wave (km/s) = 2.16586 3.21628 2.74184
# Velocity P-wave (km/s) = 3.61936 4.83364 4.26989
#
# Compressibility (1/GPa) = 0.07024445
#
# Stress axis : x y z
#
# Youngs Moduli (GPa) = 88.48772 26.00275 70.40748
#
# Poissons Ratio (x) = -0.11587 0.04005
# Poissons Ratio (y) = -0.39431 0.05251
# Poissons Ratio (z) = 0.05033 0.01939
#
# Static dielectric constant tensor:
#      x y z
#    x 1.784090 0.000000 0.019290 
#    y 0.000000 1.720010 0.000000 
#    z 0.019290 0.000000 1.828220 
# 
# From -- ./inp_files/78277.got.cif
#   From: 2010.05.17/outbox.cif.g08.bks.cpg/sg10_40_cif.got.tgz:78277.got - 2010.06.03 11:33:40.
