data_PCOD9145336
_publ_section_title
;
Structure prediction by ZEFSAII (Michael W. Deem and Ramdas Pophale) SiO2 
 PCOD9145336
Probable space group: P 2/M
;
_chemical_formula_sum "Si O2"
_cell_formula_units_Z 30
_cell_length_a 11.604828
_cell_length_b 19.610633
_cell_length_c 11.882611
_cell_angle_alpha 90.000000
_cell_angle_beta 38.694759
_cell_angle_gamma 90.000000
_cell_volume 1690.601339
_symmetry_space_group_name_H-M "P 2/M"
_symmetry_group_IT_number 10
_symmetry_cell_setting 'monoclinic'
loop_
_space_group_symop_operation_xyz
x,y,z
-x,y,-z
-x,-y,-z
x,-y,z
loop_
_atom_site_type_symbol
_atom_site_label
_atom_site_fract_x
_atom_site_fract_y
_atom_site_fract_z
Si Si1 0.651316 0.170441 0.145312
Si Si2 0.000000 0.123693 0.500000
Si Si3 0.960304 0.173877 0.281443
Si Si4 0.601719 0.675002 0.252474
Si Si5 0.786951 0.678886 0.358660
Si Si6 0.595705 0.074152 0.805595
Si Si7 0.089342 0.578173 0.057833
Si Si8 0.806492 0.921621 0.217720
O O1 0.616266 0.249599 0.191636
O O2 0.486026 0.134106 0.206784
O O3 0.682226 0.128815 0.237513
O O4 0.838192 0.166918 0.929066
O O5 0.022198 0.165436 0.598596
O O6 0.186429 0.080740 0.346637
O O7 0.869587 0.246545 0.320799
O O8 0.843728 0.113771 0.309556
O O9 0.701356 0.679960 0.298251
O O10 0.386593 0.659724 0.431957
O O11 0.718409 0.618604 0.097199
O O12 0.947882 0.623101 0.238066
O O13 0.547207 0.000000 0.792979
O O14 0.500000 0.078317 0.000000
O O15 0.108713 0.500000 0.079438
O O16 0.000000 0.577003 0.000000
O O17 0.742898 0.000000 0.275358
O O18 0.000000 0.923188 0.000000
#
# Coordination Sequence:
#
# PCOD9145336 Si02
#       8
#     4   2   4   4   4   4   4   4
#     4  11  19  37  61  81 110 148 191 241 286 338
#     4  12  25  42  58  80 111 150 194 244 291 346
#     4  11  21  36  59  81 113 150 193 234 291 338
#     4  10  19  31  56  81 114 149 189 229 283 333
#     4  10  19  33  53  83 113 151 185 233 280 331
#     4  11  24  41  58  78 109 149 192 239 294 346
#     4   9  18  31  50  80 118 155 185 218 273 342
#     4   9  19  32  54  85 110 142 189 239 288 341
#
# _framework density 17.745163999999999
#
# number of rings (size 3 to 8) (size 9 to 14) (size 15 to 20)
#    0.000    1.733    4.000    1.400    0.000    2.133 
#    0.000    2.667    0.000    2.400    0.000    0.467 
#    0.000    6.400    0.000    0.133    0.000    0.000 
#
# Total GULP energy -167434.338874 kJ/mol
# GULP energy per Si atom -5581.144629 kJ/mol
# Density = 1.770478 g / cm^3
# Si number density = 17.745164 Si / 1000 Ang^3
#
#
#
# Elastic Constant Matrix: (Units=GPa)
#
#
# Indices 1 2 3 4 5 6 
#
# 1 58.6038 35.7332 39.0990 0.0000 -1.9968 0.0000
# 2 35.7332 154.2041 55.0947 0.0000 -6.2056 0.0000
# 3 39.0990 55.0947 104.2220 0.0000 -15.0315 0.0000
# 4 0.0000 0.0000 0.0000 48.1432 0.0000 -10.7523
# 5 -1.9968 -6.2056 -15.0315 0.0000 27.7247 0.0000
# 6 0.0000 0.0000 0.0000 -10.7523 0.0000 15.6529
#
#
#
# Elastic Compliance Matrix: (Units=1/GPa)
#
#
# Indices 1 2 3 4 5 6 
#
# 1 0.024004 -0.002846 -0.007966 0.000000 -0.003227 0.000000
# 2 -0.002846 0.008340 -0.003364 0.000000 -0.000162 0.000000
# 3 -0.007966 -0.003364 0.015373 0.000000 0.007008 0.000000
# 4 0.000000 0.000000 0.000000 0.024536 0.000000 0.016854
# 5 -0.003227 -0.000162 0.007008 0.000000 0.039600 0.000000
# 6 0.000000 0.000000 0.000000 0.016854 0.000000 0.075463
#
#
# Mechanical properties :
#
#
# Convention : Reuss Voigt Hill
#
# Bulk Modulus (GPa) = 51.64389 64.09820 57.87104
# Shear Modulus (GPa) = 22.51011 30.77769 26.64390
#
# Velocity S-wave (km/s) = 3.56549 4.16916 3.87909
# Velocity P-wave (km/s) = 6.79092 7.70557 7.26266
#
# Compressibility (1/GPa) = 0.01936337
#
# Stress axis : x y z
#
# Youngs Moduli (GPa) = 41.65997 119.90470 65.05088
#
# Poissons Ratio (x) = 0.34126 0.51819
# Poissons Ratio (y) = 0.11857 0.21886
# Poissons Ratio (z) = 0.33186 0.40341
#
# Static dielectric constant tensor:
#      x y z
#    x 1.587450 0.000000 -0.011280 
#    y 0.000000 1.577620 0.000000 
#    z -0.011280 0.000000 1.639200 
# 
# From -- ./inp_files/47898.got.cif
#   From: 2010.05.17/outbox.cif.g08.bks.cpg/sg10_24_cif.got.tgz:47898.got - 2010.06.03 11:33:40.
