data_PCOD9145306
_publ_section_title
;
Structure prediction by ZEFSAII (Michael W. Deem and Ramdas Pophale) SiO2 
 PCOD9145306
Probable space group: P 2/M
;
_chemical_formula_sum "Si O2"
_cell_formula_units_Z 32
_cell_length_a 14.336294
_cell_length_b 7.965890
_cell_length_c 13.347517
_cell_angle_alpha 90.000000
_cell_angle_beta 95.674060
_cell_angle_gamma 90.000000
_cell_volume 1516.835911
_symmetry_space_group_name_H-M "P 2/M"
_symmetry_group_IT_number 10
_symmetry_cell_setting 'monoclinic'
loop_
_space_group_symop_operation_xyz
x,y,z
-x,y,-z
-x,-y,-z
x,-y,z
loop_
_atom_site_type_symbol
_atom_site_label
_atom_site_fract_x
_atom_site_fract_y
_atom_site_fract_z
Si Si1 0.809717 0.201034 0.729605
Si Si2 0.377327 0.304489 0.202277
Si Si3 0.239622 0.691446 0.640005
Si Si4 0.588312 0.295409 0.213044
Si Si5 0.903501 0.803485 0.537325
Si Si6 0.692781 0.197973 0.020500
Si Si7 0.855909 0.194645 0.177131
Si Si8 0.049982 0.803773 0.100828
O O1 0.699880 0.230574 0.731165
O O2 0.862194 0.268343 0.636717
O O3 0.860375 0.269477 0.835063
O O4 0.823914 0.000000 0.731993
O O5 0.383408 0.500000 0.226199
O O6 0.482784 0.235098 0.219206
O O7 0.342289 0.283758 0.083970
O O8 0.251199 0.500000 0.606526
O O9 0.339330 0.756898 0.691809
O O10 0.180822 0.789143 0.551160
O O11 0.176915 0.696680 0.733825
O O12 0.590346 0.500000 0.210107
O O13 0.626985 0.234981 0.109505
O O14 0.000000 0.731142 0.500000
O O15 0.923794 0.000000 0.558568
O O16 0.796672 0.244187 0.072033
O O17 0.692911 0.000000 0.998979
O O18 0.966092 0.196700 0.172392
O O19 0.829022 0.000000 0.194986
O O20 0.071717 0.000000 0.075535
O O21 0.000000 0.723729 0.000000
#
# Coordination Sequence:
#
# PCOD9145306 Si02
#       8
#     4   4   4   4   4   4   4   4
#     4  10  21  36  55  80 107 136 177 225 265 311
#     4  11  22  36  53  73 107 151 185 218 267 324
#     4  10  20  35  56  80 105 132 172 225 269 311
#     4   9  20  37  54  76 108 147 185 220 266 321
#     4  10  21  39  62  84 108 139 173 213 268 331
#     4  10  19  31  53  84 112 141 182 228 267 310
#     4   9  17  31  52  77 106 140 175 213 265 325
#     4   9  16  29  51  76 103 137 173 208 252 310
#
# _framework density 21.096547999999999
#
# number of rings (size 3 to 8) (size 9 to 14) (size 15 to 20)
#    0.000    2.250    0.000    3.000    0.000    8.250 
#    0.000    2.500    0.000    5.250    0.000    0.000 
#    0.000    0.000    0.000    0.000    0.000    0.000 
#
# Total GULP energy -178550.227902 kJ/mol
# GULP energy per Si atom -5579.694622 kJ/mol
# Density = 2.104853 g / cm^3
# Si number density = 21.096548 Si / 1000 Ang^3
#
#
#
# Elastic Constant Matrix: (Units=GPa)
#
#
# Indices 1 2 3 4 5 6 
#
# 1 135.9439 1.5901 42.3112 0.0000 -7.6081 0.0000
# 2 1.5901 15.1120 -2.8998 0.0000 -2.3999 0.0000
# 3 42.3112 -2.8998 80.5322 0.0000 -0.3372 0.0000
# 4 0.0000 0.0000 0.0000 22.6634 0.0000 -8.8517
# 5 -7.6081 -2.3999 -0.3372 0.0000 22.0883 0.0000
# 6 0.0000 0.0000 0.0000 -8.8517 0.0000 26.6963
#
#
#
# Elastic Compliance Matrix: (Units=1/GPa)
#
#
# Indices 1 2 3 4 5 6 
#
# 1 0.009021 -0.001409 -0.004778 0.000000 0.002881 0.000000
# 2 -0.001409 0.068043 0.003219 0.000000 0.006957 0.000000
# 3 -0.004778 0.003219 0.015039 0.000000 -0.001066 0.000000
# 4 0.000000 0.000000 0.000000 0.050688 0.000000 0.016807
# 5 0.002881 0.006957 -0.001066 0.000000 0.047005 0.000000
# 6 0.000000 0.000000 0.000000 0.016807 0.000000 0.043031
#
#
# Mechanical properties :
#
#
# Convention : Reuss Voigt Hill
#
# Bulk Modulus (GPa) = 11.60513 34.84344 23.22429
# Shear Modulus (GPa) = 18.69260 26.99537 22.84398
#
# Velocity S-wave (km/s) = 2.97989 3.58105 3.29421
# Velocity P-wave (km/s) = 4.16564 5.80091 5.04991
#
# Compressibility (1/GPa) = 0.08616881
#
# Stress axis : x y z
#
# Youngs Moduli (GPa) = 110.85422 14.69649 66.49252
#
# Poissons Ratio (x) = 0.02070 0.31771
# Poissons Ratio (y) = 0.15614 -0.21406
# Poissons Ratio (z) = 0.52968 -0.04731
#
# Static dielectric constant tensor:
#      x y z
#    x 1.778520 0.000000 0.003920 
#    y 0.000000 1.767290 0.000000 
#    z 0.003920 0.000000 1.773930 
# 
# From -- ./inp_files/49775.got.cif
#   From: 2010.05.17/outbox.cif.g08.bks.cpg/sg10_25_cif.got.tgz:49775.got - 2010.06.03 11:33:40.
