data_PCOD9145027
_publ_section_title
;
Structure prediction by ZEFSAII (Michael W. Deem and Ramdas Pophale) SiO2 
 PCOD9145027
Probable space group: P 2/M
;
_chemical_formula_sum "Si O2"
_cell_formula_units_Z 28
_cell_length_a 15.013847
_cell_length_b 7.502441
_cell_length_c 12.096631
_cell_angle_alpha 90.000000
_cell_angle_beta 114.435710
_cell_angle_gamma 90.000000
_cell_volume 1240.519701
_symmetry_space_group_name_H-M "P 2/M"
_symmetry_group_IT_number 10
_symmetry_cell_setting 'monoclinic'
loop_
_space_group_symop_operation_xyz
x,y,z
-x,y,-z
-x,-y,-z
x,-y,z
loop_
_atom_site_type_symbol
_atom_site_label
_atom_site_fract_x
_atom_site_fract_y
_atom_site_fract_z
Si Si1 0.852311 0.784135 0.356979
Si Si2 0.396570 0.790469 0.486142
Si Si3 0.661490 0.705835 0.123746
Si Si4 0.687655 0.714407 0.891531
Si Si5 0.942305 0.216893 0.635026
Si Si6 0.530697 0.284443 0.245724
Si Si7 0.794744 0.211488 0.733844
O O1 0.754697 0.712550 0.251893
O O2 0.874507 0.733051 0.495202
O O3 0.947651 0.725505 0.335867
O O4 0.846355 0.000000 0.351340
O O5 0.500000 0.710711 0.500000
O O6 0.399242 0.774569 0.619356
O O7 0.300914 0.714062 0.378781
O O8 0.398159 0.000000 0.458560
O O9 0.634563 0.500000 0.088060
O O10 0.572222 0.781402 0.149886
O O11 0.690334 0.781136 0.019124
O O12 0.688320 0.500000 0.892565
O O13 0.581001 0.773905 0.791803
O O14 0.773782 0.765371 0.852404
O O15 0.891787 0.278948 0.722183
O O16 0.947099 0.000000 0.636499
O O17 0.531385 0.500000 0.244634
O O18 0.796434 0.000000 0.714957
#
# Coordination Sequence:
#
# PCOD9145027 Si02
#       7
#     4   4   4   4   4   4   4
#     4   9  17  34  58  80 100 127 167 207 249 302
#     4  10  19  31  49  76 107 131 157 204 257 295
#     4  10  21  36  52  73 101 133 170 214 257 290
#     4  10  21  36  51  69 100 139 175 208 244 294
#     4   8  16  32  56  81 103 129 161 203 252 303
#     4  10  20  34  53  73  97 135 177 209 244 298
#     4  10  19  33  52  75 105 136 165 201 251 302
#
# _framework density 22.571186000000001
#
# number of rings (size 3 to 8) (size 9 to 14) (size 15 to 20)
#    0.000    2.429    1.429    2.143    0.000    4.857 
#    0.000    3.571    0.000    6.857    0.000    0.000 
#    0.000    0.000    0.000    0.000    0.000    0.000 
#
# Total GULP energy -156328.536145 kJ/mol
# GULP energy per Si atom -5583.162005 kJ/mol
# Density = 2.251981 g / cm^3
# Si number density = 22.571186 Si / 1000 Ang^3
#
#
#
# Elastic Constant Matrix: (Units=GPa)
#
#
# Indices 1 2 3 4 5 6 
#
# 1 107.0435 -0.4237 17.4958 0.0000 -44.2053 0.0000
# 2 -0.4237 60.6242 -12.5051 0.0000 0.2986 0.0000
# 3 17.4958 -12.5051 46.5430 0.0000 -27.9214 0.0000
# 4 0.0000 0.0000 0.0000 21.9675 0.0000 -5.3245
# 5 -44.2053 0.2986 -27.9214 0.0000 43.0044 0.0000
# 6 0.0000 0.0000 0.0000 -5.3245 0.0000 12.4040
#
#
#
# Elastic Compliance Matrix: (Units=1/GPa)
#
#
# Indices 1 2 3 4 5 6 
#
# 1 0.017625 0.001585 0.007637 0.000000 0.023065 0.000000
# 2 0.001585 0.018230 0.008523 0.000000 0.007037 0.000000
# 3 0.007637 0.008523 0.041898 0.000000 0.034994 0.000000
# 4 0.000000 0.000000 0.000000 0.050808 0.000000 0.021810
# 5 0.023065 0.007037 0.034994 0.000000 0.069634 0.000000
# 6 0.000000 0.000000 0.000000 0.021810 0.000000 0.089981
#
#
# Mechanical properties :
#
#
# Convention : Reuss Voigt Hill
#
# Bulk Modulus (GPa) = 8.83053 24.81608 16.82331
# Shear Modulus (GPa) = 17.21570 29.45143 23.33357
#
# Velocity S-wave (km/s) = 2.76475 3.61615 3.21873
# Velocity P-wave (km/s) = 3.75667 5.33422 4.61338
#
# Compressibility (1/GPa) = 0.11324344
#
# Stress axis : x y z
#
# Youngs Moduli (GPa) = 56.73794 54.85573 23.86750
#
# Poissons Ratio (x) = -0.08694 -0.18228
# Poissons Ratio (y) = -0.08993 -0.20343
# Poissons Ratio (z) = -0.43331 -0.46756
#
# Static dielectric constant tensor:
#      x y z
#    x 1.860030 0.000000 -0.044530 
#    y 0.000000 1.863140 0.000000 
#    z -0.044530 0.000000 1.832310 
# 
# From -- ./inp_files/49106.got.cif
#   From: 2010.05.17/outbox.cif.g08.bks.cpg/sg10_25_cif.got.tgz:49106.got - 2010.06.03 11:33:40.
