data_PCOD9145397
_publ_section_title
;
Structure prediction by ZEFSAII (Michael W. Deem and Ramdas Pophale) SiO2 
 PCOD9145397
Probable space group: P 2/M
;
_chemical_formula_sum "Si O2"
_cell_formula_units_Z 32
_cell_length_a 13.154558
_cell_length_b 8.760682
_cell_length_c 21.863997
_cell_angle_alpha 90.000000
_cell_angle_beta 126.858422
_cell_angle_gamma 90.000000
_cell_volume 2016.039082
_symmetry_space_group_name_H-M "P 2/M"
_symmetry_group_IT_number 10
_symmetry_cell_setting 'monoclinic'
loop_
_space_group_symop_operation_xyz
x,y,z
-x,y,-z
-x,-y,-z
x,-y,z
loop_
_atom_site_type_symbol
_atom_site_label
_atom_site_fract_x
_atom_site_fract_y
_atom_site_fract_z
Si Si1 0.484562 0.317362 0.184684
Si Si2 0.947592 0.319201 0.335990
Si Si3 0.794166 0.815225 0.909714
Si Si4 0.278641 0.816311 0.662836
Si Si5 0.970466 0.185220 0.086126
Si Si6 0.117612 0.176211 0.494296
Si Si7 0.591764 0.316129 0.089298
Si Si8 0.874411 0.183399 0.183187
O O1 0.489643 0.500000 0.191529
O O2 0.343198 0.257900 0.144932
O O3 0.585494 0.243515 0.267279
O O4 0.528539 0.275837 0.131492
O O5 0.933770 0.500000 0.328350
O O6 0.825851 0.250699 0.328066
O O7 0.945372 0.249723 0.267747
O O8 0.070782 0.273036 0.420065
O O9 0.893489 0.768957 0.892483
O O10 0.783266 0.000000 0.905139
O O11 0.862394 0.770154 0.998142
O O12 0.235375 0.771543 0.578528
O O13 0.272285 0.000000 0.663727
O O14 0.936866 0.236180 0.141977
O O15 0.970660 0.000000 0.086412
O O16 0.000000 0.178456 0.500000
O O17 0.135731 0.000000 0.482175
O O18 0.608370 0.500000 0.093905
O O19 0.728816 0.239168 0.132996
O O20 0.500000 0.273168 0.000000
O O21 0.876905 0.000000 0.186481
#
# Coordination Sequence:
#
# PCOD9145397 Si02
#       8
#     4   4   4   4   4   4   4   4
#     4  11  21  31  46  71 102 131 162 198 241 291
#     4  11  20  30  45  69 100 131 160 194 241 289
#     4   9  17  34  55  71  93 123 164 211 253 288
#     4  10  19  32  49  69  95 129 164 199 237 282
#     4   8  17  33  53  74  92 121 165 214 251 283
#     4   8  16  30  47  67  92 124 162 197 233 280
#     4  10  21  34  45  63  97 134 162 195 242 290
#     4  11  20  31  49  71  96 127 167 203 239 288
#
# _framework density 15.872707999999999
#
# number of rings (size 3 to 8) (size 9 to 14) (size 15 to 20)
#    0.000    2.250    1.250    4.500    0.000    3.500 
#    0.000    3.125    0.000    0.000    0.000    0.875 
#    0.000    7.000    0.000    0.000    0.000    0.000 
#
# Total GULP energy -178486.809137 kJ/mol
# GULP energy per Si atom -5577.712786 kJ/mol
# Density = 1.583658 g / cm^3
# Si number density = 15.872708 Si / 1000 Ang^3
#
#
#
# Elastic Constant Matrix: (Units=GPa)
#
#
# Indices 1 2 3 4 5 6 
#
# 1 94.1606 33.1189 77.2480 0.0000 2.9297 0.0000
# 2 33.1189 46.5974 47.9632 0.0000 0.1178 0.0000
# 3 77.2480 47.9632 156.3524 0.0000 3.4008 0.0000
# 4 0.0000 0.0000 0.0000 15.1791 0.0000 -6.3356
# 5 2.9297 0.1178 3.4008 0.0000 17.1193 0.0000
# 6 0.0000 0.0000 0.0000 -6.3356 0.0000 -0.8346
#
#
#
# Elastic Compliance Matrix: (Units=1/GPa)
#
#
# Indices 1 2 3 4 5 6 
#
# 1 0.018841 -0.005617 -0.007549 0.000000 -0.001686 0.000000
# 2 -0.005617 0.033088 -0.007423 0.000000 0.002208 0.000000
# 3 -0.007549 -0.007423 0.012427 0.000000 -0.001126 0.000000
# 4 0.000000 0.000000 0.000000 0.015804 0.000000 -0.119974
# 5 -0.001686 0.002208 -0.001126 0.000000 0.058911 0.000000
# 6 0.000000 0.000000 0.000000 -0.119974 0.000000 -0.287441
#
#
# Mechanical properties :
#
#
# Convention : Reuss Voigt Hill
#
# Bulk Modulus (GPa) = 43.14397 68.19672 55.67034
# Shear Modulus (GPa) = -50.26841 15.54479 -17.36181
#
# Velocity S-wave (km/s) = -5.63369 3.13284 -3.31088
# Velocity P-wave (km/s) = 3.88300 7.49295 4.53137
#
# Compressibility (1/GPa) = 0.02317821
#
# Stress axis : x y z
#
# Youngs Moduli (GPa) = 53.07460 30.22287 80.46877
#
# Poissons Ratio (x) = 0.16975 0.60747
# Poissons Ratio (y) = 0.29811 0.59732
# Poissons Ratio (z) = 0.40067 0.22435
#
# Static dielectric constant tensor:
#      x y z
#    x 1.505500 0.000000 -0.007780 
#    y 0.000000 1.530130 0.000000 
#    z -0.007780 0.000000 1.543540 
# 
# From -- ./inp_files/83374.got.cif
#   From: 2010.05.17/outbox.cif.g08.bks.cpg/sg10_42_cif.got.tgz:83374.got - 2010.06.03 11:33:40.
