data_PCOD9145953
_publ_section_title
;
Structure prediction by ZEFSAII (Michael W. Deem and Ramdas Pophale) SiO2 
 PCOD9145953
Probable space group: P 2/M
;
_chemical_formula_sum "Si O2"
_cell_formula_units_Z 30
_cell_length_a 23.261749
_cell_length_b 7.650685
_cell_length_c 12.304357
_cell_angle_alpha 90.000000
_cell_angle_beta 32.580693
_cell_angle_gamma 90.000000
_cell_volume 1179.170838
_symmetry_space_group_name_H-M "P 2/M"
_symmetry_group_IT_number 10
_symmetry_cell_setting 'monoclinic'
loop_
_space_group_symop_operation_xyz
x,y,z
-x,y,-z
-x,-y,-z
x,-y,z
loop_
_atom_site_type_symbol
_atom_site_label
_atom_site_fract_x
_atom_site_fract_y
_atom_site_fract_z
Si Si1 0.970589 0.703255 0.172883
Si Si2 0.756322 0.795246 0.012948
Si Si3 0.530527 0.798415 0.279929
Si Si4 0.867828 0.303948 0.632186
Si Si5 0.368319 0.707187 0.096965
Si Si6 0.297476 0.697652 0.667833
Si Si7 0.011584 0.000000 0.685958
Si Si8 0.720041 0.708834 0.544147
O O1 0.996596 0.500000 0.154480
O O2 0.842140 0.725680 0.387774
O O3 0.017555 0.845946 0.177966
O O4 0.000000 0.734036 0.000000
O O5 0.639449 0.731816 0.160421
O O6 0.756101 0.778640 0.141847
O O7 0.767324 0.000000 0.967848
O O8 0.843637 0.703761 0.799473
O O9 0.424821 0.699691 0.481857
O O10 0.516873 0.000000 0.334186
O O11 0.550692 0.787476 0.118367
O O12 0.901989 0.500000 0.548315
O O13 0.750253 0.272896 0.765738
O O14 0.942438 0.153132 0.469716
O O15 0.391874 0.500000 0.063470
O O16 0.356895 0.776185 0.237863
O O17 0.256765 0.500000 0.725029
O O18 0.284880 0.783006 0.569352
O O19 0.697004 0.500000 0.572492
#
# Coordination Sequence:
#
# PCOD9145953 Si02
#       8
#     4   4   4   4   4   4   2   4
#     4  10  21  38  60  88 122 153 181 221 275 336
#     4  10  20  36  53  75 106 144 194 244 280 322
#     4  10  21  34  50  72 104 140 185 242 286 326
#     4  10  19  32  54  83 112 147 186 231 278 323
#     4   9  17  32  53  74 101 139 185 226 273 332
#     4  11  22  35  51  73 106 149 189 232 283 334
#     4  12  19  32  58  90 119 144 182 230 276 331
#     4   9  19  36  55  77 109 145 183 223 274 342
#
# _framework density 25.441604000000002
#
# number of rings (size 3 to 8) (size 9 to 14) (size 15 to 20)
#    0.000    2.000    2.000    2.200    0.933    3.733 
#    2.400    2.667    0.000    0.000    0.000    1.867 
#    0.000    5.333    0.000    0.000    0.000    0.000 
#
# Total GULP energy -167455.611051 kJ/mol
# GULP energy per Si atom -5581.853702 kJ/mol
# Density = 2.538370 g / cm^3
# Si number density = 25.441604 Si / 1000 Ang^3
#
#
#
# Elastic Constant Matrix: (Units=GPa)
#
#
# Indices 1 2 3 4 5 6 
#
# 1 74.6044 32.2124 64.8780 0.0000 15.7966 0.0000
# 2 32.2124 103.7849 42.5821 0.0000 -2.5897 0.0000
# 3 64.8780 42.5821 164.5996 0.0000 48.5687 0.0000
# 4 0.0000 0.0000 0.0000 34.4351 0.0000 18.3575
# 5 15.7966 -2.5897 48.5687 0.0000 37.6593 0.0000
# 6 0.0000 0.0000 0.0000 18.3575 0.0000 0.1082
#
#
#
# Elastic Compliance Matrix: (Units=1/GPa)
#
#
# Indices 1 2 3 4 5 6 
#
# 1 0.021536 -0.003442 -0.007850 0.000000 0.000854 0.000000
# 2 -0.003442 0.012609 -0.004177 0.000000 0.007697 0.000000
# 3 -0.007850 -0.004177 0.015115 0.000000 -0.016488 0.000000
# 4 0.000000 0.000000 0.000000 -0.000325 0.000000 0.055082
# 5 0.000854 0.007697 -0.016488 0.000000 0.047990 0.000000
# 6 0.000000 0.000000 0.000000 0.055082 0.000000 -0.103324
#
#
# Mechanical properties :
#
#
# Convention : Reuss Voigt Hill
#
# Bulk Modulus (GPa) = 54.57610 69.14819 61.86215
# Shear Modulus (GPa) = 163.14829 27.99496 95.57163
#
# Velocity S-wave (km/s) = 8.01659 3.32077 6.13569
# Velocity P-wave (km/s) = 10.35306 6.47623 8.63503
#
# Compressibility (1/GPa) = 0.01832304
#
# Stress axis : x y z
#
# Youngs Moduli (GPa) = 46.43370 79.30607 66.15861
#
# Poissons Ratio (x) = 0.27299 0.51935
# Poissons Ratio (y) = 0.15983 0.27632
# Poissons Ratio (z) = 0.36451 0.33123
#
# Static dielectric constant tensor:
#      x y z
#    x 2.117020 0.000000 -0.001090 
#    y 0.000000 1.920210 0.000000 
#    z -0.001090 0.000000 1.962840 
# 
# From -- ./inp_files/57290.got.cif
#   From: 2010.05.17/outbox.cif.g08.bks.cpg/sg10_29_cif.got.tgz:57290.got - 2010.06.03 11:33:40.
