data_PCOD9145555
_publ_section_title
;
Structure prediction by ZEFSAII (Michael W. Deem and Ramdas Pophale) SiO2 
 PCOD9145555
Probable space group: P 2/M
;
_chemical_formula_sum "Si O2"
_cell_formula_units_Z 32
_cell_length_a 20.077803
_cell_length_b 14.144107
_cell_length_c 7.306340
_cell_angle_alpha 90.000000
_cell_angle_beta 53.531508
_cell_angle_gamma 90.000000
_cell_volume 1668.579653
_symmetry_space_group_name_H-M "P 2/M"
_symmetry_group_IT_number 10
_symmetry_cell_setting 'monoclinic'
loop_
_space_group_symop_operation_xyz
x,y,z
-x,y,-z
-x,-y,-z
x,-y,z
loop_
_atom_site_type_symbol
_atom_site_label
_atom_site_fract_x
_atom_site_fract_y
_atom_site_fract_z
Si Si1 0.248660 0.767869 0.859879
Si Si2 0.409768 0.106264 0.176445
Si Si3 0.405772 0.892760 0.617940
Si Si4 0.052424 0.395068 0.597368
Si Si5 0.757734 0.394171 0.840752
Si Si6 0.261469 0.762460 0.396338
Si Si7 0.922140 0.805401 0.309493
Si Si8 0.912286 0.888029 0.914541
O O1 0.329554 0.825854 0.794186
O O2 0.254144 0.753630 0.629593
O O3 0.246959 0.669528 0.970414
O O4 0.164641 0.827525 0.036239
O O5 0.397843 0.100134 0.412526
O O6 0.333562 0.165304 0.229502
O O7 0.411608 0.000000 0.097548
O O8 0.500000 0.150194 0.000000
O O9 0.500000 0.859237 0.500000
O O10 0.398527 0.000000 0.703455
O O11 0.028671 0.500000 0.708116
O O12 0.146451 0.400826 0.374935
O O13 0.048802 0.304713 0.736280
O O14 0.000000 0.375873 0.500000
O O15 0.725121 0.500000 0.918231
O O16 0.718871 0.335444 0.736562
O O17 0.172635 0.800349 0.468979
O O18 0.994607 0.859886 0.298784
O O19 0.914547 0.855888 0.124986
O O20 0.898443 0.000000 0.920298
#
# Coordination Sequence:
#
# PCOD9145555 Si02
#       8
#     4   4   4   4   4   4   4   4
#     4  10  20  35  56  81 107 143 180 219 266 320
#     4   9  18  32  52  80 109 138 174 218 265 316
#     4   9  18  32  52  80 110 140 173 217 268 314
#     4   9  17  31  50  72 103 139 179 233 279 311
#     4  10  21  36  56  80 105 139 181 224 273 320
#     4   9  20  35  53  80 110 142 176 221 266 315
#     4   9  17  30  49  73 103 143 184 212 259 320
#     4  10  19  32  51  74 107 148 181 217 263 317
#
# _framework density 19.177990000000001
#
# number of rings (size 3 to 8) (size 9 to 14) (size 15 to 20)
#    0.000    2.625    0.000    1.875    1.750    4.000 
#    0.000    3.750    0.000   15.750    0.000    0.000 
#    0.000    0.000    0.000    0.000    0.000    0.000 
#
# Total GULP energy -178274.368570 kJ/mol
# GULP energy per Si atom -5571.074018 kJ/mol
# Density = 1.913434 g / cm^3
# Si number density = 19.177990 Si / 1000 Ang^3
#
#
#
# Elastic Constant Matrix: (Units=GPa)
#
#
# Indices 1 2 3 4 5 6 
#
# 1 104.2863 61.7524 38.7807 0.0000 -17.6180 0.0000
# 2 61.7524 137.8803 41.8903 0.0000 -15.9047 0.0000
# 3 38.7807 41.8903 53.4350 0.0000 -1.5135 0.0000
# 4 0.0000 0.0000 0.0000 53.1335 0.0000 20.6571
# 5 -17.6180 -15.9047 -1.5135 0.0000 39.4287 0.0000
# 6 0.0000 0.0000 0.0000 20.6571 0.0000 23.4173
#
#
#
# Elastic Compliance Matrix: (Units=1/GPa)
#
#
# Indices 1 2 3 4 5 6 
#
# 1 0.015912 -0.004025 -0.008247 0.000000 0.005170 0.000000
# 2 -0.004025 0.011064 -0.005683 0.000000 0.002446 0.000000
# 3 -0.008247 -0.005683 0.029017 0.000000 -0.004864 0.000000
# 4 0.000000 0.000000 0.000000 0.028644 0.000000 -0.025268
# 5 0.005170 0.002446 -0.004864 0.000000 0.028473 0.000000
# 6 0.000000 0.000000 0.000000 -0.025268 0.000000 0.064993
#
#
# Mechanical properties :
#
#
# Convention : Reuss Voigt Hill
#
# Bulk Modulus (GPa) = 49.79159 64.49428 57.14293
# Shear Modulus (GPa) = 22.65439 33.40779 28.03109
#
# Velocity S-wave (km/s) = 3.44069 4.17824 3.82727
# Velocity P-wave (km/s) = 6.46558 7.54846 7.02791
#
# Compressibility (1/GPa) = 0.02008371
#
# Stress axis : x y z
#
# Youngs Moduli (GPa) = 62.84415 90.38172 34.46228
#
# Poissons Ratio (x) = 0.36377 0.28420
# Poissons Ratio (y) = 0.25293 0.19586
# Poissons Ratio (z) = 0.51826 0.51368
#
# Static dielectric constant tensor:
#      x y z
#    x 1.783490 0.000000 0.029990 
#    y 0.000000 1.680870 0.000000 
#    z 0.029990 0.000000 1.721650 
# 
# From -- ./inp_files/34807.got.cif
#   From: 2010.05.17/outbox.cif.g08.bks.cpg/sg10_18_cif.got.tgz:34807.got - 2010.06.03 11:33:40.
