data_PCOD9145885
_publ_section_title
;
Structure prediction by ZEFSAII (Michael W. Deem and Ramdas Pophale) SiO2 
 PCOD9145885
Probable space group: P 2/M
;
_chemical_formula_sum "Si O2"
_cell_formula_units_Z 32
_cell_length_a 19.104757
_cell_length_b 13.704446
_cell_length_c 21.946073
_cell_angle_alpha 90.000000
_cell_angle_beta 160.264475
_cell_angle_gamma 90.000000
_cell_volume 1940.277230
_symmetry_space_group_name_H-M "P 2/M"
_symmetry_group_IT_number 10
_symmetry_cell_setting 'monoclinic'
loop_
_space_group_symop_operation_xyz
x,y,z
-x,y,-z
-x,-y,-z
x,-y,z
loop_
_atom_site_type_symbol
_atom_site_label
_atom_site_fract_x
_atom_site_fract_y
_atom_site_fract_z
Si Si1 0.585151 0.617394 0.815093
Si Si2 0.969605 0.112308 0.655556
Si Si3 0.152346 0.389380 0.075696
Si Si4 0.811564 0.695850 0.581276
Si Si5 0.418796 0.804925 0.000772
Si Si6 0.740527 0.612662 0.078490
Si Si7 0.421974 0.611275 0.500898
Si Si8 0.191171 0.115919 0.613200
O O1 0.567167 0.500000 0.790242
O O2 0.783591 0.652047 0.937367
O O3 0.378253 0.666461 0.619031
O O4 0.631068 0.631886 0.923504
O O5 0.871658 0.191783 0.620238
O O6 0.872821 0.130073 0.509171
O O7 0.214535 0.133439 0.849868
O O8 0.933806 0.000000 0.643137
O O9 0.070698 0.500000 0.998479
O O10 0.372143 0.394990 0.289615
O O11 0.000000 0.340886 0.000000
O O12 0.739847 0.670320 0.591006
O O13 0.015483 0.634150 0.730926
O O14 0.349907 0.692171 0.949387
O O15 0.500000 0.829103 0.000000
O O16 0.603568 0.828183 0.198618
O O17 0.708596 0.500000 0.069182
O O18 0.500000 0.650662 0.500000
O O19 0.345040 0.500000 0.428142
O O20 0.000000 0.145625 0.500000
O O21 0.225157 0.000000 0.650863
#
# Coordination Sequence:
#
# PCOD9145885 Si02
#       8
#     4   4   4   4   4   4   4   4
#     4   9  17  30  47  67  96 128 162 199 232 280
#     4  10  21  35  53  76  98 124 157 202 252 296
#     4   8  14  23  37  61  91 121 149 187 236 272
#     4  10  19  33  50  70 100 129 163 201 243 290
#     4  11  21  34  52  74 101 126 156 201 244 290
#     4  10  21  33  49  69  94 135 170 194 232 284
#     4   9  17  27  44  70  98 126 159 199 237 278
#     4  10  19  32  54  78  98 121 153 199 256 305
#
# _framework density 16.492488999999999
#
# number of rings (size 3 to 8) (size 9 to 14) (size 15 to 20)
#    0.000    2.375    1.250    3.000    1.750    0.750 
#    0.000    0.000    0.000    0.750    0.000    0.000 
#    0.000    2.500    0.000    0.000    0.000    0.000 
#
# Total GULP energy -178337.988200 kJ/mol
# GULP energy per Si atom -5573.062131 kJ/mol
# Density = 1.645495 g / cm^3
# Si number density = 16.492489 Si / 1000 Ang^3
#
#
#
# Elastic Constant Matrix: (Units=GPa)
#
#
# Indices 1 2 3 4 5 6 
#
# 1 51.1412 25.0683 13.1749 0.0000 16.1071 0.0000
# 2 25.0683 67.4394 22.4747 0.0000 10.0789 0.0000
# 3 13.1749 22.4747 84.3650 0.0000 10.7028 0.0000
# 4 0.0000 0.0000 0.0000 6.1371 0.0000 -10.8400
# 5 16.1071 10.0789 10.7028 0.0000 22.2434 0.0000
# 6 0.0000 0.0000 0.0000 -10.8400 0.0000 9.0561
#
#
#
# Elastic Compliance Matrix: (Units=1/GPa)
#
#
# Indices 1 2 3 4 5 6 
#
# 1 0.029025 -0.008155 -0.000173 0.000000 -0.017240 0.000000
# 2 -0.008155 0.019255 -0.003726 0.000000 -0.001027 0.000000
# 3 -0.000173 -0.003726 0.013465 0.000000 -0.004665 0.000000
# 4 0.000000 0.000000 0.000000 -0.146239 0.000000 -0.175045
# 5 -0.017240 -0.001027 -0.004665 0.000000 0.060151 0.000000
# 6 0.000000 0.000000 0.000000 -0.175045 0.000000 -0.099102
#
#
# Mechanical properties :
#
#
# Convention : Reuss Voigt Hill
#
# Bulk Modulus (GPa) = 26.56963 36.04238 31.30600
# Shear Modulus (GPa) = -57.60895 16.96915 -20.31990
#
# Velocity S-wave (km/s) = -5.91661 3.21113 -3.51389
# Velocity P-wave (km/s) = 5.52539 5.97074 1.59998
#
# Compressibility (1/GPa) = 0.03763695
#
# Stress axis : x y z
#
# Youngs Moduli (GPa) = 34.45248 51.93585 74.26864
#
# Poissons Ratio (x) = 0.42354 0.01286
# Poissons Ratio (y) = 0.28096 0.27670
# Poissons Ratio (z) = 0.00597 0.19349
#
# Static dielectric constant tensor:
#      x y z
#    x 1.578620 0.000000 0.002090 
#    y 0.000000 1.536940 0.000000 
#    z 0.002090 0.000000 1.561710 
# 
# From -- ./inp_files/79724.got.cif
#   From: 2010.05.17/outbox.cif.g08.bks.cpg/sg10_40_cif.got.tgz:79724.got - 2010.06.03 11:33:40.
