data_PCOD9145544
_publ_section_title
;
Structure prediction by ZEFSAII (Michael W. Deem and Ramdas Pophale) SiO2 
 PCOD9145544
Probable space group: P 2/M
;
_chemical_formula_sum "Si O2"
_cell_formula_units_Z 28
_cell_length_a 19.408456
_cell_length_b 8.691698
_cell_length_c 15.305004
_cell_angle_alpha 90.000000
_cell_angle_beta 37.861595
_cell_angle_gamma 90.000000
_cell_volume 1584.619206
_symmetry_space_group_name_H-M "P 2/M"
_symmetry_group_IT_number 10
_symmetry_cell_setting 'monoclinic'
loop_
_space_group_symop_operation_xyz
x,y,z
-x,y,-z
-x,-y,-z
x,-y,z
loop_
_atom_site_type_symbol
_atom_site_label
_atom_site_fract_x
_atom_site_fract_y
_atom_site_fract_z
Si Si1 0.023998 0.815811 0.575976
Si Si2 0.341492 0.815880 0.825840
Si Si3 0.050743 0.677653 0.826872
Si Si4 0.133223 0.314646 0.116558
Si Si5 0.217160 0.677381 0.491628
Si Si6 0.746664 0.685582 0.268530
Si Si7 0.602227 0.183791 0.572558
O O1 0.144366 0.755475 0.488965
O O2 0.000000 0.773230 0.500000
O O3 0.931256 0.744714 0.733735
O O4 0.020928 0.000000 0.587158
O O5 0.298029 0.752503 0.776688
O O6 0.471654 0.773666 0.707842
O O7 0.333297 0.000000 0.834882
O O8 0.258645 0.745373 0.980739
O O9 0.025751 0.500000 0.873848
O O10 0.135432 0.678349 0.658787
O O11 0.128024 0.741026 0.827580
O O12 0.937960 0.744149 0.897335
O O13 0.129728 0.500000 0.118890
O O14 0.240993 0.500000 0.447201
O O15 0.328051 0.764294 0.412294
O O16 0.750586 0.500000 0.260410
O O17 0.661333 0.736236 0.430377
O O18 0.611350 0.000000 0.552460
#
# Coordination Sequence:
#
# PCOD9145544 Si02
#       7
#     4   4   4   4   4   4   4
#     4  10  20  35  58  86 112 135 160 196 248 310
#     4  11  23  35  47  69 104 142 178 218 264 310
#     4   7  14  29  47  69  96 126 162 208 256 297
#     4  10  20  35  54  75 102 136 174 214 257 306
#     4   9  17  31  53  79 104 131 168 212 253 297
#     4  10  19  32  51  73  98 132 179 228 265 300
#     4  10  20  34  51  71 101 140 179 219 261 305
#
# _framework density 17.669861000000001
#
# number of rings (size 3 to 8) (size 9 to 14) (size 15 to 20)
#    0.000    2.429    0.000    4.714    0.000    5.714 
#    0.000    5.000    0.000    0.857    0.000    6.000 
#    0.000    0.000    0.000    0.000    0.000    0.000 
#
# Total GULP energy -156191.314117 kJ/mol
# GULP energy per Si atom -5578.261218 kJ/mol
# Density = 1.762964 g / cm^3
# Si number density = 17.669861 Si / 1000 Ang^3
#
#
#
# Elastic Constant Matrix: (Units=GPa)
#
#
# Indices 1 2 3 4 5 6 
#
# 1 128.9186 37.4700 61.6209 0.0000 -1.3375 0.0000
# 2 37.4700 48.6242 29.2593 0.0000 -2.7550 0.0000
# 3 61.6209 29.2593 87.5314 0.0000 -15.7127 0.0000
# 4 0.0000 0.0000 0.0000 -52.8965 0.0000 -1.6343
# 5 -1.3375 -2.7550 -15.7127 0.0000 25.2149 0.0000
# 6 0.0000 0.0000 0.0000 -1.6343 0.0000 26.4376
#
#
#
# Elastic Compliance Matrix: (Units=1/GPa)
#
#
# Indices 1 2 3 4 5 6 
#
# 1 0.013359 -0.005469 -0.008509 0.000000 -0.005191 0.000000
# 2 -0.005469 0.028169 -0.005704 0.000000 -0.000767 0.000000
# 3 -0.008509 -0.005704 0.021537 0.000000 0.012346 0.000000
# 4 0.000000 0.000000 0.000000 -0.018869 0.000000 -0.001166
# 5 -0.005191 -0.000767 0.012346 0.000000 0.046994 0.000000
# 6 0.000000 0.000000 0.000000 -0.001166 0.000000 0.037753
#
#
# Mechanical properties :
#
#
# Convention : Reuss Voigt Hill
#
# Bulk Modulus (GPa) = 42.18815 57.97495 50.08155
# Shear Modulus (GPa) = 28.37570 8.86614 18.62092
#
# Velocity S-wave (km/s) = 4.01169 2.24244 3.24979
# Velocity P-wave (km/s) = 6.73690 6.29174 6.51812
#
# Compressibility (1/GPa) = 0.02370334
#
# Stress axis : x y z
#
# Youngs Moduli (GPa) = 74.85311 35.49999 46.43115
#
# Poissons Ratio (x) = 0.19415 0.39506
# Poissons Ratio (y) = 0.40937 0.26483
# Poissons Ratio (z) = 0.63690 0.20248
#
# Static dielectric constant tensor:
#      x y z
#    x 1.615590 0.000000 -0.013810 
#    y 0.000000 1.593650 0.000000 
#    z -0.013810 0.000000 1.607090 
# 
# From -- ./inp_files/54649.got.cif
#   From: 2010.05.17/outbox.cif.g08.bks.cpg/sg10_28_cif.got.tgz:54649.got - 2010.06.03 11:33:40.
