data_PCOD9145922
_publ_section_title
;
Structure prediction by ZEFSAII (Michael W. Deem and Ramdas Pophale) SiO2 
 PCOD9145922
Probable space group: P 2/M
;
_chemical_formula_sum "Si O2"
_cell_formula_units_Z 32
_cell_length_a 25.558912
_cell_length_b 7.775063
_cell_length_c 16.683262
_cell_angle_alpha 90.000000
_cell_angle_beta 27.055438
_cell_angle_gamma 90.000000
_cell_volume 1507.987506
_symmetry_space_group_name_H-M "P 2/M"
_symmetry_group_IT_number 10
_symmetry_cell_setting 'monoclinic'
loop_
_space_group_symop_operation_xyz
x,y,z
-x,y,-z
-x,-y,-z
x,-y,z
loop_
_atom_site_type_symbol
_atom_site_label
_atom_site_fract_x
_atom_site_fract_y
_atom_site_fract_z
Si Si1 0.968257 0.208485 0.831178
Si Si2 0.602526 0.706073 0.916585
Si Si3 0.424943 0.289819 0.864159
Si Si4 0.615462 0.804921 0.368773
Si Si5 0.226441 0.794439 0.448513
Si Si6 0.750720 0.295625 0.033821
Si Si7 0.177813 0.794712 0.818220
Si Si8 0.681267 0.299488 0.510236
O O1 0.884158 0.263722 0.873047
O O2 0.097064 0.269665 0.639761
O O3 0.969029 0.000000 0.831702
O O4 0.917205 0.268439 0.988270
O O5 0.588949 0.500000 0.939615
O O6 0.719791 0.743899 0.709654
O O7 0.500000 0.774849 0.000000
O O8 0.596256 0.769966 0.016067
O O9 0.429744 0.500000 0.857434
O O10 0.553309 0.229253 0.662235
O O11 0.317884 0.243889 0.952763
O O12 0.500000 0.713421 0.500000
O O13 0.700167 0.722246 0.316545
O O14 0.588003 0.000000 0.433504
O O15 0.690160 0.808838 0.187135
O O16 0.305570 0.726744 0.412657
O O17 0.225549 0.000000 0.455534
O O18 0.730850 0.500000 0.071649
O O19 0.200825 0.769037 0.692719
O O20 0.176025 0.000000 0.831269
O O21 0.680547 0.500000 0.494849
#
# Coordination Sequence:
#
# PCOD9145922 Si02
#       8
#     4   4   4   4   4   4   4   4
#     4   9  21  41  58  74 110 155 188 224 277 330
#     4  10  19  38  63  83 111 148 177 216 280 341
#     4   9  19  35  55  83 116 145 174 218 282 337
#     4   9  17  30  48  71 106 149 188 223 272 331
#     4  11  23  39  59  83 109 142 187 235 275 324
#     4  10  19  32  54  81 108 140 185 233 269 319
#     4   9  18  33  51  74 105 146 189 227 269 319
#     4  11  21  35  55  82 115 148 182 225 280 334
#
# _framework density 21.220334000000001
#
# number of rings (size 3 to 8) (size 9 to 14) (size 15 to 20)
#    0.000    2.250    1.250    2.625    0.000    4.000 
#    0.000    6.250    0.000    3.750    0.000    0.000 
#    0.000    0.000    0.000    0.000    0.000    0.000 
#
# Total GULP energy -178285.094395 kJ/mol
# GULP energy per Si atom -5571.409200 kJ/mol
# Density = 2.117204 g / cm^3
# Si number density = 21.220334 Si / 1000 Ang^3
#
#
#
# Elastic Constant Matrix: (Units=GPa)
#
#
# Indices 1 2 3 4 5 6 
#
# 1 68.6692 4.8712 34.8656 0.0000 14.1797 0.0000
# 2 4.8712 30.9663 -7.8758 0.0000 5.9359 0.0000
# 3 34.8656 -7.8758 121.2533 0.0000 10.1907 0.0000
# 4 0.0000 0.0000 0.0000 21.8717 0.0000 9.4510
# 5 14.1797 5.9359 10.1907 0.0000 32.6952 0.0000
# 6 0.0000 0.0000 0.0000 9.4510 0.0000 -10.0531
#
#
#
# Elastic Compliance Matrix: (Units=1/GPa)
#
#
# Indices 1 2 3 4 5 6 
#
# 1 0.018561 -0.003066 -0.005039 0.000000 -0.005923 0.000000
# 2 -0.003066 0.034886 0.003664 0.000000 -0.006146 0.000000
# 3 -0.005039 0.003664 0.010070 0.000000 -0.001619 0.000000
# 4 0.000000 0.000000 0.000000 0.032513 0.000000 0.030566
# 5 -0.005923 -0.006146 -0.001619 0.000000 0.034775 0.000000
# 6 0.000000 0.000000 0.000000 0.030566 0.000000 -0.070736
#
#
# Mechanical properties :
#
#
# Convention : Reuss Voigt Hill
#
# Bulk Modulus (GPa) = 18.30297 31.62341 24.96319
# Shear Modulus (GPa) = 57.36488 21.50460 39.43474
#
# Velocity S-wave (km/s) = 5.20497 3.18684 4.31553
# Velocity P-wave (km/s) = 6.69075 5.33629 6.05154
#
# Compressibility (1/GPa) = 0.05463596
#
# Stress axis : x y z
#
# Youngs Moduli (GPa) = 53.87544 28.66520 99.30446
#
# Poissons Ratio (x) = 0.08789 0.50035
# Poissons Ratio (y) = 0.16518 -0.36386
# Poissons Ratio (z) = 0.27145 -0.10503
#
# Static dielectric constant tensor:
#      x y z
#    x 1.891040 0.000000 -0.072530 
#    y 0.000000 1.786190 0.000000 
#    z -0.072530 0.000000 1.873880 
# 
# From -- ./inp_files/71552.got.cif
#   From: 2010.05.17/outbox.cif.g08.bks.cpg/sg10_36_cif.got.tgz:71552.got - 2010.06.03 11:33:40.
