data_PCOD9145310
_publ_section_title
;
Structure prediction by ZEFSAII (Michael W. Deem and Ramdas Pophale) SiO2 
 PCOD9145310
Probable space group: P 2/M
;
_chemical_formula_sum "Si O2"
_cell_formula_units_Z 30
_cell_length_a 31.863956
_cell_length_b 9.608795
_cell_length_c 19.123918
_cell_angle_alpha 90.000000
_cell_angle_beta 17.034747
_cell_angle_gamma 90.000000
_cell_volume 1715.305069
_symmetry_space_group_name_H-M "P 2/M"
_symmetry_group_IT_number 10
_symmetry_cell_setting 'monoclinic'
loop_
_space_group_symop_operation_xyz
x,y,z
-x,y,-z
-x,-y,-z
x,-y,z
loop_
_atom_site_type_symbol
_atom_site_label
_atom_site_fract_x
_atom_site_fract_y
_atom_site_fract_z
Si Si1 0.699717 0.655553 0.807062
Si Si2 0.965048 0.336446 0.756137
Si Si3 0.703246 0.831309 0.422158
Si Si4 0.939871 0.168694 0.931894
Si Si5 0.752935 0.835311 0.500098
Si Si6 0.144497 0.663709 0.224586
Si Si7 0.621748 0.167050 0.064370
Si Si8 0.500000 0.266899 0.000000
O O1 0.696772 0.500000 0.843564
O O2 0.863691 0.684806 0.524878
O O3 0.597163 0.656683 0.902999
O O4 0.650779 0.768868 0.941347
O O5 0.943349 0.500000 0.806626
O O6 0.909071 0.239918 0.907135
O O7 0.893096 0.306672 0.796036
O O8 0.728202 0.777771 0.461417
O O9 0.542250 0.796848 0.655776
O O10 0.709588 0.000000 0.415143
O O11 0.825217 0.789095 0.173463
O O12 0.098650 0.215843 0.703074
O O13 0.938401 0.000000 0.927926
O O14 0.617529 0.812921 0.766016
O O15 0.772088 0.000000 0.461617
O O16 0.182938 0.500000 0.169445
O O17 0.000000 0.683991 0.500000
O O18 0.267046 0.760656 0.060736
O O19 0.637710 0.000000 0.037758
#
# Coordination Sequence:
#
# PCOD9145310 Si02
#       8
#     4   4   4   4   4   4   4   2
#     4  11  22  37  55  80 117 157 184 218 277 340
#     4  10  21  38  58  80 112 147 183 229 279 329
#     4   9  19  36  55  79 114 151 188 229 276 327
#     4  10  20  36  59  81 107 151 197 229 269 326
#     4  10  19  31  53  84 116 147 184 230 278 329
#     4  10  20  38  60  82 111 150 183 220 282 348
#     4  11  22  36  58  87 114 143 183 238 282 323
#     4  12  20  32  54  86 117 150 181 230 271 334
#
# _framework density 17.489601
#
# number of rings (size 3 to 8) (size 9 to 14) (size 15 to 20)
#    0.000    1.733    4.000    1.200    0.000    3.467 
#    0.000    2.000    0.000    4.800    0.000    0.000 
#    0.000    0.000    0.000    0.000    0.000    0.000 
#
# Total GULP energy -167313.866307 kJ/mol
# GULP energy per Si atom -5577.128877 kJ/mol
# Density = 1.744979 g / cm^3
# Si number density = 17.489601 Si / 1000 Ang^3
#
#
#
# Elastic Constant Matrix: (Units=GPa)
#
#
# Indices 1 2 3 4 5 6 
#
# 1 143.4988 49.0733 73.1777 0.0000 -2.4340 0.0000
# 2 49.0733 41.5942 40.9867 0.0000 -1.9750 0.0000
# 3 73.1777 40.9867 105.5898 0.0000 9.9568 0.0000
# 4 0.0000 0.0000 0.0000 10.3286 0.0000 -0.4720
# 5 -2.4340 -1.9750 9.9568 0.0000 26.4615 0.0000
# 6 0.0000 0.0000 0.0000 -0.4720 0.0000 23.1954
#
#
#
# Elastic Compliance Matrix: (Units=1/GPa)
#
#
# Indices 1 2 3 4 5 6 
#
# 1 0.013286 -0.010113 -0.005523 0.000000 0.002545 0.000000
# 2 -0.010113 0.048768 -0.012625 0.000000 0.007460 0.000000
# 3 -0.005523 -0.012625 0.019010 0.000000 -0.008603 0.000000
# 4 0.000000 0.000000 0.000000 0.096909 0.000000 0.001972
# 5 0.002545 0.007460 -0.008603 0.000000 0.041819 0.000000
# 6 0.000000 0.000000 0.000000 0.001972 0.000000 0.043152
#
#
# Mechanical properties :
#
#
# Convention : Reuss Voigt Hill
#
# Bulk Modulus (GPa) = 40.74426 68.57311 54.65869
# Shear Modulus (GPa) = 15.26039 20.49345 17.87692
#
# Velocity S-wave (km/s) = 2.95708 3.42680 3.20057
# Velocity P-wave (km/s) = 5.91659 7.41285 6.70657
#
# Compressibility (1/GPa) = 0.02454333
#
# Stress axis : x y z
#
# Youngs Moduli (GPa) = 75.26475 20.50530 52.60410
#
# Poissons Ratio (x) = 0.20736 0.29051
# Poissons Ratio (y) = 0.76113 0.66414
# Poissons Ratio (z) = 0.41566 0.25888
#
# Static dielectric constant tensor:
#      x y z
#    x 1.600150 0.000000 -0.009440 
#    y 0.000000 1.586870 0.000000 
#    z -0.009440 0.000000 1.581420 
# 
# From -- ./inp_files/80708.got.cif
#   From: 2010.05.17/outbox.cif.g08.bks.cpg/sg10_41_cif.got.tgz:80708.got - 2010.06.03 11:33:40.
