data_PCOD9145615
_publ_section_title
;
Structure prediction by ZEFSAII (Michael W. Deem and Ramdas Pophale) SiO2 
 PCOD9145615
Probable space group: P 2/M
;
_chemical_formula_sum "Si O2"
_cell_formula_units_Z 32
_cell_length_a 26.492856
_cell_length_b 7.494410
_cell_length_c 20.490915
_cell_angle_alpha 90.000000
_cell_angle_beta 158.397253
_cell_angle_gamma 90.000000
_cell_volume 1497.872854
_symmetry_space_group_name_H-M "P 2/M"
_symmetry_group_IT_number 10
_symmetry_cell_setting 'monoclinic'
loop_
_space_group_symop_operation_xyz
x,y,z
-x,y,-z
-x,-y,-z
x,-y,z
loop_
_atom_site_type_symbol
_atom_site_label
_atom_site_fract_x
_atom_site_fract_y
_atom_site_fract_z
Si Si1 0.346016 0.784436 0.297984
Si Si2 0.416069 0.293392 0.761517
Si Si3 0.810162 0.718492 0.409862
Si Si4 0.842146 0.781431 0.808305
Si Si5 0.645936 0.203766 0.459393
Si Si6 0.721093 0.282046 0.157871
Si Si7 0.647359 0.708051 0.842350
Si Si8 0.120184 0.281906 0.778630
O O1 0.500000 0.723554 0.500000
O O2 0.240820 0.724649 0.227083
O O3 0.311881 0.726967 0.183825
O O4 0.347059 0.000000 0.299876
O O5 0.428397 0.500000 0.795965
O O6 0.297658 0.217980 0.665553
O O7 0.375469 0.287860 0.637005
O O8 0.568522 0.218444 0.955470
O O9 0.812125 0.500000 0.413595
O O10 0.761756 0.771736 0.279439
O O11 0.966299 0.777142 0.608539
O O12 0.759697 0.719915 0.645071
O O13 0.838751 0.000000 0.803338
O O14 0.000000 0.726602 0.000000
O O15 0.500250 0.206228 0.321666
O O16 0.684657 0.000000 0.492655
O O17 0.721560 0.500000 0.157298
O O18 0.828264 0.227177 0.231049
O O19 0.627426 0.500000 0.834270
O O20 0.766208 0.777288 0.032600
O O21 0.119216 0.500000 0.778874
#
# Coordination Sequence:
#
# PCOD9145615 Si02
#       8
#     4   4   4   4   4   4   4   4
#     4  10  19  35  57  81 105 136 177 215 251 303
#     4  10  19  32  51  80 109 135 170 217 265 307
#     4   9  17  28  47  75 108 140 172 215 262 307
#     4   9  19  36  57  79 104 135 175 217 253 299
#     4  11  21  36  57  78 102 138 178 212 257 315
#     4   9  15  27  48  74 104 139 177 213 255 307
#     4  11  21  34  54  81 110 137 172 219 266 306
#     4   9  17  29  46  74 108 138 172 215 261 306
#
# _framework density 21.363629
#
# number of rings (size 3 to 8) (size 9 to 14) (size 15 to 20)
#    0.000    2.250    2.500    1.500    0.000    4.250 
#    0.000    0.000    0.000    4.875    0.000    0.875 
#    0.000    0.000    0.000    0.000    0.000    0.000 
#
# Total GULP energy -178775.859634 kJ/mol
# GULP energy per Si atom -5586.745614 kJ/mol
# Density = 2.131500 g / cm^3
# Si number density = 21.363629 Si / 1000 Ang^3
#
#
#
# Elastic Constant Matrix: (Units=GPa)
#
#
# Indices 1 2 3 4 5 6 
#
# 1 87.8720 -10.4420 43.5291 0.0000 3.6250 0.0000
# 2 -10.4420 55.5395 -5.0286 0.0000 3.7777 0.0000
# 3 43.5291 -5.0286 128.3706 0.0000 3.9613 0.0000
# 4 0.0000 0.0000 0.0000 6.8307 0.0000 -14.2266
# 5 3.6250 3.7777 3.9613 0.0000 40.7210 0.0000
# 6 0.0000 0.0000 0.0000 -14.2266 0.0000 16.3846
#
#
#
# Elastic Compliance Matrix: (Units=1/GPa)
#
#
# Indices 1 2 3 4 5 6 
#
# 1 0.013981 0.002279 -0.004621 0.000000 -0.001007 0.000000
# 2 0.002279 0.018566 0.000014 0.000000 -0.001927 0.000000
# 3 -0.004621 0.000014 0.009373 0.000000 -0.000502 0.000000
# 4 0.000000 0.000000 0.000000 -0.181089 0.000000 -0.157238
# 5 -0.001007 -0.001927 -0.000502 0.000000 0.024875 0.000000
# 6 0.000000 0.000000 0.000000 -0.157238 0.000000 -0.075495
#
#
# Mechanical properties :
#
#
# Convention : Reuss Voigt Hill
#
# Bulk Modulus (GPa) = 26.83520 36.43324 31.63422
# Shear Modulus (GPa) = -28.94987 29.03547 0.04280
#
# Velocity S-wave (km/s) = -3.68516 3.69061 0.14170
# Velocity P-wave (km/s) = 2.34921 5.93731 3.85570
#
# Compressibility (1/GPa) = 0.03726448
#
# Stress axis : x y z
#
# Youngs Moduli (GPa) = 71.52344 53.86200 106.69185
#
# Poissons Ratio (x) = -0.12274 0.49298
# Poissons Ratio (y) = -0.16299 -0.00150
# Poissons Ratio (z) = 0.33048 -0.00075
#
# Static dielectric constant tensor:
#      x y z
#    x 1.721130 0.000000 0.003710 
#    y 0.000000 1.847760 0.000000 
#    z 0.003710 0.000000 1.740900 
# 
# From -- ./inp_files/87078.got.cif
#   From: 2010.05.17/outbox.cif.g08.bks.cpg/sg10_44_cif.got.tgz:87078.got - 2010.06.03 11:33:40.
