data_PCOD9145598
_publ_section_title
;
Structure prediction by ZEFSAII (Michael W. Deem and Ramdas Pophale) SiO2 
 PCOD9145598
Probable space group: P 2/M
;
_chemical_formula_sum "Si O2"
_cell_formula_units_Z 32
_cell_length_a 15.157780
_cell_length_b 7.438780
_cell_length_c 24.700906
_cell_angle_alpha 90.000000
_cell_angle_beta 150.976139
_cell_angle_gamma 90.000000
_cell_volume 1351.286855
_symmetry_space_group_name_H-M "P 2/M"
_symmetry_group_IT_number 10
_symmetry_cell_setting 'monoclinic'
loop_
_space_group_symop_operation_xyz
x,y,z
-x,y,-z
-x,-y,-z
x,-y,z
loop_
_atom_site_type_symbol
_atom_site_label
_atom_site_fract_x
_atom_site_fract_y
_atom_site_fract_z
Si Si1 0.823091 0.718460 0.255098
Si Si2 0.226893 0.720074 0.503792
Si Si3 0.118240 0.217532 0.113347
Si Si4 0.765012 0.297411 0.104128
Si Si5 0.479515 0.716947 0.427022
Si Si6 0.933906 0.794664 0.802631
Si Si7 0.459019 0.282554 0.120206
Si Si8 0.492382 0.288842 0.259082
O O1 0.833479 0.500000 0.256048
O O2 0.763195 0.784409 0.162995
O O3 0.664841 0.758898 0.212499
O O4 0.021584 0.779137 0.381371
O O5 0.225250 0.500000 0.504011
O O6 0.358595 0.775567 0.525033
O O7 0.328337 0.780561 0.613364
O O8 0.015245 0.283616 0.111794
O O9 0.324322 0.271358 0.210550
O O10 0.115850 0.000000 0.115076
O O11 0.000000 0.279145 0.000000
O O12 0.691727 0.500000 0.070267
O O13 0.976118 0.304016 0.199070
O O14 0.664722 0.218954 0.997114
O O15 0.500000 0.770508 0.500000
O O16 0.472465 0.500000 0.420410
O O17 0.281629 0.787368 0.306622
O O18 0.989239 0.000000 0.825912
O O19 0.434301 0.500000 0.108014
O O20 0.437078 0.214763 0.170193
O O21 0.525755 0.500000 0.268314
#
# Coordination Sequence:
#
# PCOD9145598 Si02
#       8
#     4   4   4   4   4   4   4   4
#     4   9  17  31  52  78 106 135 171 215 263 316
#     4   9  17  29  47  74 106 137 169 208 257 310
#     4  10  21  36  52  72 102 141 179 213 258 315
#     4  10  19  33  54  78 105 137 175 217 262 316
#     4  10  19  33  53  76 105 140 176 212 254 311
#     4  11  22  34  51  77 106 138 175 215 262 311
#     4   9  18  31  51  80 106 132 171 221 271 310
#     4  10  19  32  51  77 107 134 169 218 264 308
#
# _framework density 23.681128999999999
#
# number of rings (size 3 to 8) (size 9 to 14) (size 15 to 20)
#    0.000    2.250    1.250    2.250    0.000    5.000 
#    0.000    2.500    0.000    2.250    0.000    0.875 
#    0.000    0.000    0.000    0.000    0.000    0.000 
#
# Total GULP energy -178647.544164 kJ/mol
# GULP energy per Si atom -5582.735755 kJ/mol
# Density = 2.362723 g / cm^3
# Si number density = 23.681129 Si / 1000 Ang^3
#
#
#
# Elastic Constant Matrix: (Units=GPa)
#
#
# Indices 1 2 3 4 5 6 
#
# 1 100.0268 2.6715 17.7828 0.0000 -8.3291 0.0000
# 2 2.6715 68.2573 5.1594 0.0000 -6.4325 0.0000
# 3 17.7828 5.1594 99.9338 0.0000 -2.5793 0.0000
# 4 0.0000 0.0000 0.0000 63.9647 0.0000 67.1471
# 5 -8.3291 -6.4325 -2.5793 0.0000 42.7789 0.0000
# 6 0.0000 0.0000 0.0000 67.1471 0.0000 57.7160
#
#
#
# Elastic Compliance Matrix: (Units=1/GPa)
#
#
# Indices 1 2 3 4 5 6 
#
# 1 0.010481 -0.000093 -0.001811 0.000000 0.001918 0.000000
# 2 -0.000093 0.014912 -0.000697 0.000000 0.002182 0.000000
# 3 -0.001811 -0.000697 0.010369 0.000000 0.000168 0.000000
# 4 0.000000 0.000000 0.000000 -0.070648 0.000000 0.082192
# 5 0.001918 0.002182 0.000168 0.000000 0.024088 0.000000
# 6 0.000000 0.000000 0.000000 0.082192 0.000000 -0.078297
#
#
# Mechanical properties :
#
#
# Convention : Reuss Voigt Hill
#
# Bulk Modulus (GPa) = 32.72054 35.49393 34.10724
# Shear Modulus (GPa) = -67.83758 49.06552 -9.38603
#
# Velocity S-wave (km/s) = -5.35803 4.55678 -1.99302
# Velocity P-wave (km/s) = 4.94275 6.53502 3.02288
#
# Compressibility (1/GPa) = 0.03056185
#
# Stress axis : x y z
#
# Youngs Moduli (GPa) = 95.40702 67.05819 96.43968
#
# Poissons Ratio (x) = 0.00621 0.17464
# Poissons Ratio (y) = 0.00884 0.06723
# Poissons Ratio (z) = 0.17277 0.04675
#
# Static dielectric constant tensor:
#      x y z
#    x 1.962460 0.000000 -0.112570 
#    y 0.000000 1.897690 0.000000 
#    z -0.112570 0.000000 2.065990 
# 
# From -- ./inp_files/71528.got.cif
#   From: 2010.05.17/outbox.cif.g08.bks.cpg/sg10_36_cif.got.tgz:71528.got - 2010.06.03 11:33:40.
