data_PCOD9145179
_publ_section_title
;
Structure prediction by ZEFSAII (Michael W. Deem and Ramdas Pophale) SiO2 
 PCOD9145179
Probable space group: P 2/M
;
_chemical_formula_sum "Si O2"
_cell_formula_units_Z 22
_cell_length_a 27.047047
_cell_length_b 7.350824
_cell_length_c 5.352618
_cell_angle_alpha 90.000000
_cell_angle_beta 78.585794
_cell_angle_gamma 90.000000
_cell_volume 1043.149698
_symmetry_space_group_name_H-M "P 2/M"
_symmetry_group_IT_number 10
_symmetry_cell_setting 'monoclinic'
loop_
_space_group_symop_operation_xyz
x,y,z
-x,y,-z
-x,-y,-z
x,-y,z
loop_
_atom_site_type_symbol
_atom_site_label
_atom_site_fract_x
_atom_site_fract_y
_atom_site_fract_z
Si Si1 0.974638 0.784424 0.275362
Si Si2 0.316852 0.279629 0.933149
Si Si3 0.533381 0.000000 0.716619
Si Si4 0.144256 0.281624 0.605743
Si Si5 0.377334 0.280212 0.372666
Si Si6 0.200754 0.722720 0.049246
O O1 0.914737 0.761559 0.335263
O O2 0.000000 0.708762 0.500000
O O3 0.985136 0.000000 0.264864
O O4 0.000000 0.708762 0.000000
O O5 0.315532 0.500000 0.934469
O O6 0.346259 0.227559 0.652305
O O7 0.258924 0.218840 0.991077
O O8 0.346259 0.227559 0.155177
O O9 0.500000 0.000000 0.500000
O O10 0.570031 0.175084 0.679968
O O11 0.500000 0.000000 0.000000
O O12 0.148625 0.500000 0.601374
O O13 0.171794 0.217209 0.829192
O O14 0.171793 0.217209 0.327218
O O15 0.383655 0.500000 0.366345
O O16 0.200630 0.500000 0.049370
#
# Coordination Sequence:
#
# PCOD9145179 Si02
#       6
#     4   4   2   4   4   4
#     4  10  21  36  52  67  92 136 178 216 266 322
#     4   9  17  33  59  86 112 149 190 224 270 340
#     4  12  26  42  62  88 122 158 192 246 292 324
#     4  10  19  31  51  78 105 131 168 221 269 321
#     4  10  21  38  62  87 115 155 197 236 280 339
#     4   9  17  30  52  81 109 138 169 209 271 329
#
# _framework density 21.089973000000001
#
# number of rings (size 3 to 8) (size 9 to 14) (size 15 to 20)
#    0.000    2.182    0.000    3.273    0.000    5.818 
#    0.000    0.000   12.000    0.000    0.000    0.000 
#    0.000    0.000    0.000    0.000    0.000    0.000 
#
# Total GULP energy -123007.401916 kJ/mol
# GULP energy per Si atom -5591.245542 kJ/mol
# Density = 2.104197 g / cm^3
# Si number density = 21.089973 Si / 1000 Ang^3
#
#
#
# Elastic Constant Matrix: (Units=GPa)
#
#
# Indices 1 2 3 4 5 6 
#
# 1 214.0294 19.0517 148.2554 0.0000 13.6146 0.0000
# 2 19.0517 83.7844 28.8863 0.0000 3.4638 0.0000
# 3 148.2554 28.8863 270.3904 0.0000 6.2371 0.0000
# 4 0.0000 0.0000 0.0000 -7.1023 0.0000 -17.4476
# 5 13.6146 3.4638 6.2371 0.0000 49.6157 0.0000
# 6 0.0000 0.0000 0.0000 -17.4476 0.0000 42.4354
#
#
#
# Elastic Compliance Matrix: (Units=1/GPa)
#
#
# Indices 1 2 3 4 5 6 
#
# 1 0.007660 -0.000251 -0.004137 0.000000 -0.001564 0.000000
# 2 -0.000251 0.012424 -0.001175 0.000000 -0.000651 0.000000
# 3 -0.004137 -0.001175 0.006082 0.000000 0.000453 0.000000
# 4 0.000000 0.000000 0.000000 -0.070048 0.000000 -0.028801
# 5 -0.001564 -0.000651 0.000453 0.000000 0.020573 0.000000
# 6 0.000000 0.000000 0.000000 -0.028801 0.000000 0.011724
#
#
# Mechanical properties :
#
#
# Convention : Reuss Voigt Hill
#
# Bulk Modulus (GPa) = 66.48614 106.73234 86.60924
# Shear Modulus (GPa) = 1098.21325 41.79049 570.00187
#
# Velocity S-wave (km/s) = 22.84421 4.45627 16.45777
# Velocity P-wave (km/s) = 26.97043 8.78611 20.05742
#
# Compressibility (1/GPa) = 0.01504073
#
# Stress axis : x y z
#
# Youngs Moduli (GPa) = 130.55353 80.48699 164.42733
#
# Poissons Ratio (x) = 0.02018 0.68023
# Poissons Ratio (y) = 0.03274 0.19317
# Poissons Ratio (z) = 0.54009 0.09456
#
# Static dielectric constant tensor:
#      x y z
#    x 1.689210 0.000000 0.011200 
#    y 0.000000 1.798620 0.000000 
#    z 0.011200 0.000000 1.721000 
# 
# From -- ./inp_files/12989.got.cif
#   From: 2010.05.17/outbox.cif.g08.bks.cpg/sg10_7_cif.got.tgz:12989.got - 2010.06.03 11:33:40.
