data_PCOD9145959
_publ_section_title
;
Structure prediction by ZEFSAII (Michael W. Deem and Ramdas Pophale) SiO2 
 PCOD9145959
Probable space group: P 2/M
;
_chemical_formula_sum "Si O2"
_cell_formula_units_Z 32
_cell_length_a 21.943502
_cell_length_b 9.624537
_cell_length_c 21.984178
_cell_angle_alpha 90.000000
_cell_angle_beta 20.255618
_cell_angle_gamma 90.000000
_cell_volume 1607.438737
_symmetry_space_group_name_H-M "P 2/M"
_symmetry_group_IT_number 10
_symmetry_cell_setting 'monoclinic'
loop_
_space_group_symop_operation_xyz
x,y,z
-x,y,-z
-x,-y,-z
x,-y,z
loop_
_atom_site_type_symbol
_atom_site_label
_atom_site_fract_x
_atom_site_fract_y
_atom_site_fract_z
Si Si1 0.400966 0.342436 0.400722
Si Si2 0.654222 0.643965 0.404737
Si Si3 0.996818 0.662761 0.781327
Si Si4 0.488044 0.835790 0.084132
Si Si5 0.192097 0.835705 0.825224
Si Si6 0.731677 0.832546 0.108056
Si Si7 0.918035 0.160972 0.509142
Si Si8 0.817472 0.662538 0.819517
O O1 0.434469 0.500000 0.345707
O O2 0.397340 0.351826 0.477437
O O3 0.559421 0.237223 0.238395
O O4 0.199517 0.300613 0.574678
O O5 0.500000 0.631818 0.500000
O O6 0.762334 0.500000 0.295517
O O7 0.729522 0.788205 0.311946
O O8 0.000106 0.500000 0.798063
O O9 0.878389 0.672017 0.832154
O O10 0.905247 0.760891 0.916913
O O11 0.289305 0.805643 0.292110
O O12 0.522906 0.000000 0.062219
O O13 0.500000 0.814303 0.000000
O O14 0.635584 0.742379 0.977411
O O15 0.271987 0.798278 0.815994
O O16 0.185720 0.000000 0.832001
O O17 0.000000 0.772047 0.000000
O O18 0.734326 0.000000 0.098561
O O19 0.000000 0.167520 0.500000
O O20 0.030882 0.262654 0.361815
O O21 0.936243 0.000000 0.471456
O O22 0.802087 0.500000 0.817590
#
# Coordination Sequence:
#
# PCOD9145959 Si02
#       8
#     4   4   4   4   4   4   4   4
#     4  10  21  40  63  84 116 158 199 246 301 359
#     4  10  19  32  54  84 109 137 186 239 288 350
#     4  10  24  44  62  82 115 163 206 243 294 353
#     4  10  20  38  64  92 125 163 199 235 285 348
#     4  10  21  35  52  79 115 149 182 231 300 365
#     4  11  23  38  60  88 116 151 198 251 302 356
#     4  10  20  38  64  91 122 161 200 237 286 350
#     4  11  24  40  60  90 125 158 200 250 296 346
#
# _framework density 19.907446
#
# number of rings (size 3 to 8) (size 9 to 14) (size 15 to 20)
#    0.000    1.750    2.500    1.500    0.000    5.000 
#    0.000    3.750    0.000    0.000    0.000    0.000 
#    0.000    0.000    0.000    0.000    0.000    0.000 
#
# Total GULP energy -178332.399778 kJ/mol
# GULP energy per Si atom -5572.887493 kJ/mol
# Density = 1.986214 g / cm^3
# Si number density = 19.907446 Si / 1000 Ang^3
#
#
#
# Elastic Constant Matrix: (Units=GPa)
#
#
# Indices 1 2 3 4 5 6 
#
# 1 54.3721 35.5083 18.5373 0.0000 -20.0207 0.0000
# 2 35.5083 80.0147 57.2790 0.0000 -14.7818 0.0000
# 3 18.5373 57.2790 87.6812 0.0000 -25.7926 0.0000
# 4 0.0000 0.0000 0.0000 45.4920 0.0000 -2.4932
# 5 -20.0207 -14.7818 -25.7926 0.0000 32.9769 0.0000
# 6 0.0000 0.0000 0.0000 -2.4932 0.0000 19.4335
#
#
#
# Elastic Compliance Matrix: (Units=1/GPa)
#
#
# Indices 1 2 3 4 5 6 
#
# 1 0.035908 -0.020807 0.012560 0.000000 0.022297 0.000000
# 2 -0.020807 0.035626 -0.023239 0.000000 -0.014839 0.000000
# 3 0.012560 -0.023239 0.030016 0.000000 0.020685 0.000000
# 4 0.000000 0.000000 0.000000 0.022138 0.000000 0.002840
# 5 0.022297 -0.014839 0.020685 0.000000 0.053388 0.000000
# 6 0.000000 0.000000 0.000000 0.002840 0.000000 0.051822
#
#
# Mechanical properties :
#
#
# Convention : Reuss Voigt Hill
#
# Bulk Modulus (GPa) = 25.92230 49.41301 37.66766
# Shear Modulus (GPa) = 16.40803 26.96338 21.68571
#
# Velocity S-wave (km/s) = 2.87403 3.68426 3.30408
# Velocity P-wave (km/s) = 4.90541 6.55543 5.78950
#
# Compressibility (1/GPa) = 0.03857682
#
# Stress axis : x y z
#
# Youngs Moduli (GPa) = 27.84893 28.06947 33.31576
#
# Poissons Ratio (x) = 0.58404 -0.41844
# Poissons Ratio (y) = 0.57945 0.77424
# Poissons Ratio (z) = -0.34978 0.65232
#
# Static dielectric constant tensor:
#      x y z
#    x 1.689820 0.000000 -0.029940 
#    y 0.000000 1.725210 0.000000 
#    z -0.029940 0.000000 1.718220 
# 
# From -- ./inp_files/90628.got.cif
#   From: 2010.05.17/outbox.cif.g08.bks.cpg/sg10_46_cif.got.tgz:90628.got - 2010.06.03 11:33:40.
