data_PCOD9145395
_publ_section_title
;
Structure prediction by ZEFSAII (Michael W. Deem and Ramdas Pophale) SiO2 
 PCOD9145395
Probable space group: P 2/M
;
_chemical_formula_sum "Si O2"
_cell_formula_units_Z 32
_cell_length_a 30.133541
_cell_length_b 7.518973
_cell_length_c 20.999711
_cell_angle_alpha 90.000000
_cell_angle_beta 160.238236
_cell_angle_gamma 90.000000
_cell_volume 1608.718174
_symmetry_space_group_name_H-M "P 2/M"
_symmetry_group_IT_number 10
_symmetry_cell_setting 'monoclinic'
loop_
_space_group_symop_operation_xyz
x,y,z
-x,y,-z
-x,-y,-z
x,-y,z
loop_
_atom_site_type_symbol
_atom_site_label
_atom_site_fract_x
_atom_site_fract_y
_atom_site_fract_z
Si Si1 0.853031 0.702433 0.966785
Si Si2 0.360391 0.717796 0.064289
Si Si3 0.854910 0.795985 0.609304
Si Si4 0.144607 0.281629 0.171556
Si Si5 0.805791 0.282545 0.040915
Si Si6 0.343320 0.712268 0.548499
Si Si7 0.144176 0.717276 0.670187
Si Si8 0.897673 0.714278 0.526813
O O1 0.803488 0.500000 0.896757
O O2 0.795252 0.781901 0.953898
O O3 0.010758 0.695979 0.191031
O O4 0.830408 0.781554 0.866671
O O5 0.359915 0.500000 0.062777
O O6 0.508236 0.779870 0.252259
O O7 0.303304 0.771883 0.055879
O O8 0.258258 0.775352 0.871923
O O9 0.734628 0.745413 0.491577
O O10 0.829022 0.770494 0.499480
O O11 0.886902 0.000000 0.664349
O O12 0.143861 0.500000 0.169372
O O13 0.253017 0.221872 0.368501
O O14 0.000000 0.228348 0.000000
O O15 0.806454 0.500000 0.039831
O O16 0.949784 0.229593 0.261016
O O17 0.351363 0.500000 0.551444
O O18 0.144702 0.500000 0.671602
O O19 0.159596 0.775024 0.617809
O O20 0.000000 0.770985 0.500000
O O21 0.897366 0.500000 0.525726
#
# Coordination Sequence:
#
# PCOD9145395 Si02
#       8
#     4   4   4   4   4   4   4   4
#     4   9  16  29  50  72  95 125 159 194 239 289
#     4   9  16  26  44  74 103 124 155 197 237 280
#     4  11  21  32  47  69  97 124 160 205 244 281
#     4   9  15  26  46  70  95 124 163 198 232 280
#     4   8  13  23  42  71  99 121 147 187 235 279
#     4  10  19  32  49  68  96 132 162 194 238 287
#     4   9  14  24  46  78 105 122 151 197 240 278
#     4   9  16  28  50  74  98 126 155 190 239 289
#
# _framework density 19.891614000000001
#
# number of rings (size 3 to 8) (size 9 to 14) (size 15 to 20)
#    0.000    2.750    2.500    1.875    0.000    0.000 
#    0.000    2.500    0.000   11.625    0.000    0.000 
#    0.000    5.000    0.000    0.000    0.000    0.000 
#
# Total GULP energy -178501.010561 kJ/mol
# GULP energy per Si atom -5578.156580 kJ/mol
# Density = 1.984634 g / cm^3
# Si number density = 19.891614 Si / 1000 Ang^3
#
#
#
# Elastic Constant Matrix: (Units=GPa)
#
#
# Indices 1 2 3 4 5 6 
#
# 1 203.1309 -7.6557 102.6774 0.0000 -9.5097 0.0000
# 2 -7.6557 50.0573 5.4102 0.0000 -2.5168 0.0000
# 3 102.6774 5.4102 123.9522 0.0000 -3.7499 0.0000
# 4 0.0000 0.0000 0.0000 -16.1768 0.0000 0.8962
# 5 -9.5097 -2.5168 -3.7499 0.0000 26.2433 0.0000
# 6 0.0000 0.0000 0.0000 0.8962 0.0000 -89.4231
#
#
#
# Elastic Compliance Matrix: (Units=1/GPa)
#
#
# Indices 1 2 3 4 5 6 
#
# 1 0.008830 0.002263 -0.007342 0.000000 0.002368 0.000000
# 2 0.002263 0.020738 -0.002706 0.000000 0.002422 0.000000
# 3 -0.007342 -0.002706 0.014241 0.000000 -0.000885 0.000000
# 4 0.000000 0.000000 0.000000 -0.061851 0.000000 -0.000620
# 5 0.002368 0.002422 -0.000885 0.000000 0.039069 0.000000
# 6 0.000000 0.000000 0.000000 -0.000620 0.000000 -0.011189
#
#
# Mechanical properties :
#
#
# Convention : Reuss Voigt Hill
#
# Bulk Modulus (GPa) = 35.41339 64.22269 49.81804
# Shear Modulus (GPa) = 143.59789 2.57592 73.08690
#
# Velocity S-wave (km/s) = 8.50570 1.13920 6.06814
# Velocity P-wave (km/s) = 10.69132 5.83839 8.61368
#
# Compressibility (1/GPa) = 0.02823791
#
# Stress axis : x y z
#
# Youngs Moduli (GPa) = 113.24917 48.22180 70.22210
#
# Poissons Ratio (x) = -0.10913 0.51555
# Poissons Ratio (y) = -0.25628 0.19005
# Poissons Ratio (z) = 0.83144 0.13051
#
# Static dielectric constant tensor:
#      x y z
#    x 1.711660 0.000000 -0.012910 
#    y 0.000000 1.737120 0.000000 
#    z -0.012910 0.000000 1.662880 
# 
# From -- ./inp_files/54800.got.cif
#   From: 2010.05.17/outbox.cif.g08.bks.cpg/sg10_28_cif.got.tgz:54800.got - 2010.06.03 11:33:40.
