data_PCOD9145295
_publ_section_title
;
Structure prediction by ZEFSAII (Michael W. Deem and Ramdas Pophale) SiO2 
 PCOD9145295
Probable space group: P 2/M
;
_chemical_formula_sum "Si O2"
_cell_formula_units_Z 28
_cell_length_a 16.205062
_cell_length_b 7.597146
_cell_length_c 12.197256
_cell_angle_alpha 90.000000
_cell_angle_beta 56.803447
_cell_angle_gamma 90.000000
_cell_volume 1256.560938
_symmetry_space_group_name_H-M "P 2/M"
_symmetry_group_IT_number 10
_symmetry_cell_setting 'monoclinic'
loop_
_space_group_symop_operation_xyz
x,y,z
-x,y,-z
-x,-y,-z
x,-y,z
loop_
_atom_site_type_symbol
_atom_site_label
_atom_site_fract_x
_atom_site_fract_y
_atom_site_fract_z
Si Si1 0.641231 0.289137 0.144661
Si Si2 0.798604 0.706357 0.399829
Si Si3 0.452867 0.210420 0.147175
Si Si4 0.232107 0.792121 0.338485
Si Si5 0.612785 0.284770 0.409135
Si Si6 0.010606 0.715967 0.866164
Si Si7 0.178904 0.287946 0.134019
O O1 0.650045 0.500000 0.138821
O O2 0.531433 0.246040 0.184647
O O3 0.655004 0.231515 0.259584
O O4 0.722303 0.221231 0.999544
O O5 0.795025 0.500000 0.375493
O O6 0.816827 0.721892 0.515708
O O7 0.690585 0.776209 0.444187
O O8 0.888320 0.779124 0.262979
O O9 0.343757 0.281586 0.247529
O O10 0.443460 0.000000 0.141682
O O11 0.500000 0.280483 0.000000
O O12 0.179993 0.759453 0.260782
O O13 0.238734 0.000000 0.349642
O O14 0.500000 0.222863 0.500000
O O15 0.607778 0.500000 0.416242
O O16 0.010892 0.500000 0.865024
O O17 0.917029 0.772333 0.862123
O O18 0.000000 0.769762 0.000000
O O19 0.180706 0.500000 0.127319
#
# Coordination Sequence:
#
# PCOD9145295 Si02
#       7
#     4   4   4   4   4   4   4
#     4  10  19  31  53  83 110 138 178 228 273 319
#     4  10  20  36  59  82 110 147 183 222 270 325
#     4  10  20  35  52  73 107 149 185 218 267 325
#     4  11  23  38  55  77 111 148 184 226 273 325
#     4   9  17  30  50  79 111 138 170 218 272 320
#     4   9  18  35  60  87 112 140 178 225 275 325
#     4  10  20  34  55  83 110 138 181 228 270 321
#
# _framework density 22.283042999999999
#
# number of rings (size 3 to 8) (size 9 to 14) (size 15 to 20)
#    0.000    2.143    1.429    2.143    0.000    6.571 
#    0.000    4.286    0.000    6.000    0.000    0.000 
#    0.000    0.000    0.000    0.000    0.000    0.000 
#
# Total GULP energy -156459.938069 kJ/mol
# GULP energy per Si atom -5587.854931 kJ/mol
# Density = 2.223233 g / cm^3
# Si number density = 22.283043 Si / 1000 Ang^3
#
#
#
# Elastic Constant Matrix: (Units=GPa)
#
#
# Indices 1 2 3 4 5 6 
#
# 1 149.7170 -7.5588 68.9021 0.0000 5.4186 0.0000
# 2 -7.5588 41.4916 -4.8488 0.0000 -10.8274 0.0000
# 3 68.9021 -4.8488 149.3032 0.0000 2.5273 0.0000
# 4 0.0000 0.0000 0.0000 15.2265 0.0000 24.4066
# 5 5.4186 -10.8274 2.5273 0.0000 31.9742 0.0000
# 6 0.0000 0.0000 0.0000 24.4066 0.0000 37.2647
#
#
#
# Elastic Compliance Matrix: (Units=1/GPa)
#
#
# Indices 1 2 3 4 5 6 
#
# 1 0.008551 0.000882 -0.003903 0.000000 -0.000842 0.000000
# 2 0.000882 0.026603 0.000307 0.000000 0.008835 0.000000
# 3 -0.003903 0.000307 0.008507 0.000000 0.000093 0.000000
# 4 0.000000 0.000000 0.000000 -1.318019 0.000000 0.863240
# 5 -0.000842 0.008835 0.000093 0.000000 0.034402 0.000000
# 6 0.000000 0.000000 0.000000 0.863240 0.000000 -0.538547
#
#
# Mechanical properties :
#
#
# Convention : Reuss Voigt Hill
#
# Bulk Modulus (GPa) = 26.15487 50.38897 38.27192
# Shear Modulus (GPa) = -2.84038 35.82757 16.49360
#
# Velocity S-wave (km/s) = -1.13024 4.01414 2.72359
# Velocity P-wave (km/s) = 3.17172 6.64429 5.20607
#
# Compressibility (1/GPa) = 0.03823379
#
# Stress axis : x y z
#
# Youngs Moduli (GPa) = 116.95179 37.58922 117.54426
#
# Poissons Ratio (x) = -0.03315 0.45879
# Poissons Ratio (y) = -0.10314 -0.03614
# Poissons Ratio (z) = 0.45647 -0.01156
#
# Static dielectric constant tensor:
#      x y z
#    x 1.799650 0.000000 -0.015970 
#    y 0.000000 1.827480 0.000000 
#    z -0.015970 0.000000 1.817280 
# 
# From -- ./inp_files/49587.got.cif
#   From: 2010.05.17/outbox.cif.g08.bks.cpg/sg10_25_cif.got.tgz:49587.got - 2010.06.03 11:33:40.
