data_PCOD9145251
_publ_section_title
;
Structure prediction by ZEFSAII (Michael W. Deem and Ramdas Pophale) SiO2 
 PCOD9145251
Probable space group: P 2/M
;
_chemical_formula_sum "Si O2"
_cell_formula_units_Z 32
_cell_length_a 16.837650
_cell_length_b 9.175330
_cell_length_c 23.606901
_cell_angle_alpha 90.000000
_cell_angle_beta 148.777165
_cell_angle_gamma 90.000000
_cell_volume 1890.515422
_symmetry_space_group_name_H-M "P 2/M"
_symmetry_group_IT_number 10
_symmetry_cell_setting 'monoclinic'
loop_
_space_group_symop_operation_xyz
x,y,z
-x,y,-z
-x,-y,-z
x,-y,z
loop_
_atom_site_type_symbol
_atom_site_label
_atom_site_fract_x
_atom_site_fract_y
_atom_site_fract_z
Si Si1 0.822384 0.673639 0.655186
Si Si2 0.369089 0.828650 0.549713
Si Si3 0.558702 0.825727 0.772881
Si Si4 0.647182 0.333578 0.131815
Si Si5 0.545768 0.173388 0.897059
Si Si6 0.306403 0.172344 0.315389
Si Si7 0.177418 0.675630 0.868610
Si Si8 0.170583 0.671959 0.127295
O O1 0.805322 0.500000 0.647619
O O2 0.762203 0.733187 0.558587
O O3 0.723015 0.750011 0.643308
O O4 0.001320 0.709654 0.773779
O O5 0.421113 0.791467 0.645306
O O6 0.523367 0.807564 0.606186
O O7 0.329504 0.000000 0.522996
O O8 0.527798 0.794913 0.819569
O O9 0.706364 0.738687 0.841064
O O10 0.588074 0.000000 0.784366
O O11 0.674928 0.500000 0.167258
O O12 0.595411 0.235306 0.152351
O O13 0.781440 0.284179 0.171446
O O14 0.500000 0.335572 0.000000
O O15 0.556904 0.000000 0.911405
O O16 0.700391 0.247271 0.015945
O O17 0.195002 0.243746 0.200958
O O18 0.280076 0.000000 0.304731
O O19 0.199290 0.500000 0.886220
O O20 0.199648 0.500000 0.153316
O O21 0.000000 0.690610 0.000000
#
# Coordination Sequence:
#
# PCOD9145251 Si02
#       8
#     4   4   4   4   4   4   4   4
#     4  11  22  34  52  77 103 129 168 219 256 293
#     4   9  19  37  54  69  96 134 173 209 252 301
#     4   9  20  36  52  73 101 134 168 206 250 301
#     4   8  15  31  51  70  99 138 166 193 247 305
#     4  10  19  31  52  81 105 128 166 208 244 295
#     4  10  21  36  53  72  98 135 173 208 253 305
#     4   9  20  35  49  72 107 138 162 198 254 306
#     4  10  21  34  49  72 102 134 168 210 251 290
#
# _framework density 16.926601000000002
#
# number of rings (size 3 to 8) (size 9 to 14) (size 15 to 20)
#    0.000    2.500    0.000    3.375    1.750    9.250 
#    0.000    0.000    0.000    0.750    0.000    5.250 
#    0.000    0.000    0.000    0.000    0.000    0.000 
#
# Total GULP energy -178454.836463 kJ/mol
# GULP energy per Si atom -5576.713639 kJ/mol
# Density = 1.688808 g / cm^3
# Si number density = 16.926601 Si / 1000 Ang^3
#
#
#
# Elastic Constant Matrix: (Units=GPa)
#
#
# Indices 1 2 3 4 5 6 
#
# 1 76.8866 37.3564 35.8725 0.0000 -27.3085 0.0000
# 2 37.3564 48.9004 36.4110 0.0000 -13.2228 0.0000
# 3 35.8725 36.4110 60.7672 0.0000 -19.9287 0.0000
# 4 0.0000 0.0000 0.0000 17.7029 0.0000 12.8811
# 5 -27.3085 -13.2228 -19.9287 0.0000 18.0374 0.0000
# 6 0.0000 0.0000 0.0000 12.8811 0.0000 -23.7573
#
#
#
# Elastic Compliance Matrix: (Units=1/GPa)
#
#
# Indices 1 2 3 4 5 6 
#
# 1 0.036640 -0.019217 0.005422 0.000000 0.047376 0.000000
# 2 -0.019217 0.047198 -0.023728 0.000000 -0.020711 0.000000
# 3 0.005422 -0.023728 0.038360 0.000000 0.033196 0.000000
# 4 0.000000 0.000000 0.000000 0.040507 0.000000 0.021963
# 5 0.047376 -0.020711 0.033196 0.000000 0.148661 0.000000
# 6 0.000000 0.000000 0.000000 0.021963 0.000000 -0.030184
#
#
# Mechanical properties :
#
#
# Convention : Reuss Voigt Hill
#
# Bulk Modulus (GPa) = 21.20838 45.09267 33.15053
# Shear Modulus (GPa) = 13.44280 7.52422 10.48351
#
# Velocity S-wave (km/s) = 2.82118 2.11065 2.49138
# Velocity P-wave (km/s) = 4.81341 5.71295 5.28236
#
# Compressibility (1/GPa) = 0.04715117
#
# Stress axis : x y z
#
# Youngs Moduli (GPa) = 27.29229 21.18737 26.06884
#
# Poissons Ratio (x) = 0.40716 -0.14134
# Poissons Ratio (y) = 0.52448 0.61857
# Poissons Ratio (z) = -0.14797 0.50274
#
# Static dielectric constant tensor:
#      x y z
#    x 1.583040 0.000000 -0.006570 
#    y 0.000000 1.564600 0.000000 
#    z -0.006570 0.000000 1.562090 
# 
# From -- ./inp_files/89974.got.cif
#   From: 2010.05.17/outbox.cif.g08.bks.cpg/sg10_45_cif.got.tgz:89974.got - 2010.06.03 11:33:40.
