data_PCOD9145093
_publ_section_title
;
Structure prediction by ZEFSAII (Michael W. Deem and Ramdas Pophale) SiO2 
 PCOD9145093
Probable space group: P 2/M
;
_chemical_formula_sum "Si O2"
_cell_formula_units_Z 26
_cell_length_a 6.830347
_cell_length_b 14.132568
_cell_length_c 21.345722
_cell_angle_alpha 90.000000
_cell_angle_beta 47.076679
_cell_angle_gamma 90.000000
_cell_volume 1508.840841
_symmetry_space_group_name_H-M "P 2/M"
_symmetry_group_IT_number 10
_symmetry_cell_setting 'monoclinic'
loop_
_space_group_symop_operation_xyz
x,y,z
-x,y,-z
-x,-y,-z
x,-y,z
loop_
_atom_site_type_symbol
_atom_site_label
_atom_site_fract_x
_atom_site_fract_y
_atom_site_fract_z
Si Si1 0.445320 0.888778 0.763912
Si Si2 0.406888 0.109797 0.627513
Si Si3 0.793956 0.397169 0.905832
Si Si4 0.000000 0.812938 0.500000
Si Si5 0.307800 0.608603 0.218331
Si Si6 0.841554 0.264666 0.099477
Si Si7 0.984789 0.768641 0.643452
O O1 0.340339 0.873214 0.715542
O O2 0.261362 0.835768 0.853916
O O3 0.737601 0.841690 0.705388
O O4 0.462233 0.000000 0.770487
O O5 0.726899 0.126497 0.555414
O O6 0.241974 0.181323 0.619210
O O7 0.348784 0.000000 0.624180
O O8 0.906416 0.500000 0.901876
O O9 0.784585 0.395506 0.833378
O O10 0.961018 0.310191 0.893547
O O11 0.500000 0.391690 0.000000
O O12 0.995235 0.755701 0.435845
O O13 0.335599 0.500000 0.234748
O O14 0.588220 0.664620 0.154085
O O15 0.104792 0.672084 0.303203
O O16 0.000000 0.261344 0.000000
#
# Coordination Sequence:
#
# PCOD9145093 Si02
#       7
#     4   4   4   2   4   4   4
#     4   9  20  35  50  74 106 140 178 212 250 308
#     4  10  19  34  57  80 106 137 169 210 259 306
#     4  10  19  31  50  76 102 127 166 218 263 303
#     4  10  21  34  53  84 110 130 169 214 255 304
#     4  10  21  36  54  77 104 137 176 215 260 309
#     4  11  20  32  53  76 103 139 175 217 265 305
#     4  10  20  35  55  77 106 139 170 211 260 309
#
# _framework density 17.231771999999999
#
# number of rings (size 3 to 8) (size 9 to 14) (size 15 to 20)
#    0.000    2.000    1.538    2.538    0.000    3.385 
#    0.000    0.385    0.000    2.308    0.000    0.000 
#    0.000    0.000    0.000    0.000    0.000    0.000 
#
# Total GULP energy -144953.320547 kJ/mol
# GULP energy per Si atom -5575.127713 kJ/mol
# Density = 1.719255 g / cm^3
# Si number density = 17.231772 Si / 1000 Ang^3
#
#
#
# Elastic Constant Matrix: (Units=GPa)
#
#
# Indices 1 2 3 4 5 6 
#
# 1 72.7376 37.6065 36.2920 0.0000 4.0827 0.0000
# 2 37.6065 103.9037 58.9539 0.0000 14.2867 0.0000
# 3 36.2920 58.9539 91.5906 0.0000 5.9076 0.0000
# 4 0.0000 0.0000 0.0000 16.8458 0.0000 -1.3692
# 5 4.0827 14.2867 5.9076 0.0000 18.3334 0.0000
# 6 0.0000 0.0000 0.0000 -1.3692 0.0000 18.9039
#
#
#
# Elastic Compliance Matrix: (Units=1/GPa)
#
#
# Indices 1 2 3 4 5 6 
#
# 1 0.018095 -0.004001 -0.004632 0.000000 0.000581 0.000000
# 2 -0.004001 0.017597 -0.009104 0.000000 -0.009889 0.000000
# 3 -0.004632 -0.009104 0.018473 0.000000 0.002173 0.000000
# 4 0.000000 0.000000 0.000000 0.059713 0.000000 0.004325
# 5 0.000581 -0.009889 0.002173 0.000000 0.061422 0.000000
# 6 0.000000 0.000000 0.000000 0.004325 0.000000 0.053212
#
#
# Mechanical properties :
#
#
# Convention : Reuss Voigt Hill
#
# Bulk Modulus (GPa) = 53.49860 59.32630 56.41245
# Shear Modulus (GPa) = 18.50360 19.84194 19.17277
#
# Velocity S-wave (km/s) = 3.28045 3.39702 3.33925
# Velocity P-wave (km/s) = 6.74258 7.06325 6.90478
#
# Compressibility (1/GPa) = 0.01869208
#
# Stress axis : x y z
#
# Youngs Moduli (GPa) = 55.26323 56.82654 54.13218
#
# Poissons Ratio (x) = 0.22735 0.25076
# Poissons Ratio (y) = 0.22110 0.49281
# Poissons Ratio (z) = 0.25600 0.51734
#
# Static dielectric constant tensor:
#      x y z
#    x 1.598180 0.000000 -0.015950 
#    y 0.000000 1.573460 0.000000 
#    z -0.015950 0.000000 1.619740 
# 
# From -- ./inp_files/11340.got.cif
#   From: 2010.05.17/outbox.cif.g08.bks.cpg/sg10_6_cif.got.tgz:11340.got - 2010.06.03 11:33:40.
