data_PCOD9145588
_publ_section_title
;
Structure prediction by ZEFSAII (Michael W. Deem and Ramdas Pophale) SiO2 
 PCOD9145588
Probable space group: P 2/M
;
_chemical_formula_sum "Si O2"
_cell_formula_units_Z 28
_cell_length_a 13.796603
_cell_length_b 8.511880
_cell_length_c 18.183330
_cell_angle_alpha 90.000000
_cell_angle_beta 145.810330
_cell_angle_gamma 90.000000
_cell_volume 1199.931862
_symmetry_space_group_name_H-M "P 2/M"
_symmetry_group_IT_number 10
_symmetry_cell_setting 'monoclinic'
loop_
_space_group_symop_operation_xyz
x,y,z
-x,y,-z
-x,-y,-z
x,-y,z
loop_
_atom_site_type_symbol
_atom_site_label
_atom_site_fract_x
_atom_site_fract_y
_atom_site_fract_z
Si Si1 0.423536 0.311119 0.274268
Si Si2 0.845348 0.825144 0.214756
Si Si3 0.118956 0.814723 0.004863
Si Si4 0.206997 0.166392 0.646530
Si Si5 0.781548 0.686345 0.551150
Si Si6 0.704718 0.500000 0.122571
Si Si7 0.814616 0.683499 0.740211
Si Si8 0.799419 0.500000 0.352703
O O1 0.434827 0.500000 0.284280
O O2 0.304775 0.262590 0.131483
O O3 0.615813 0.250169 0.405160
O O4 0.316634 0.258221 0.280014
O O5 0.770492 0.834182 0.250856
O O6 0.766758 0.667270 0.128525
O O7 0.046904 0.785835 0.353029
O O8 0.820539 0.000000 0.166007
O O9 0.140136 0.000000 0.022803
O O10 0.000000 0.761344 0.000000
O O11 0.997744 0.770522 0.860890
O O12 0.276462 0.336571 0.666652
O O13 0.000000 0.167783 0.500000
O O14 0.275491 0.000000 0.660967
O O15 0.814388 0.500000 0.554837
O O16 0.741228 0.694140 0.612670
O O17 0.782849 0.500000 0.254272
O O18 0.500000 0.500000 0.000000
O O19 0.849197 0.500000 0.777125
O O20 0.000000 0.500000 0.500000
#
# Coordination Sequence:
#
# PCOD9145588 Si02
#       8
#     4   4   4   4   4   2   4   2
#     4   9  17  30  50  75 102 138 187 232 271 319
#     4  10  20  34  54  81 111 143 175 214 273 329
#     4   9  17  29  45  67  97 132 175 230 278 315
#     4   8  14  26  46  72  99 127 161 201 243 300
#     4  10  19  32  51  76 110 144 177 226 279 325
#     4  10  20  36  58  80 105 133 170 216 256 313
#     4   9  17  30  50  74 101 142 190 229 269 319
#     4   8  14  26  48  76 100 123 154 194 243 291
#
# _framework density 23.334655999999999
#
# number of rings (size 3 to 8) (size 9 to 14) (size 15 to 20)
#    0.000    2.857    0.714    0.857    0.000    4.857 
#    0.000    0.000    0.000   11.143    0.000   10.000 
#    0.000    0.000    0.000    0.000    0.000    0.000 
#
# Total GULP energy -156273.952987 kJ/mol
# GULP energy per Si atom -5581.212607 kJ/mol
# Density = 2.328155 g / cm^3
# Si number density = 23.334656 Si / 1000 Ang^3
#
#
#
# Elastic Constant Matrix: (Units=GPa)
#
#
# Indices 1 2 3 4 5 6 
#
# 1 46.5088 7.2048 -7.0161 0.0000 0.5318 0.0000
# 2 7.2048 158.6013 11.4026 0.0000 15.8161 0.0000
# 3 -7.0161 11.4026 60.0735 0.0000 22.5032 0.0000
# 4 0.0000 0.0000 0.0000 -1.7749 0.0000 -3.4829
# 5 0.5318 15.8161 22.5032 0.0000 23.8313 0.0000
# 6 0.0000 0.0000 0.0000 -3.4829 0.0000 9.9958
#
#
#
# Elastic Compliance Matrix: (Units=1/GPa)
#
#
# Indices 1 2 3 4 5 6 
#
# 1 0.022330 -0.000932 0.004239 0.000000 -0.003883 0.000000
# 2 -0.000932 0.006806 0.000439 0.000000 -0.004910 0.000000
# 3 0.004239 0.000439 0.026618 0.000000 -0.025520 0.000000
# 4 0.000000 0.000000 0.000000 -0.334628 0.000000 -0.116594
# 5 -0.003883 -0.004910 -0.025520 0.000000 0.069405 0.000000
# 6 0.000000 0.000000 0.000000 -0.116594 0.000000 0.059417
#
#
# Mechanical properties :
#
#
# Convention : Reuss Voigt Hill
#
# Bulk Modulus (GPa) = 15.81148 32.04068 23.92608
# Shear Modulus (GPa) = -36.63977 23.31661 -6.66158
#
# Velocity S-wave (km/s) = -3.96686 3.16448 -1.69145
# Velocity P-wave (km/s) = 3.76704 5.20699 2.54186
#
# Compressibility (1/GPa) = 0.06324518
#
# Stress axis : x y z
#
# Youngs Moduli (GPa) = 44.78363 146.93863 37.56866
#
# Poissons Ratio (x) = 0.13694 -0.15927
# Poissons Ratio (y) = 0.04174 -0.01648
# Poissons Ratio (z) = -0.18985 -0.06446
#
# Static dielectric constant tensor:
#      x y z
#    x 1.864650 0.000000 0.009490 
#    y 0.000000 1.899220 0.000000 
#    z 0.009490 0.000000 1.827340 
# 
# From -- ./inp_files/85015.got.cif
#   From: 2010.05.17/outbox.cif.g08.bks.cpg/sg10_43_cif.got.tgz:85015.got - 2010.06.03 11:33:40.
