data_PCOD9145105
_publ_section_title
;
Structure prediction by ZEFSAII (Michael W. Deem and Ramdas Pophale) SiO2 
 PCOD9145105
Probable space group: P 2/M
;
_chemical_formula_sum "Si O2"
_cell_formula_units_Z 28
_cell_length_a 5.256826
_cell_length_b 33.021113
_cell_length_c 6.724501
_cell_angle_alpha 90.000000
_cell_angle_beta 82.195304
_cell_angle_gamma 90.000000
_cell_volume 1156.468024
_symmetry_space_group_name_H-M "P 2/M"
_symmetry_group_IT_number 10
_symmetry_cell_setting 'monoclinic'
loop_
_space_group_symop_operation_xyz
x,y,z
-x,y,-z
-x,-y,-z
x,-y,z
loop_
_atom_site_type_symbol
_atom_site_label
_atom_site_fract_x
_atom_site_fract_y
_atom_site_fract_z
Si Si1 0.091325 0.630069 0.771247
Si Si2 0.597307 0.335717 0.764876
Si Si3 0.097353 0.748644 0.264925
Si Si4 0.726831 0.130928 0.139112
Si Si5 0.274531 0.043472 0.858250
Si Si6 0.772952 0.455979 0.361385
Si Si7 0.591463 0.217128 0.271025
O O1 0.325439 0.659348 0.681448
O O2 0.194231 0.584482 0.769247
O O3 0.820483 0.632447 0.684540
O O4 0.000000 0.643053 0.000000
O O5 0.749912 0.293531 0.749848
O O6 0.500000 0.343465 0.000000
O O7 0.320515 0.780473 0.184425
O O8 0.000000 0.756428 0.500000
O O9 0.825411 0.753523 0.181526
O O10 0.710123 0.087145 0.249389
O O11 0.694844 0.171564 0.268430
O O12 0.500000 0.131397 0.000000
O O13 0.000000 0.132874 0.000000
O O14 0.292833 0.000000 0.746800
O O15 0.500000 0.043466 0.000000
O O16 0.000000 0.043531 0.000000
O O17 0.500000 0.453851 0.500000
O O18 0.785778 0.500000 0.255464
O O19 0.000000 0.455502 0.500000
O O20 0.500000 0.229975 0.500000
#
# Coordination Sequence:
#
# PCOD9145105 Si02
#       7
#     4   4   4   4   4   4   4
#     4  10  21  37  56  80 109 139 171 208 256 308
#     4  10  21  36  54  78 105 132 168 215 258 297
#     4  10  21  36  53  73  98 133 173 207 250 308
#     4  10  19  31  50  76  99 127 171 211 248 301
#     4   8  14  25  42  66  96 125 156 201 250 293
#     4  10  21  37  57  83 112 141 176 215 252 294
#     4  10  21  36  51  71 102 134 165 208 258 304
#
# _framework density 24.211649000000001
#
# number of rings (size 3 to 8) (size 9 to 14) (size 15 to 20)
#    0.000    2.286    0.000    2.571    0.000    3.714 
#    0.000    0.000    0.000    5.571    0.000    0.000 
#    0.000   14.857    0.000    0.000    0.000    2.286 
#
# Total GULP energy -156271.848833 kJ/mol
# GULP energy per Si atom -5581.137458 kJ/mol
# Density = 2.415654 g / cm^3
# Si number density = 24.211649 Si / 1000 Ang^3
#
#
#
# Elastic Constant Matrix: (Units=GPa)
#
#
# Indices 1 2 3 4 5 6 
#
# 1 214.6125 43.7323 38.7157 0.0000 -37.5048 0.0000
# 2 43.7323 186.4580 4.5451 0.0000 -37.1795 0.0000
# 3 38.7157 4.5451 48.8280 0.0000 -21.3881 0.0000
# 4 0.0000 0.0000 0.0000 10.4830 0.0000 -0.6069
# 5 -37.5048 -37.1795 -21.3881 0.0000 43.7502 0.0000
# 6 0.0000 0.0000 0.0000 -0.6069 0.0000 23.7571
#
#
#
# Elastic Compliance Matrix: (Units=1/GPa)
#
#
# Indices 1 2 3 4 5 6 
#
# 1 0.005910 -0.000752 -0.003406 0.000000 0.002762 0.000000
# 2 -0.000752 0.006762 0.002802 0.000000 0.006471 0.000000
# 3 -0.003406 0.002802 0.028865 0.000000 0.013572 0.000000
# 4 0.000000 0.000000 0.000000 0.095534 0.000000 0.002440
# 5 0.002762 0.006471 0.013572 0.000000 0.037358 0.000000
# 6 0.000000 0.000000 0.000000 0.002440 0.000000 0.042155
#
#
# Mechanical properties :
#
#
# Convention : Reuss Voigt Hill
#
# Bulk Modulus (GPa) = 25.75849 69.32054 47.53952
# Shear Modulus (GPa) = 21.52955 39.79175 30.66065
#
# Velocity S-wave (km/s) = 2.98522 4.05840 3.56246
# Velocity P-wave (km/s) = 4.74805 7.11717 6.04972
#
# Compressibility (1/GPa) = 0.03882215
#
# Stress axis : x y z
#
# Youngs Moduli (GPa) = 169.20487 147.89483 34.64403
#
# Poissons Ratio (x) = 0.11128 0.11801
# Poissons Ratio (y) = 0.12732 -0.09706
# Poissons Ratio (z) = 0.57636 -0.41433
#
# Static dielectric constant tensor:
#      x y z
#    x 2.018380 0.000000 0.083700 
#    y 0.000000 1.982610 0.000000 
#    z 0.083700 0.000000 1.946980 
# 
# From -- ./inp_files/15822.got.cif
#   From: 2010.05.17/outbox.cif.g08.bks.cpg/sg10_8_cif.got.tgz:15822.got - 2010.06.03 11:33:40.
