data_PCOD9145525
_publ_section_title
;
Structure prediction by ZEFSAII (Michael W. Deem and Ramdas Pophale) SiO2 
 PCOD9145525
Probable space group: P 2/M
;
_chemical_formula_sum "Si O2"
_cell_formula_units_Z 20
_cell_length_a 7.928398
_cell_length_b 25.573673
_cell_length_c 9.353157
_cell_angle_alpha 90.000000
_cell_angle_beta 147.112569
_cell_angle_gamma 90.000000
_cell_volume 1029.742900
_symmetry_space_group_name_H-M "P 2/M"
_symmetry_group_IT_number 10
_symmetry_cell_setting 'monoclinic'
loop_
_space_group_symop_operation_xyz
x,y,z
-x,y,-z
-x,-y,-z
x,-y,z
loop_
_atom_site_type_symbol
_atom_site_label
_atom_site_fract_x
_atom_site_fract_y
_atom_site_fract_z
Si Si1 0.371295 0.887846 0.747535
Si Si2 0.808126 0.613187 0.120421
Si Si3 0.435622 0.330283 0.621496
Si Si4 0.371756 0.000000 0.747077
Si Si5 0.130705 0.500000 0.753947
Si Si6 0.370547 0.226195 0.747457
O O1 0.462986 0.943857 0.744610
O O2 0.463114 0.831174 0.752104
O O3 0.000000 0.887791 0.500000
O O4 0.500000 0.888012 0.000000
O O5 0.943092 0.554277 0.220174
O O6 0.080492 0.649243 0.377977
O O7 0.500000 0.615631 0.000000
O O8 0.676758 0.631824 0.874657
O O9 0.500000 0.327565 0.500000
O O10 0.470521 0.274212 0.721136
O O11 0.000000 0.000000 0.500000
O O12 0.500000 0.000000 0.000000
O O13 0.000000 0.500000 0.500000
O O14 0.500000 0.500000 0.000000
O O15 0.000000 0.227279 0.500000
O O16 0.500000 0.232039 0.000000
#
# Coordination Sequence:
#
# PCOD9145525 Si02
#       6
#     4   4   4   2   2   4
#     4   8  14  23  38  62  89 119 157 202 249 295
#     4  11  22  40  62  82 104 137 176 212 252 309
#     4  12  24  37  53  80 112 141 172 215 264 306
#     4   8  12  20  34  56  89 118 145 196 257 294
#     4  10  20  36  61  88 105 128 173 218 251 298
#     4  10  19  32  51  72  96 132 176 212 248 302
#
# _framework density 19.422322999999999
#
# number of rings (size 3 to 8) (size 9 to 14) (size 15 to 20)
#    0.000    2.000    0.000    6.600    0.000    0.000 
#    0.000    3.000    0.000    0.000    0.000    0.700 
#    0.000    0.000    0.000   50.400    0.000    2.700 
#
# Total GULP energy -111466.159146 kJ/mol
# GULP energy per Si atom -5573.307957 kJ/mol
# Density = 1.937812 g / cm^3
# Si number density = 19.422323 Si / 1000 Ang^3
#
#
#
# Elastic Constant Matrix: (Units=GPa)
#
#
# Indices 1 2 3 4 5 6 
#
# 1 35.9217 39.1565 16.6979 0.0000 -13.4346 0.0000
# 2 39.1565 218.6475 51.4218 0.0000 -25.9092 0.0000
# 3 16.6979 51.4218 161.7186 0.0000 -7.6402 0.0000
# 4 0.0000 0.0000 0.0000 30.4804 0.0000 0.1261
# 5 -13.4346 -25.9092 -7.6402 0.0000 27.1360 0.0000
# 6 0.0000 0.0000 0.0000 0.1261 0.0000 -4.8842
#
#
#
# Elastic Compliance Matrix: (Units=1/GPa)
#
#
# Indices 1 2 3 4 5 6 
#
# 1 0.039409 -0.004936 -0.001825 0.000000 0.014285 0.000000
# 2 -0.004936 0.006122 -0.001293 0.000000 0.003037 0.000000
# 3 -0.001825 -0.001293 0.006772 0.000000 -0.000232 0.000000
# 4 0.000000 0.000000 0.000000 0.032805 0.000000 0.000847
# 5 0.014285 0.003037 -0.000232 0.000000 0.046758 0.000000
# 6 0.000000 0.000000 0.000000 0.000847 0.000000 -0.204719
#
#
# Mechanical properties :
#
#
# Convention : Reuss Voigt Hill
#
# Bulk Modulus (GPa) = 27.62801 70.09337 48.86069
# Shear Modulus (GPa) = -111.90600 31.14719 -40.37941
#
# Velocity S-wave (km/s) = -7.59883 4.00894 -4.56457
# Velocity P-wave (km/s) = 7.92048 7.58922 1.60277
#
# Compressibility (1/GPa) = 0.03619516
#
# Stress axis : x y z
#
# Youngs Moduli (GPa) = 25.37478 163.35746 147.66005
#
# Poissons Ratio (x) = 0.80629 0.26946
# Poissons Ratio (y) = 0.12524 0.19098
# Poissons Ratio (z) = 0.04630 0.21128
#
# Static dielectric constant tensor:
#      x y z
#    x 1.632920 0.000000 0.011370 
#    y 0.000000 1.813810 0.000000 
#    z 0.011370 0.000000 1.632460 
# 
# From -- ./inp_files/20716.got.cif
#   From: 2010.05.17/outbox.cif.g08.bks.cpg/sg10_11_cif.got.tgz:20716.got - 2010.06.03 11:33:40.
