data_PCOD9145637
_publ_section_title
;
Structure prediction by ZEFSAII (Michael W. Deem and Ramdas Pophale) SiO2 
 PCOD9145637
Probable space group: P 2/M
;
_chemical_formula_sum "Si O2"
_cell_formula_units_Z 32
_cell_length_a 10.902786
_cell_length_b 7.326943
_cell_length_c 16.845581
_cell_angle_alpha 90.000000
_cell_angle_beta 74.539289
_cell_angle_gamma 90.000000
_cell_volume 1296.997952
_symmetry_space_group_name_H-M "P 2/M"
_symmetry_group_IT_number 10
_symmetry_cell_setting 'monoclinic'
loop_
_space_group_symop_operation_xyz
x,y,z
-x,y,-z
-x,-y,-z
x,-y,z
loop_
_atom_site_type_symbol
_atom_site_label
_atom_site_fract_x
_atom_site_fract_y
_atom_site_fract_z
Si Si1 0.966969 0.721035 0.095067
Si Si2 0.690062 0.720315 0.135177
Si Si3 0.959168 0.794095 0.627234
Si Si4 0.649662 0.711927 0.967858
Si Si5 0.725864 0.779155 0.573104
Si Si6 0.173102 0.719564 0.191172
Si Si7 0.463357 0.212917 0.689497
Si Si8 0.240826 0.779916 0.613234
O O1 0.967502 0.500000 0.091785
O O2 0.826423 0.777003 0.146108
O O3 0.069410 0.771863 0.142528
O O4 0.000000 0.782369 0.000000
O O5 0.684154 0.500000 0.131974
O O6 0.575755 0.774536 0.211860
O O7 0.693567 0.790218 0.044204
O O8 0.865106 0.711183 0.577296
O O9 0.866210 0.801021 0.719083
O O10 0.093611 0.713486 0.634545
O O11 0.992230 0.000000 0.595255
O O12 0.694182 0.500000 0.960968
O O13 0.698550 0.780761 0.875128
O O14 0.500000 0.715865 0.000000
O O15 0.602760 0.712716 0.643380
O O16 0.705864 0.741780 0.483862
O O17 0.733360 0.000000 0.580719
O O18 0.172675 0.500000 0.203678
O O19 0.342718 0.289260 0.660277
O O20 0.470619 0.000000 0.666386
O O21 0.233560 0.000000 0.626261
#
# Coordination Sequence:
#
# PCOD9145637 Si02
#       8
#     4   4   4   4   4   4   4   4
#     4   9  15  28  49  71  91 121 169 212 239 274
#     4  10  19  32  52  74  99 131 169 208 246 291
#     4  10  20  33  52  78 105 129 162 209 253 295
#     4   9  18  31  48  70  95 131 176 210 233 280
#     4   9  18  33  54  77 100 131 169 205 243 296
#     4  10  19  32  52  74  99 131 169 208 246 291
#     4  10  20  33  52  78 105 129 162 209 253 295
#     4   9  17  33  56  77  98 131 171 204 241 297
#
# _framework density 24.672357999999999
#
# number of rings (size 3 to 8) (size 9 to 14) (size 15 to 20)
#    0.000    2.500    1.250    1.500    1.750    3.000 
#    0.000    0.625    0.000    6.000    0.000    0.000 
#    0.000    0.000    0.000    0.000    0.000    0.000 
#
# Total GULP energy -178701.544158 kJ/mol
# GULP energy per Si atom -5584.423255 kJ/mol
# Density = 2.461620 g / cm^3
# Si number density = 24.672358 Si / 1000 Ang^3
#
#
#
# Elastic Constant Matrix: (Units=GPa)
#
#
# Indices 1 2 3 4 5 6 
#
# 1 82.0770 9.5882 11.1736 0.0000 -16.9416 0.0000
# 2 9.5882 94.7196 -8.8145 0.0000 -0.2151 0.0000
# 3 11.1736 -8.8145 70.7951 0.0000 -24.5953 0.0000
# 4 0.0000 0.0000 0.0000 10.1560 0.0000 -10.2391
# 5 -16.9416 -0.2151 -24.5953 0.0000 46.0436 0.0000
# 6 0.0000 0.0000 0.0000 -10.2391 0.0000 -12.0624
#
#
#
# Elastic Compliance Matrix: (Units=1/GPa)
#
#
# Indices 1 2 3 4 5 6 
#
# 1 0.013382 -0.001410 -0.000711 0.000000 0.004537 0.000000
# 2 -0.001410 0.010863 0.001734 0.000000 0.000458 0.000000
# 3 -0.000711 0.001734 0.017639 0.000000 0.009169 0.000000
# 4 0.000000 0.000000 0.000000 0.053058 0.000000 -0.045038
# 5 0.004537 0.000458 0.009169 0.000000 0.028288 0.000000
# 6 0.000000 0.000000 0.000000 -0.045038 0.000000 -0.044672
#
#
# Mechanical properties :
#
#
# Convention : Reuss Voigt Hill
#
# Bulk Modulus (GPa) = 24.32611 30.16513 27.24562
# Shear Modulus (GPa) = 53.74364 24.53707 39.14035
#
# Velocity S-wave (km/s) = 4.67228 3.15702 3.98729
# Velocity P-wave (km/s) = 6.24404 5.05389 5.68022
#
# Compressibility (1/GPa) = 0.04110809
#
# Stress axis : x y z
#
# Youngs Moduli (GPa) = 74.72819 92.05824 56.69331
#
# Poissons Ratio (x) = 0.12985 0.04033
# Poissons Ratio (y) = 0.10540 -0.09832
# Poissons Ratio (z) = 0.05316 -0.15966
#
# Static dielectric constant tensor:
#      x y z
#    x 1.988100 0.000000 -0.000370 
#    y 0.000000 1.987520 0.000000 
#    z -0.000370 0.000000 1.935760 
# 
# From -- ./inp_files/64381.got.cif
#   From: 2010.05.17/outbox.cif.g08.bks.cpg/sg10_33_cif.got.tgz:64381.got - 2010.06.03 11:33:40.
