data_PCOD9145896
_publ_section_title
;
Structure prediction by ZEFSAII (Michael W. Deem and Ramdas Pophale) SiO2 
 PCOD9145896
Probable space group: P 2/M
;
_chemical_formula_sum "Si O2"
_cell_formula_units_Z 32
_cell_length_a 29.821930
_cell_length_b 7.551302
_cell_length_c 12.342352
_cell_angle_alpha 90.000000
_cell_angle_beta 32.363930
_cell_angle_gamma 90.000000
_cell_volume 1487.814623
_symmetry_space_group_name_H-M "P 2/M"
_symmetry_group_IT_number 10
_symmetry_cell_setting 'monoclinic'
loop_
_space_group_symop_operation_xyz
x,y,z
-x,y,-z
-x,-y,-z
x,-y,z
loop_
_atom_site_type_symbol
_atom_site_label
_atom_site_fract_x
_atom_site_fract_y
_atom_site_fract_z
Si Si1 0.336677 0.209926 0.564695
Si Si2 0.836003 0.716464 0.570912
Si Si3 0.005569 0.717020 0.612653
Si Si4 0.850930 0.709881 0.073292
Si Si5 0.097950 0.284093 0.797247
Si Si6 0.651369 0.285800 0.930537
Si Si7 0.512604 0.209963 0.595094
Si Si8 0.404809 0.287903 0.188738
O O1 0.242032 0.265730 0.781946
O O2 0.408789 0.283806 0.496813
O O3 0.358617 0.253586 0.395491
O O4 0.339300 0.000000 0.568176
O O5 0.836843 0.500000 0.569556
O O6 0.908774 0.773246 0.503865
O O7 0.859905 0.773878 0.400365
O O8 0.741662 0.773727 0.789451
O O9 0.005052 0.500000 0.614068
O O10 0.000000 0.773905 0.500000
O O11 0.925440 0.778224 0.845541
O O12 0.865511 0.500000 0.051902
O O13 0.858976 0.778896 0.179941
O O14 0.101573 0.500000 0.788066
O O15 0.000000 0.235798 0.000000
O O16 0.652357 0.500000 0.927643
O O17 0.571846 0.231745 0.163414
O O18 0.638922 0.223875 0.831811
O O19 0.500000 0.283867 0.500000
O O20 0.527996 0.000000 0.551737
O O21 0.409621 0.500000 0.168280
O O22 0.500000 0.218853 0.000000
#
# Coordination Sequence:
#
# PCOD9145896 Si02
#       8
#     4   4   4   4   4   4   4   4
#     4  11  23  37  56  80 108 144 183 223 270 325
#     4   9  16  27  45  73 105 133 166 207 253 309
#     4   9  17  29  46  73 107 137 168 212 265 315
#     4  10  19  32  54  80 106 138 176 220 267 315
#     4   9  14  25  48  76 103 135 172 207 250 310
#     4  10  20  34  56  85 112 138 171 220 273 320
#     4  10  23  42  58  73 101 144 189 227 265 318
#     4  10  19  34  57  84 113 139 169 216 273 329
#
# _framework density 21.508057000000001
#
# number of rings (size 3 to 8) (size 9 to 14) (size 15 to 20)
#    0.000    2.250    2.500    1.125    0.000    4.500 
#    0.000    1.250    0.000    1.500    0.000    0.000 
#    0.000    0.000    0.000    0.000    0.000    0.000 
#
# Total GULP energy -178747.263438 kJ/mol
# GULP energy per Si atom -5585.851982 kJ/mol
# Density = 2.145910 g / cm^3
# Si number density = 21.508057 Si / 1000 Ang^3
#
#
#
# Elastic Constant Matrix: (Units=GPa)
#
#
# Indices 1 2 3 4 5 6 
#
# 1 202.6065 3.3123 117.5600 0.0000 -4.1366 0.0000
# 2 3.3123 46.4413 -8.5009 0.0000 2.9971 0.0000
# 3 117.5600 -8.5009 100.8055 0.0000 -26.7036 0.0000
# 4 0.0000 0.0000 0.0000 -50.1714 0.0000 2.6399
# 5 -4.1366 2.9971 -26.7036 0.0000 38.4072 0.0000
# 6 0.0000 0.0000 0.0000 2.6399 0.0000 -1.5993
#
#
#
# Elastic Compliance Matrix: (Units=1/GPa)
#
#
# Indices 1 2 3 4 5 6 
#
# 1 0.025795 -0.007102 -0.036525 0.000000 -0.022063 0.000000
# 2 -0.007102 0.023834 0.011763 0.000000 0.005554 0.000000
# 3 -0.036525 0.011763 0.064013 0.000000 0.039655 0.000000
# 4 0.000000 0.000000 0.000000 -0.021827 0.000000 -0.036030
# 5 -0.022063 0.005554 0.039655 0.000000 0.050798 0.000000
# 6 0.000000 0.000000 0.000000 -0.036030 0.000000 -0.684753
#
#
# Mechanical properties :
#
#
# Convention : Reuss Voigt Hill
#
# Bulk Modulus (GPa) = 20.03457 63.84400 41.93929
# Shear Modulus (GPa) = -10.82776 13.15944 1.16584
#
# Velocity S-wave (km/s) = -2.24615 2.47622 0.73704
# Velocity P-wave (km/s) = 1.61499 6.15823 4.50177
#
# Compressibility (1/GPa) = 0.04991373
#
# Stress axis : x y z
#
# Youngs Moduli (GPa) = 38.76766 41.95713 15.62189
#
# Poissons Ratio (x) = 0.29797 0.57059
# Poissons Ratio (y) = 0.27532 -0.18376
# Poissons Ratio (z) = 1.41600 -0.49355
#
# Static dielectric constant tensor:
#      x y z
#    x 1.770720 0.000000 0.001970 
#    y 0.000000 1.817010 0.000000 
#    z 0.001970 0.000000 1.704540 
# 
# From -- ./inp_files/58115.got.cif
#   From: 2010.05.17/outbox.cif.g08.bks.cpg/sg10_30_cif.got.tgz:58115.got - 2010.06.03 11:33:40.
