data_PCOD9145285
_publ_section_title
;
Structure prediction by ZEFSAII (Michael W. Deem and Ramdas Pophale) SiO2 
 PCOD9145285
Probable space group: P 2/M
;
_chemical_formula_sum "Si O2"
_cell_formula_units_Z 32
_cell_length_a 9.380711
_cell_length_b 20.435488
_cell_length_c 12.155228
_cell_angle_alpha 90.000000
_cell_angle_beta 51.866477
_cell_angle_gamma 90.000000
_cell_volume 1832.835098
_symmetry_space_group_name_H-M "P 2/M"
_symmetry_group_IT_number 10
_symmetry_cell_setting 'monoclinic'
loop_
_space_group_symop_operation_xyz
x,y,z
-x,y,-z
-x,-y,-z
x,-y,z
loop_
_atom_site_type_symbol
_atom_site_label
_atom_site_fract_x
_atom_site_fract_y
_atom_site_fract_z
Si Si1 0.552739 0.800619 0.291815
Si Si2 0.195470 0.296367 0.951323
Si Si3 0.789475 0.193160 0.391374
Si Si4 0.247657 0.574048 0.221472
Si Si5 0.620106 0.840295 0.833043
Si Si6 0.139152 0.717179 0.236852
Si Si7 0.971037 0.925588 0.644997
Si Si8 0.660627 0.571061 0.082804
O O1 0.641490 0.740928 0.184002
O O2 0.369975 0.789522 0.447676
O O3 0.701868 0.816322 0.313187
O O4 0.500365 0.850077 0.218752
O O5 0.228363 0.372430 0.912522
O O6 0.202145 0.286950 0.079352
O O7 0.000000 0.274737 0.000000
O O8 0.941777 0.249416 0.326956
O O9 0.883295 0.125022 0.377634
O O10 0.177227 0.500000 0.284579
O O11 0.144379 0.643651 0.284539
O O12 0.443988 0.581846 0.185498
O O13 0.286029 0.570910 0.071877
O O14 0.725948 0.770223 0.771954
O O15 0.775160 0.895033 0.765250
O O16 0.500000 0.839106 0.000000
O O17 0.000000 0.925333 0.500000
O O18 0.989019 0.000000 0.676041
O O19 0.699744 0.500000 0.111175
#
# Coordination Sequence:
#
# PCOD9145285 Si02
#       8
#     4   4   4   4   4   4   4   4
#     4  11  21  36  54  83 112 146 179 226 270 321
#     4  11  19  30  49  78 109 141 181 229 283 326
#     4  10  22  38  56  80 115 145 184 221 271 326
#     4   8  14  26  45  71 104 137 179 230 278 322
#     4  11  21  34  59  87 113 142 184 226 272 321
#     4  10  19  31  53  82 105 144 185 230 276 323
#     4  10  21  41  63  85 114 145 181 223 264 319
#     4   8  15  26  42  68 103 138 177 229 279 326
#
# _framework density 17.459289999999999
#
# number of rings (size 3 to 8) (size 9 to 14) (size 15 to 20)
#    0.000    2.125    3.750    1.500    1.750    0.500 
#    0.000    1.875    0.000    1.500    0.000    4.375 
#    0.000    0.000    0.000    0.000    0.000    0.000 
#
# Total GULP energy -178200.085728 kJ/mol
# GULP energy per Si atom -5568.752679 kJ/mol
# Density = 1.741955 g / cm^3
# Si number density = 17.459290 Si / 1000 Ang^3
#
#
#
# Elastic Constant Matrix: (Units=GPa)
#
#
# Indices 1 2 3 4 5 6 
#
# 1 62.1176 30.9159 33.1872 0.0000 -13.9710 0.0000
# 2 30.9159 127.6965 33.8319 0.0000 -24.8867 0.0000
# 3 33.1872 33.8319 60.5615 0.0000 -11.7077 0.0000
# 4 0.0000 0.0000 0.0000 86.3230 0.0000 24.7523
# 5 -13.9710 -24.8867 -11.7077 0.0000 23.5592 0.0000
# 6 0.0000 0.0000 0.0000 24.7523 0.0000 21.0048
#
#
#
# Elastic Compliance Matrix: (Units=1/GPa)
#
#
# Indices 1 2 3 4 5 6 
#
# 1 0.024461 -0.001543 -0.011122 0.000000 0.007349 0.000000
# 2 -0.001543 0.010851 -0.003515 0.000000 0.008801 0.000000
# 3 -0.011122 -0.003515 0.024977 0.000000 0.002104 0.000000
# 4 0.000000 0.000000 0.000000 0.017496 0.000000 -0.020618
# 5 0.007349 0.008801 0.002104 0.000000 0.057146 0.000000
# 6 0.000000 0.000000 0.000000 -0.020618 0.000000 0.071904
#
#
# Mechanical properties :
#
#
# Convention : Reuss Voigt Hill
#
# Bulk Modulus (GPa) = 35.80434 49.58286 42.69360
# Shear Modulus (GPa) = 20.12022 36.34012 28.23017
#
# Velocity S-wave (km/s) = 3.39840 4.56721 4.02545
# Velocity P-wave (km/s) = 5.99589 7.50155 6.79058
#
# Compressibility (1/GPa) = 0.02792957
#
# Stress axis : x y z
#
# Youngs Moduli (GPa) = 40.88070 92.15685 40.03682
#
# Poissons Ratio (x) = 0.14224 0.44528
# Poissons Ratio (y) = 0.06310 0.14072
# Poissons Ratio (z) = 0.45467 0.32390
#
# Static dielectric constant tensor:
#      x y z
#    x 1.607230 0.000000 -0.001260 
#    y 0.000000 1.609360 0.000000 
#    z -0.001260 0.000000 1.582270 
# 
# From -- ./inp_files/43604.got.cif
#   From: 2010.05.17/outbox.cif.g08.bks.cpg/sg10_22_cif.got.tgz:43604.got - 2010.06.03 11:33:40.
