data_PCOD9145390
_publ_section_title
;
Structure prediction by ZEFSAII (Michael W. Deem and Ramdas Pophale) SiO2 
 PCOD9145390
Probable space group: P 2/M
;
_chemical_formula_sum "Si O2"
_cell_formula_units_Z 28
_cell_length_a 15.072089
_cell_length_b 9.014772
_cell_length_c 19.474969
_cell_angle_alpha 90.000000
_cell_angle_beta 38.222989
_cell_angle_gamma 90.000000
_cell_volume 1637.199843
_symmetry_space_group_name_H-M "P 2/M"
_symmetry_group_IT_number 10
_symmetry_cell_setting 'monoclinic'
loop_
_space_group_symop_operation_xyz
x,y,z
-x,y,-z
-x,-y,-z
x,-y,z
loop_
_atom_site_type_symbol
_atom_site_label
_atom_site_fract_x
_atom_site_fract_y
_atom_site_fract_z
Si Si1 0.370893 0.677483 0.395331
Si Si2 0.678719 0.678314 0.162295
Si Si3 0.892399 0.677334 0.912208
Si Si4 0.187054 0.178938 0.785001
Si Si5 0.963359 0.829073 0.732727
Si Si6 0.701085 0.169792 0.425062
Si Si7 0.054496 0.320901 0.542159
O O1 0.367051 0.500000 0.400563
O O2 0.511930 0.721601 0.267764
O O3 0.377742 0.737376 0.468881
O O4 0.220163 0.725781 0.453591
O O5 0.689264 0.500000 0.166762
O O6 0.757603 0.760019 0.176794
O O7 0.757947 0.710890 0.042861
O O8 0.912417 0.500000 0.896663
O O9 0.032886 0.750603 0.861351
O O10 0.880661 0.743150 0.843010
O O11 0.293927 0.220671 0.656926
O O12 0.175996 0.000000 0.791496
O O13 0.130607 0.827368 0.655311
O O14 0.963362 0.750611 0.659059
O O15 0.918760 0.000000 0.755611
O O16 0.650689 0.000000 0.458561
O O17 0.047361 0.500000 0.552355
O O18 0.000000 0.278824 0.500000
#
# Coordination Sequence:
#
# PCOD9145390 Si02
#       7
#     4   4   4   4   4   4   4
#     4   9  18  32  48  68  95 124 154 190 235 286
#     4  10  21  33  45  65  94 128 162 197 237 277
#     4  10  19  32  49  67  92 126 164 201 233 271
#     4  10  20  32  47  68  93 123 163 206 240 272
#     4   9  17  30  49  73  98 123 154 192 235 280
#     4   8  16  30  45  64  91 121 153 191 234 278
#     4   9  17  31  54  80 100 120 150 189 234 285
#
# _framework density 17.102371000000002
#
# number of rings (size 3 to 8) (size 9 to 14) (size 15 to 20)
#    0.000    2.714    0.000    2.571    0.000    8.286 
#    0.000    2.857    0.000    0.857    0.000    6.000 
#    0.000    0.000    0.000    0.000    0.000    0.000 
#
# Total GULP energy -156108.608458 kJ/mol
# GULP energy per Si atom -5575.307445 kJ/mol
# Density = 1.706345 g / cm^3
# Si number density = 17.102371 Si / 1000 Ang^3
#
#
#
# Elastic Constant Matrix: (Units=GPa)
#
#
# Indices 1 2 3 4 5 6 
#
# 1 34.4513 37.9372 83.3828 0.0000 30.3153 0.0000
# 2 37.9372 41.9392 55.7740 0.0000 12.1000 0.0000
# 3 83.3828 55.7740 155.5926 0.0000 21.5647 0.0000
# 4 0.0000 0.0000 0.0000 -7.9089 0.0000 6.7551
# 5 30.3153 12.1000 21.5647 0.0000 26.5467 0.0000
# 6 0.0000 0.0000 0.0000 6.7551 0.0000 14.5934
#
#
#
# Elastic Compliance Matrix: (Units=1/GPa)
#
#
# Indices 1 2 3 4 5 6 
#
# 1 -0.038229 0.008262 0.013519 0.000000 0.028908 0.000000
# 2 0.008262 0.045527 -0.018665 0.000000 -0.015024 0.000000
# 3 0.013519 -0.018665 0.007701 0.000000 -0.013186 0.000000
# 4 0.000000 0.000000 0.000000 -0.090615 0.000000 0.041944
# 5 0.028908 -0.015024 -0.013186 0.000000 0.022217 0.000000
# 6 0.000000 0.000000 0.000000 0.041944 0.000000 0.049109
#
#
# Mechanical properties :
#
#
# Convention : Reuss Voigt Hill
#
# Bulk Modulus (GPa) = 47.10209 65.13012 56.11610
# Shear Modulus (GPa) = -1451.69217 10.30551 -720.69333
#
# Velocity S-wave (km/s) = -29.16621 2.45741 -20.55029
# Velocity P-wave (km/s) = 33.26594 6.79831 23.02613
#
# Compressibility (1/GPa) = 0.02123048
#
# Stress axis : x y z
#
# Youngs Moduli (GPa) = -26.15837 21.96475 129.86042
#
# Poissons Ratio (x) = -0.18148 -1.75554
# Poissons Ratio (y) = 0.21612 2.42388
# Poissons Ratio (z) = 0.35363 0.40998
#
# Static dielectric constant tensor:
#      x y z
#    x 1.565790 0.000000 -0.009350 
#    y 0.000000 1.578270 0.000000 
#    z -0.009350 0.000000 1.594590 
# 
# From -- ./inp_files/54661.got.cif
#   From: 2010.05.17/outbox.cif.g08.bks.cpg/sg10_28_cif.got.tgz:54661.got - 2010.06.03 11:33:40.
