data_PCOD9145488
_publ_section_title
;
Structure prediction by ZEFSAII (Michael W. Deem and Ramdas Pophale) SiO2 
 PCOD9145488
Probable space group: P 2/M
;
_chemical_formula_sum "Si O2"
_cell_formula_units_Z 18
_cell_length_a 12.770257
_cell_length_b 16.693424
_cell_length_c 14.718383
_cell_angle_alpha 90.000000
_cell_angle_beta 160.220455
_cell_angle_gamma 90.000000
_cell_volume 1061.788652
_symmetry_space_group_name_H-M "P 2/M"
_symmetry_group_IT_number 10
_symmetry_cell_setting 'monoclinic'
loop_
_space_group_symop_operation_xyz
x,y,z
-x,y,-z
-x,-y,-z
x,-y,z
loop_
_atom_site_type_symbol
_atom_site_label
_atom_site_fract_x
_atom_site_fract_y
_atom_site_fract_z
Si Si1 0.526827 0.594477 0.416843
Si Si2 0.164956 0.332797 0.956179
Si Si3 0.637971 0.591616 0.213291
Si Si4 0.870795 0.823886 0.791996
Si Si5 0.867589 0.000000 0.790467
O O1 0.500000 0.620695 0.500000
O O2 0.469002 0.500000 0.365196
O O3 0.287758 0.636505 0.154272
O O4 0.883136 0.614383 0.685892
O O5 0.453862 0.346826 0.125998
O O6 0.025280 0.244923 0.857721
O O7 0.601864 0.500000 0.221035
O O8 0.000000 0.608579 0.500000
O O9 0.500000 0.592587 0.000000
O O10 0.500000 0.814970 0.500000
O O11 0.947702 0.912884 0.816171
O O12 0.000000 0.818512 0.000000
O O13 0.500000 0.000000 0.500000
O O14 0.000000 0.000000 0.000000
#
# Coordination Sequence:
#
# PCOD9145488 Si02
#       5
#     4   4   4   4   2
#     4  11  22  33  46  69 102 134 161 191 235 295
#     4  12  21  33  52  72  95 129 167 207 245 285
#     4  10  21  36  51  67  89 122 168 216 254 285
#     4  10  19  32  50  75 104 130 158 192 235 293
#     4   8  16  30  48  70 100 132 156 186 230 284
#
# _framework density 16.952525000000001
#
# number of rings (size 3 to 8) (size 9 to 14) (size 15 to 20)
#    0.000    1.556    0.000    7.333    0.000    3.556 
#    0.000    0.000    0.000    0.000    0.000    1.556 
#    0.000    0.000    0.000    0.000    0.000    0.000 
#
# Total GULP energy -100470.648768 kJ/mol
# GULP energy per Si atom -5581.702709 kJ/mol
# Density = 1.691394 g / cm^3
# Si number density = 16.952525 Si / 1000 Ang^3
#
#
#
# Elastic Constant Matrix: (Units=GPa)
#
#
# Indices 1 2 3 4 5 6 
#
# 1 49.8454 40.0538 20.9846 0.0000 10.5074 0.0000
# 2 40.0538 133.6632 32.5306 0.0000 15.4536 0.0000
# 3 20.9846 32.5306 120.2559 0.0000 -4.7021 0.0000
# 4 0.0000 0.0000 0.0000 24.8619 0.0000 3.7169
# 5 10.5074 15.4536 -4.7021 0.0000 30.9857 0.0000
# 6 0.0000 0.0000 0.0000 3.7169 0.0000 4.2937
#
#
#
# Elastic Compliance Matrix: (Units=1/GPa)
#
#
# Indices 1 2 3 4 5 6 
#
# 1 0.028461 -0.006938 -0.003351 0.000000 -0.006699 0.000000
# 2 -0.006938 0.010328 -0.001703 0.000000 -0.003057 0.000000
# 3 -0.003351 -0.001703 0.009495 0.000000 0.003427 0.000000
# 4 0.000000 0.000000 0.000000 0.046202 0.000000 -0.039995
# 5 -0.006699 -0.003057 0.003427 0.000000 0.036589 0.000000
# 6 0.000000 0.000000 0.000000 -0.039995 0.000000 0.267521
#
#
# Mechanical properties :
#
#
# Convention : Reuss Voigt Hill
#
# Bulk Modulus (GPa) = 41.15388 54.54472 47.84930
# Shear Modulus (GPa) = 11.60952 26.04128 18.82540
#
# Velocity S-wave (km/s) = 2.61976 3.92360 3.33600
# Velocity P-wave (km/s) = 5.78615 7.26437 6.56698
#
# Compressibility (1/GPa) = 0.02429905
#
# Stress axis : x y z
#
# Youngs Moduli (GPa) = 35.13635 96.81978 105.31843
#
# Poissons Ratio (x) = 0.67177 0.35296
# Poissons Ratio (y) = 0.24379 0.17933
# Poissons Ratio (z) = 0.11776 0.16486
#
# Static dielectric constant tensor:
#      x y z
#    x 1.564820 0.000000 0.008760 
#    y 0.000000 1.617800 0.000000 
#    z 0.008760 0.000000 1.592380 
# 
# From -- ./inp_files/6571.got.cif
#   From: 2010.05.17/outbox.cif.g08.bks.cpg/sg10_4_cif.got.tgz:6571.got - 2010.06.03 11:33:40.
