data_PCOD9145686
_publ_section_title
;
Structure prediction by ZEFSAII (Michael W. Deem and Ramdas Pophale) SiO2 
 PCOD9145686
Probable space group: P 2/M
;
_chemical_formula_sum "Si O2"
_cell_formula_units_Z 32
_cell_length_a 31.388183
_cell_length_b 7.429787
_cell_length_c 13.101950
_cell_angle_alpha 90.000000
_cell_angle_beta 152.430357
_cell_angle_gamma 90.000000
_cell_volume 1414.153757
_symmetry_space_group_name_H-M "P 2/M"
_symmetry_group_IT_number 10
_symmetry_cell_setting 'monoclinic'
loop_
_space_group_symop_operation_xyz
x,y,z
-x,y,-z
-x,-y,-z
x,-y,z
loop_
_atom_site_type_symbol
_atom_site_label
_atom_site_fract_x
_atom_site_fract_y
_atom_site_fract_z
Si Si1 0.336114 0.708042 0.417026
Si Si2 0.241737 0.279347 0.849982
Si Si3 0.274631 0.293058 0.694653
Si Si4 0.136678 0.786596 0.039474
Si Si5 0.036821 0.284910 0.469670
Si Si6 0.104437 0.218089 0.200659
Si Si7 0.403984 0.279775 0.346781
Si Si8 0.606671 0.280963 0.240364
O O1 0.365515 0.500000 0.484772
O O2 0.387013 0.784316 0.426340
O O3 0.358053 0.786305 0.575087
O O4 0.225708 0.712893 0.169911
O O5 0.239665 0.500000 0.843005
O O6 0.272468 0.215639 0.803157
O O7 0.138312 0.217994 0.656142
O O8 0.316912 0.226556 0.093109
O O9 0.305475 0.500000 0.772080
O O10 0.172299 0.288249 0.431145
O O11 0.336767 0.212005 0.736849
O O12 0.040698 0.748878 0.779928
O O13 0.148314 0.000000 0.067701
O O14 0.134775 0.719973 0.152346
O O15 0.045528 0.500000 0.498211
O O16 0.000000 0.214584 0.500000
O O17 0.108431 0.000000 0.210989
O O18 0.000000 0.271747 0.000000
O O19 0.500000 0.223410 0.500000
O O20 0.404495 0.500000 0.349834
O O21 0.617729 0.500000 0.264205
O O22 0.500000 0.240373 0.000000
#
# Coordination Sequence:
#
# PCOD9145686 Si02
#       8
#     4   4   4   4   4   4   4   4
#     4  10  19  34  56  80 109 143 179 218 265 320
#     4   9  18  31  48  76 108 136 171 218 266 308
#     4  10  19  32  52  77 107 137 171 217 262 313
#     4  11  22  35  54  79 107 139 178 223 266 315
#     4  10  20  35  55  77 106 142 179 220 265 315
#     4  10  21  36  52  73 105 142 177 216 264 317
#     4   9  18  31  52  82 110 138 174 217 263 311
#     4   9  18  30  49  79 108 136 171 217 268 312
#
# _framework density 22.628371000000001
#
# number of rings (size 3 to 8) (size 9 to 14) (size 15 to 20)
#    0.000    2.250    1.250    1.875    1.750    3.000 
#    0.000    0.000    0.000    2.625    0.000    0.000 
#    0.000    0.000    0.000    0.000    0.000    0.000 
#
# Total GULP energy -178863.703252 kJ/mol
# GULP energy per Si atom -5589.490727 kJ/mol
# Density = 2.257687 g / cm^3
# Si number density = 22.628371 Si / 1000 Ang^3
#
#
#
# Elastic Constant Matrix: (Units=GPa)
#
#
# Indices 1 2 3 4 5 6 
#
# 1 190.9841 15.6557 59.7880 0.0000 -2.7268 0.0000
# 2 15.6557 73.1999 -2.6963 0.0000 -3.0359 0.0000
# 3 59.7880 -2.6963 102.6347 0.0000 0.8152 0.0000
# 4 0.0000 0.0000 0.0000 -154.6779 0.0000 -29.1796
# 5 -2.7268 -3.0359 0.8152 0.0000 38.4808 0.0000
# 6 0.0000 0.0000 0.0000 -29.1796 0.0000 -3.4192
#
#
#
# Elastic Compliance Matrix: (Units=1/GPa)
#
#
# Indices 1 2 3 4 5 6 
#
# 1 0.006582 -0.001533 -0.003878 0.000000 0.000428 0.000000
# 2 -0.001533 0.014076 0.001255 0.000000 0.000975 0.000000
# 3 -0.003878 0.001255 0.012039 0.000000 -0.000431 0.000000
# 4 0.000000 0.000000 0.000000 0.010600 0.000000 -0.090459
# 5 0.000428 0.000975 -0.000431 0.000000 0.026103 0.000000
# 6 0.000000 0.000000 0.000000 -0.090459 0.000000 0.479512
#
#
# Mechanical properties :
#
#
# Convention : Reuss Voigt Hill
#
# Bulk Modulus (GPa) = 41.00902 56.92372 48.96637
# Shear Modulus (GPa) = 8.84407 -4.31849 2.26279
#
# Velocity S-wave (km/s) = 1.97911 -1.38296 1.00107
# Velocity P-wave (km/s) = 4.83577 4.76029 4.79818
#
# Compressibility (1/GPa) = 0.02438488
#
# Stress axis : x y z
#
# Youngs Moduli (GPa) = 151.93594 71.04434 83.06626
#
# Poissons Ratio (x) = 0.10889 0.32211
# Poissons Ratio (y) = 0.23288 -0.10424
# Poissons Ratio (z) = 0.58917 -0.08916
#
# Static dielectric constant tensor:
#      x y z
#    x 1.826680 0.000000 -0.010480 
#    y 0.000000 1.843100 0.000000 
#    z -0.010480 0.000000 1.767960 
# 
# From -- ./inp_files/58217.got.cif
#   From: 2010.05.17/outbox.cif.g08.bks.cpg/sg10_30_cif.got.tgz:58217.got - 2010.06.03 11:33:40.
