data_PCOD9145572
_publ_section_title
;
Structure prediction by ZEFSAII (Michael W. Deem and Ramdas Pophale) SiO2 
 PCOD9145572
Probable space group: P 2/M
;
_chemical_formula_sum "Si O2"
_cell_formula_units_Z 28
_cell_length_a 16.097421
_cell_length_b 7.509282
_cell_length_c 17.048084
_cell_angle_alpha 90.000000
_cell_angle_beta 43.485642
_cell_angle_gamma 90.000000
_cell_volume 1418.168331
_symmetry_space_group_name_H-M "P 2/M"
_symmetry_group_IT_number 10
_symmetry_cell_setting 'monoclinic'
loop_
_space_group_symop_operation_xyz
x,y,z
-x,y,-z
-x,-y,-z
x,-y,z
loop_
_atom_site_type_symbol
_atom_site_label
_atom_site_fract_x
_atom_site_fract_y
_atom_site_fract_z
Si Si1 0.058831 0.500000 0.332716
Si Si2 0.079859 0.782501 0.020449
Si Si3 0.396981 0.702230 0.628090
Si Si4 0.264144 0.208788 0.577948
Si Si5 0.802342 0.500000 0.600523
Si Si6 0.987855 0.791184 0.755689
Si Si7 0.617189 0.217128 0.664101
Si Si8 0.648667 0.800128 0.169103
O O1 0.147633 0.500000 0.345600
O O2 0.077204 0.668916 0.263081
O O3 0.922319 0.500000 0.463074
O O4 0.028723 0.740298 0.141652
O O5 0.083393 0.000000 0.011700
O O6 0.218794 0.716115 0.927178
O O7 0.000000 0.722653 0.000000
O O8 0.500000 0.775850 0.500000
O O9 0.428642 0.500000 0.627895
O O10 0.283763 0.699514 0.647422
O O11 0.373922 0.807207 0.722119
O O12 0.354124 0.262151 0.446879
O O13 0.129245 0.233157 0.641042
O O14 0.280600 0.000000 0.581610
O O15 0.717307 0.328426 0.642127
O O16 0.956793 0.000000 0.769583
O O17 0.478557 0.271690 0.776738
O O18 0.627992 0.000000 0.664248
O O19 0.659178 0.000000 0.129328
#
# Coordination Sequence:
#
# PCOD9145572 Si02
#       8
#     2   4   4   4   2   4   4   4
#     4  11  24  40  62  94 115 152 192 237 305 376
#     4   9  18  36  60  86 119 161 202 243 286 329
#     4  11  22  29  43  73 113 154 189 233 281 333
#     4  10  19  32  51  75 107 151 191 230 282 336
#     4  11  24  40  63  87 125 147 181 251 310 361
#     4  10  21  39  62  86 119 156 195 243 289 346
#     4  10  21  36  58  85 115 152 191 236 296 357
#     4  10  20  35  55  80 113 156 204 242 287 347
#
# _framework density 19.743777999999999
#
# number of rings (size 3 to 8) (size 9 to 14) (size 15 to 20)
#    0.000    1.857    2.857    1.286    3.000    3.429 
#    1.286    1.786    0.000    1.714    0.000    4.000 
#    0.000    0.000    0.000    0.000    0.000    0.000 
#
# Total GULP energy -156132.742060 kJ/mol
# GULP energy per Si atom -5576.169359 kJ/mol
# Density = 1.969884 g / cm^3
# Si number density = 19.743778 Si / 1000 Ang^3
#
#
#
# Elastic Constant Matrix: (Units=GPa)
#
#
# Indices 1 2 3 4 5 6 
#
# 1 140.7239 55.1314 43.1330 0.0000 3.0452 0.0000
# 2 55.1314 63.3752 18.3557 0.0000 4.3821 0.0000
# 3 43.1330 18.3557 80.8598 0.0000 -7.7617 0.0000
# 4 0.0000 0.0000 0.0000 -5.1313 0.0000 -6.3318
# 5 3.0452 4.3821 -7.7617 0.0000 35.7701 0.0000
# 6 0.0000 0.0000 0.0000 -6.3318 0.0000 11.9107
#
#
#
# Elastic Compliance Matrix: (Units=1/GPa)
#
#
# Indices 1 2 3 4 5 6 
#
# 1 0.012075 -0.009156 -0.004446 0.000000 -0.000871 0.000000
# 2 -0.009156 0.024146 -0.000823 0.000000 -0.002357 0.000000
# 3 -0.004446 -0.000823 0.015290 0.000000 0.003797 0.000000
# 4 0.000000 0.000000 0.000000 -0.117684 0.000000 -0.062561
# 5 -0.000871 -0.002357 0.003797 0.000000 0.029143 0.000000
# 6 0.000000 0.000000 0.000000 -0.062561 0.000000 0.050700
#
#
# Mechanical properties :
#
#
# Convention : Reuss Voigt Hill
#
# Bulk Modulus (GPa) = 44.13186 57.57766 50.85476
# Shear Modulus (GPa) = 99.85130 19.73250 59.79190
#
# Velocity S-wave (km/s) = 7.11922 3.16480 5.50905
# Velocity P-wave (km/s) = 9.48571 6.52537 8.14122
#
# Compressibility (1/GPa) = 0.02265937
#
# Stress axis : x y z
#
# Youngs Moduli (GPa) = 82.81669 41.41538 65.40136
#
# Poissons Ratio (x) = 0.37921 0.29079
# Poissons Ratio (y) = 0.75828 0.05385
# Poissons Ratio (z) = 0.36822 0.03410
#
# Static dielectric constant tensor:
#      x y z
#    x 1.726100 0.000000 -0.051520 
#    y 0.000000 1.755460 0.000000 
#    z -0.051520 0.000000 1.700150 
# 
# From -- ./inp_files/66433.got.cif
#   From: 2010.05.17/outbox.cif.g08.bks.cpg/sg10_34_cif.got.tgz:66433.got - 2010.06.03 11:33:40.
