data_PCOD9145365
_publ_section_title
;
Structure prediction by ZEFSAII (Michael W. Deem and Ramdas Pophale) SiO2 
 PCOD9145365
Probable space group: P 2/M
;
_chemical_formula_sum "Si O2"
_cell_formula_units_Z 28
_cell_length_a 29.489074
_cell_length_b 8.873271
_cell_length_c 14.746370
_cell_angle_alpha 90.000000
_cell_angle_beta 27.549764
_cell_angle_gamma 90.000000
_cell_volume 1784.676245
_symmetry_space_group_name_H-M "P 2/M"
_symmetry_group_IT_number 10
_symmetry_cell_setting 'monoclinic'
loop_
_space_group_symop_operation_xyz
x,y,z
-x,y,-z
-x,-y,-z
x,-y,z
loop_
_atom_site_type_symbol
_atom_site_label
_atom_site_fract_x
_atom_site_fract_y
_atom_site_fract_z
Si Si1 0.134138 0.819355 0.943882
Si Si2 0.613648 0.181980 0.802483
Si Si3 0.082998 0.175482 0.737288
Si Si4 0.232054 0.321970 0.607135
Si Si5 0.242653 0.175823 0.295523
Si Si6 0.082129 0.818402 0.238657
Si Si7 0.129030 0.679530 0.341473
O O1 0.214632 0.741617 0.738495
O O2 0.144256 0.000000 0.918887
O O3 0.130671 0.780055 0.056262
O O4 0.026585 0.780408 0.094557
O O5 0.677085 0.249867 0.608189
O O6 0.665695 0.225716 0.805151
O O7 0.621696 0.000000 0.782823
O O8 0.500000 0.224297 0.000000
O O9 0.136479 0.273054 0.718218
O O10 0.150638 0.183801 0.527968
O O11 0.083353 0.000000 0.766528
O O12 0.241558 0.500000 0.591374
O O13 0.214818 0.272108 0.257630
O O14 0.254970 0.000000 0.248375
O O15 0.138854 0.752642 0.224659
O O16 0.973030 0.748278 0.438859
O O17 0.073597 0.000000 0.260014
O O18 0.120411 0.500000 0.350291
#
# Coordination Sequence:
#
# PCOD9145365 Si02
#       7
#     4   4   4   4   4   4   4
#     4  10  19  32  48  65  89 129 171 202 231 270
#     4   9  19  37  58  75  92 120 161 204 240 281
#     4   9  17  31  47  64  90 128 170 202 227 268
#     4  11  22  31  44  70 100 127 153 191 243 295
#     4   9  16  30  50  71  94 124 161 198 237 281
#     4  10  19  32  48  64  89 129 173 207 234 267
#     4  11  20  29  43  68  99 129 160 197 241 284
#
# _framework density 15.689120000000001
#
# number of rings (size 3 to 8) (size 9 to 14) (size 15 to 20)
#    0.000    2.143    1.429    5.143    0.000    6.000 
#    0.000    0.000    0.000    0.000    0.000    1.000 
#    0.000    8.000    0.000    0.000    0.000    0.000 
#
# Total GULP energy -156202.654244 kJ/mol
# GULP energy per Si atom -5578.666223 kJ/mol
# Density = 1.565341 g / cm^3
# Si number density = 15.689120 Si / 1000 Ang^3
#
#
#
# Elastic Constant Matrix: (Units=GPa)
#
#
# Indices 1 2 3 4 5 6 
#
# 1 114.8733 53.1349 74.1499 0.0000 13.8230 0.0000
# 2 53.1349 64.6358 39.3475 0.0000 10.6978 0.0000
# 3 74.1499 39.3475 76.4571 0.0000 6.3676 0.0000
# 4 0.0000 0.0000 0.0000 4.1224 0.0000 -14.5720
# 5 13.8230 10.6978 6.3676 0.0000 25.3553 0.0000
# 6 0.0000 0.0000 0.0000 -14.5720 0.0000 -68.7126
#
#
#
# Elastic Compliance Matrix: (Units=1/GPa)
#
#
# Indices 1 2 3 4 5 6 
#
# 1 0.027184 -0.008180 -0.021660 0.000000 -0.005929 0.000000
# 2 -0.008180 0.026176 -0.005096 0.000000 -0.005305 0.000000
# 3 -0.021660 -0.005096 0.036305 0.000000 0.004841 0.000000
# 4 0.000000 0.000000 0.000000 0.138645 0.000000 -0.029403
# 5 -0.005929 -0.005305 0.004841 0.000000 0.043694 0.000000
# 6 0.000000 0.000000 0.000000 -0.029403 0.000000 -0.008318
#
#
# Mechanical properties :
#
#
# Convention : Reuss Voigt Hill
#
# Bulk Modulus (GPa) = 50.52379 65.47010 57.99695
# Shear Modulus (GPa) = 14.69916 -1.89139 6.40388
#
# Velocity S-wave (km/s) = 3.06420 -1.09916 2.02252
# Velocity P-wave (km/s) = 6.69269 6.34108 6.51926
#
# Compressibility (1/GPa) = 0.01979266
#
# Stress axis : x y z
#
# Youngs Moduli (GPa) = 36.78680 38.20283 27.54431
#
# Poissons Ratio (x) = 0.31249 0.59661
# Poissons Ratio (y) = 0.30091 0.14037
# Poissons Ratio (z) = 0.79680 0.19469
#
# Static dielectric constant tensor:
#      x y z
#    x 1.541640 0.000000 0.012520 
#    y 0.000000 1.519900 0.000000 
#    z 0.012520 0.000000 1.507060 
# 
# From -- ./inp_files/72464.got.cif
#   From: 2010.05.17/outbox.cif.g08.bks.cpg/sg10_37_cif.got.tgz:72464.got - 2010.06.03 11:33:40.
