data_PCOD9145125
_publ_section_title
;
Structure prediction by ZEFSAII (Michael W. Deem and Ramdas Pophale) SiO2 
 PCOD9145125
Probable space group: P 2/M
;
_chemical_formula_sum "Si O2"
_cell_formula_units_Z 28
_cell_length_a 24.443050
_cell_length_b 13.141313
_cell_length_c 5.179423
_cell_angle_alpha 90.000000
_cell_angle_beta 105.983133
_cell_angle_gamma 90.000000
_cell_volume 1599.387928
_symmetry_space_group_name_H-M "P 2/M"
_symmetry_group_IT_number 10
_symmetry_cell_setting 'monoclinic'
loop_
_space_group_symop_operation_xyz
x,y,z
-x,y,-z
-x,-y,-z
x,-y,z
loop_
_atom_site_type_symbol
_atom_site_label
_atom_site_fract_x
_atom_site_fract_y
_atom_site_fract_z
Si Si1 0.625712 0.307829 0.993935
Si Si2 0.243371 0.251861 0.880283
Si Si3 0.253810 0.881680 0.384455
Si Si4 0.617978 0.816722 0.492993
Si Si5 0.457846 0.500000 0.192690
Si Si6 0.936230 0.623710 0.979870
Si Si7 0.132729 0.622524 0.609229
Si Si8 0.462694 0.000000 0.703923
O O1 0.694579 0.308238 0.030655
O O2 0.619759 0.273468 0.283713
O O3 0.605274 0.223166 0.762482
O O4 0.585873 0.404360 0.882319
O O5 0.244464 0.168609 0.652005
O O6 0.193526 0.330153 0.751221
O O7 0.230403 0.191915 0.128793
O O8 0.321336 0.872363 0.425215
O O9 0.236202 0.000000 0.347647
O O10 0.574056 0.898980 0.344219
O O11 0.500000 0.500000 0.500000
O O12 0.500000 0.500000 0.000000
O O13 0.938134 0.500000 0.979076
O O14 0.892550 0.654766 0.699025
O O15 0.912065 0.652998 0.226538
O O16 0.000000 0.659301 0.000000
O O17 0.137017 0.500000 0.616316
O O18 0.500000 0.000000 0.500000
O O19 0.500000 0.000000 0.000000
#
# Coordination Sequence:
#
# PCOD9145125 Si02
#       8
#     4   4   4   4   2   4   4   2
#     4  10  23  39  59  76 103 139 174 221 265 313
#     4  10  21  34  55  83 107 139 174 219 270 320
#     4  10  19  36  57  75 104 135 171 213 271 328
#     4  10  21  39  55  78 103 131 165 207 268 329
#     4  12  26  42  60  78 100 140 187 224 255 304
#     4   9  17  30  48  73 109 155 189 213 252 300
#     4  10  19  31  50  78 115 147 179 221 255 306
#     4  12  24  34  54  82 104 128 160 208 263 330
#
# _framework density 17.506695000000001
#
# number of rings (size 3 to 8) (size 9 to 14) (size 15 to 20)
#    0.000    1.857    0.714    3.429    1.000    5.143 
#    0.000    0.000    0.000    0.000    0.000    0.000 
#    0.000   40.000    0.000    0.000    0.000    0.000 
#
# Total GULP energy -156134.064198 kJ/mol
# GULP energy per Si atom -5576.216579 kJ/mol
# Density = 1.746685 g / cm^3
# Si number density = 17.506695 Si / 1000 Ang^3
#
#
#
# Elastic Constant Matrix: (Units=GPa)
#
#
# Indices 1 2 3 4 5 6 
#
# 1 39.0727 17.9870 -5.4482 0.0000 9.8252 0.0000
# 2 17.9870 41.8751 1.4012 0.0000 11.0022 0.0000
# 3 -5.4482 1.4012 70.2359 0.0000 1.3372 0.0000
# 4 0.0000 0.0000 0.0000 25.5576 0.0000 7.8271
# 5 9.8252 11.0022 1.3372 0.0000 29.5337 0.0000
# 6 0.0000 0.0000 0.0000 7.8271 0.0000 13.6717
#
#
#
# Elastic Compliance Matrix: (Units=1/GPa)
#
#
# Indices 1 2 3 4 5 6 
#
# 1 0.033539 -0.012791 0.002981 0.000000 -0.006528 0.000000
# 2 -0.012791 0.031358 -0.001478 0.000000 -0.007360 0.000000
# 3 0.002981 -0.001478 0.014519 0.000000 -0.001099 0.000000
# 4 0.000000 0.000000 0.000000 0.047446 0.000000 -0.027163
# 5 -0.006528 -0.007360 -0.001099 0.000000 0.038823 0.000000
# 6 0.000000 0.000000 0.000000 -0.027163 0.000000 0.088695
#
#
# Mechanical properties :
#
#
# Convention : Reuss Voigt Hill
#
# Bulk Modulus (GPa) = 17.59297 19.89597 18.74447
# Shear Modulus (GPa) = 16.89751 22.90216 19.89984
#
# Velocity S-wave (km/s) = 3.11014 3.62082 3.37515
# Velocity P-wave (km/s) = 4.79254 5.37307 5.09109
#
# Compressibility (1/GPa) = 0.05684089
#
# Stress axis : x y z
#
# Youngs Moduli (GPa) = 29.81627 31.88991 68.87348
#
# Poissons Ratio (x) = 0.40790 -0.20532
# Poissons Ratio (y) = 0.38138 0.10177
# Poissons Ratio (z) = -0.08888 0.04712
#
# Static dielectric constant tensor:
#      x y z
#    x 1.590370 0.000000 -0.005560 
#    y 0.000000 1.561500 0.000000 
#    z -0.005560 0.000000 1.595150 
# 
# From -- ./inp_files/12268.got.cif
#   From: 2010.05.17/outbox.cif.g08.bks.cpg/sg10_7_cif.got.tgz:12268.got - 2010.06.03 11:33:40.
