data_PCOD9145000
_publ_section_title
;
Structure prediction by ZEFSAII (Michael W. Deem and Ramdas Pophale) SiO2 
 PCOD9145000
Probable space group: P 2/M
;
_chemical_formula_sum "Si O2"
_cell_formula_units_Z 24
_cell_length_a 8.344048
_cell_length_b 10.571704
_cell_length_c 21.768080
_cell_angle_alpha 90.000000
_cell_angle_beta 135.280141
_cell_angle_gamma 90.000000
_cell_volume 1351.117339
_symmetry_space_group_name_H-M "P 2/M"
_symmetry_group_IT_number 10
_symmetry_cell_setting 'monoclinic'
loop_
_space_group_symop_operation_xyz
x,y,z
-x,y,-z
-x,-y,-z
x,-y,z
loop_
_atom_site_type_symbol
_atom_site_label
_atom_site_fract_x
_atom_site_fract_y
_atom_site_fract_z
Si Si1 0.293566 0.356916 0.021680
Si Si2 0.801386 0.719480 0.131325
Si Si3 0.301618 0.640953 0.289209
Si Si4 0.183679 0.139767 0.747777
Si Si5 0.465263 0.648413 0.194848
Si Si6 0.648331 0.144984 0.600943
O O1 0.208409 0.500000 0.988098
O O2 0.566968 0.352228 0.083404
O O3 0.281003 0.325303 0.090327
O O4 0.192710 0.269134 0.940776
O O5 0.797262 0.843178 0.172939
O O6 0.027145 0.648408 0.214673
O O7 0.374815 0.500000 0.327980
O O8 0.372347 0.661868 0.237980
O O9 0.393603 0.750670 0.358337
O O10 0.330926 0.253053 0.759874
O O11 0.917774 0.151844 0.659151
O O12 0.264383 0.000000 0.751791
O O13 0.530100 0.500000 0.204269
O O14 0.500000 0.168229 0.500000
O O15 0.604193 0.000000 0.609759
#
# Coordination Sequence:
#
# PCOD9145000 Si02
#       6
#     4   4   4   4   4   4
#     4   9  15  26  44  67  95 129 166 197 229 273
#     4   9  16  27  45  69  95 125 162 202 235 268
#     4  10  19  31  49  74 101 126 155 194 240 283
#     4   9  18  33  52  71  93 124 161 197 238 283
#     4   9  19  32  46  69 101 133 161 191 230 278
#     4   9  19  36  56  75  93 117 154 197 238 287
#
# _framework density 17.763075000000001
#
# number of rings (size 3 to 8) (size 9 to 14) (size 15 to 20)
#    0.000    2.833    0.000    2.000    0.000    6.333 
#    0.000   10.000    0.000    5.000    0.000   15.167 
#    0.000    0.000    0.000    0.000    0.000    0.000 
#
# Total GULP energy -133611.555964 kJ/mol
# GULP energy per Si atom -5567.148165 kJ/mol
# Density = 1.772265 g / cm^3
# Si number density = 17.763075 Si / 1000 Ang^3
#
#
#
# Elastic Constant Matrix: (Units=GPa)
#
#
# Indices 1 2 3 4 5 6 
#
# 1 43.9767 41.8428 21.1053 0.0000 -15.1533 0.0000
# 2 41.8428 99.2284 52.0565 0.0000 -14.2346 0.0000
# 3 21.1053 52.0565 99.9482 0.0000 -13.2797 0.0000
# 4 0.0000 0.0000 0.0000 17.4848 0.0000 -1.8643
# 5 -15.1533 -14.2346 -13.2797 0.0000 18.6954 0.0000
# 6 0.0000 0.0000 0.0000 -1.8643 0.0000 17.6250
#
#
#
# Elastic Compliance Matrix: (Units=1/GPa)
#
#
# Indices 1 2 3 4 5 6 
#
# 1 0.047454 -0.017558 0.002715 0.000000 0.027023 0.000000
# 2 -0.017558 0.020999 -0.007725 0.000000 -0.003730 0.000000
# 3 0.002715 -0.007725 0.014318 0.000000 0.006489 0.000000
# 4 0.000000 0.000000 0.000000 0.057845 0.000000 0.006118
# 5 0.027023 -0.003730 0.006489 0.000000 0.077161 0.000000
# 6 0.000000 0.000000 0.000000 0.006118 0.000000 0.057385
#
#
# Mechanical properties :
#
#
# Convention : Reuss Voigt Hill
#
# Bulk Modulus (GPa) = 26.57175 52.57361 39.57268
# Shear Modulus (GPa) = 15.02207 19.30430 17.16318
#
# Velocity S-wave (km/s) = 2.91123 3.30019 3.11179
# Velocity P-wave (km/s) = 5.12755 6.64703 5.93611
#
# Compressibility (1/GPa) = 0.03763396
#
# Stress axis : x y z
#
# Youngs Moduli (GPa) = 21.07295 47.62042 69.84429
#
# Poissons Ratio (x) = 0.83613 -0.18962
# Poissons Ratio (y) = 0.37001 0.53956
# Poissons Ratio (z) = -0.05721 0.36788
#
# Static dielectric constant tensor:
#      x y z
#    x 1.647960 0.000000 -0.012440 
#    y 0.000000 1.606190 0.000000 
#    z -0.012440 0.000000 1.610980 
# 
# From -- ./inp_files/32260.got.cif
#   From: 2010.05.17/outbox.cif.g08.bks.cpg/sg10_17_cif.got.tgz:32260.got - 2010.06.03 11:33:40.
