data_PCOD9145008
_publ_section_title
;
Structure prediction by ZEFSAII (Michael W. Deem and Ramdas Pophale) SiO2 
 PCOD9145008
Probable space group: P 2/M
;
_chemical_formula_sum "Si O2"
_cell_formula_units_Z 28
_cell_length_a 17.682500
_cell_length_b 18.990931
_cell_length_c 12.826375
_cell_angle_alpha 90.000000
_cell_angle_beta 157.548244
_cell_angle_gamma 90.000000
_cell_volume 1644.938352
_symmetry_space_group_name_H-M "P 2/M"
_symmetry_group_IT_number 10
_symmetry_cell_setting 'monoclinic'
loop_
_space_group_symop_operation_xyz
x,y,z
-x,y,-z
-x,-y,-z
x,-y,z
loop_
_atom_site_type_symbol
_atom_site_label
_atom_site_fract_x
_atom_site_fract_y
_atom_site_fract_z
Si Si1 0.317778 0.421192 0.686643
Si Si2 0.338617 0.766950 0.202268
Si Si3 0.472998 0.304233 0.753175
Si Si4 0.140577 0.079902 0.275332
Si Si5 0.898869 0.783674 0.653504
Si Si6 0.562922 0.922753 0.701969
Si Si7 0.172568 0.296438 0.636338
O O1 0.239403 0.500000 0.570186
O O2 0.397056 0.383041 0.682953
O O3 0.178482 0.364841 0.568050
O O4 0.500000 0.426870 0.000000
O O5 0.500000 0.765081 0.500000
O O6 0.409888 0.714093 0.202574
O O7 0.331425 0.847629 0.149016
O O8 0.115822 0.753209 0.956668
O O9 0.279911 0.254908 0.513997
O O10 0.622362 0.288837 0.039692
O O11 0.110395 0.135210 0.327507
O O12 0.363496 0.080760 0.516217
O O13 0.087120 0.000000 0.235527
O O14 0.000000 0.101332 0.000000
O O15 0.864093 0.768133 0.487724
O O16 0.500000 0.923901 0.500000
O O17 0.657917 0.000000 0.843714
O O18 0.000000 0.303596 0.500000
#
# Coordination Sequence:
#
# PCOD9145008 Si02
#       7
#     4   4   4   4   4   4   4
#     4   8  16  31  54  81 109 136 167 217 266 308
#     4  11  21  32  52  80 107 139 179 220 265 315
#     4  10  20  36  54  78 111 138 176 212 264 321
#     4  10  19  31  49  74 105 139 178 225 274 312
#     4  11  21  33  55  75 106 143 175 221 270 313
#     4   9  17  30  46  69 102 133 169 220 267 309
#     4  10  19  35  56  81 108 139 177 216 265 315
#
# _framework density 17.021913999999999
#
# number of rings (size 3 to 8) (size 9 to 14) (size 15 to 20)
#    0.000    2.143    2.857    3.000    0.000    2.000 
#    0.000    0.000    0.000    3.429    0.000    4.000 
#    0.000    0.000    0.000    0.000    0.000    0.000 
#
# Total GULP energy -155943.693974 kJ/mol
# GULP energy per Si atom -5569.417642 kJ/mol
# Density = 1.698317 g / cm^3
# Si number density = 17.021914 Si / 1000 Ang^3
#
#
#
# Elastic Constant Matrix: (Units=GPa)
#
#
# Indices 1 2 3 4 5 6 
#
# 1 88.7307 54.1829 18.8282 0.0000 8.6357 0.0000
# 2 54.1829 109.0829 18.3539 0.0000 -13.2690 0.0000
# 3 18.8282 18.3539 69.5045 0.0000 9.1099 0.0000
# 4 0.0000 0.0000 0.0000 13.6755 0.0000 -1.7009
# 5 8.6357 -13.2690 9.1099 0.0000 26.9834 0.0000
# 6 0.0000 0.0000 0.0000 -1.7009 0.0000 16.6075
#
#
#
# Elastic Compliance Matrix: (Units=1/GPa)
#
#
# Indices 1 2 3 4 5 6 
#
# 1 0.019033 -0.010643 -0.000901 0.000000 -0.011021 0.000000
# 2 -0.010643 0.016510 -0.003126 0.000000 0.012580 0.000000
# 3 -0.000901 -0.003126 0.016344 0.000000 -0.006767 0.000000
# 4 0.000000 0.000000 0.000000 0.074067 0.000000 0.007586
# 5 -0.011021 0.012580 -0.006767 0.000000 0.049058 0.000000
# 6 0.000000 0.000000 0.000000 0.007586 0.000000 0.060991
#
#
# Mechanical properties :
#
#
# Convention : Reuss Voigt Hill
#
# Bulk Modulus (GPa) = 44.34990 50.00536 47.17763
# Shear Modulus (GPa) = 18.32466 23.18348 20.75407
#
# Velocity S-wave (km/s) = 3.28462 3.69450 3.49557
# Velocity P-wave (km/s) = 6.36365 6.90217 6.63838
#
# Compressibility (1/GPa) = 0.02254797
#
# Stress axis : x y z
#
# Youngs Moduli (GPa) = 52.54088 60.56963 61.18508
#
# Poissons Ratio (x) = 0.64463 0.05512
# Poissons Ratio (y) = 0.55918 0.19124
# Poissons Ratio (z) = 0.04734 0.18931
#
# Static dielectric constant tensor:
#      x y z
#    x 1.591500 0.000000 0.017850 
#    y 0.000000 1.605940 0.000000 
#    z 0.017850 0.000000 1.596080 
# 
# From -- ./inp_files/54240.got.cif
#   From: 2010.05.17/outbox.cif.g08.bks.cpg/sg10_28_cif.got.tgz:54240.got - 2010.06.03 11:33:40.
