data_PCOD9145551
_publ_section_title
;
Structure prediction by ZEFSAII (Michael W. Deem and Ramdas Pophale) SiO2 
 PCOD9145551
Probable space group: P 2/M
;
_chemical_formula_sum "Si O2"
_cell_formula_units_Z 24
_cell_length_a 19.941158
_cell_length_b 8.742196
_cell_length_c 15.567841
_cell_angle_alpha 90.000000
_cell_angle_beta 23.080254
_cell_angle_gamma 90.000000
_cell_volume 1063.916705
_symmetry_space_group_name_H-M "P 2/M"
_symmetry_group_IT_number 10
_symmetry_cell_setting 'monoclinic'
loop_
_space_group_symop_operation_xyz
x,y,z
-x,y,-z
-x,-y,-z
x,-y,z
loop_
_atom_site_type_symbol
_atom_site_label
_atom_site_fract_x
_atom_site_fract_y
_atom_site_fract_z
Si Si1 0.646106 0.676355 0.403009
Si Si2 0.806543 0.315534 0.467451
Si Si3 0.574026 0.315848 0.043768
Si Si4 0.084434 0.820910 0.030421
Si Si5 0.665115 0.316641 0.123192
Si Si6 0.129942 0.686592 0.420097
O O1 0.500000 0.684250 0.500000
O O2 0.697040 0.500000 0.352318
O O3 0.810658 0.766950 0.176896
O O4 0.531713 0.721210 0.619352
O O5 0.803469 0.500000 0.464593
O O6 0.614918 0.258646 0.712334
O O7 0.903118 0.271735 0.442546
O O8 0.906039 0.255868 0.267343
O O9 0.555587 0.500000 0.056213
O O10 0.685136 0.289895 0.998870
O O11 0.681980 0.264365 0.834599
O O12 0.210427 0.772845 0.960527
O O13 0.061128 0.000000 0.054000
O O14 0.687742 0.500000 0.112524
O O15 0.126985 0.500000 0.422352
O O16 0.000000 0.739711 0.500000
#
# Coordination Sequence:
#
# PCOD9145551 Si02
#       6
#     4   4   4   4   4   4
#     4   8  15  29  50  74  98 126 163 208 254 295
#     4  10  19  32  51  74 103 136 167 203 246 293
#     4   9  17  30  51  79 104 128 163 205 250 298
#     4  11  21  32  49  73 101 134 171 208 247 294
#     4   9  17  32  54  77 100 127 164 210 254 297
#     4   9  16  27  49  80 106 127 158 204 251 293
#
# _framework density 22.558157000000001
#
# number of rings (size 3 to 8) (size 9 to 14) (size 15 to 20)
#    0.000    2.667    0.000    4.000    0.000    7.667 
#    0.000    1.667    0.000   11.500    0.000    0.000 
#    0.000    0.000    0.000    0.000    0.000    0.000 
#
# Total GULP energy -133985.189512 kJ/mol
# GULP energy per Si atom -5582.716230 kJ/mol
# Density = 2.250681 g / cm^3
# Si number density = 22.558157 Si / 1000 Ang^3
#
#
#
# Elastic Constant Matrix: (Units=GPa)
#
#
# Indices 1 2 3 4 5 6 
#
# 1 50.7440 6.9938 18.0596 0.0000 11.1528 0.0000
# 2 6.9938 22.0416 25.3427 0.0000 6.1188 0.0000
# 3 18.0596 25.3427 130.6201 0.0000 16.5117 0.0000
# 4 0.0000 0.0000 0.0000 -14.5218 0.0000 10.6547
# 5 11.1528 6.1188 16.5117 0.0000 44.7425 0.0000
# 6 0.0000 0.0000 0.0000 10.6547 0.0000 -10.1666
#
#
#
# Elastic Compliance Matrix: (Units=1/GPa)
#
#
# Indices 1 2 3 4 5 6 
#
# 1 0.021781 -0.003711 -0.001751 0.000000 -0.004276 0.000000
# 2 -0.003711 0.059715 -0.010654 0.000000 -0.003310 0.000000
# 3 -0.001751 -0.010654 0.010202 0.000000 -0.001871 0.000000
# 4 0.000000 0.000000 0.000000 -0.298019 0.000000 -0.312328
# 5 -0.004276 -0.003310 -0.001871 0.000000 0.024559 0.000000
# 6 0.000000 0.000000 0.000000 -0.312328 0.000000 -0.425686
#
#
# Mechanical properties :
#
#
# Convention : Reuss Voigt Hill
#
# Bulk Modulus (GPa) = 16.81658 33.79977 25.30818
# Shear Modulus (GPa) = -9.00263 14.21146 2.60441
#
# Velocity S-wave (km/s) = -1.99988 2.51269 1.07566
# Velocity P-wave (km/s) = 1.46228 4.84087 3.57577
#
# Compressibility (1/GPa) = 0.05946512
#
# Stress axis : x y z
#
# Youngs Moduli (GPa) = 45.91127 16.74615 98.02406
#
# Poissons Ratio (x) = 0.06215 0.17164
# Poissons Ratio (y) = 0.17038 1.04439
# Poissons Ratio (z) = 0.08039 0.17842
#
# Static dielectric constant tensor:
#      x y z
#    x 1.890270 0.000000 -0.037990 
#    y 0.000000 1.753640 0.000000 
#    z -0.037990 0.000000 1.885870 
# 
# From -- ./inp_files/33962.got.cif
#   From: 2010.05.17/outbox.cif.g08.bks.cpg/sg10_17_cif.got.tgz:33962.got - 2010.06.03 11:33:40.
