data_PCOD9145812
_publ_section_title
;
Structure prediction by ZEFSAII (Michael W. Deem and Ramdas Pophale) SiO2 
 PCOD9145812
Probable space group: P 2/M
;
_chemical_formula_sum "Si O2"
_cell_formula_units_Z 32
_cell_length_a 21.491366
_cell_length_b 7.718803
_cell_length_c 20.046929
_cell_angle_alpha 90.000000
_cell_angle_beta 26.462308
_cell_angle_gamma 90.000000
_cell_volume 1481.889320
_symmetry_space_group_name_H-M "P 2/M"
_symmetry_group_IT_number 10
_symmetry_cell_setting 'monoclinic'
loop_
_space_group_symop_operation_xyz
x,y,z
-x,y,-z
-x,-y,-z
x,-y,z
loop_
_atom_site_type_symbol
_atom_site_label
_atom_site_fract_x
_atom_site_fract_y
_atom_site_fract_z
Si Si1 0.453390 0.697122 0.732676
Si Si2 0.307253 0.795597 0.411006
Si Si3 0.151153 0.212190 0.697295
Si Si4 0.135329 0.289538 0.222082
Si Si5 0.145244 0.301231 0.438976
Si Si6 0.402613 0.801646 0.537156
Si Si7 0.343479 0.712057 0.132220
Si Si8 0.146240 0.796946 0.056968
O O1 0.495523 0.500000 0.680079
O O2 0.533242 0.760256 0.722207
O O3 0.509676 0.803024 0.615656
O O4 0.289213 0.708997 0.898965
O O5 0.220344 0.739495 0.559939
O O6 0.250068 0.703148 0.401001
O O7 0.285856 0.000000 0.422122
O O8 0.253076 0.273630 0.658425
O O9 0.991671 0.269290 0.848210
O O10 0.153087 0.000000 0.696884
O O11 0.129062 0.500000 0.224964
O O12 0.277685 0.241090 0.123850
O O13 0.125453 0.223766 0.156324
O O14 0.001287 0.227687 0.393790
O O15 0.114359 0.500000 0.450079
O O16 0.230904 0.225303 0.295074
O O17 0.500000 0.718199 0.500000
O O18 0.375163 0.000000 0.585319
O O19 0.346276 0.500000 0.132338
O O20 0.500000 0.770596 0.000000
O O21 0.160906 0.000000 0.028051
#
# Coordination Sequence:
#
# PCOD9145812 Si02
#       8
#     4   4   4   4   4   4   4   4
#     4  11  23  37  55  83 117 150 187 230 279 329
#     4  10  19  35  56  81 109 143 185 231 282 335
#     4   8  16  32  55  82 111 143 182 222 266 323
#     4  10  20  34  53  78 108 144 188 232 282 338
#     4  10  19  32  53  79 107 142 185 229 283 339
#     4   9  18  37  64  90 116 150 189 227 270 325
#     4   9  19  34  51  73 105 145 188 234 281 337
#     4  11  21  36  56  81 114 149 186 233 287 334
#
# _framework density 21.594055000000001
#
# number of rings (size 3 to 8) (size 9 to 14) (size 15 to 20)
#    0.000    2.250    1.250    3.000    1.750    1.750 
#    0.000    1.875    0.000    6.000    0.000    0.000 
#    0.000    0.000    0.000    0.000    0.000    0.000 
#
# Total GULP energy -178637.059243 kJ/mol
# GULP energy per Si atom -5582.408101 kJ/mol
# Density = 2.154491 g / cm^3
# Si number density = 21.594055 Si / 1000 Ang^3
#
#
#
# Elastic Constant Matrix: (Units=GPa)
#
#
# Indices 1 2 3 4 5 6 
#
# 1 118.5263 -4.5053 31.7173 0.0000 -46.3159 0.0000
# 2 -4.5053 51.1474 -3.1607 0.0000 -2.0018 0.0000
# 3 31.7173 -3.1607 103.6726 0.0000 -38.6284 0.0000
# 4 0.0000 0.0000 0.0000 7.2624 0.0000 2.0324
# 5 -46.3159 -2.0018 -38.6284 0.0000 33.6937 0.0000
# 6 0.0000 0.0000 0.0000 2.0324 0.0000 11.9830
#
#
#
# Elastic Compliance Matrix: (Units=1/GPa)
#
#
# Indices 1 2 3 4 5 6 
#
# 1 0.021988 0.004013 0.008285 0.000000 0.039963 0.000000
# 2 0.004013 0.020524 0.003330 0.000000 0.010553 0.000000
# 3 0.008285 0.003330 0.020128 0.000000 0.034663 0.000000
# 4 0.000000 0.000000 0.000000 0.144558 0.000000 -0.024518
# 5 0.039963 0.010553 0.034663 0.000000 0.124978 0.000000
# 6 0.000000 0.000000 0.000000 -0.024518 0.000000 0.087610
#
#
# Mechanical properties :
#
#
# Convention : Reuss Voigt Hill
#
# Bulk Modulus (GPa) = 10.65002 35.71655 23.18329
# Shear Modulus (GPa) = 11.90965 27.20749 19.55857
#
# Velocity S-wave (km/s) = 2.35100 3.55343 3.01281
# Velocity P-wave (km/s) = 3.50888 5.78029 4.78142
#
# Compressibility (1/GPa) = 0.09389650
#
# Stress axis : x y z
#
# Youngs Moduli (GPa) = 45.47864 48.72434 49.68273
#
# Poissons Ratio (x) = -0.19552 -0.41164
# Poissons Ratio (y) = -0.18250 -0.16545
# Poissons Ratio (z) = -0.37681 -0.16226
#
# Static dielectric constant tensor:
#      x y z
#    x 1.779150 0.000000 -0.032310 
#    y 0.000000 1.789350 0.000000 
#    z -0.032310 0.000000 1.783230 
# 
# From -- ./inp_files/90594.got.cif
#   From: 2010.05.17/outbox.cif.g08.bks.cpg/sg10_46_cif.got.tgz:90594.got - 2010.06.03 11:33:40.
