data_PCOD9145580
_publ_section_title
;
Structure prediction by ZEFSAII (Michael W. Deem and Ramdas Pophale) SiO2 
 PCOD9145580
Probable space group: P 2/M
;
_chemical_formula_sum "Si O2"
_cell_formula_units_Z 32
_cell_length_a 27.513350
_cell_length_b 7.433934
_cell_length_c 21.542016
_cell_angle_alpha 90.000000
_cell_angle_beta 160.831725
_cell_angle_gamma 90.000000
_cell_volume 1446.695706
_symmetry_space_group_name_H-M "P 2/M"
_symmetry_group_IT_number 10
_symmetry_cell_setting 'monoclinic'
loop_
_space_group_symop_operation_xyz
x,y,z
-x,y,-z
-x,-y,-z
x,-y,z
loop_
_atom_site_type_symbol
_atom_site_label
_atom_site_fract_x
_atom_site_fract_y
_atom_site_fract_z
Si Si1 0.459866 0.215544 0.883026
Si Si2 0.772680 0.219951 0.693946
Si Si3 0.925884 0.781408 0.005185
Si Si4 0.146012 0.220638 0.942360
Si Si5 0.644914 0.712983 0.986471
Si Si6 0.861175 0.793523 0.524119
Si Si7 0.540630 0.792326 0.730882
Si Si8 0.976017 0.281985 0.400141
O O1 0.583408 0.249846 0.980555
O O2 0.302097 0.287438 0.668075
O O3 0.443023 0.000000 0.868499
O O4 0.500000 0.284461 0.000000
O O5 0.820450 0.273493 0.821045
O O6 0.611904 0.285539 0.479198
O O7 0.771419 0.000000 0.690921
O O8 0.907226 0.275166 0.811092
O O9 0.926080 0.000000 0.005617
O O10 0.873679 0.725397 0.009939
O O11 0.002401 0.284456 0.730611
O O12 0.146461 0.000000 0.939253
O O13 0.302676 0.284173 0.103694
O O14 0.648440 0.500000 0.982396
O O15 0.544961 0.787871 0.810699
O O16 0.812965 0.780031 0.182896
O O17 0.904148 0.788605 0.503423
O O18 0.850187 0.000000 0.532570
O O19 0.541229 0.000000 0.711216
O O20 0.981300 0.500000 0.404410
O O21 0.000000 0.227564 0.500000
#
# Coordination Sequence:
#
# PCOD9145580 Si02
#       8
#     4   4   4   4   4   4   4   4
#     4  10  22  38  56  80 108 137 173 219 268 319
#     4   8  15  26  45  73 104 138 170 207 257 309
#     4   8  14  26  43  71 107 136 168 209 257 309
#     4   9  17  28  45  72 105 135 165 209 257 305
#     4  11  23  37  54  78 107 141 178 219 264 314
#     4  10  20  34  53  79 106 136 172 213 263 312
#     4  10  19  32  51  76 105 138 174 214 261 310
#     4  10  21  37  56  76 101 137 177 217 262 310
#
# _framework density 22.119371999999998
#
# number of rings (size 3 to 8) (size 9 to 14) (size 15 to 20)
#    0.000    2.500    1.250    1.875    1.750    2.000 
#    0.000    2.500    0.000    0.000    0.000    4.375 
#    0.000    0.000    0.000    0.000    0.000    0.000 
#
# Total GULP energy -178729.837071 kJ/mol
# GULP energy per Si atom -5585.307408 kJ/mol
# Density = 2.206903 g / cm^3
# Si number density = 22.119372 Si / 1000 Ang^3
#
#
#
# Elastic Constant Matrix: (Units=GPa)
#
#
# Indices 1 2 3 4 5 6 
#
# 1 82.8776 -6.7359 -3.6293 0.0000 -5.5823 0.0000
# 2 -6.7359 69.5292 14.4341 0.0000 0.5415 0.0000
# 3 -3.6293 14.4341 92.6632 0.0000 -4.8214 0.0000
# 4 0.0000 0.0000 0.0000 -46.8233 0.0000 343.2227
# 5 -5.5823 0.5415 -4.8214 0.0000 29.3054 0.0000
# 6 0.0000 0.0000 0.0000 343.2227 0.0000-2773.3949
#
#
#
# Elastic Compliance Matrix: (Units=1/GPa)
#
#
# Indices 1 2 3 4 5 6 
#
# 1 0.012335 0.001085 0.000439 0.000000 0.002402 0.000000
# 2 0.001085 0.014971 -0.002313 0.000000 -0.000450 0.000000
# 3 0.000439 -0.002313 0.011272 0.000000 0.001981 0.000000
# 4 0.000000 0.000000 0.000000 -0.230010 0.000000 -0.028465
# 5 0.002402 -0.000450 0.001981 0.000000 0.034915 0.000000
# 6 0.000000 0.000000 0.000000 -0.028465 0.000000 -0.003883
#
#
# Mechanical properties :
#
#
# Convention : Reuss Voigt Hill
#
# Bulk Modulus (GPa) = 27.02614 28.13421 27.58018
# Shear Modulus (GPa) = -34.13241 -542.11583 -288.12412
#
# Velocity S-wave (km/s) = -3.93249 -15.67222 -11.42548
# Velocity P-wave (km/s) = 2.89387 17.74104 12.71061
#
# Compressibility (1/GPa) = 0.03700121
#
# Stress axis : x y z
#
# Youngs Moduli (GPa) = 81.06888 66.79461 88.71274
#
# Poissons Ratio (x) = -0.07248 -0.03895
# Poissons Ratio (y) = -0.08797 0.20519
# Poissons Ratio (z) = -0.03559 0.15450
#
# Static dielectric constant tensor:
#      x y z
#    x 1.758870 0.000000 -0.006070 
#    y 0.000000 1.865710 0.000000 
#    z -0.006070 0.000000 1.804900 
# 
# From -- ./inp_files/86953.got.cif
#   From: 2010.05.17/outbox.cif.g08.bks.cpg/sg10_44_cif.got.tgz:86953.got - 2010.06.03 11:33:40.
