data_PCOD9145053
_publ_section_title
;
Structure prediction by ZEFSAII (Michael W. Deem and Ramdas Pophale) SiO2 
 PCOD9145053
Probable space group: P 2/M
;
_chemical_formula_sum "Si O2"
_cell_formula_units_Z 28
_cell_length_a 13.033688
_cell_length_b 7.521042
_cell_length_c 15.497507
_cell_angle_alpha 90.000000
_cell_angle_beta 123.032072
_cell_angle_gamma 90.000000
_cell_volume 1273.622167
_symmetry_space_group_name_H-M "P 2/M"
_symmetry_group_IT_number 10
_symmetry_cell_setting 'monoclinic'
loop_
_space_group_symop_operation_xyz
x,y,z
-x,y,-z
-x,-y,-z
x,-y,z
loop_
_atom_site_type_symbol
_atom_site_label
_atom_site_fract_x
_atom_site_fract_y
_atom_site_fract_z
Si Si1 0.633580 0.718376 0.708428
Si Si2 0.253254 0.704030 0.063186
Si Si3 0.994016 0.202179 0.095566
Si Si4 0.378725 0.282708 0.674987
Si Si5 0.169109 0.295891 0.327510
Si Si6 0.890546 0.717183 0.512587
Si Si7 0.519320 0.294515 0.101849
O O1 0.634008 0.500000 0.708735
O O2 0.719632 0.775348 0.828460
O O3 0.494588 0.772223 0.668058
O O4 0.704284 0.779053 0.654776
O O5 0.214272 0.500000 0.053916
O O6 0.384608 0.702695 0.080030
O O7 0.151746 0.795426 0.958482
O O8 0.070595 0.294267 0.205004
O O9 0.037800 0.000000 0.113486
O O10 0.000000 0.273296 0.000000
O O11 0.384527 0.500000 0.679394
O O12 0.244819 0.232507 0.582131
O O13 0.400016 0.220070 0.783141
O O14 0.199789 0.500000 0.362826
O O15 0.109543 0.221562 0.387431
O O16 0.898316 0.500000 0.514902
O O17 0.000000 0.779315 0.500000
O O18 0.561880 0.500000 0.107145
O O19 0.500000 0.209338 0.000000
#
# Coordination Sequence:
#
# PCOD9145053 Si02
#       7
#     4   4   4   4   4   4   4
#     4   8  14  25  43  68  93 120 158 199 242 287
#     4   9  16  28  47  70  99 131 162 200 241 293
#     4  11  22  33  47  71 102 133 163 202 255 303
#     4   8  14  25  40  61  97 131 155 197 244 284
#     4  10  19  31  50  73  98 130 168 207 246 296
#     4   9  18  30  44  69 103 133 163 202 247 291
#     4   8  14  24  42  71 101 129 160 197 247 294
#
# _framework density 21.984542999999999
#
# number of rings (size 3 to 8) (size 9 to 14) (size 15 to 20)
#    0.000    3.000    1.429    2.143    0.000    2.286 
#    0.000    7.143    0.000    0.857    0.000    6.000 
#    0.000    0.000    0.000    0.000    0.000    0.000 
#
# Total GULP energy -155977.959272 kJ/mol
# GULP energy per Si atom -5570.641403 kJ/mol
# Density = 2.193451 g / cm^3
# Si number density = 21.984543 Si / 1000 Ang^3
#
#
#
# Elastic Constant Matrix: (Units=GPa)
#
#
# Indices 1 2 3 4 5 6 
#
# 1 136.8539 14.2908 89.1780 0.0000 -13.4007 0.0000
# 2 14.2908 54.2593 2.7275 0.0000 -2.5091 0.0000
# 3 89.1780 2.7275 123.8748 0.0000 -11.5271 0.0000
# 4 0.0000 0.0000 0.0000 -22.4120 0.0000 -5.8141
# 5 -13.4007 -2.5091 -11.5271 0.0000 41.0483 0.0000
# 6 0.0000 0.0000 0.0000 -5.8141 0.0000 -13.7755
#
#
#
# Elastic Compliance Matrix: (Units=1/GPa)
#
#
# Indices 1 2 3 4 5 6 
#
# 1 0.014425 -0.003212 -0.010160 0.000000 0.001660 0.000000
# 2 -0.003212 0.019209 0.001952 0.000000 0.000674 0.000000
# 3 -0.010160 0.001952 0.015450 0.000000 0.001141 0.000000
# 4 0.000000 0.000000 0.000000 -0.050105 0.000000 0.021147
# 5 0.001660 0.000674 0.001141 0.000000 0.025265 0.000000
# 6 0.000000 0.000000 0.000000 0.021147 0.000000 -0.081518
#
#
# Mechanical properties :
#
#
# Convention : Reuss Voigt Hill
#
# Bulk Modulus (GPa) = 38.10238 58.59784 48.35011
# Shear Modulus (GPa) = -194.65940 14.89160 -89.88390
#
# Velocity S-wave (km/s) = -9.41998 2.60545 -6.40108
# Velocity P-wave (km/s) = 10.04717 5.98023 5.70887
#
# Compressibility (1/GPa) = 0.02624508
#
# Stress axis : x y z
#
# Youngs Moduli (GPa) = 69.32250 52.05897 64.72548
#
# Poissons Ratio (x) = 0.16721 0.65759
# Poissons Ratio (y) = 0.22265 -0.12634
# Poissons Ratio (z) = 0.70429 -0.10162
#
# Static dielectric constant tensor:
#      x y z
#    x 1.856990 0.000000 -0.018640 
#    y 0.000000 1.837120 0.000000 
#    z -0.018640 0.000000 1.814900 
# 
# From -- ./inp_files/63940.got.cif
#   From: 2010.05.17/outbox.cif.g08.bks.cpg/sg10_32_cif.got.tgz:63940.got - 2010.06.03 11:33:40.
