data_PCOD9145579
_publ_section_title
;
Structure prediction by ZEFSAII (Michael W. Deem and Ramdas Pophale) SiO2 
 PCOD9145579
Probable space group: P 2/M
;
_chemical_formula_sum "Si O2"
_cell_formula_units_Z 28
_cell_length_a 19.870970
_cell_length_b 8.458392
_cell_length_c 13.122257
_cell_angle_alpha 90.000000
_cell_angle_beta 48.250593
_cell_angle_gamma 90.000000
_cell_volume 1645.476389
_symmetry_space_group_name_H-M "P 2/M"
_symmetry_group_IT_number 10
_symmetry_cell_setting 'monoclinic'
loop_
_space_group_symop_operation_xyz
x,y,z
-x,y,-z
-x,-y,-z
x,-y,z
loop_
_atom_site_type_symbol
_atom_site_label
_atom_site_fract_x
_atom_site_fract_y
_atom_site_fract_z
Si Si1 0.782270 0.309278 0.917733
Si Si2 0.601121 0.814562 0.793052
Si Si3 0.897341 0.808810 0.222399
Si Si4 0.219537 0.688919 0.474427
Si Si5 0.104244 0.809546 0.009694
Si Si6 0.592091 0.687808 0.028664
Si Si7 0.103755 0.692801 0.393934
O O1 0.781660 0.500000 0.915198
O O2 0.826753 0.255243 0.977505
O O3 0.843503 0.254632 0.760493
O O4 0.679380 0.256896 0.003149
O O5 0.682544 0.765310 0.638283
O O6 0.502251 0.770792 0.851291
O O7 0.604548 0.000000 0.811728
O O8 0.611519 0.722321 0.889740
O O9 0.830464 0.737233 0.372096
O O10 0.001226 0.760699 0.138994
O O11 0.893428 0.000000 0.231726
O O12 0.876922 0.762014 0.126176
O O13 0.228717 0.500000 0.459983
O O14 0.157897 0.741112 0.440392
O O15 0.105956 0.000000 0.010588
O O16 0.581138 0.500000 0.052422
O O17 0.102879 0.500000 0.393951
O O18 0.000000 0.746147 0.500000
#
# Coordination Sequence:
#
# PCOD9145579 Si02
#       7
#     4   4   4   4   4   4   4
#     4  10  19  32  51  76 105 136 171 214 257 304
#     4  11  21  33  51  76 105 136 173 214 255 311
#     4   9  19  36  53  74 104 140 178 216 257 301
#     4  11  20  33  53  76 104 138 173 213 262 307
#     4   9  19  35  54  74 104 141 176 215 258 305
#     4  10  19  34  53  74 104 138 173 214 259 307
#     4   9  17  29  45  70 104 136 164 201 252 303
#
# _framework density 17.016349000000002
#
# number of rings (size 3 to 8) (size 9 to 14) (size 15 to 20)
#    0.000    2.143    1.429    4.714    0.000    3.429 
#    0.000    1.429    0.000    3.857    0.000    6.000 
#    0.000    0.000    0.000    0.000    0.000    0.000 
#
# Total GULP energy -156269.791871 kJ/mol
# GULP energy per Si atom -5581.063995 kJ/mol
# Density = 1.697762 g / cm^3
# Si number density = 17.016349 Si / 1000 Ang^3
#
#
#
# Elastic Constant Matrix: (Units=GPa)
#
#
# Indices 1 2 3 4 5 6 
#
# 1 137.3945 6.4853 72.6238 0.0000 -10.7479 0.0000
# 2 6.4853 10.6887 9.1697 0.0000 -3.2001 0.0000
# 3 72.6238 9.1697 101.9025 0.0000 -11.2965 0.0000
# 4 0.0000 0.0000 0.0000 27.2525 0.0000 2.3617
# 5 -10.7479 -3.2001 -11.2965 0.0000 21.2524 0.0000
# 6 0.0000 0.0000 0.0000 2.3617 0.0000 25.4631
#
#
#
# Elastic Compliance Matrix: (Units=1/GPa)
#
#
# Indices 1 2 3 4 5 6 
#
# 1 0.011729 0.000420 -0.008216 0.000000 0.001627 0.000000
# 2 0.000420 0.103909 -0.008385 0.000000 0.011401 0.000000
# 3 -0.008216 -0.008385 0.016813 0.000000 0.003519 0.000000
# 4 0.000000 0.000000 0.000000 0.036991 0.000000 -0.003431
# 5 0.001627 0.011401 0.003519 0.000000 0.051464 0.000000
# 6 0.000000 0.000000 0.000000 -0.003431 0.000000 0.039591
#
#
# Mechanical properties :
#
#
# Convention : Reuss Voigt Hill
#
# Bulk Modulus (GPa) = 9.99128 47.39371 28.69249
# Shear Modulus (GPa) = 15.32692 25.57406 20.45049
#
# Velocity S-wave (km/s) = 3.00445 3.88095 3.47048
# Velocity P-wave (km/s) = 4.23320 6.92782 5.74085
#
# Compressibility (1/GPa) = 0.10008727
#
# Stress axis : x y z
#
# Youngs Moduli (GPa) = 85.26098 9.62380 59.47612
#
# Poissons Ratio (x) = -0.00404 0.48866
# Poissons Ratio (y) = -0.03577 0.49873
# Poissons Ratio (z) = 0.70052 0.08070
#
# Static dielectric constant tensor:
#      x y z
#    x 1.571680 0.000000 -0.012280 
#    y 0.000000 1.579550 0.000000 
#    z -0.012280 0.000000 1.553990 
# 
# From -- ./inp_files/54671.got.cif
#   From: 2010.05.17/outbox.cif.g08.bks.cpg/sg10_28_cif.got.tgz:54671.got - 2010.06.03 11:33:40.
