data_PCOD9145017
_publ_section_title
;
Structure prediction by ZEFSAII (Michael W. Deem and Ramdas Pophale) SiO2 
 PCOD9145017
Probable space group: P 2/M
;
_chemical_formula_sum "Si O2"
_cell_formula_units_Z 28
_cell_length_a 22.231530
_cell_length_b 8.477179
_cell_length_c 7.544302
_cell_angle_alpha 90.000000
_cell_angle_beta 92.449319
_cell_angle_gamma 90.000000
_cell_volume 1420.505189
_symmetry_space_group_name_H-M "P 2/M"
_symmetry_group_IT_number 10
_symmetry_cell_setting 'monoclinic'
loop_
_space_group_symop_operation_xyz
x,y,z
-x,y,-z
-x,-y,-z
x,-y,z
loop_
_atom_site_type_symbol
_atom_site_label
_atom_site_fract_x
_atom_site_fract_y
_atom_site_fract_z
Si Si1 0.077410 0.807816 0.339687
Si Si2 0.621681 0.185443 0.768750
Si Si3 0.942851 0.192332 0.262170
Si Si4 0.363698 0.691862 0.628269
Si Si5 0.715404 0.312705 0.063846
Si Si6 0.494203 0.318818 0.714179
Si Si7 0.155308 0.809533 0.034707
O O1 0.077756 0.757748 0.543894
O O2 0.132525 0.755479 0.225024
O O3 0.012624 0.760555 0.249698
O O4 0.077595 0.000000 0.341313
O O5 0.636782 0.241814 0.570215
O O6 0.664961 0.270356 0.912829
O O7 0.551393 0.225684 0.792543
O O8 0.631216 0.000000 0.782494
O O9 0.942900 0.000000 0.258156
O O10 0.895764 0.245634 0.109846
O O11 0.365673 0.500000 0.616566
O O12 0.426408 0.740791 0.732260
O O13 0.309005 0.741901 0.747106
O O14 0.721018 0.500000 0.073734
O O15 0.779077 0.243662 0.014240
O O16 0.500000 0.319421 0.500000
O O17 0.498898 0.500000 0.775300
O O18 0.154851 0.000000 0.034320
#
# Coordination Sequence:
#
# PCOD9145017 Si02
#       7
#     4   4   4   4   4   4   4
#     4   8  14  26  47  76 105 132 164 206 261 317
#     4  11  22  36  57  84 112 138 171 225 283 326
#     4   8  14  26  47  75 104 132 165 209 260 313
#     4   9  20  39  60  79 104 144 187 223 262 318
#     4  11  24  40  55  74 106 150 193 222 257 320
#     4   8  15  32  57  81 105 137 178 219 265 323
#     4  10  19  31  49  75 104 133 172 221 266 305
#
# _framework density 19.711296999999998
#
# number of rings (size 3 to 8) (size 9 to 14) (size 15 to 20)
#    0.000    2.714    0.000    3.857    0.000    7.143 
#    0.000    4.286    0.000    1.714    0.000    2.000 
#    0.000    0.000    0.000    0.000    0.000    0.000 
#
# Total GULP energy -156208.908911 kJ/mol
# GULP energy per Si atom -5578.889604 kJ/mol
# Density = 1.966643 g / cm^3
# Si number density = 19.711297 Si / 1000 Ang^3
#
#
#
# Elastic Constant Matrix: (Units=GPa)
#
#
# Indices 1 2 3 4 5 6 
#
# 1 52.5618 1.4582 8.2861 0.0000 -28.7743 0.0000
# 2 1.4582 5.3652 0.2522 0.0000 -7.6360 0.0000
# 3 8.2861 0.2522 38.5980 0.0000 -12.8282 0.0000
# 4 0.0000 0.0000 0.0000 11.2530 0.0000 -3.9194
# 5 -28.7743 -7.6360 -12.8282 0.0000 31.8174 0.0000
# 6 0.0000 0.0000 0.0000 -3.9194 0.0000 29.3440
#
#
#
# Elastic Compliance Matrix: (Units=1/GPa)
#
#
# Indices 1 2 3 4 5 6 
#
# 1 0.061540 0.107023 0.015153 0.000000 0.087448 0.000000
# 2 0.107023 0.489743 0.052027 0.000000 0.235299 0.000000
# 3 0.015153 0.052027 0.035819 0.000000 0.040632 0.000000
# 4 0.000000 0.000000 0.000000 0.093201 0.000000 0.012449
# 5 0.087448 0.235299 0.040632 0.000000 0.183366 0.000000
# 6 0.000000 0.000000 0.000000 0.012449 0.000000 0.035741
#
#
# Mechanical properties :
#
#
# Convention : Reuss Voigt Hill
#
# Bulk Modulus (GPa) = 1.06894 12.94645 7.00769
# Shear Modulus (GPa) = 5.79481 20.25145 13.02313
#
# Velocity S-wave (km/s) = 1.71646 3.20879 2.57318
# Velocity P-wave (km/s) = 2.11466 4.50674 3.52012
#
# Compressibility (1/GPa) = 0.93550766
#
# Stress axis : x y z
#
# Youngs Moduli (GPa) = 16.24964 2.04189 27.91811
#
# Poissons Ratio (x) = -0.21853 -0.42305
# Poissons Ratio (y) = -1.73908 -1.45248
# Poissons Ratio (z) = -0.24623 -0.10623
#
# Static dielectric constant tensor:
#      x y z
#    x 1.688060 0.000000 -0.023650 
#    y 0.000000 1.680970 0.000000 
#    z -0.023650 0.000000 1.704590 
# 
# From -- ./inp_files/33485.got.cif
#   From: 2010.05.17/outbox.cif.g08.bks.cpg/sg10_17_cif.got.tgz:33485.got - 2010.06.03 11:33:40.
