data_PCOD9145966
_publ_section_title
;
Structure prediction by ZEFSAII (Michael W. Deem and Ramdas Pophale) SiO2 
 PCOD9145966
Probable space group: P 2/M
;
_chemical_formula_sum "Si O2"
_cell_formula_units_Z 32
_cell_length_a 15.683105
_cell_length_b 7.652149
_cell_length_c 24.934871
_cell_angle_alpha 90.000000
_cell_angle_beta 28.995528
_cell_angle_gamma 90.000000
_cell_volume 1450.549872
_symmetry_space_group_name_H-M "P 2/M"
_symmetry_group_IT_number 10
_symmetry_cell_setting 'monoclinic'
loop_
_space_group_symop_operation_xyz
x,y,z
-x,y,-z
-x,-y,-z
x,-y,z
loop_
_atom_site_type_symbol
_atom_site_label
_atom_site_fract_x
_atom_site_fract_y
_atom_site_fract_z
Si Si1 0.265214 0.291259 0.989015
Si Si2 0.750100 0.212083 0.413660
Si Si3 0.477878 0.211608 0.769162
Si Si4 0.567766 0.702263 0.902802
Si Si5 0.870536 0.705958 0.227943
Si Si6 0.543625 0.796866 0.341369
Si Si7 0.055555 0.196800 0.321798
Si Si8 0.166617 0.796310 0.370617
O O1 0.261632 0.500000 0.999594
O O2 0.321410 0.257930 0.896516
O O3 0.423417 0.225813 0.940463
O O4 0.071252 0.225410 0.112426
O O5 0.782418 0.269193 0.334903
O O6 0.584768 0.274072 0.540771
O O7 0.920332 0.271491 0.353895
O O8 0.740848 0.000000 0.415190
O O9 0.468053 0.275914 0.712888
O O10 0.658806 0.275674 0.697725
O O11 0.483384 0.000000 0.763712
O O12 0.605597 0.500000 0.866414
O O13 0.747695 0.806799 0.807627
O O14 0.500000 0.698592 0.000000
O O15 0.877674 0.500000 0.213347
O O16 0.740193 0.785477 0.255755
O O17 0.491990 0.000000 0.364886
O O18 0.090238 0.288666 0.359067
O O19 0.986407 0.000000 0.370606
O O20 0.000000 0.798649 0.500000
O O21 0.211750 0.000000 0.332577
#
# Coordination Sequence:
#
# PCOD9145966 Si02
#       8
#     4   4   4   4   4   4   4   4
#     4  10  22  39  57  80 116 156 195 242 292 340
#     4  10  21  38  60  88 121 151 185 237 297 351
#     4  10  20  36  60  87 116 152 194 237 285 347
#     4  10  20  35  54  76 109 152 189 226 277 333
#     4  11  24  41  61  84 111 152 201 245 293 346
#     4  10  22  40  61  87 117 150 189 240 301 351
#     4  10  19  32  54  85 113 142 182 223 269 327
#     4   9  16  29  52  82 114 145 179 221 269 327
#
# _framework density 22.060597999999999
#
# number of rings (size 3 to 8) (size 9 to 14) (size 15 to 20)
#    0.000    2.000    1.250    2.250    0.000    8.750 
#    0.000    2.500    0.000    3.000    0.000    0.000 
#    0.000    0.000    0.000    0.000    0.000    0.000 
#
# Total GULP energy -178473.430666 kJ/mol
# GULP energy per Si atom -5577.294708 kJ/mol
# Density = 2.201039 g / cm^3
# Si number density = 22.060598 Si / 1000 Ang^3
#
#
#
# Elastic Constant Matrix: (Units=GPa)
#
#
# Indices 1 2 3 4 5 6 
#
# 1 133.5985 -4.4908 41.1356 0.0000 0.2841 0.0000
# 2 -4.4908 42.6377 3.6351 0.0000 -2.8414 0.0000
# 3 41.1356 3.6351 109.7882 0.0000 -1.5968 0.0000
# 4 0.0000 0.0000 0.0000 25.1491 0.0000 -4.1890
# 5 0.2841 -2.8414 -1.5968 0.0000 40.3140 0.0000
# 6 0.0000 0.0000 0.0000 -4.1890 0.0000 17.1591
#
#
#
# Elastic Compliance Matrix: (Units=1/GPa)
#
#
# Indices 1 2 3 4 5 6 
#
# 1 0.008520 0.001166 -0.003232 0.000000 -0.000106 0.000000
# 2 0.001166 0.023787 -0.001201 0.000000 0.001621 0.000000
# 3 -0.003232 -0.001201 0.010364 0.000000 0.000349 0.000000
# 4 0.000000 0.000000 0.000000 0.041448 0.000000 0.010119
# 5 -0.000106 0.001621 0.000349 0.000000 0.024934 0.000000
# 6 0.000000 0.000000 0.000000 0.010119 0.000000 0.060748
#
#
# Mechanical properties :
#
#
# Convention : Reuss Voigt Hill
#
# Bulk Modulus (GPa) = 27.67313 40.73158 34.20236
# Shear Modulus (GPa) = 26.54187 32.90740 29.72463
#
# Velocity S-wave (km/s) = 3.47239 3.86642 3.67469
# Velocity P-wave (km/s) = 5.35238 6.19967 5.79154
#
# Compressibility (1/GPa) = 0.03613613
#
# Stress axis : x y z
#
# Youngs Moduli (GPa) = 117.37390 42.04049 96.48437
#
# Poissons Ratio (x) = -0.04901 0.31187
# Poissons Ratio (y) = -0.13684 0.11586
# Poissons Ratio (z) = 0.37939 0.05048
#
# Static dielectric constant tensor:
#      x y z
#    x 1.792190 0.000000 -0.021350 
#    y 0.000000 1.849740 0.000000 
#    z -0.021350 0.000000 1.752390 
# 
# From -- ./inp_files/71626.got.cif
#   From: 2010.05.17/outbox.cif.g08.bks.cpg/sg10_36_cif.got.tgz:71626.got - 2010.06.03 11:33:40.
