data_PCOD9145861
_publ_section_title
;
Structure prediction by ZEFSAII (Michael W. Deem and Ramdas Pophale) SiO2 
 PCOD9145861
Probable space group: P 2/M
;
_chemical_formula_sum "Si O2"
_cell_formula_units_Z 30
_cell_length_a 5.198348
_cell_length_b 18.993276
_cell_length_c 16.029470
_cell_angle_alpha 90.000000
_cell_angle_beta 103.972848
_cell_angle_gamma 90.000000
_cell_volume 1535.818068
_symmetry_space_group_name_H-M "P 2/M"
_symmetry_group_IT_number 10
_symmetry_cell_setting 'monoclinic'
loop_
_space_group_symop_operation_xyz
x,y,z
-x,y,-z
-x,-y,-z
x,-y,z
loop_
_atom_site_type_symbol
_atom_site_label
_atom_site_fract_x
_atom_site_fract_y
_atom_site_fract_z
Si Si1 0.101954 0.201612 0.596241
Si Si2 0.774883 0.922364 0.270252
Si Si3 0.803229 0.232463 0.908304
Si Si4 0.187690 0.078082 0.155111
Si Si5 0.398067 0.702983 0.402875
Si Si6 0.500000 0.684495 0.000000
Si Si7 0.713646 0.417971 0.135092
Si Si8 0.256311 0.644170 0.219265
O O1 0.128709 0.140599 0.665153
O O2 0.385008 0.237965 0.603791
O O3 0.000000 0.172486 0.500000
O O4 0.886474 0.260127 0.605779
O O5 0.461418 0.917769 0.228599
O O6 0.935181 0.918749 0.196130
O O7 0.830630 0.000000 0.310846
O O8 0.813390 0.149346 0.897622
O O9 0.532105 0.262058 0.925735
O O10 0.828833 0.279111 0.826595
O O11 0.000000 0.251036 0.000000
O O12 0.187923 0.000000 0.113942
O O13 0.500000 0.672882 0.500000
O O14 0.373921 0.653604 0.320607
O O15 0.714628 0.628431 0.050486
O O16 0.681437 0.500000 0.115157
O O17 0.470689 0.390427 0.173439
O O18 0.991983 0.402061 0.200631
#
# Coordination Sequence:
#
# PCOD9145861 Si02
#       8
#     4   4   4   4   4   2   4   4
#     4  10  19  32  53  83 112 145 187 242 304 347
#     4  10  20  36  53  75 106 148 196 239 291 354
#     4  11  22  37  58  85 119 146 198 245 286 346
#     4  10  23  38  56  77 109 156 198 239 289 337
#     4  10  21  37  59  87 118 149 191 241 287 341
#     4  10  23  40  57  92 118 156 192 238 297 346
#     4  11  23  40  62  88 123 155 190 234 287 355
#     4  11  22  38  62  89 117 158 195 235 291 341
#
# _framework density 19.533562
#
# number of rings (size 3 to 8) (size 9 to 14) (size 15 to 20)
#    0.000    1.600    1.333    3.800    1.867    1.600 
#    0.000    2.333    0.000    7.200    0.000    0.000 
#    0.000    0.000    0.000    0.000    0.000    0.000 
#
# Total GULP energy -167258.184978 kJ/mol
# GULP energy per Si atom -5575.272833 kJ/mol
# Density = 1.948910 g / cm^3
# Si number density = 19.533562 Si / 1000 Ang^3
#
#
#
# Elastic Constant Matrix: (Units=GPa)
#
#
# Indices 1 2 3 4 5 6 
#
# 1 48.8428 8.5586 2.1180 0.0000 0.0076 0.0000
# 2 8.5586 112.5215 36.6981 0.0000 -11.0389 0.0000
# 3 2.1180 36.6981 68.1066 0.0000 0.5752 0.0000
# 4 0.0000 0.0000 0.0000 -2.4098 0.0000 -2.7165
# 5 0.0076 -11.0389 0.5752 0.0000 20.0688 0.0000
# 6 0.0000 0.0000 0.0000 -2.7165 0.0000 21.2385
#
#
#
# Elastic Compliance Matrix: (Units=1/GPa)
#
#
# Indices 1 2 3 4 5 6 
#
# 1 0.020772 -0.001783 0.000323 0.000000 -0.000998 0.000000
# 2 -0.001783 0.011737 -0.006325 0.000000 0.006638 0.000000
# 3 0.000323 -0.006325 0.018115 0.000000 -0.003998 0.000000
# 4 0.000000 0.000000 0.000000 -0.362682 0.000000 -0.046388
# 5 -0.000998 0.006638 -0.003998 0.000000 0.053595 0.000000
# 6 0.000000 0.000000 0.000000 -0.046388 0.000000 0.041151
#
#
# Mechanical properties :
#
#
# Convention : Reuss Voigt Hill
#
# Bulk Modulus (GPa) = 28.52715 36.02447 32.27581
# Shear Modulus (GPa) = -26.30778 19.91925 -3.19426
#
# Velocity S-wave (km/s) = -3.67386 3.19681 -1.28016
# Velocity P-wave (km/s) = 1.83315 5.66644 3.79131
#
# Compressibility (1/GPa) = 0.03505433
#
# Stress axis : x y z
#
# Youngs Moduli (GPa) = 48.14065 85.20191 55.20412
#
# Poissons Ratio (x) = 0.15195 -0.01785
# Poissons Ratio (y) = 0.08585 0.34915
# Poissons Ratio (z) = -0.01557 0.53888
#
# Static dielectric constant tensor:
#      x y z
#    x 1.816990 0.000000 -0.021550 
#    y 0.000000 1.665430 0.000000 
#    z -0.021550 0.000000 1.711860 
# 
# From -- ./inp_files/59442.got.cif
#   From: 2010.05.17/outbox.cif.g08.bks.cpg/sg10_30_cif.got.tgz:59442.got - 2010.06.03 11:33:40.
