data_PCOD9145755
_publ_section_title
;
Structure prediction by ZEFSAII (Michael W. Deem and Ramdas Pophale) SiO2 
 PCOD9145755
Probable space group: P 2/M
;
_chemical_formula_sum "Si O2"
_cell_formula_units_Z 20
_cell_length_a 16.646393
_cell_length_b 7.633924
_cell_length_c 11.552749
_cell_angle_alpha 90.000000
_cell_angle_beta 43.167670
_cell_angle_gamma 90.000000
_cell_volume 1004.374193
_symmetry_space_group_name_H-M "P 2/M"
_symmetry_group_IT_number 10
_symmetry_cell_setting 'monoclinic'
loop_
_space_group_symop_operation_xyz
x,y,z
-x,y,-z
-x,-y,-z
x,-y,z
loop_
_atom_site_type_symbol
_atom_site_label
_atom_site_fract_x
_atom_site_fract_y
_atom_site_fract_z
Si Si1 0.410425 0.000000 0.764357
Si Si2 0.612839 0.696353 0.826889
Si Si3 0.320598 0.000000 0.599872
Si Si4 0.260356 0.195016 0.092392
Si Si5 0.219371 0.713640 0.552146
Si Si6 0.005310 0.708928 0.361038
O O1 0.344397 0.000000 0.711343
O O2 0.548489 0.000000 0.595038
O O3 0.361910 0.165745 0.890262
O O4 0.575205 0.500000 0.832288
O O5 0.702867 0.687978 0.838885
O O6 0.679623 0.765978 0.646393
O O7 0.500000 0.790440 0.000000
O O8 0.249805 0.828330 0.631818
O O9 0.134435 0.249300 0.177215
O O10 0.246244 0.000000 0.158124
O O11 0.220712 0.500000 0.566854
O O12 0.098319 0.766315 0.615505
O O13 0.991530 0.500000 0.383212
O O14 0.000000 0.775950 0.500000
#
# Coordination Sequence:
#
# PCOD9145755 Si02
#       6
#     2   4   2   4   4   4
#     4   9  24  42  57  88 106 156 208 241 298 355
#     4  10  19  32  52  83 119 149 181 235 298 353
#     4  11  22  44  67  74 122 156 194 265 292 327
#     4  10  21  34  54  81 118 143 198 235 284 353
#     4  10  22  36  59  93 116 152 201 233 297 362
#     4  10  19  35  56  84 124 159 186 229 289 359
#
# _framework density 19.912896
#
# number of rings (size 3 to 8) (size 9 to 14) (size 15 to 20)
#    0.600    1.400    2.000    1.800    2.800    0.800 
#    0.000    7.000    0.000    2.400    0.000    0.000 
#    0.000    0.000    0.000    0.000    0.000    0.000 
#
# Total GULP energy -111399.349075 kJ/mol
# GULP energy per Si atom -5569.967454 kJ/mol
# Density = 1.986757 g / cm^3
# Si number density = 19.912896 Si / 1000 Ang^3
#
#
#
# Elastic Constant Matrix: (Units=GPa)
#
#
# Indices 1 2 3 4 5 6 
#
# 1 90.6121 35.1927 -4.2766 0.0000 1.8946 0.0000
# 2 35.1927 59.8957 -8.7033 0.0000 8.5196 0.0000
# 3 -4.2766 -8.7033 17.0400 0.0000 0.8522 0.0000
# 4 0.0000 0.0000 0.0000 17.0876 0.0000 -8.1043
# 5 1.8946 8.5196 0.8522 0.0000 33.0332 0.0000
# 6 0.0000 0.0000 0.0000 -8.1043 0.0000 25.9568
#
#
#
# Elastic Compliance Matrix: (Units=1/GPa)
#
#
# Indices 1 2 3 4 5 6 
#
# 1 0.014376 -0.008795 -0.000957 0.000000 0.001468 0.000000
# 2 -0.008795 0.024241 0.010475 0.000000 -0.006018 0.000000
# 3 -0.000957 0.010475 0.064010 0.000000 -0.004298 0.000000
# 4 0.000000 0.000000 0.000000 0.068694 0.000000 0.021448
# 5 0.001468 -0.006018 -0.004298 0.000000 0.031851 0.000000
# 6 0.000000 0.000000 0.000000 0.021448 0.000000 0.045222
#
#
# Mechanical properties :
#
#
# Convention : Reuss Voigt Hill
#
# Bulk Modulus (GPa) = 9.60863 23.55259 16.58061
# Shear Modulus (GPa) = 17.75312 24.90453 21.32883
#
# Velocity S-wave (km/s) = 2.98910 3.54032 3.27633
# Velocity P-wave (km/s) = 4.09253 5.34465 4.75994
#
# Compressibility (1/GPa) = 0.10407311
#
# Stress axis : x y z
#
# Youngs Moduli (GPa) = 69.56050 41.25190 15.62250
#
# Poissons Ratio (x) = 0.36280 0.01496
# Poissons Ratio (y) = 0.61177 -0.16365
# Poissons Ratio (z) = 0.06660 -0.43211
#
# Static dielectric constant tensor:
#      x y z
#    x 1.717930 0.000000 -0.048790 
#    y 0.000000 1.761670 0.000000 
#    z -0.048790 0.000000 1.728480 
# 
# From -- ./inp_files/48605.got.cif
#   From: 2010.05.17/outbox.cif.g08.bks.cpg/sg10_25_cif.got.tgz:48605.got - 2010.06.03 11:33:40.
