data_PCOD9145182
_publ_section_title
;
Structure prediction by ZEFSAII (Michael W. Deem and Ramdas Pophale) SiO2 
 PCOD9145182
Probable space group: P 2/M
;
_chemical_formula_sum "Si O2"
_cell_formula_units_Z 32
_cell_length_a 25.425210
_cell_length_b 7.926687
_cell_length_c 16.911731
_cell_angle_alpha 90.000000
_cell_angle_beta 26.613304
_cell_angle_gamma 90.000000
_cell_volume 1526.827766
_symmetry_space_group_name_H-M "P 2/M"
_symmetry_group_IT_number 10
_symmetry_cell_setting 'monoclinic'
loop_
_space_group_symop_operation_xyz
x,y,z
-x,y,-z
-x,-y,-z
x,-y,z
loop_
_atom_site_type_symbol
_atom_site_label
_atom_site_fract_x
_atom_site_fract_y
_atom_site_fract_z
Si Si1 0.977696 0.198782 0.845900
Si Si2 0.618888 0.705668 0.885873
Si Si3 0.370374 0.292581 0.946354
Si Si4 0.623799 0.806249 0.304359
Si Si5 0.237829 0.701632 0.450548
Si Si6 0.802122 0.310272 0.946313
Si Si7 0.194889 0.808789 0.794371
Si Si8 0.628875 0.298996 0.577339
O O1 0.896979 0.225826 0.876457
O O2 0.106072 0.264296 0.654559
O O3 0.983651 0.000000 0.851377
O O4 0.915822 0.270488 0.009218
O O5 0.617308 0.500000 0.891690
O O6 0.725163 0.761746 0.686118
O O7 0.500000 0.755495 0.000000
O O8 0.626313 0.760295 0.966521
O O9 0.365041 0.500000 0.949833
O O10 0.495926 0.237329 0.739640
O O11 0.252331 0.233063 0.060244
O O12 0.500000 0.741545 0.500000
O O13 0.709766 0.815201 0.263460
O O14 0.610127 0.000000 0.293230
O O15 0.685227 0.692187 0.157378
O O16 0.253382 0.500000 0.428195
O O17 0.325784 0.769101 0.399490
O O18 0.844282 0.500000 0.874854
O O19 0.267277 0.731115 0.625016
O O20 0.163963 0.000000 0.811462
O O21 0.616775 0.500000 0.600620
#
# Coordination Sequence:
#
# PCOD9145182 Si02
#       8
#     4   4   4   4   4   4   4   4
#     4  10  22  40  56  70 101 147 187 219 259 313
#     4   9  15  30  56  83 111 139 166 204 261 323
#     4   9  17  30  51  83 115 138 165 209 267 322
#     4   9  17  30  47  68 100 142 184 217 255 313
#     4  10  20  34  57  84 105 134 177 219 260 310
#     4  10  19  31  51  78 106 135 175 224 265 306
#     4   9  19  33  48  69  98 140 185 217 253 306
#     4  10  19  31  51  82 113 136 167 216 269 314
#
# _framework density 20.958486000000001
#
# number of rings (size 3 to 8) (size 9 to 14) (size 15 to 20)
#    0.000    2.500    1.250    2.250    0.000    3.750 
#    0.000    3.750    0.000    6.375    0.000    0.000 
#    0.000    0.000    0.000    0.000    0.000    0.000 
#
# Total GULP energy -178309.634619 kJ/mol
# GULP energy per Si atom -5572.176082 kJ/mol
# Density = 2.091078 g / cm^3
# Si number density = 20.958486 Si / 1000 Ang^3
#
#
#
# Elastic Constant Matrix: (Units=GPa)
#
#
# Indices 1 2 3 4 5 6 
#
# 1 59.1898 0.3807 5.6500 0.0000 15.4944 0.0000
# 2 0.3807 14.3215 -1.5223 0.0000 4.1470 0.0000
# 3 5.6500 -1.5223 84.5073 0.0000 7.0118 0.0000
# 4 0.0000 0.0000 0.0000 29.7147 0.0000 22.4474
# 5 15.4944 4.1470 7.0118 0.0000 27.4449 0.0000
# 6 0.0000 0.0000 0.0000 22.4474 0.0000 14.6290
#
#
#
# Elastic Compliance Matrix: (Units=1/GPa)
#
#
# Indices 1 2 3 4 5 6 
#
# 1 0.019944 0.002795 -0.000321 0.000000 -0.011600 0.000000
# 2 0.002795 0.073844 0.002248 0.000000 -0.013310 0.000000
# 3 -0.000321 0.002248 0.012166 0.000000 -0.003267 0.000000
# 4 0.000000 0.000000 0.000000 -0.211443 0.000000 0.324447
# 5 -0.011600 -0.013310 -0.003267 0.000000 0.045831 0.000000
# 6 0.000000 0.000000 0.000000 0.324447 0.000000 -0.429487
#
#
# Mechanical properties :
#
#
# Convention : Reuss Voigt Hill
#
# Bulk Modulus (GPa) = 8.66566 18.55947 13.61256
# Shear Modulus (GPa) = -10.86666 24.59175 6.86254
#
# Velocity S-wave (km/s) = -2.27950 3.42914 1.81148
# Velocity P-wave (km/s) = 1.66868 4.95513 3.29915
#
# Compressibility (1/GPa) = 0.11539803
#
# Stress axis : x y z
#
# Youngs Moduli (GPa) = 50.14030 13.54208 82.19436
#
# Poissons Ratio (x) = -0.03785 0.02635
# Poissons Ratio (y) = -0.14013 -0.18475
# Poissons Ratio (z) = 0.01607 -0.03044
#
# Static dielectric constant tensor:
#      x y z
#    x 1.786620 0.000000 0.011010 
#    y 0.000000 1.786860 0.000000 
#    z 0.011010 0.000000 1.769980 
# 
# From -- ./inp_files/71553.got.cif
#   From: 2010.05.17/outbox.cif.g08.bks.cpg/sg10_36_cif.got.tgz:71553.got - 2010.06.03 11:33:40.
