data_PCOD9145406
_publ_section_title
;
Structure prediction by ZEFSAII (Michael W. Deem and Ramdas Pophale) SiO2 
 PCOD9145406
Probable space group: P 2/M
;
_chemical_formula_sum "Si O2"
_cell_formula_units_Z 32
_cell_length_a 17.988742
_cell_length_b 8.872925
_cell_length_c 24.269173
_cell_angle_alpha 90.000000
_cell_angle_beta 31.211496
_cell_angle_gamma 90.000000
_cell_volume 2007.330275
_symmetry_space_group_name_H-M "P 2/M"
_symmetry_group_IT_number 10
_symmetry_cell_setting 'monoclinic'
loop_
_space_group_symop_operation_xyz
x,y,z
-x,y,-z
-x,-y,-z
x,-y,z
loop_
_atom_site_type_symbol
_atom_site_label
_atom_site_fract_x
_atom_site_fract_y
_atom_site_fract_z
Si Si1 0.442997 0.681535 0.975746
Si Si2 0.273481 0.181439 0.409887
Si Si3 0.384245 0.321366 0.449735
Si Si4 0.388505 0.173437 0.622116
Si Si5 0.164400 0.181333 0.677710
Si Si6 0.887510 0.319493 0.806028
Si Si7 0.947120 0.819015 0.648774
Si Si8 0.673708 0.818485 0.748338
O O1 0.453484 0.500000 0.966994
O O2 0.543279 0.750416 0.865446
O O3 0.500000 0.729715 0.000000
O O4 0.276016 0.722901 0.076334
O O5 0.360211 0.259389 0.403864
O O6 0.320449 0.228602 0.319050
O O7 0.104935 0.215712 0.525795
O O8 0.289014 0.000000 0.404633
O O9 0.367702 0.500000 0.462158
O O10 0.536895 0.272455 0.378637
O O11 0.262646 0.246612 0.566001
O O12 0.500000 0.173910 0.500000
O O13 0.240861 0.223495 0.686961
O O14 0.376177 0.000000 0.648683
O O15 0.005883 0.244133 0.769947
O O16 0.167166 0.000000 0.671959
O O17 0.900521 0.500000 0.799961
O O18 0.920281 0.263498 0.723377
O O19 0.822113 0.777991 0.685165
O O20 0.940748 0.000000 0.662060
O O21 0.664001 0.000000 0.755580
#
# Coordination Sequence:
#
# PCOD9145406 Si02
#       8
#     4   4   4   4   4   4   4   4
#     4  10  21  37  52  69  99 134 166 209 261 301
#     4  10  20  34  50  71 103 136 168 208 252 295
#     4  11  20  29  46  73 103 134 167 199 239 296
#     4   8  16  30  47  67  96 133 165 195 242 296
#     4  10  19  32  49  71 100 132 165 204 249 295
#     4  11  21  32  50  74 100 132 170 206 249 301
#     4  10  19  32  51  72  99 132 166 207 254 295
#     4  10  21  35  53  75  95 128 178 218 247 292
#
# _framework density 15.941572000000001
#
# number of rings (size 3 to 8) (size 9 to 14) (size 15 to 20)
#    0.000    2.000    2.500    3.000    0.000    6.000 
#    0.000    0.000    0.000    2.250    0.000    0.875 
#    0.000    7.000    0.000    0.000    0.000    0.000 
#
# Total GULP energy -178544.530970 kJ/mol
# GULP energy per Si atom -5579.516593 kJ/mol
# Density = 1.590529 g / cm^3
# Si number density = 15.941572 Si / 1000 Ang^3
#
#
#
# Elastic Constant Matrix: (Units=GPa)
#
#
# Indices 1 2 3 4 5 6 
#
# 1 145.0096 53.9921 83.0395 0.0000 -21.6992 0.0000
# 2 53.9921 43.7716 40.7812 0.0000 -5.3520 0.0000
# 3 83.0395 40.7812 99.3060 0.0000 -1.1607 0.0000
# 4 0.0000 0.0000 0.0000 73.6177 0.0000 67.6641
# 5 -21.6992 -5.3520 -1.1607 0.0000 22.4808 0.0000
# 6 0.0000 0.0000 0.0000 67.6641 0.0000 107.8732
#
#
#
# Elastic Compliance Matrix: (Units=1/GPa)
#
#
# Indices 1 2 3 4 5 6 
#
# 1 0.021131 -0.012527 -0.012330 0.000000 0.016778 0.000000
# 2 -0.012527 0.045937 -0.008408 0.000000 -0.001589 0.000000
# 3 -0.012330 -0.008408 0.023685 0.000000 -0.012680 0.000000
# 4 0.000000 0.000000 0.000000 0.032077 0.000000 -0.020120
# 5 0.016778 -0.001589 -0.012680 0.000000 0.059644 0.000000
# 6 0.000000 0.000000 0.000000 -0.020120 0.000000 0.021891
#
#
# Mechanical properties :
#
#
# Convention : Reuss Voigt Hill
#
# Bulk Modulus (GPa) = 41.28183 71.52363 56.40273
# Shear Modulus (GPa) = 17.92309 48.14598 33.03453
#
# Velocity S-wave (km/s) = 3.35669 5.50155 4.55711
# Velocity P-wave (km/s) = 6.40118 9.23686 7.94653
#
# Compressibility (1/GPa) = 0.02422373
#
# Stress axis : x y z
#
# Youngs Moduli (GPa) = 47.32279 21.76882 42.22110
#
# Poissons Ratio (x) = 0.27269 0.52058
# Poissons Ratio (y) = 0.59280 0.35501
# Poissons Ratio (z) = 0.58348 0.18304
#
# Static dielectric constant tensor:
#      x y z
#    x 1.544620 0.000000 -0.022690 
#    y 0.000000 1.534150 0.000000 
#    z -0.022690 0.000000 1.506010 
# 
# From -- ./inp_files/52749.got.cif
#   From: 2010.05.17/outbox.cif.g08.bks.cpg/sg10_27_cif.got.tgz:52749.got - 2010.06.03 11:33:40.
