data_PCOD9145577
_publ_section_title
;
Structure prediction by ZEFSAII (Michael W. Deem and Ramdas Pophale) SiO2 
 PCOD9145577
Probable space group: P 2/M
;
_chemical_formula_sum "Si O2"
_cell_formula_units_Z 24
_cell_length_a 20.588600
_cell_length_b 7.964438
_cell_length_c 9.969094
_cell_angle_alpha 90.000000
_cell_angle_beta 129.633715
_cell_angle_gamma 90.000000
_cell_volume 1258.943413
_symmetry_space_group_name_H-M "P 2/M"
_symmetry_group_IT_number 10
_symmetry_cell_setting 'monoclinic'
loop_
_space_group_symop_operation_xyz
x,y,z
-x,y,-z
-x,-y,-z
x,-y,z
loop_
_atom_site_type_symbol
_atom_site_label
_atom_site_fract_x
_atom_site_fract_y
_atom_site_fract_z
Si Si1 0.259585 0.300405 0.859520
Si Si2 0.594380 0.298402 0.145696
Si Si3 0.134933 0.201992 0.475420
Si Si4 0.716588 0.202884 0.530630
Si Si5 0.028891 0.205314 0.887964
Si Si6 0.779979 0.201732 0.897134
O O1 0.264727 0.500000 0.863747
O O2 0.337737 0.232268 0.873753
O O3 0.173794 0.250751 0.669195
O O4 0.259358 0.243660 0.011950
O O5 0.591570 0.500000 0.127349
O O6 0.633846 0.260183 0.342803
O O7 0.500000 0.233029 0.000000
O O8 0.202899 0.258936 0.452731
O O9 0.042369 0.261823 0.311123
O O10 0.133118 0.000000 0.468008
O O11 0.729523 0.262223 0.699598
O O12 0.716996 0.000000 0.530465
O O13 0.030248 0.000000 0.887132
O O14 0.123347 0.264130 0.982842
O O15 0.000000 0.252392 0.000000
O O16 0.783848 0.000000 0.891554
#
# Coordination Sequence:
#
# PCOD9145577 Si02
#       6
#     4   4   4   4   4   4
#     4  10  21  35  50  71 102 133 163 203 252 299
#     4   9  19  37  58  75  93 125 168 206 242 297
#     4   9  16  30  52  74  97 130 172 211 243 279
#     4   9  17  30  52  79 102 126 160 205 252 292
#     4   9  15  27  50  76  99 129 173 212 236 275
#     4  10  19  32  51  76 105 134 165 203 246 290
#
# _framework density 19.063606
#
# number of rings (size 3 to 8) (size 9 to 14) (size 15 to 20)
#    0.000    2.667    1.667    0.500    0.000    2.333 
#    0.000    5.000    0.000    6.000    0.000    0.000 
#    0.000    0.000    0.000    0.000    0.000    0.000 
#
# Total GULP energy -133846.680620 kJ/mol
# GULP energy per Si atom -5576.945026 kJ/mol
# Density = 1.902022 g / cm^3
# Si number density = 19.063606 Si / 1000 Ang^3
#
#
#
# Elastic Constant Matrix: (Units=GPa)
#
#
# Indices 1 2 3 4 5 6 
#
# 1 78.7910 4.7124 87.0508 0.0000 3.5290 0.0000
# 2 4.7124 9.8909 6.4546 0.0000 4.2618 0.0000
# 3 87.0508 6.4546 187.3657 0.0000 4.0375 0.0000
# 4 0.0000 0.0000 0.0000 41.2659 0.0000 -1.6687
# 5 3.5290 4.2618 4.0375 0.0000 36.9000 0.0000
# 6 0.0000 0.0000 0.0000 -1.6687 0.0000 13.7762
#
#
#
# Elastic Compliance Matrix: (Units=1/GPa)
#
#
# Indices 1 2 3 4 5 6 
#
# 1 0.026303 -0.004367 -0.012055 0.000000 -0.000692 0.000000
# 2 -0.004367 0.109341 -0.001478 0.000000 -0.012049 0.000000
# 3 -0.012055 -0.001478 0.010986 0.000000 0.000122 0.000000
# 4 0.000000 0.000000 0.000000 0.024352 0.000000 0.002950
# 5 -0.000692 -0.012049 0.000122 0.000000 0.028545 0.000000
# 6 0.000000 0.000000 0.000000 0.002950 0.000000 0.072946
#
#
# Mechanical properties :
#
#
# Convention : Reuss Voigt Hill
#
# Bulk Modulus (GPa) = 9.02286 52.49813 30.76049
# Shear Modulus (GPa) = 14.48368 30.24374 22.36371
#
# Velocity S-wave (km/s) = 2.75936 3.98737 3.42879
# Velocity P-wave (km/s) = 3.85945 6.98548 5.64324
#
# Compressibility (1/GPa) = 0.11082960
#
# Stress axis : x y z
#
# Youngs Moduli (GPa) = 38.01888 9.14574 91.02282
#
# Poissons Ratio (x) = 0.03994 1.09728
# Poissons Ratio (y) = 0.16602 0.13456
# Poissons Ratio (z) = 0.45832 0.01352
#
# Static dielectric constant tensor:
#      x y z
#    x 1.661810 0.000000 0.004700 
#    y 0.000000 1.689330 0.000000 
#    z 0.004700 0.000000 1.663970 
# 
# From -- ./inp_files/27050.got.cif
#   From: 2010.05.17/outbox.cif.g08.bks.cpg/sg10_14_cif.got.tgz:27050.got - 2010.06.03 11:33:40.
