data_PCOD9145377
_publ_section_title
;
Structure prediction by ZEFSAII (Michael W. Deem and Ramdas Pophale) SiO2 
 PCOD9145377
Probable space group: P 2/M
;
_chemical_formula_sum "Si O2"
_cell_formula_units_Z 26
_cell_length_a 27.730135
_cell_length_b 7.933246
_cell_length_c 5.331202
_cell_angle_alpha 90.000000
_cell_angle_beta 90.339085
_cell_angle_gamma 90.000000
_cell_volume 1172.790497
_symmetry_space_group_name_H-M "P 2/M"
_symmetry_group_IT_number 10
_symmetry_cell_setting 'monoclinic'
loop_
_space_group_symop_operation_xyz
x,y,z
-x,y,-z
-x,-y,-z
x,-y,z
loop_
_atom_site_type_symbol
_atom_site_label
_atom_site_fract_x
_atom_site_fract_y
_atom_site_fract_z
Si Si1 0.694687 0.796750 0.205554
Si Si2 0.806070 0.703173 0.259440
Si Si3 0.358410 0.203519 0.299787
Si Si4 0.139283 0.706522 0.239260
Si Si5 0.442655 0.184028 0.961269
Si Si6 0.972075 0.293850 0.748957
Si Si7 0.532669 0.500000 0.258521
O O1 0.750278 0.750558 0.240472
O O2 0.673014 0.736294 0.940119
O O3 0.691678 0.000000 0.200256
O O4 0.663886 0.732677 0.442475
O O5 0.809041 0.500000 0.260831
O O6 0.831024 0.763202 0.516230
O O7 0.834955 0.762883 0.015162
O O8 0.413475 0.232802 0.210128
O O9 0.354409 0.000000 0.313069
O O10 0.139509 0.500000 0.238880
O O11 0.083609 0.759310 0.250688
O O12 0.436699 0.331324 0.763091
O O13 0.424735 0.000000 0.875660
O O14 0.500000 0.168003 0.000000
O O15 0.972145 0.500000 0.748324
O O16 0.000000 0.239299 0.500000
O O17 0.000000 0.239998 0.000000
O O18 0.500000 0.500000 0.500000
O O19 0.500000 0.500000 0.000000
#
# Coordination Sequence:
#
# PCOD9145377 Si02
#       7
#     4   4   4   4   4   4   2
#     4  10  20  36  54  74 103 133 167 216 260 302
#     4  10  19  32  48  70  98 129 167 205 252 306
#     4   9  19  35  55  78 103 132 168 209 260 311
#     4   9  17  28  44  66  98 133 163 207 254 297
#     4   9  19  38  62  86 114 150 186 226 279 338
#     4   9  15  23  37  60  92 129 164 196 243 303
#     4  10  22  38  56  84 116 144 184 228 268 320
#
# _framework density 22.169346000000001
#
# number of rings (size 3 to 8) (size 9 to 14) (size 15 to 20)
#    0.000    2.615    0.000    1.846    0.000    6.462 
#    2.769    4.615    0.000    0.000    0.000    0.000 
#    0.000   12.308    0.000    0.000    0.000    0.000 
#
# Total GULP energy -145212.432044 kJ/mol
# GULP energy per Si atom -5585.093540 kJ/mol
# Density = 2.211889 g / cm^3
# Si number density = 22.169346 Si / 1000 Ang^3
#
#
#
# Elastic Constant Matrix: (Units=GPa)
#
#
# Indices 1 2 3 4 5 6 
#
# 1 175.7624 -4.8826 76.2556 0.0000 -8.1413 0.0000
# 2 -4.8826 53.6827 17.9585 0.0000 -9.7970 0.0000
# 3 76.2556 17.9585 179.0912 0.0000 -12.2542 0.0000
# 4 0.0000 0.0000 0.0000 -5.4531 0.0000 -7.4497
# 5 -8.1413 -9.7970 -12.2542 0.0000 45.1149 0.0000
# 6 0.0000 0.0000 0.0000 -7.4497 0.0000 22.3884
#
#
#
# Elastic Compliance Matrix: (Units=1/GPa)
#
#
# Indices 1 2 3 4 5 6 
#
# 1 0.007159 0.001867 -0.003178 0.000000 0.000834 0.000000
# 2 0.001867 0.020398 -0.002562 0.000000 0.004071 0.000000
# 3 -0.003178 -0.002562 0.007251 0.000000 0.000840 0.000000
# 4 0.000000 0.000000 0.000000 -0.126072 0.000000 -0.041950
# 5 0.000834 0.004071 0.000840 0.000000 0.023428 0.000000
# 6 0.000000 0.000000 0.000000 -0.041950 0.000000 0.030707
#
#
# Mechanical properties :
#
#
# Convention : Reuss Voigt Hill
#
# Bulk Modulus (GPa) = 36.95346 65.24437 51.09891
# Shear Modulus (GPa) = -245.56046 33.69036 -105.93505
#
# Velocity S-wave (km/s) = -10.53595 3.90254 -6.92013
# Velocity P-wave (km/s) = 11.45877 7.05693 6.38369
#
# Compressibility (1/GPa) = 0.02706107
#
# Stress axis : x y z
#
# Youngs Moduli (GPa) = 139.68611 49.02553 137.90479
#
# Poissons Ratio (x) = -0.09151 0.43830
# Poissons Ratio (y) = -0.26073 0.35326
# Poissons Ratio (z) = 0.44397 0.12558
#
# Static dielectric constant tensor:
#      x y z
#    x 1.837910 0.000000 0.051060 
#    y 0.000000 1.549450 0.000000 
#    z 0.051060 0.000000 1.824090 
# 
# From -- ./inp_files/13426.got.cif
#   From: 2010.05.17/outbox.cif.g08.bks.cpg/sg10_7_cif.got.tgz:13426.got - 2010.06.03 11:33:40.
