data_PCOD9145611
_publ_section_title
;
Structure prediction by ZEFSAII (Michael W. Deem and Ramdas Pophale) SiO2 
 PCOD9145611
Probable space group: P 2/M
;
_chemical_formula_sum "Si O2"
_cell_formula_units_Z 28
_cell_length_a 13.592831
_cell_length_b 13.941163
_cell_length_c 7.338005
_cell_angle_alpha 90.000000
_cell_angle_beta 124.369226
_cell_angle_gamma 90.000000
_cell_volume 1147.784205
_symmetry_space_group_name_H-M "P 2/M"
_symmetry_group_IT_number 10
_symmetry_cell_setting 'monoclinic'
loop_
_space_group_symop_operation_xyz
x,y,z
-x,y,-z
-x,-y,-z
x,-y,z
loop_
_atom_site_type_symbol
_atom_site_label
_atom_site_fract_x
_atom_site_fract_y
_atom_site_fract_z
Si Si1 0.377655 0.306253 0.166318
Si Si2 0.120857 0.310320 0.900161
Si Si3 0.879081 0.104536 0.251798
Si Si4 0.486728 0.107880 0.204691
Si Si5 0.863951 0.689678 0.663656
Si Si6 0.761158 0.108006 0.502455
Si Si7 0.620250 0.386737 0.419243
O O1 0.402051 0.192654 0.181787
O O2 0.495893 0.352510 0.204766
O O3 0.376243 0.339355 0.375546
O O4 0.249476 0.337951 0.954536
O O5 0.123123 0.194812 0.881062
O O6 0.987869 0.336560 0.696407
O O7 0.125433 0.341845 0.115328
O O8 0.775850 0.110359 0.297195
O O9 0.000000 0.108517 0.500000
O O10 0.873932 0.000000 0.157443
O O11 0.623645 0.123262 0.413240
O O12 0.449016 0.000000 0.217532
O O13 0.500000 0.111295 0.000000
O O14 0.842331 0.804176 0.649404
O O15 0.742735 0.647328 0.456265
O O16 0.797188 0.000000 0.594739
O O17 0.619288 0.500000 0.437518
#
# Coordination Sequence:
#
# PCOD9145611 Si02
#       7
#     4   4   4   4   4   4   4
#     4  10  19  35  57  86 113 145 185 232 284 333
#     4  10  21  33  53  82 117 141 186 237 283 333
#     4  10  19  32  51  78 115 161 201 223 263 333
#     4  10  20  34  54  83 120 158 193 228 269 332
#     4  10  20  37  55  84 112 146 187 234 291 336
#     4  10  19  33  53  79 114 156 196 229 268 334
#     4  10  21  40  64  83 108 144 188 236 298 357
#
# _framework density 24.394829999999999
#
# number of rings (size 3 to 8) (size 9 to 14) (size 15 to 20)
#    0.000    2.000    2.857    1.714    0.000    2.286 
#    0.000   11.429    0.000    1.714    0.000    2.000 
#    0.000    0.000    0.000    0.000    0.000    0.000 
#
# Total GULP energy -156381.419228 kJ/mol
# GULP energy per Si atom -5585.050687 kJ/mol
# Density = 2.433931 g / cm^3
# Si number density = 24.394830 Si / 1000 Ang^3
#
#
#
# Elastic Constant Matrix: (Units=GPa)
#
#
# Indices 1 2 3 4 5 6 
#
# 1 137.2812 40.5362 80.8980 0.0000 58.9013 0.0000
# 2 40.5362 80.9922 19.8213 0.0000 13.7151 0.0000
# 3 80.8980 19.8213 63.6631 0.0000 26.8887 0.0000
# 4 0.0000 0.0000 0.0000 -5.2918 0.0000 -7.7168
# 5 58.9013 13.7151 26.8887 0.0000 72.1103 0.0000
# 6 0.0000 0.0000 0.0000 -7.7168 0.0000 1.0693
#
#
#
# Elastic Compliance Matrix: (Units=1/GPa)
#
#
# Indices 1 2 3 4 5 6 
#
# 1 0.045292 -0.008025 -0.047565 0.000000 -0.017733 0.000000
# 2 -0.008025 0.014872 0.004740 0.000000 0.001959 0.000000
# 3 -0.047565 0.004740 0.069607 0.000000 0.011995 0.000000
# 4 0.000000 0.000000 0.000000 -0.016399 0.000000 -0.118343
# 5 -0.017733 0.001959 0.011995 0.000000 0.023507 0.000000
# 6 0.000000 0.000000 0.000000 -0.118343 0.000000 0.081153
#
#
# Mechanical properties :
#
#
# Convention : Reuss Voigt Hill
#
# Bulk Modulus (GPa) = 35.62451 62.71640 49.17046
# Shear Modulus (GPa) = 15.19345 22.95629 19.07487
#
# Velocity S-wave (km/s) = 2.49833 3.07095 2.79932
# Velocity P-wave (km/s) = 4.79137 6.19185 5.53607
#
# Compressibility (1/GPa) = 0.02807056
#
# Stress axis : x y z
#
# Youngs Moduli (GPa) = 22.07914 67.24239 14.36629
#
# Poissons Ratio (x) = 0.53961 0.68333
# Poissons Ratio (y) = 0.17718 -0.06809
# Poissons Ratio (z) = 1.05019 -0.31871
#
# Static dielectric constant tensor:
#      x y z
#    x 2.002110 0.000000 0.064450 
#    y 0.000000 1.885100 0.000000 
#    z 0.064450 0.000000 1.990830 
# 
# From -- ./inp_files/29616.got.cif
#   From: 2010.05.17/outbox.cif.g08.bks.cpg/sg10_15_cif.got.tgz:29616.got - 2010.06.03 11:33:40.
