data_PCOD9145049
_publ_section_title
;
Structure prediction by ZEFSAII (Michael W. Deem and Ramdas Pophale) SiO2 
 PCOD9145049
Probable space group: P 2/M
;
_chemical_formula_sum "Si O2"
_cell_formula_units_Z 32
_cell_length_a 13.711474
_cell_length_b 10.625154
_cell_length_c 15.944705
_cell_angle_alpha 90.000000
_cell_angle_beta 137.304004
_cell_angle_gamma 90.000000
_cell_volume 1575.197207
_symmetry_space_group_name_H-M "P 2/M"
_symmetry_group_IT_number 10
_symmetry_cell_setting 'monoclinic'
loop_
_space_group_symop_operation_xyz
x,y,z
-x,y,-z
-x,-y,-z
x,-y,z
loop_
_atom_site_type_symbol
_atom_site_label
_atom_site_fract_x
_atom_site_fract_y
_atom_site_fract_z
Si Si1 0.158562 0.846212 0.190798
Si Si2 0.878617 0.857607 0.094616
Si Si3 0.431297 0.849945 0.269404
Si Si4 0.625748 0.720723 0.024321
Si Si5 0.161844 0.641294 0.693949
Si Si6 0.314019 0.150479 0.456199
Si Si7 0.040548 0.143652 0.378336
Si Si8 0.564048 0.363416 0.239584
O O1 0.264429 0.818291 0.180725
O O2 0.246843 0.798584 0.328267
O O3 0.994591 0.802451 0.101641
O O4 0.150472 0.000000 0.187455
O O5 0.728564 0.797183 0.026326
O O6 0.966742 0.860823 0.238852
O O7 0.848626 0.000000 0.049092
O O8 0.524255 0.826331 0.413063
O O9 0.504498 0.755720 0.251298
O O10 0.445452 0.000000 0.259611
O O11 0.736093 0.657637 0.159212
O O12 0.500000 0.790158 0.000000
O O13 0.531540 0.632825 0.905479
O O14 0.100157 0.500000 0.655156
O O15 0.046407 0.752372 0.625642
O O16 0.272126 0.653873 0.686715
O O17 0.204400 0.181637 0.462577
O O18 0.303671 0.000000 0.440145
O O19 0.033983 0.000000 0.407441
O O20 0.550299 0.500000 0.274000
#
# Coordination Sequence:
#
# PCOD9145049 Si02
#       8
#     4   4   4   4   4   4   4   4
#     4   8  14  27  49  74  97 122 154 194 236 274
#     4   8  14  25  44  73 102 120 143 190 244 280
#     4  10  19  31  50  73  94 123 164 199 226 270
#     4   9  17  30  50  70  88 120 163 196 227 278
#     4   9  17  31  51  71  90 119 160 197 231 280
#     4   8  14  27  49  75  98 121 154 194 233 274
#     4   8  14  26  46  72  99 121 144 187 242 281
#     4  10  21  35  48  65  95 129 156 193 243 282
#
# _framework density 20.314916
#
# number of rings (size 3 to 8) (size 9 to 14) (size 15 to 20)
#    0.000    3.250    0.000    2.250    0.000    4.250 
#    0.000    4.375    0.000   15.750    0.000    0.000 
#    0.000    0.000    0.000    0.000    0.000    0.000 
#
# Total GULP energy -178138.423927 kJ/mol
# GULP energy per Si atom -5566.825748 kJ/mol
# Density = 2.026868 g / cm^3
# Si number density = 20.314916 Si / 1000 Ang^3
#
#
#
# Elastic Constant Matrix: (Units=GPa)
#
#
# Indices 1 2 3 4 5 6 
#
# 1 125.4689 73.4528 15.4473 0.0000 37.3363 0.0000
# 2 73.4528 84.9178 8.5837 0.0000 16.8918 0.0000
# 3 15.4473 8.5837 61.8652 0.0000 16.5978 0.0000
# 4 0.0000 0.0000 0.0000 -42.7666 0.0000 -53.3233
# 5 37.3363 16.8918 16.5978 0.0000 37.9436 0.0000
# 6 0.0000 0.0000 0.0000 -53.3233 0.0000 -54.6317
#
#
#
# Elastic Compliance Matrix: (Units=1/GPa)
#
#
# Indices 1 2 3 4 5 6 
#
# 1 0.021302 -0.015652 0.000688 0.000000 -0.014294 0.000000
# 2 -0.015652 0.024426 -0.000788 0.000000 0.004873 0.000000
# 3 0.000688 -0.000788 0.018342 0.000000 -0.008349 0.000000
# 4 0.000000 0.000000 0.000000 0.107763 0.000000 -0.105182
# 5 -0.014294 0.004873 -0.008349 0.000000 0.041903 0.000000
# 6 0.000000 0.000000 0.000000 -0.105182 0.000000 0.084359
#
#
# Mechanical properties :
#
#
# Convention : Reuss Voigt Hill
#
# Bulk Modulus (GPa) = 30.70864 51.91329 41.31096
# Shear Modulus (GPa) = 14.68623 -0.23973 7.22325
#
# Velocity S-wave (km/s) = 2.69165 -0.34390 1.88769
# Velocity P-wave (km/s) = 4.98087 5.04500 5.01304
#
# Compressibility (1/GPa) = 0.03256413
#
# Stress axis : x y z
#
# Youngs Moduli (GPa) = 46.94334 40.94072 54.52030
#
# Poissons Ratio (x) = 0.64082 -0.03749
# Poissons Ratio (y) = 0.73477 0.04296
# Poissons Ratio (z) = -0.03228 0.03226
#
# Static dielectric constant tensor:
#      x y z
#    x 1.781920 0.000000 -0.015480 
#    y 0.000000 1.676170 0.000000 
#    z -0.015480 0.000000 1.788520 
# 
# From -- ./inp_files/57691.got.cif
#   From: 2010.05.17/outbox.cif.g08.bks.cpg/sg10_29_cif.got.tgz:57691.got - 2010.06.03 11:33:40.
