data_PCOD9145445
_publ_section_title
;
Structure prediction by ZEFSAII (Michael W. Deem and Ramdas Pophale) SiO2 
 PCOD9145445
Probable space group: P 2/M
;
_chemical_formula_sum "Si O2"
_cell_formula_units_Z 28
_cell_length_a 29.425170
_cell_length_b 8.997437
_cell_length_c 20.776852
_cell_angle_alpha 90.000000
_cell_angle_beta 160.193890
_cell_angle_gamma 90.000000
_cell_volume 1863.845784
_symmetry_space_group_name_H-M "P 2/M"
_symmetry_group_IT_number 10
_symmetry_cell_setting 'monoclinic'
loop_
_space_group_symop_operation_xyz
x,y,z
-x,y,-z
-x,-y,-z
x,-y,z
loop_
_atom_site_type_symbol
_atom_site_label
_atom_site_fract_x
_atom_site_fract_y
_atom_site_fract_z
Si Si1 0.099643 0.821918 0.692263
Si Si2 0.890079 0.324802 0.802556
Si Si3 0.090440 0.822995 0.442688
Si Si4 0.618093 0.177682 0.107337
Si Si5 0.853466 0.673403 0.612595
Si Si6 0.646562 0.823583 0.421178
Si Si7 0.378998 0.323039 0.028618
O O1 0.000000 0.789521 0.500000
O O2 0.021319 0.784661 0.653404
O O3 0.124837 0.000000 0.724564
O O4 0.237729 0.736295 0.866860
O O5 0.863393 0.500000 0.778739
O O6 0.937787 0.312633 0.791466
O O7 0.750599 0.235153 0.613951
O O8 0.000000 0.273356 0.000000
O O9 0.237150 0.791805 0.668152
O O10 0.079122 0.737176 0.360726
O O11 0.083762 0.000000 0.422209
O O12 0.611062 0.000000 0.084474
O O13 0.500000 0.214413 0.000000
O O14 0.607378 0.264515 0.026401
O O15 0.819434 0.500000 0.559421
O O16 0.719967 0.766345 0.453311
O O17 0.502818 0.747548 0.232473
O O18 0.636700 0.000000 0.407965
O O19 0.385325 0.500000 0.038864
#
# Coordination Sequence:
#
# PCOD9145445 Si02
#       7
#     4   4   4   4   4   4   4
#     4  10  20  37  54  67  90 131 179 217 254 296
#     4   8  16  32  52  77 108 136 159 191 244 303
#     4  10  19  32  50  71  96 131 171 212 250 293
#     4  10  20  33  50  69  93 130 170 205 252 301
#     4   9  18  31  49  75 106 133 159 198 248 294
#     4  10  19  32  51  74 103 133 167 202 243 296
#     4  12  23  34  49  71  98 129 170 216 260 295
#
# _framework density 15.022701
#
# number of rings (size 3 to 8) (size 9 to 14) (size 15 to 20)
#    0.857    1.286    1.429    3.429    0.000    3.143 
#    0.000    0.000    0.000    0.000    0.000    1.000 
#    0.000    8.000    0.000    0.000    0.000    0.000 
#
# Total GULP energy -155982.708303 kJ/mol
# GULP energy per Si atom -5570.811011 kJ/mol
# Density = 1.498851 g / cm^3
# Si number density = 15.022701 Si / 1000 Ang^3
#
#
#
# Elastic Constant Matrix: (Units=GPa)
#
#
# Indices 1 2 3 4 5 6 
#
# 1 69.6667 51.1012 66.9606 0.0000 12.0083 0.0000
# 2 51.1012 80.2543 69.3292 0.0000 3.6362 0.0000
# 3 66.9606 69.3292 119.3646 0.0000 3.5630 0.0000
# 4 0.0000 0.0000 0.0000 18.1082 0.0000 -3.1516
# 5 12.0083 3.6362 3.5630 0.0000 21.1583 0.0000
# 6 0.0000 0.0000 0.0000 -3.1516 0.0000 18.2367
#
#
#
# Elastic Compliance Matrix: (Units=1/GPa)
#
#
# Indices 1 2 3 4 5 6 
#
# 1 0.041584 -0.011957 -0.015819 0.000000 -0.018882 0.000000
# 2 -0.011957 0.028520 -0.009963 0.000000 0.003563 0.000000
# 3 -0.015819 -0.009963 0.022834 0.000000 0.006845 0.000000
# 4 0.000000 0.000000 0.000000 0.056936 0.000000 0.009840
# 5 -0.018882 0.003563 0.006845 0.000000 0.056214 0.000000
# 6 0.000000 0.000000 0.000000 0.009840 0.000000 0.056535
#
#
# Mechanical properties :
#
#
# Convention : Reuss Voigt Hill
#
# Bulk Modulus (GPa) = 57.27768 71.56309 64.42038
# Shear Modulus (GPa) = 14.53818 16.96027 15.74922
#
# Velocity S-wave (km/s) = 3.11424 3.36367 3.24135
# Velocity P-wave (km/s) = 7.15133 7.92627 7.54875
#
# Compressibility (1/GPa) = 0.01745881
#
# Stress axis : x y z
#
# Youngs Moduli (GPa) = 24.04781 35.06350 43.79352
#
# Poissons Ratio (x) = 0.41926 0.69277
# Poissons Ratio (y) = 0.28754 0.43634
# Poissons Ratio (z) = 0.38041 0.34935
#
# Static dielectric constant tensor:
#      x y z
#    x 1.489360 0.000000 -0.005950 
#    y 0.000000 1.500830 0.000000 
#    z -0.005950 0.000000 1.494040 
# 
# From -- ./inp_files/87151.got.cif
#   From: 2010.05.17/outbox.cif.g08.bks.cpg/sg10_44_cif.got.tgz:87151.got - 2010.06.03 11:33:40.
