data_PCOD9145605
_publ_section_title
;
Structure prediction by ZEFSAII (Michael W. Deem and Ramdas Pophale) SiO2 
 PCOD9145605
Probable space group: P 2/M
;
_chemical_formula_sum "Si O2"
_cell_formula_units_Z 32
_cell_length_a 20.487304
_cell_length_b 7.406404
_cell_length_c 26.640503
_cell_angle_alpha 90.000000
_cell_angle_beta 159.575099
_cell_angle_gamma 90.000000
_cell_volume 1410.699049
_symmetry_space_group_name_H-M "P 2/M"
_symmetry_group_IT_number 10
_symmetry_cell_setting 'monoclinic'
loop_
_space_group_symop_operation_xyz
x,y,z
-x,y,-z
-x,-y,-z
x,-y,z
loop_
_atom_site_type_symbol
_atom_site_label
_atom_site_fract_x
_atom_site_fract_y
_atom_site_fract_z
Si Si1 0.679232 0.282088 0.660729
Si Si2 0.911801 0.279351 0.322574
Si Si3 0.212393 0.787413 0.149319
Si Si4 0.250064 0.294371 0.630201
Si Si5 0.866763 0.720180 0.180657
Si Si6 0.046971 0.281180 0.867002
Si Si7 0.411949 0.209075 0.194424
Si Si8 0.436245 0.279548 0.866154
O O1 0.500000 0.219178 0.500000
O O2 0.678464 0.500000 0.658372
O O3 0.687623 0.231786 0.725163
O O4 0.870241 0.219302 0.771940
O O5 0.919303 0.500000 0.328305
O O6 0.953202 0.221311 0.295712
O O7 0.703678 0.229313 0.190050
O O8 0.063720 0.213608 0.472079
O O9 0.333353 0.713647 0.190181
O O10 0.190795 0.000000 0.122296
O O11 0.000000 0.712892 0.000000
O O12 0.201361 0.500000 0.609171
O O13 0.408641 0.297397 0.701668
O O14 0.342634 0.215346 0.746770
O O15 0.869158 0.500000 0.182109
O O16 0.960411 0.777682 0.196176
O O17 0.649918 0.778253 0.023989
O O18 0.048477 0.500000 0.868827
O O19 0.239199 0.221612 0.031234
O O20 0.462623 0.000000 0.238311
O O21 0.443771 0.500000 0.870544
#
# Coordination Sequence:
#
# PCOD9145605 Si02
#       8
#     4   4   4   4   4   4   4   4
#     4  10  22  37  56  86 119 145 173 216 272 330
#     4   9  17  27  45  76 110 139 169 214 263 309
#     4  10  21  38  58  80 106 141 186 227 263 313
#     4  10  19  32  51  78 107 137 173 216 267 315
#     4   9  16  27  46  74 106 138 172 212 258 306
#     4  10  19  34  55  78 107 140 175 215 263 317
#     4  11  22  36  56  79 104 136 180 226 264 310
#     4   9  15  26  46  74 107 138 173 214 259 310
#
# _framework density 22.683789999999998
#
# number of rings (size 3 to 8) (size 9 to 14) (size 15 to 20)
#    0.000    2.250    2.500    1.125    0.000    5.500 
#    0.000    2.500    0.000    2.250    0.000    0.875 
#    0.000    0.000    0.000    0.000    0.000    0.000 
#
# Total GULP energy -178825.431865 kJ/mol
# GULP energy per Si atom -5588.294746 kJ/mol
# Density = 2.263216 g / cm^3
# Si number density = 22.683790 Si / 1000 Ang^3
#
#
#
# Elastic Constant Matrix: (Units=GPa)
#
#
# Indices 1 2 3 4 5 6 
#
# 1 102.4276 -4.8871 -16.5152 0.0000 -10.1869 0.0000
# 2 -4.8871 75.8431 -8.4426 0.0000 3.0061 0.0000
# 3 -16.5152 -8.4426 40.2584 0.0000 -9.3293 0.0000
# 4 0.0000 0.0000 0.0000 -15.1752 0.0000 -11.6354
# 5 -10.1869 3.0061 -9.3293 0.0000 39.8558 0.0000
# 6 0.0000 0.0000 0.0000 -11.6354 0.0000 -1.6675
#
#
#
# Elastic Compliance Matrix: (Units=1/GPa)
#
#
# Indices 1 2 3 4 5 6 
#
# 1 0.011162 0.001200 0.005785 0.000000 0.004117 0.000000
# 2 0.001200 0.013635 0.003367 0.000000 0.000066 0.000000
# 3 0.005785 0.003367 0.029820 0.000000 0.008205 0.000000
# 4 0.000000 0.000000 0.000000 0.015149 0.000000 -0.105702
# 5 0.004117 0.000066 0.008205 0.000000 0.028058 0.000000
# 6 0.000000 0.000000 0.000000 -0.105702 0.000000 0.137860
#
#
# Mechanical properties :
#
#
# Convention : Reuss Voigt Hill
#
# Bulk Modulus (GPa) = 13.27656 17.64881 15.46269
# Shear Modulus (GPa) = 20.82574 21.16088 20.99331
#
# Velocity S-wave (km/s) = 3.03329 3.05760 3.04546
# Velocity P-wave (km/s) = 4.25833 4.50138 4.38154
#
# Compressibility (1/GPa) = 0.07532071
#
# Stress axis : x y z
#
# Youngs Moduli (GPa) = 89.58664 73.34269 33.53450
#
# Poissons Ratio (x) = -0.08801 -0.19399
# Poissons Ratio (y) = -0.10751 -0.11291
# Poissons Ratio (z) = -0.51824 -0.24695
#
# Static dielectric constant tensor:
#      x y z
#    x 1.823300 0.000000 -0.004430 
#    y 0.000000 1.896040 0.000000 
#    z -0.004430 0.000000 1.791630 
# 
# From -- ./inp_files/86750.got.cif
#   From: 2010.05.17/outbox.cif.g08.bks.cpg/sg10_44_cif.got.tgz:86750.got - 2010.06.03 11:33:40.
