data_PCOD9145770
_publ_section_title
;
Structure prediction by ZEFSAII (Michael W. Deem and Ramdas Pophale) SiO2 
 PCOD9145770
Probable space group: P 2/M
;
_chemical_formula_sum "Si O2"
_cell_formula_units_Z 24
_cell_length_a 19.889174
_cell_length_b 13.594012
_cell_length_c 14.809169
_cell_angle_alpha 90.000000
_cell_angle_beta 161.724622
_cell_angle_gamma 90.000000
_cell_volume 1255.594979
_symmetry_space_group_name_H-M "P 2/M"
_symmetry_group_IT_number 10
_symmetry_cell_setting 'monoclinic'
loop_
_space_group_symop_operation_xyz
x,y,z
-x,y,-z
-x,-y,-z
x,-y,z
loop_
_atom_site_type_symbol
_atom_site_label
_atom_site_fract_x
_atom_site_fract_y
_atom_site_fract_z
Si Si1 0.549800 0.115870 0.666639
Si Si2 0.166101 0.187479 0.287069
Si Si3 0.941995 0.110982 0.656774
Si Si4 0.901980 0.310600 0.516880
Si Si5 0.807084 0.611272 0.592009
Si Si6 0.698651 0.385124 0.079401
O O1 0.500000 0.145342 0.500000
O O2 0.492610 0.000000 0.602330
O O3 0.801251 0.124967 0.006746
O O4 0.400398 0.176304 0.543337
O O5 0.149048 0.128612 0.358827
O O6 0.108597 0.299864 0.239289
O O7 0.000000 0.149874 0.000000
O O8 0.859671 0.197092 0.487127
O O9 0.897471 0.000000 0.569848
O O10 0.883836 0.369400 0.587400
O O11 0.740842 0.350439 0.235537
O O12 0.137804 0.325601 0.775098
O O13 0.860801 0.500000 0.688240
O O14 0.549332 0.623317 0.261523
O O15 0.758555 0.500000 0.148765
#
# Coordination Sequence:
#
# PCOD9145770 Si02
#       6
#     4   4   4   4   4   4
#     4  10  19  32  53  76  99 130 173 216 251 293
#     4  11  21  34  54  77 104 138 175 215 256 302
#     4  10  21  35  52  78 108 137 171 211 256 306
#     4  10  19  33  55  79 104 133 170 214 257 303
#     4  10  21  35  53  77 106 137 171 213 259 306
#     4  10  19  34  57  80 103 132 174 216 254 304
#
# _framework density 19.114445
#
# number of rings (size 3 to 8) (size 9 to 14) (size 15 to 20)
#    0.000    1.833    1.667    4.000    0.000    2.333 
#    0.000    1.667    0.000    9.500    0.000    0.000 
#    0.000    0.000    0.000    0.000    0.000    0.000 
#
# Total GULP energy -134031.302759 kJ/mol
# GULP energy per Si atom -5584.637615 kJ/mol
# Density = 1.907094 g / cm^3
# Si number density = 19.114445 Si / 1000 Ang^3
#
#
#
# Elastic Constant Matrix: (Units=GPa)
#
#
# Indices 1 2 3 4 5 6 
#
# 1 92.5238 25.4882 -1.5430 0.0000 11.7561 0.0000
# 2 25.4882 91.0794 -13.0564 0.0000 -6.2902 0.0000
# 3 -1.5430 -13.0564 8.4129 0.0000 1.9126 0.0000
# 4 0.0000 0.0000 0.0000 17.4181 0.0000 4.4855
# 5 11.7561 -6.2902 1.9126 0.0000 19.1186 0.0000
# 6 0.0000 0.0000 0.0000 4.4855 0.0000 13.3057
#
#
#
# Elastic Compliance Matrix: (Units=1/GPa)
#
#
# Indices 1 2 3 4 5 6 
#
# 1 0.013277 -0.004773 -0.002824 0.000000 -0.009452 0.000000
# 2 -0.004773 0.015956 0.022539 0.000000 0.005930 0.000000
# 3 -0.002824 0.022539 0.154766 0.000000 -0.006331 0.000000
# 4 0.000000 0.000000 0.000000 0.062869 0.000000 -0.021194
# 5 -0.009452 0.005930 -0.006331 0.000000 0.060701 0.000000
# 6 0.000000 0.000000 0.000000 -0.021194 0.000000 0.082301
#
#
# Mechanical properties :
#
#
# Convention : Reuss Voigt Hill
#
# Bulk Modulus (GPa) = 4.67546 23.75486 14.21516
# Shear Modulus (GPa) = 11.59342 22.04362 16.81852
#
# Velocity S-wave (km/s) = 2.46545 3.39963 2.96950
# Velocity P-wave (km/s) = 3.24899 5.27870 4.38295
#
# Compressibility (1/GPa) = 0.21388282
#
# Stress axis : x y z
#
# Youngs Moduli (GPa) = 75.31965 62.67369 6.46137
#
# Poissons Ratio (x) = 0.29914 0.01824
# Poissons Ratio (y) = 0.35950 -0.14563
# Poissons Ratio (z) = 0.21268 -1.41260
#
# Static dielectric constant tensor:
#      x y z
#    x 1.643750 0.000000 0.008660 
#    y 0.000000 1.690700 0.000000 
#    z 0.008660 0.000000 1.663240 
# 
# From -- ./inp_files/41994.got.cif
#   From: 2010.05.17/outbox.cif.g08.bks.cpg/sg10_21_cif.got.tgz:41994.got - 2010.06.03 11:33:40.
