data_PCOD9145656
_publ_section_title
;
Structure prediction by ZEFSAII (Michael W. Deem and Ramdas Pophale) SiO2 
 PCOD9145656
Probable space group: P 2/M
;
_chemical_formula_sum "Si O2"
_cell_formula_units_Z 32
_cell_length_a 23.182682
_cell_length_b 9.320081
_cell_length_c 11.555985
_cell_angle_alpha 90.000000
_cell_angle_beta 46.293029
_cell_angle_gamma 90.000000
_cell_volume 1804.921822
_symmetry_space_group_name_H-M "P 2/M"
_symmetry_group_IT_number 10
_symmetry_cell_setting 'monoclinic'
loop_
_space_group_symop_operation_xyz
x,y,z
-x,y,-z
-x,-y,-z
x,-y,z
loop_
_atom_site_type_symbol
_atom_site_label
_atom_site_fract_x
_atom_site_fract_y
_atom_site_fract_z
Si Si1 0.677523 0.830830 0.255661
Si Si2 0.734924 0.671503 0.563416
Si Si3 0.418187 0.829934 0.842814
Si Si4 0.050759 0.830232 0.107217
Si Si5 0.397168 0.828058 0.389860
Si Si6 0.726670 0.328467 0.840129
Si Si7 0.821272 0.671310 0.935787
Si Si8 0.120486 0.170190 0.755067
O O1 0.610343 0.807806 0.250257
O O2 0.642829 0.798982 0.429710
O O3 0.699871 0.000000 0.221669
O O4 0.753327 0.737276 0.113906
O O5 0.732403 0.500000 0.554685
O O6 0.652520 0.741896 0.635792
O O7 0.749566 0.708120 0.677666
O O8 0.804924 0.738443 0.388997
O O9 0.509742 0.788305 0.734483
O O10 0.411446 0.000000 0.874865
O O11 0.355462 0.746659 0.008897
O O12 0.095273 0.739557 0.142372
O O13 0.957750 0.798618 0.214052
O O14 0.058304 0.000000 0.120197
O O15 0.094533 0.802784 0.923420
O O16 0.391564 0.000000 0.377875
O O17 0.715698 0.500000 0.861651
O O18 0.792160 0.289937 0.846620
O O19 0.823321 0.500000 0.943573
O O20 0.138363 0.000000 0.721057
#
# Coordination Sequence:
#
# PCOD9145656 Si02
#       8
#     4   4   4   4   4   4   4   4
#     4   9  17  31  51  75 105 135 161 199 254 307
#     4  11  23  37  52  71  99 136 175 209 246 295
#     4   9  18  33  54  77  98 128 171 211 248 297
#     4   9  18  34  56  81 107 132 158 194 247 304
#     4  10  20  33  51  76 104 131 163 208 258 303
#     4   9  21  39  52  67  99 139 172 208 253 293
#     4  10  19  32  52  76 101 132 171 209 245 291
#     4   9  19  36  56  78 106 135 160 195 246 299
#
# _framework density 17.729299000000001
#
# number of rings (size 3 to 8) (size 9 to 14) (size 15 to 20)
#    0.000    2.500    0.000    2.625    0.000    8.500 
#    0.000    4.375    0.000    7.500    0.000    0.000 
#    0.000    0.000    0.000    0.000    0.000    0.000 
#
# Total GULP energy -178578.727531 kJ/mol
# GULP energy per Si atom -5580.585235 kJ/mol
# Density = 1.768895 g / cm^3
# Si number density = 17.729299 Si / 1000 Ang^3
#
#
#
# Elastic Constant Matrix: (Units=GPa)
#
#
# Indices 1 2 3 4 5 6 
#
# 1 90.7812 37.1315 12.5801 0.0000 -14.8505 0.0000
# 2 37.1315 23.5516 11.3538 0.0000 -2.8445 0.0000
# 3 12.5801 11.3538 15.5075 0.0000 2.1285 0.0000
# 4 0.0000 0.0000 0.0000 27.6524 0.0000 0.1785
# 5 -14.8505 -2.8445 2.1285 0.0000 14.8676 0.0000
# 6 0.0000 0.0000 0.0000 0.1785 0.0000 31.0868
#
#
#
# Elastic Compliance Matrix: (Units=1/GPa)
#
#
# Indices 1 2 3 4 5 6 
#
# 1 0.041711 -0.068714 0.012810 0.000000 0.026683 0.000000
# 2 -0.068714 0.185094 -0.076722 0.000000 -0.022239 0.000000
# 3 0.012810 -0.076722 0.112739 0.000000 -0.018024 0.000000
# 4 0.000000 0.000000 0.000000 0.036165 0.000000 -0.000208
# 5 0.026683 -0.022239 -0.018024 0.000000 0.092238 0.000000
# 6 0.000000 0.000000 0.000000 -0.000208 0.000000 0.032169
#
#
# Mechanical properties :
#
#
# Convention : Reuss Voigt Hill
#
# Bulk Modulus (GPa) = 13.46040 27.99680 20.72860
# Shear Modulus (GPa) = 6.32805 19.30636 12.81720
#
# Velocity S-wave (km/s) = 1.89130 3.30351 2.69167
# Velocity P-wave (km/s) = 3.51824 5.51148 4.62355
#
# Compressibility (1/GPa) = 0.07429200
#
# Stress axis : x y z
#
# Youngs Moduli (GPa) = 23.97465 5.40265 8.87001
#
# Poissons Ratio (x) = 0.37124 -0.11362
# Poissons Ratio (y) = 1.64739 0.68053
# Poissons Ratio (z) = -0.30711 0.41450
#
# Static dielectric constant tensor:
#      x y z
#    x 1.621480 0.000000 0.005960 
#    y 0.000000 1.584570 0.000000 
#    z 0.005960 0.000000 1.571260 
# 
# From -- ./inp_files/55285.got.cif
#   From: 2010.05.17/outbox.cif.g08.bks.cpg/sg10_28_cif.got.tgz:55285.got - 2010.06.03 11:33:40.
