data_PCOD9145301
_publ_section_title
;
Structure prediction by ZEFSAII (Michael W. Deem and Ramdas Pophale) SiO2 
 PCOD9145301
Probable space group: P 2/M
;
_chemical_formula_sum "Si O2"
_cell_formula_units_Z 16
_cell_length_a 5.187775
_cell_length_b 10.881769
_cell_length_c 14.661732
_cell_angle_alpha 90.000000
_cell_angle_beta 95.252749
_cell_angle_gamma 90.000000
_cell_volume 824.210735
_symmetry_space_group_name_H-M "P 2/M"
_symmetry_group_IT_number 10
_symmetry_cell_setting 'monoclinic'
loop_
_space_group_symop_operation_xyz
x,y,z
-x,y,-z
-x,-y,-z
x,-y,z
loop_
_atom_site_type_symbol
_atom_site_label
_atom_site_fract_x
_atom_site_fract_y
_atom_site_fract_z
Si Si1 0.417371 0.781941 0.757773
Si Si2 0.664970 0.636473 0.913112
Si Si3 0.073578 0.866214 0.150902
Si Si4 0.738062 0.144203 0.438410
O O1 0.482430 0.660011 0.818441
O O2 0.691416 0.853825 0.768244
O O3 0.313054 0.774951 0.652666
O O4 0.201492 0.851338 0.810355
O O5 0.779179 0.500000 0.913220
O O6 0.864066 0.748834 0.909532
O O7 0.500000 0.648299 0.000000
O O8 0.095314 0.000000 0.107619
O O9 0.500000 0.154581 0.500000
O O10 0.000000 0.175414 0.500000
O O11 0.756676 0.000000 0.409834
#
# Coordination Sequence:
#
# PCOD9145301 Si02
#       4
#     4   4   4   4
#     4  10  21  36  59  86 120 150 191 239 292 338
#     4   9  22  42  62  85 116 157 201 238 285 351
#     4  10  20  35  59  86 118 152 188 238 293 341
#     4  10  19  31  53  83 116 151 187 231 286 344
#
# _framework density 19.412510000000001
#
# number of rings (size 3 to 8) (size 9 to 14) (size 15 to 20)
#    1.500    0.750    0.000    3.750    0.000    4.500 
#    0.000    3.750    0.000    1.500    0.000    0.000 
#    0.000    0.000    0.000    0.000    0.000    0.000 
#
# Total GULP energy -89108.521294 kJ/mol
# GULP energy per Si atom -5569.282581 kJ/mol
# Density = 1.936833 g / cm^3
# Si number density = 19.412510 Si / 1000 Ang^3
#
#
#
# Elastic Constant Matrix: (Units=GPa)
#
#
# Indices 1 2 3 4 5 6 
#
# 1 88.4632 10.3339 13.3006 0.0000 17.9118 0.0000
# 2 10.3339 113.7270 34.4879 0.0000 -4.5939 0.0000
# 3 13.3006 34.4879 108.0989 0.0000 29.6114 0.0000
# 4 0.0000 0.0000 0.0000 5.7327 0.0000 10.9004
# 5 17.9118 -4.5939 29.6114 0.0000 32.4418 0.0000
# 6 0.0000 0.0000 0.0000 10.9004 0.0000 -9.0605
#
#
#
# Elastic Compliance Matrix: (Units=1/GPa)
#
#
# Indices 1 2 3 4 5 6 
#
# 1 0.013108 -0.001984 0.001440 0.000000 -0.008832 0.000000
# 2 -0.001984 0.010869 -0.005260 0.000000 0.007436 0.000000
# 3 0.001440 -0.005260 0.014899 0.000000 -0.015139 0.000000
# 4 0.000000 0.000000 0.000000 0.053060 0.000000 0.063835
# 5 -0.008832 0.007436 -0.015139 0.000000 0.050572 0.000000
# 6 0.000000 0.000000 0.000000 0.063835 0.000000 -0.033572
#
#
# Mechanical properties :
#
#
# Convention : Reuss Voigt Hill
#
# Bulk Modulus (GPa) = 36.67664 47.39264 42.03464
# Shear Modulus (GPa) = 38.57002 22.63392 30.60197
#
# Velocity S-wave (km/s) = 4.46226 3.41830 3.97470
# Velocity P-wave (km/s) = 6.74413 6.32820 6.53948
#
# Compressibility (1/GPa) = 0.02726531
#
# Stress axis : x y z
#
# Youngs Moduli (GPa) = 76.29042 92.00542 67.11903
#
# Poissons Ratio (x) = 0.18258 -0.09663
# Poissons Ratio (y) = 0.15139 0.35308
# Poissons Ratio (z) = -0.10984 0.48399
#
# Static dielectric constant tensor:
#      x y z
#    x 1.700730 0.000000 0.036900 
#    y 0.000000 1.686440 0.000000 
#    z 0.036900 0.000000 1.673610 
# 
# From -- ./inp_files/6232.got.cif
#   From: 2010.05.17/outbox.cif.g08.bks.cpg/sg10_4_cif.got.tgz:6232.got - 2010.06.03 11:33:40.
