data_PCOD9145029
_publ_section_title
;
Structure prediction by ZEFSAII (Michael W. Deem and Ramdas Pophale) SiO2 
 PCOD9145029
Probable space group: P 2/M
;
_chemical_formula_sum "Si O2"
_cell_formula_units_Z 24
_cell_length_a 5.137625
_cell_length_b 22.640286
_cell_length_c 14.914748
_cell_angle_alpha 90.000000
_cell_angle_beta 53.010106
_cell_angle_gamma 90.000000
_cell_volume 1385.691522
_symmetry_space_group_name_H-M "P 2/M"
_symmetry_group_IT_number 10
_symmetry_cell_setting 'monoclinic'
loop_
_space_group_symop_operation_xyz
x,y,z
-x,y,-z
-x,-y,-z
x,-y,z
loop_
_atom_site_type_symbol
_atom_site_label
_atom_site_fract_x
_atom_site_fract_y
_atom_site_fract_z
Si Si1 0.391176 0.063403 0.418971
Si Si2 0.116399 0.370019 0.072136
Si Si3 0.120770 0.500000 0.120532
Si Si4 0.608057 0.192809 0.581018
Si Si5 0.877888 0.500000 0.382110
Si Si6 0.050580 0.368610 0.387303
Si Si7 0.696243 0.687461 0.294295
O O1 0.500000 0.063600 0.500000
O O2 0.483930 0.127734 0.362079
O O3 0.000000 0.063049 0.500000
O O4 0.502306 0.000000 0.356348
O O5 0.984017 0.437155 0.115059
O O6 0.008956 0.324115 0.169721
O O7 0.500000 0.375242 0.000000
O O8 0.000000 0.349803 0.000000
O O9 0.002222 0.500000 0.250962
O O10 0.500000 0.500000 0.000000
O O11 0.500000 0.194839 0.500000
O O12 0.431176 0.246659 0.666316
O O13 0.000000 0.199662 0.500000
O O14 0.500000 0.500000 0.500000
O O15 0.020920 0.438866 0.388768
O O16 0.418215 0.347787 0.297033
O O17 0.000000 0.348197 0.500000
O O18 0.795395 0.341085 0.369862
#
# Coordination Sequence:
#
# PCOD9145029 Si02
#       7
#     4   4   2   4   2   4   4
#     4   8  14  25  42  66 100 139 174 207 240 286
#     4  11  24  42  60  80  99 131 178 233 279 328
#     4  10  23  43  65  80 104 138 186 232 280 341
#     4  10  19  31  49  76 107 141 176 205 251 317
#     4  12  25  43  59  88 113 141 180 234 284 341
#     4  12  25  39  56  79 110 143 171 215 275 333
#     4  12  23  38  58  77 108 137 181 217 275 324
#
# _framework density 17.319870999999999
#
# number of rings (size 3 to 8) (size 9 to 14) (size 15 to 20)
#    0.000    1.333    1.667    5.500    2.333    1.333 
#    0.000    0.000    0.000    0.000    0.000    0.000 
#    0.000    1.333    0.000    0.000    0.000    1.667 
#
# Total GULP energy -133661.261838 kJ/mol
# GULP energy per Si atom -5569.219243 kJ/mol
# Density = 1.728045 g / cm^3
# Si number density = 17.319871 Si / 1000 Ang^3
#
#
#
# Elastic Constant Matrix: (Units=GPa)
#
#
# Indices 1 2 3 4 5 6 
#
# 1 97.7829 29.4843 12.5501 0.0000 5.8369 0.0000
# 2 29.4843 181.5515 33.8542 0.0000 -8.7683 0.0000
# 3 12.5501 33.8542 76.0116 0.0000 7.3571 0.0000
# 4 0.0000 0.0000 0.0000 0.5562 0.0000 2.4863
# 5 5.8369 -8.7683 7.3571 0.0000 22.5340 0.0000
# 6 0.0000 0.0000 0.0000 2.4863 0.0000 20.3399
#
#
#
# Elastic Compliance Matrix: (Units=1/GPa)
#
#
# Indices 1 2 3 4 5 6 
#
# 1 0.011067 -0.001831 -0.000687 0.000000 -0.003355 0.000000
# 2 -0.001831 0.006560 -0.003007 0.000000 0.004009 0.000000
# 3 -0.000687 -0.003007 0.015185 0.000000 -0.005950 0.000000
# 4 0.000000 0.000000 0.000000 3.963228 0.000000 -0.484456
# 5 -0.003355 0.004009 -0.005950 0.000000 0.048749 0.000000
# 6 0.000000 0.000000 0.000000 -0.484456 0.000000 0.108383
#
#
# Mechanical properties :
#
#
# Convention : Reuss Voigt Hill
#
# Bulk Modulus (GPa) = 45.95435 56.34702 51.15069
# Shear Modulus (GPa) = 1.19862 27.31652 14.25757
#
# Velocity S-wave (km/s) = 0.83280 3.97568 2.87224
# Velocity P-wave (km/s) = 5.24548 7.32656 6.37156
#
# Compressibility (1/GPa) = 0.02176073
#
# Stress axis : x y z
#
# Youngs Moduli (GPa) = 90.35580 152.44206 65.85626
#
# Poissons Ratio (x) = 0.27917 0.04524
# Poissons Ratio (y) = 0.16547 0.19805
# Poissons Ratio (z) = 0.06207 0.45844
#
# Static dielectric constant tensor:
#      x y z
#    x 1.613660 0.000000 -0.033590 
#    y 0.000000 1.633300 0.000000 
#    z -0.033590 0.000000 1.648120 
# 
# From -- ./inp_files/59518.got.cif
#   From: 2010.05.17/outbox.cif.g08.bks.cpg/sg10_30_cif.got.tgz:59518.got - 2010.06.03 11:33:40.
