data_PCOD9145375
_publ_section_title
;
Structure prediction by ZEFSAII (Michael W. Deem and Ramdas Pophale) SiO2 
 PCOD9145375
Probable space group: P 2/M
;
_chemical_formula_sum "Si O2"
_cell_formula_units_Z 28
_cell_length_a 26.721798
_cell_length_b 8.769897
_cell_length_c 21.250688
_cell_angle_alpha 90.000000
_cell_angle_beta 18.552528
_cell_angle_gamma 90.000000
_cell_volume 1584.520131
_symmetry_space_group_name_H-M "P 2/M"
_symmetry_group_IT_number 10
_symmetry_cell_setting 'monoclinic'
loop_
_space_group_symop_operation_xyz
x,y,z
-x,y,-z
-x,-y,-z
x,-y,z
loop_
_atom_site_type_symbol
_atom_site_label
_atom_site_fract_x
_atom_site_fract_y
_atom_site_fract_z
Si Si1 0.335288 0.313855 0.663582
Si Si2 0.176295 0.321848 0.973347
Si Si3 0.731078 0.816006 0.697589
Si Si4 0.630757 0.818161 0.070743
Si Si5 0.518240 0.321018 0.634744
Si Si6 0.417979 0.681878 0.007850
Si Si7 0.958098 0.182606 0.747135
O O1 0.500000 0.268927 0.500000
O O2 0.332347 0.500000 0.666927
O O3 0.200357 0.263463 0.873146
O O4 0.351799 0.267573 0.571119
O O5 0.135766 0.500000 0.018702
O O6 0.349863 0.311021 0.798888
O O7 0.059210 0.241598 0.161079
O O8 0.714727 0.748801 0.787150
O O9 0.887906 0.767193 0.474042
O O10 0.724993 0.000000 0.707728
O O11 0.580545 0.753597 0.839403
O O12 0.606008 0.734018 0.034762
O O13 0.800526 0.772940 0.897150
O O14 0.628113 0.000000 0.064513
O O15 0.503647 0.770872 0.275119
O O16 0.543785 0.500000 0.618203
O O17 0.423092 0.500000 0.007232
O O18 0.960307 0.000000 0.746803
#
# Coordination Sequence:
#
# PCOD9145375 Si02
#       7
#     4   4   4   4   4   4   4
#     4   7  10  18  34  57  86 121 157 190 227 270
#     4   8  13  22  39  62  90 124 158 192 231 272
#     4  10  20  37  56  72  93 124 157 191 235 283
#     4  10  19  32  48  70 100 130 158 191 234 281
#     4   8  13  23  39  61  90 123 159 196 230 268
#     4  11  22  36  53  74  95 119 156 198 236 278
#     4   9  19  32  48  71  99 128 158 192 232 280
#
# _framework density 17.670964999999999
#
# number of rings (size 3 to 8) (size 9 to 14) (size 15 to 20)
#    0.000    3.000    0.000    4.714    0.000    2.286 
#    0.000    3.571    0.000    4.286    0.000    1.000 
#    0.000    8.000    0.000    0.000    0.000    0.000 
#
# Total GULP energy -155882.094305 kJ/mol
# GULP energy per Si atom -5567.217654 kJ/mol
# Density = 1.763075 g / cm^3
# Si number density = 17.670965 Si / 1000 Ang^3
#
#
#
# Elastic Constant Matrix: (Units=GPa)
#
#
# Indices 1 2 3 4 5 6 
#
# 1 43.2348 27.4734 85.7341 0.0000 31.1724 0.0000
# 2 27.4734 46.9906 34.3467 0.0000 15.9469 0.0000
# 3 85.7341 34.3467 90.3820 0.0000 59.0405 0.0000
# 4 0.0000 0.0000 0.0000 75.9414 0.0000 125.3309
# 5 31.1724 15.9469 59.0405 0.0000 28.4495 0.0000
# 6 0.0000 0.0000 0.0000 125.3309 0.0000 277.0504
#
#
#
# Elastic Compliance Matrix: (Units=1/GPa)
#
#
# Indices 1 2 3 4 5 6 
#
# 1 0.050551 -0.014356 0.032534 0.000000 -0.114859 0.000000
# 2 -0.014356 0.030323 -0.008217 0.000000 0.015785 0.000000
# 3 0.032534 -0.008217 -0.010132 0.000000 -0.010016 0.000000
# 4 0.000000 0.000000 0.000000 0.051962 0.000000 -0.023506
# 5 -0.114859 0.015785 -0.010016 0.000000 0.172939 0.000000
# 6 0.000000 0.000000 0.000000 -0.023506 0.000000 0.014243
#
#
# Mechanical properties :
#
#
# Convention : Reuss Voigt Hill
#
# Bulk Modulus (GPa) = 11.02962 52.85731 31.94347
# Shear Modulus (GPa) = 15.61597 78.49181 47.05389
#
# Velocity S-wave (km/s) = 2.97595 6.67195 5.16581
# Velocity P-wave (km/s) = 4.25013 9.45146 7.32781
#
# Compressibility (1/GPa) = 0.09066493
#
# Stress axis : x y z
#
# Youngs Moduli (GPa) = 19.78217 32.97796 -98.69666
#
# Poissons Ratio (x) = 0.47343 3.21102
# Poissons Ratio (y) = 0.28399 -0.81096
# Poissons Ratio (z) = -0.64360 0.27097
#
# Static dielectric constant tensor:
#      x y z
#    x 1.602720 0.000000 0.025850 
#    y 0.000000 1.593720 0.000000 
#    z 0.025850 0.000000 1.638730 
# 
# From -- ./inp_files/87139.got.cif
#   From: 2010.05.17/outbox.cif.g08.bks.cpg/sg10_44_cif.got.tgz:87139.got - 2010.06.03 11:33:40.
