data_PCOD9145766
_publ_section_title
;
Structure prediction by ZEFSAII (Michael W. Deem and Ramdas Pophale) SiO2 
 PCOD9145766
Probable space group: P 2/M
;
_chemical_formula_sum "Si O2"
_cell_formula_units_Z 22
_cell_length_a 6.859271
_cell_length_b 14.577306
_cell_length_c 15.105113
_cell_angle_alpha 90.000000
_cell_angle_beta 53.964833
_cell_angle_gamma 90.000000
_cell_volume 1221.358227
_symmetry_space_group_name_H-M "P 2/M"
_symmetry_group_IT_number 10
_symmetry_cell_setting 'monoclinic'
loop_
_space_group_symop_operation_xyz
x,y,z
-x,y,-z
-x,-y,-z
x,-y,z
loop_
_atom_site_type_symbol
_atom_site_label
_atom_site_fract_x
_atom_site_fract_y
_atom_site_fract_z
Si Si1 0.000000 0.243502 0.000000
Si Si2 0.036965 0.250495 0.385139
Si Si3 0.599378 0.257749 0.248464
Si Si4 0.169437 0.893611 0.684485
Si Si5 0.783333 0.901838 0.927878
Si Si6 0.281602 0.605107 0.628155
O O1 0.865324 0.180377 0.965658
O O2 0.216893 0.282755 0.880949
O O3 0.323800 0.242757 0.292727
O O4 0.000000 0.260998 0.500000
O O5 0.873918 0.165195 0.392709
O O6 0.934068 0.337306 0.358625
O O7 0.679024 0.166532 0.284196
O O8 0.625781 0.340439 0.311027
O O9 0.905350 0.895251 0.799926
O O10 0.249168 0.000000 0.652149
O O11 0.868040 0.000000 0.942332
O O12 0.500000 0.902201 0.000000
O O13 0.500000 0.605663 0.500000
O O14 0.215655 0.500000 0.664773
#
# Coordination Sequence:
#
# PCOD9145766 Si02
#       6
#     2   4   4   4   4   4
#     4  10  19  32  53  76 108 148 176 214 268 320
#     4  11  21  35  57  83 110 139 185 232 269 322
#     4  10  21  37  56  83 114 144 183 224 269 323
#     4   9  20  34  49  75 113 153 186 222 265 311
#     4   9  16  28  47  72 101 138 189 233 261 299
#     4  10  21  39  62  85 108 134 173 230 285 328
#
# _framework density 18.012734999999999
#
# number of rings (size 3 to 8) (size 9 to 14) (size 15 to 20)
#    0.000    2.182    1.818    1.364    0.000    2.909 
#    0.000    1.364    0.000    1.091    0.000    0.000 
#    0.000    0.000    0.000    0.000    0.000    0.000 
#
# Total GULP energy -122481.512645 kJ/mol
# GULP energy per Si atom -5567.341484 kJ/mol
# Density = 1.797174 g / cm^3
# Si number density = 18.012735 Si / 1000 Ang^3
#
#
#
# Elastic Constant Matrix: (Units=GPa)
#
#
# Indices 1 2 3 4 5 6 
#
# 1 77.1980 30.6887 6.3984 0.0000 -8.6737 0.0000
# 2 30.6887 117.9091 10.1023 0.0000 5.4415 0.0000
# 3 6.3984 10.1023 53.7397 0.0000 -0.0835 0.0000
# 4 0.0000 0.0000 0.0000 -4.2853 0.0000 -13.6793
# 5 -8.6737 5.4415 -0.0835 0.0000 30.7250 0.0000
# 6 0.0000 0.0000 0.0000 -13.6793 0.0000 4.7422
#
#
#
# Elastic Compliance Matrix: (Units=1/GPa)
#
#
# Indices 1 2 3 4 5 6 
#
# 1 0.015238 -0.004109 -0.001034 0.000000 0.005027 0.000000
# 2 -0.004109 0.009801 -0.001358 0.000000 -0.002900 0.000000
# 3 -0.001034 -0.001358 0.018987 0.000000 0.000000 0.000000
# 4 0.000000 0.000000 0.000000 -0.022860 0.000000 -0.065942
# 5 0.005027 -0.002900 0.000000 0.000000 0.034479 0.000000
# 6 0.000000 0.000000 0.000000 -0.065942 0.000000 0.020657
#
#
# Mechanical properties :
#
#
# Convention : Reuss Voigt Hill
#
# Bulk Modulus (GPa) = 32.23394 38.13618 35.18506
# Shear Modulus (GPa) = 50.17805 19.68020 34.92912
#
# Velocity S-wave (km/s) = 5.28370 3.30899 4.40834
# Velocity P-wave (km/s) = 7.42679 5.98473 6.74441
#
# Compressibility (1/GPa) = 0.03102320
#
# Stress axis : x y z
#
# Youngs Moduli (GPa) = 65.62636 102.03238 52.66892
#
# Poissons Ratio (x) = 0.41929 0.05446
# Poissons Ratio (y) = 0.26968 0.07151
# Poissons Ratio (z) = 0.06785 0.13852
#
# Static dielectric constant tensor:
#      x y z
#    x 1.613740 0.000000 -0.020200 
#    y 0.000000 1.631960 0.000000 
#    z -0.020200 0.000000 1.673210 
# 
# From -- ./inp_files/39077.got.cif
#   From: 2010.05.17/outbox.cif.g08.bks.cpg/sg10_20_cif.got.tgz:39077.got - 2010.06.03 11:33:40.
