data_PCOD9145262
_publ_section_title
;
Structure prediction by ZEFSAII (Michael W. Deem and Ramdas Pophale) SiO2 
 PCOD9145262
Probable space group: P 2/M
;
_chemical_formula_sum "Si O2"
_cell_formula_units_Z 32
_cell_length_a 11.247731
_cell_length_b 7.467162
_cell_length_c 22.698269
_cell_angle_alpha 90.000000
_cell_angle_beta 49.407349
_cell_angle_gamma 90.000000
_cell_volume 1447.631284
_symmetry_space_group_name_H-M "P 2/M"
_symmetry_group_IT_number 10
_symmetry_cell_setting 'monoclinic'
loop_
_space_group_symop_operation_xyz
x,y,z
-x,y,-z
-x,-y,-z
x,-y,z
loop_
_atom_site_type_symbol
_atom_site_label
_atom_site_fract_x
_atom_site_fract_y
_atom_site_fract_z
Si Si1 0.015713 0.718933 0.673374
Si Si2 0.236310 0.792165 0.792872
Si Si3 0.363508 0.202482 0.000494
Si Si4 0.884875 0.281474 0.590302
Si Si5 0.574083 0.716060 0.634705
Si Si6 0.814662 0.781811 0.058815
Si Si7 0.921367 0.705415 0.829774
Si Si8 0.659134 0.281801 0.477613
O O1 0.013063 0.500000 0.676523
O O2 0.194791 0.776717 0.607901
O O3 0.938731 0.775414 0.637145
O O4 0.940028 0.780823 0.758148
O O5 0.400070 0.775678 0.706062
O O6 0.250368 0.728132 0.855941
O O7 0.091881 0.705405 0.805119
O O8 0.192813 0.000000 0.810665
O O9 0.206258 0.197381 0.090010
O O10 0.418665 0.000000 0.968782
O O11 0.500000 0.280363 0.000000
O O12 0.295637 0.281169 0.960188
O O13 0.891671 0.500000 0.586926
O O14 0.706018 0.228058 0.638201
O O15 0.000000 0.223409 0.500000
O O16 0.567160 0.500000 0.635278
O O17 0.647434 0.774974 0.548855
O O18 0.815445 0.000000 0.053813
O O19 0.000000 0.727897 0.000000
O O20 0.867228 0.500000 0.843344
O O21 0.500000 0.224065 0.500000
O O22 0.665398 0.500000 0.476230
#
# Coordination Sequence:
#
# PCOD9145262 Si02
#       8
#     4   4   4   4   4   4   4   4
#     4   9  17  29  48  77 111 146 180 221 276 328
#     4  11  22  37  58  80 109 146 186 228 278 334
#     4  10  21  39  63  87 113 149 191 228 269 335
#     4   9  15  28  50  77 106 141 185 226 264 316
#     4  10  19  31  52  82 110 136 179 233 274 317
#     4   9  17  35  61  82 104 144 193 229 266 328
#     4  11  22  36  56  84 117 145 180 232 287 328
#     4   9  15  25  44  71 103 139 178 217 259 313
#
# _framework density 22.105074999999999
#
# number of rings (size 3 to 8) (size 9 to 14) (size 15 to 20)
#    0.000    2.250    2.500    1.500    0.000    3.250 
#    0.000    1.875    0.000    5.250    0.000    0.000 
#    0.000    0.000    0.000    0.000    0.000    0.000 
#
# Total GULP energy -178574.549559 kJ/mol
# GULP energy per Si atom -5580.454674 kJ/mol
# Density = 2.205476 g / cm^3
# Si number density = 22.105075 Si / 1000 Ang^3
#
#
#
# Elastic Constant Matrix: (Units=GPa)
#
#
# Indices 1 2 3 4 5 6 
#
# 1 103.4580 -2.1539 2.1108 0.0000 11.8180 0.0000
# 2 -2.1539 64.4310 -1.7874 0.0000 4.0875 0.0000
# 3 2.1108 -1.7874 80.2311 0.0000 16.0779 0.0000
# 4 0.0000 0.0000 0.0000 7.6608 0.0000 -6.4666
# 5 11.8180 4.0875 16.0779 0.0000 43.0286 0.0000
# 6 0.0000 0.0000 0.0000 -6.4666 0.0000 -4.0581
#
#
#
# Elastic Compliance Matrix: (Units=1/GPa)
#
#
# Indices 1 2 3 4 5 6 
#
# 1 0.010004 0.000529 0.000334 0.000000 -0.002923 0.000000
# 2 0.000529 0.015679 0.000717 0.000000 -0.001903 0.000000
# 3 0.000334 0.000717 0.013515 0.000000 -0.005210 0.000000
# 4 0.000000 0.000000 0.000000 0.055663 0.000000 -0.088698
# 5 -0.002923 -0.001903 -0.005210 0.000000 0.026171 0.000000
# 6 0.000000 0.000000 0.000000 -0.088698 0.000000 -0.105077
#
#
# Mechanical properties :
#
#
# Convention : Reuss Voigt Hill
#
# Bulk Modulus (GPa) = 23.60835 27.16211 25.38523
# Shear Modulus (GPa) = 185.78485 25.98962 105.88724
#
# Velocity S-wave (km/s) = 9.17762 3.43261 6.92862
# Velocity P-wave (km/s) = 11.09090 5.29385 8.69002
#
# Compressibility (1/GPa) = 0.04235790
#
# Stress axis : x y z
#
# Youngs Moduli (GPa) = 99.96176 63.78060 73.99069
#
# Poissons Ratio (x) = -0.03375 -0.02474
# Poissons Ratio (y) = -0.05289 -0.05302
# Poissons Ratio (z) = -0.03342 -0.04571
#
# Static dielectric constant tensor:
#      x y z
#    x 1.833080 0.000000 0.041790 
#    y 0.000000 1.854680 0.000000 
#    z 0.041790 0.000000 1.770630 
# 
# From -- ./inp_files/83595.got.cif
#   From: 2010.05.17/outbox.cif.g08.bks.cpg/sg10_42_cif.got.tgz:83595.got - 2010.06.03 11:33:40.
