data_PCOD9145326
_publ_section_title
;
Structure prediction by ZEFSAII (Michael W. Deem and Ramdas Pophale) SiO2 
 PCOD9145326
Probable space group: P 2/M
;
_chemical_formula_sum "Si O2"
_cell_formula_units_Z 30
_cell_length_a 16.795017
_cell_length_b 14.174070
_cell_length_c 12.526763
_cell_angle_alpha 90.000000
_cell_angle_beta 29.004518
_cell_angle_gamma 90.000000
_cell_volume 1445.928728
_symmetry_space_group_name_H-M "P 2/M"
_symmetry_group_IT_number 10
_symmetry_cell_setting 'monoclinic'
loop_
_space_group_symop_operation_xyz
x,y,z
-x,y,-z
-x,-y,-z
x,-y,z
loop_
_atom_site_type_symbol
_atom_site_label
_atom_site_fract_x
_atom_site_fract_y
_atom_site_fract_z
Si Si1 0.634323 0.739980 0.497098
Si Si2 0.806538 0.780786 0.520325
Si Si3 0.860000 0.109469 0.870558
Si Si4 0.500000 0.235220 0.000000
Si Si5 0.025165 0.610389 0.281389
Si Si6 0.843370 0.393519 0.106037
Si Si7 0.327073 0.287089 0.995292
Si Si8 0.179550 0.890410 0.831282
O O1 0.742098 0.752350 0.478616
O O2 0.710090 0.668148 0.322952
O O3 0.455780 0.708975 0.746253
O O4 0.665802 0.839583 0.403309
O O5 0.951490 0.856272 0.351366
O O6 0.881592 0.683084 0.478835
O O7 0.653978 0.817804 0.767981
O O8 0.841274 0.000000 0.861445
O O9 0.759220 0.184529 0.918052
O O10 0.810768 0.119285 0.052799
O O11 0.428910 0.292908 0.984126
O O12 0.981773 0.500000 0.333236
O O13 0.087838 0.639399 0.088672
O O14 0.186013 0.634822 0.160413
O O15 0.781984 0.500000 0.162250
O O16 0.000000 0.395798 0.000000
O O17 0.181138 0.000000 0.800379
O O18 0.000000 0.852252 0.000000
#
# Coordination Sequence:
#
# PCOD9145326 Si02
#       8
#     4   4   4   2   4   4   4   4
#     4  11  19  33  57  84 118 158 192 222 277 335
#     4  10  20  38  63  83 110 151 190 240 285 332
#     4  10  21  38  60  88 118 149 188 230 279 340
#     4  10  24  46  62  82 112 142 194 250 296 336
#     4  10  21  38  60  88 118 149 188 230 279 340
#     4  10  19  31  54  89 122 153 187 222 268 339
#     4  10  24  41  58  82 115 152 189 243 290 331
#     4  10  19  31  54  89 122 153 187 222 268 339
#
# _framework density 20.747909
#
# number of rings (size 3 to 8) (size 9 to 14) (size 15 to 20)
#    0.000    1.867    2.667    2.000    0.000    5.333 
#    0.000   10.667    0.000    0.000    0.000    0.000 
#    0.000    0.000    0.000    0.000    0.000    0.000 
#
# Total GULP energy -167433.979801 kJ/mol
# GULP energy per Si atom -5581.132660 kJ/mol
# Density = 2.070069 g / cm^3
# Si number density = 20.747909 Si / 1000 Ang^3
#
#
#
# Elastic Constant Matrix: (Units=GPa)
#
#
# Indices 1 2 3 4 5 6 
#
# 1 59.5744 -4.5505 6.9609 0.0000 -0.8542 0.0000
# 2 -4.5505 66.5195 17.3169 0.0000 -3.4105 0.0000
# 3 6.9609 17.3169 83.5926 0.0000 -3.1176 0.0000
# 4 0.0000 0.0000 0.0000 -4.8122 0.0000 -2.2925
# 5 -0.8542 -3.4105 -3.1176 0.0000 20.9828 0.0000
# 6 0.0000 0.0000 0.0000 -2.2925 0.0000 7.9915
#
#
#
# Elastic Compliance Matrix: (Units=1/GPa)
#
#
# Indices 1 2 3 4 5 6 
#
# 1 0.017127 0.001662 -0.001744 0.000000 0.000708 0.000000
# 2 0.001662 0.016144 -0.003401 0.000000 0.002186 0.000000
# 3 -0.001744 -0.003401 0.012861 0.000000 0.001287 0.000000
# 4 0.000000 0.000000 0.000000 -0.182822 0.000000 -0.052445
# 5 0.000708 0.002186 0.001287 0.000000 0.048233 0.000000
# 6 0.000000 0.000000 0.000000 -0.052445 0.000000 0.110087
#
#
# Mechanical properties :
#
#
# Convention : Reuss Voigt Hill
#
# Bulk Modulus (GPa) = 25.53310 27.68234 26.60772
# Shear Modulus (GPa) = 120.04239 17.49639 68.76939
#
# Velocity S-wave (km/s) = 7.61467 2.90709 5.76343
# Velocity P-wave (km/s) = 9.46805 4.96381 7.55921
#
# Compressibility (1/GPa) = 0.03916485
#
# Stress axis : x y z
#
# Youngs Moduli (GPa) = 58.38870 61.94088 77.75680
#
# Poissons Ratio (x) = -0.10294 0.13561
# Poissons Ratio (y) = -0.09704 0.26447
# Poissons Ratio (z) = 0.10183 0.21068
#
# Static dielectric constant tensor:
#      x y z
#    x 1.828020 0.000000 0.010060 
#    y 0.000000 1.729050 0.000000 
#    z 0.010060 0.000000 1.756130 
# 
# From -- ./inp_files/53914.got.cif
#   From: 2010.05.17/outbox.cif.g08.bks.cpg/sg10_27_cif.got.tgz:53914.got - 2010.06.03 11:33:40.
