data_PCOD9145181
_publ_section_title
;
Structure prediction by ZEFSAII (Michael W. Deem and Ramdas Pophale) SiO2 
 PCOD9145181
Probable space group: P 2/M
;
_chemical_formula_sum "Si O2"
_cell_formula_units_Z 32
_cell_length_a 12.291310
_cell_length_b 8.994001
_cell_length_c 19.176641
_cell_angle_alpha 90.000000
_cell_angle_beta 71.766575
_cell_angle_gamma 90.000000
_cell_volume 2013.497472
_symmetry_space_group_name_H-M "P 2/M"
_symmetry_group_IT_number 10
_symmetry_cell_setting 'monoclinic'
loop_
_space_group_symop_operation_xyz
x,y,z
-x,y,-z
-x,-y,-z
x,-y,z
loop_
_atom_site_type_symbol
_atom_site_label
_atom_site_fract_x
_atom_site_fract_y
_atom_site_fract_z
Si Si1 0.309474 0.176667 0.201823
Si Si2 0.872093 0.677534 0.161272
Si Si3 0.647673 0.825498 0.267449
Si Si4 0.114958 0.177927 0.130769
Si Si5 0.483915 0.327150 0.919795
Si Si6 0.779553 0.322130 0.028145
Si Si7 0.585711 0.676336 0.693424
Si Si8 0.506220 0.824998 0.577961
O O1 0.198061 0.215421 0.178676
O O2 0.419527 0.228831 0.135290
O O3 0.320334 0.257868 0.273697
O O4 0.312909 0.000000 0.211311
O O5 0.871644 0.500000 0.170402
O O6 0.764787 0.749537 0.222549
O O7 0.852720 0.707837 0.082720
O O8 0.991269 0.747172 0.161192
O O9 0.537873 0.741657 0.256324
O O10 0.614866 0.813495 0.356286
O O11 0.646773 0.000000 0.249173
O O12 0.103949 0.000000 0.129462
O O13 0.173638 0.237527 0.048303
O O14 0.499485 0.500000 0.894803
O O15 0.353043 0.282731 0.930874
O O16 0.500000 0.320943 0.000000
O O17 0.782744 0.500000 0.013576
O O18 0.583915 0.500000 0.695110
O O19 0.590366 0.737298 0.613245
O O20 0.500000 0.772126 0.500000
O O21 0.537093 0.000000 0.571512
#
# Coordination Sequence:
#
# PCOD9145181 Si02
#       8
#     4   4   4   4   4   4   4   4
#     4  11  22  35  49  69  97 131 171 214 259 307
#     4  11  22  35  52  72  98 133 172 216 260 307
#     4   9  18  33  53  78 106 136 167 201 244 296
#     4  11  24  37  50  68  93 130 177 224 263 304
#     4  10  19  32  52  72  94 125 161 209 267 317
#     4  10  21  36  51  70  94 125 167 214 267 317
#     4  10  19  31  51  78 106 134 164 200 246 297
#     4   8  16  32  53  80 113 142 164 193 239 295
#
# _framework density 15.892745
#
# number of rings (size 3 to 8) (size 9 to 14) (size 15 to 20)
#    0.750    1.250    1.250    3.375    0.000    6.000 
#    0.000    0.000    0.000    0.000    0.000    0.875 
#    0.000    7.000    0.000    0.000    0.000    0.000 
#
# Total GULP energy -178400.704190 kJ/mol
# GULP energy per Si atom -5575.022006 kJ/mol
# Density = 1.585657 g / cm^3
# Si number density = 15.892745 Si / 1000 Ang^3
#
#
#
# Elastic Constant Matrix: (Units=GPa)
#
#
# Indices 1 2 3 4 5 6 
#
# 1 123.3711 65.1056 47.2801 0.0000 14.1771 0.0000
# 2 65.1056 80.0193 43.1800 0.0000 15.4925 0.0000
# 3 47.2801 43.1800 64.4982 0.0000 24.7918 0.0000
# 4 0.0000 0.0000 0.0000 14.2230 0.0000 -3.3388
# 5 14.1771 15.4925 24.7918 0.0000 20.3012 0.0000
# 6 0.0000 0.0000 0.0000 -3.3388 0.0000 24.9433
#
#
#
# Elastic Compliance Matrix: (Units=1/GPa)
#
#
# Indices 1 2 3 4 5 6 
#
# 1 0.015193 -0.009844 -0.006325 0.000000 0.004627 0.000000
# 2 -0.009844 0.025987 -0.009802 0.000000 -0.000986 0.000000
# 3 -0.006325 -0.009802 0.041708 0.000000 -0.039036 0.000000
# 4 0.000000 0.000000 0.000000 0.072590 0.000000 0.009716
# 5 0.004627 -0.000986 -0.039036 0.000000 0.094451 0.000000
# 6 0.000000 0.000000 0.000000 0.009716 0.000000 0.041392
#
#
# Mechanical properties :
#
#
# Convention : Reuss Voigt Hill
#
# Bulk Modulus (GPa) = 32.31567 64.33557 48.32562
# Shear Modulus (GPa) = 14.14118 19.38168 16.76143
#
# Velocity S-wave (km/s) = 2.98617 3.49597 3.25107
# Velocity P-wave (km/s) = 5.68044 7.54087 6.67578
#
# Compressibility (1/GPa) = 0.03094474
#
# Stress axis : x y z
#
# Youngs Moduli (GPa) = 65.82078 38.48133 23.97607
#
# Poissons Ratio (x) = 0.37880 0.15166
# Poissons Ratio (y) = 0.64792 0.23502
# Poissons Ratio (z) = 0.41634 0.37721
#
# Static dielectric constant tensor:
#      x y z
#    x 1.528840 0.000000 0.018660 
#    y 0.000000 1.530870 0.000000 
#    z 0.018660 0.000000 1.529110 
# 
# From -- ./inp_files/83349.got.cif
#   From: 2010.05.17/outbox.cif.g08.bks.cpg/sg10_42_cif.got.tgz:83349.got - 2010.06.03 11:33:40.
