data_PCOD9145714
_publ_section_title
;
Structure prediction by ZEFSAII (Michael W. Deem and Ramdas Pophale) SiO2 
 PCOD9145714
Probable space group: P 2/M
;
_chemical_formula_sum "Si O2"
_cell_formula_units_Z 32
_cell_length_a 32.567967
_cell_length_b 7.869993
_cell_length_c 12.537909
_cell_angle_alpha 90.000000
_cell_angle_beta 29.743713
_cell_angle_gamma 90.000000
_cell_volume 1594.328921
_symmetry_space_group_name_H-M "P 2/M"
_symmetry_group_IT_number 10
_symmetry_cell_setting 'monoclinic'
loop_
_space_group_symop_operation_xyz
x,y,z
-x,y,-z
-x,-y,-z
x,-y,z
loop_
_atom_site_type_symbol
_atom_site_label
_atom_site_fract_x
_atom_site_fract_y
_atom_site_fract_z
Si Si1 0.474391 0.705584 0.437790
Si Si2 0.744337 0.702132 0.323398
Si Si3 0.105996 0.796350 0.860735
Si Si4 0.593488 0.795421 0.806903
Si Si5 0.285617 0.704626 0.840349
Si Si6 0.226104 0.204858 0.207030
Si Si7 0.921655 0.792222 0.316266
Si Si8 0.367213 0.799351 0.049824
O O1 0.500000 0.754020 0.500000
O O2 0.476973 0.500000 0.425011
O O3 0.381035 0.763928 0.628249
O O4 0.541813 0.776153 0.204429
O O5 0.744829 0.500000 0.317799
O O6 0.817261 0.754236 0.238244
O O7 0.656115 0.755342 0.570774
O O8 0.754105 0.767711 0.180406
O O9 0.112909 0.738961 0.722079
O O10 0.101066 0.000000 0.866501
O O11 0.017100 0.735727 0.105798
O O12 0.631243 0.729197 0.833608
O O13 0.588387 0.000000 0.827331
O O14 0.500000 0.731590 0.000000
O O15 0.288126 0.500000 0.831279
O O16 0.241687 0.750280 0.049595
O O17 0.139708 0.264879 0.452525
O O18 0.300375 0.270300 0.116224
O O19 0.227192 0.000000 0.209972
O O20 0.921922 0.000000 0.317434
O O21 0.349022 0.000000 0.099950
#
# Coordination Sequence:
#
# PCOD9145714 Si02
#       8
#     4   4   4   4   4   4   4   4
#     4  10  19  33  52  71  98 140 185 219 252 307
#     4  11  23  37  54  77 109 145 180 218 262 316
#     4   9  17  35  62  84 107 139 173 212 264 322
#     4  10  21  37  56  79 108 141 178 220 266 319
#     4  10  22  38  51  70 104 144 182 218 260 310
#     4  10  19  32  52  79 106 131 170 219 265 313
#     4   8  16  33  59  87 109 133 168 217 271 317
#     4  10  20  32  51  80 108 132 167 220 271 312
#
# _framework density 20.071141999999998
#
# number of rings (size 3 to 8) (size 9 to 14) (size 15 to 20)
#    0.000    2.250    1.250    2.625    0.000    4.500 
#    0.000    4.375    0.000    3.750    0.000    0.000 
#    0.000    0.000    0.000    0.000    0.000    0.000 
#
# Total GULP energy -178645.889190 kJ/mol
# GULP energy per Si atom -5582.684037 kJ/mol
# Density = 2.002546 g / cm^3
# Si number density = 20.071142 Si / 1000 Ang^3
#
#
#
# Elastic Constant Matrix: (Units=GPa)
#
#
# Indices 1 2 3 4 5 6 
#
# 1 73.5990 -0.4524 46.2849 0.0000 -9.6067 0.0000
# 2 -0.4524 12.1120 -6.6904 0.0000 -3.6831 0.0000
# 3 46.2849 -6.6904 123.8030 0.0000 3.8011 0.0000
# 4 0.0000 0.0000 0.0000 38.3332 0.0000 5.6354
# 5 -9.6067 -3.6831 3.8011 0.0000 29.2550 0.0000
# 6 0.0000 0.0000 0.0000 5.6354 0.0000 11.7903
#
#
#
# Elastic Compliance Matrix: (Units=1/GPa)
#
#
# Indices 1 2 3 4 5 6 
#
# 1 0.019203 -0.001241 -0.007465 0.000000 0.007120 0.000000
# 2 -0.001241 0.088299 0.004927 0.000000 0.010069 0.000000
# 3 -0.007465 0.004927 0.011236 0.000000 -0.003291 0.000000
# 4 0.000000 0.000000 0.000000 0.028059 0.000000 -0.013411
# 5 0.007120 0.010069 -0.003291 0.000000 0.038215 0.000000
# 6 0.000000 0.000000 0.000000 -0.013411 0.000000 0.091226
#
#
# Mechanical properties :
#
#
# Convention : Reuss Voigt Hill
#
# Bulk Modulus (GPa) = 8.99449 31.97757 20.48603
# Shear Modulus (GPa) = 15.58325 27.23383 21.40854
#
# Velocity S-wave (km/s) = 2.78942 3.68756 3.26948
# Velocity P-wave (km/s) = 3.85558 5.83931 4.94788
#
# Compressibility (1/GPa) = 0.11117919
#
# Stress axis : x y z
#
# Youngs Moduli (GPa) = 52.07401 11.32511 89.00356
#
# Poissons Ratio (x) = 0.01406 0.66442
# Poissons Ratio (y) = 0.06463 -0.43849
# Poissons Ratio (z) = 0.38873 -0.05579
#
# Static dielectric constant tensor:
#      x y z
#    x 1.737280 0.000000 -0.014010 
#    y 0.000000 1.733900 0.000000 
#    z -0.014010 0.000000 1.704120 
# 
# From -- ./inp_files/58097.got.cif
#   From: 2010.05.17/outbox.cif.g08.bks.cpg/sg10_30_cif.got.tgz:58097.got - 2010.06.03 11:33:40.
