data_PCOD9145234
_publ_section_title
;
Structure prediction by ZEFSAII (Michael W. Deem and Ramdas Pophale) SiO2 
 PCOD9145234
Probable space group: P 2/M
;
_chemical_formula_sum "Si O2"
_cell_formula_units_Z 32
_cell_length_a 23.385438
_cell_length_b 9.278903
_cell_length_c 29.075959
_cell_angle_alpha 90.000000
_cell_angle_beta 163.343410
_cell_angle_gamma 90.000000
_cell_volume 1808.443834
_symmetry_space_group_name_H-M "P 2/M"
_symmetry_group_IT_number 10
_symmetry_cell_setting 'monoclinic'
loop_
_space_group_symop_operation_xyz
x,y,z
-x,y,-z
-x,-y,-z
x,-y,z
loop_
_atom_site_type_symbol
_atom_site_label
_atom_site_fract_x
_atom_site_fract_y
_atom_site_fract_z
Si Si1 0.100032 0.172209 0.473514
Si Si2 0.264861 0.169719 0.500012
Si Si3 0.816567 0.668231 0.653812
Si Si4 0.080981 0.829238 0.178993
Si Si5 0.271425 0.831840 0.164282
Si Si6 0.230614 0.665361 0.660071
Si Si7 0.685548 0.326832 0.175843
Si Si8 0.655111 0.332030 0.688250
O O1 0.882822 0.243987 0.311725
O O2 0.187638 0.207898 0.491028
O O3 0.234948 0.235087 0.618825
O O4 0.085792 0.000000 0.466928
O O5 0.167955 0.262059 0.384578
O O6 0.503844 0.188955 0.680900
O O7 0.224834 0.000000 0.461146
O O8 0.868327 0.500000 0.693175
O O9 0.935148 0.754135 0.784127
O O10 0.582398 0.680988 0.487553
O O11 0.263320 0.758615 0.291484
O O12 0.110061 0.000000 0.206608
O O13 0.888345 0.803878 0.998479
O O14 0.247946 0.732191 0.190706
O O15 0.250798 0.000000 0.162705
O O16 0.278481 0.500000 0.684827
O O17 0.351554 0.709416 0.798911
O O18 0.000000 0.667788 0.500000
O O19 0.723091 0.500000 0.203506
O O20 0.500000 0.294915 0.000000
O O21 0.703577 0.500000 0.719133
#
# Coordination Sequence:
#
# PCOD9145234 Si02
#       8
#     4   4   4   4   4   4   4   4
#     4  10  19  31  52  78 100 128 166 205 244 287
#     4   9  19  37  55  70  94 130 168 203 243 292
#     4  10  21  35  51  72  98 129 165 205 247 293
#     4  11  21  32  50  74  98 127 162 202 252 305
#     4   9  19  35  52  70  95 128 165 202 243 296
#     4   8  15  29  49  72  98 130 165 197 232 279
#     4   9  18  33  52  75 106 139 166 197 241 288
#     4  10  20  33  50  73  99 126 160 204 252 300
#
# _framework density 17.694772
#
# number of rings (size 3 to 8) (size 9 to 14) (size 15 to 20)
#    0.000    2.500    0.000    3.000    0.000    9.000 
#    0.000    1.250    0.000    4.500    0.000    0.000 
#    0.000    0.000    0.000    0.000    0.000    0.000 
#
# Total GULP energy -178532.916667 kJ/mol
# GULP energy per Si atom -5579.153646 kJ/mol
# Density = 1.765450 g / cm^3
# Si number density = 17.694772 Si / 1000 Ang^3
#
#
#
# Elastic Constant Matrix: (Units=GPa)
#
#
# Indices 1 2 3 4 5 6 
#
# 1 137.6118 71.1683 36.1822 0.0000 -28.3370 0.0000
# 2 71.1683 77.6811 34.8019 0.0000 -21.5811 0.0000
# 3 36.1822 34.8019 47.5904 0.0000 -27.8793 0.0000
# 4 0.0000 0.0000 0.0000 18.5994 0.0000 -1.2404
# 5 -28.3370 -21.5811 -27.8793 0.0000 29.5578 0.0000
# 6 0.0000 0.0000 0.0000 -1.2404 0.0000 10.5991
#
#
#
# Elastic Compliance Matrix: (Units=1/GPa)
#
#
# Indices 1 2 3 4 5 6 
#
# 1 0.014494 -0.012253 0.001877 0.000000 0.006720 0.000000
# 2 -0.012253 0.029544 -0.014603 0.000000 -0.003949 0.000000
# 3 0.001877 -0.014603 0.056034 0.000000 0.043990 0.000000
# 4 0.000000 0.000000 0.000000 0.054188 0.000000 0.006341
# 5 0.006720 -0.003949 0.043990 0.000000 0.078883 0.000000
# 6 0.000000 0.000000 0.000000 0.006341 0.000000 0.095090
#
#
# Mechanical properties :
#
#
# Convention : Reuss Voigt Hill
#
# Bulk Modulus (GPa) = 19.95397 60.79867 40.37632
# Shear Modulus (GPa) = 12.66165 19.79998 16.23082
#
# Velocity S-wave (km/s) = 2.67790 3.34874 3.03193
# Velocity P-wave (km/s) = 4.56757 7.02754 5.92659
#
# Compressibility (1/GPa) = 0.05011533
#
# Stress axis : x y z
#
# Youngs Moduli (GPa) = 68.99578 33.84828 17.84627
#
# Poissons Ratio (x) = 0.41474 -0.03351
# Poissons Ratio (y) = 0.84539 0.26060
# Poissons Ratio (z) = -0.12954 0.49428
#
# Static dielectric constant tensor:
#      x y z
#    x 1.596180 0.000000 -0.016770 
#    y 0.000000 1.592490 0.000000 
#    z -0.016770 0.000000 1.608510 
# 
# From -- ./inp_files/90651.got.cif
#   From: 2010.05.17/outbox.cif.g08.bks.cpg/sg10_46_cif.got.tgz:90651.got - 2010.06.03 11:33:40.
