data_PCOD9145864
_publ_section_title
;
Structure prediction by ZEFSAII (Michael W. Deem and Ramdas Pophale) SiO2 
 PCOD9145864
Probable space group: P 2/M
;
_chemical_formula_sum "Si O2"
_cell_formula_units_Z 28
_cell_length_a 20.198438
_cell_length_b 11.358928
_cell_length_c 18.075776
_cell_angle_alpha 90.000000
_cell_angle_beta 21.192109
_cell_angle_gamma 90.000000
_cell_volume 1499.186889
_symmetry_space_group_name_H-M "P 2/M"
_symmetry_group_IT_number 10
_symmetry_cell_setting 'monoclinic'
loop_
_space_group_symop_operation_xyz
x,y,z
-x,y,-z
-x,-y,-z
x,-y,z
loop_
_atom_site_type_symbol
_atom_site_label
_atom_site_fract_x
_atom_site_fract_y
_atom_site_fract_z
Si Si1 0.119145 0.360945 0.576606
Si Si2 0.550424 0.358094 0.866431
Si Si3 0.453865 0.254841 0.674117
Si Si4 0.144290 0.365627 0.907893
Si Si5 0.687306 0.639593 0.025178
Si Si6 0.071972 0.000000 0.839436
Si Si7 0.497375 0.000000 0.590849
Si Si8 0.867029 0.749144 0.286348
O O1 0.152204 0.500000 0.561815
O O2 0.242639 0.336715 0.376199
O O3 0.178571 0.273568 0.580667
O O4 0.903764 0.344629 0.789142
O O5 0.526260 0.500000 0.894570
O O6 0.500000 0.311651 0.000000
O O7 0.420830 0.316583 0.934387
O O8 0.411272 0.117262 0.711711
O O9 0.675245 0.268376 0.441831
O O10 0.338239 0.312391 0.728072
O O11 0.383096 0.303495 0.825648
O O12 0.173086 0.500000 0.855575
O O13 0.016590 0.351432 0.113014
O O14 0.000000 0.308382 0.000000
O O15 0.651631 0.500000 0.069925
O O16 0.290846 0.000000 0.610140
O O17 0.037758 0.125713 0.834284
O O18 0.000000 0.000000 0.000000
O O19 0.500000 0.000000 0.500000
#
# Coordination Sequence:
#
# PCOD9145864 Si02
#       8
#     4   4   4   4   4   2   2   4
#     4  10  19  32  53  83 114 146 187 230 276 338
#     4   9  18  32  52  81 117 153 186 225 279 339
#     4  11  23  39  58  79 111 147 190 238 286 335
#     4  11  25  39  55  81 111 146 187 233 289 345
#     4  10  19  33  55  81 113 150 184 228 283 334
#     4  10  24  40  58  82 108 147 189 246 299 334
#     4  10  26  40  58  84 108 144 196 243 295 341
#     4  11  22  37  59  81 109 146 194 236 284 342
#
# _framework density 18.67679
#
# number of rings (size 3 to 8) (size 9 to 14) (size 15 to 20)
#    0.000    1.714    2.857    1.286    6.000    2.286 
#    0.000    4.643    0.000    0.000    0.000    2.000 
#    0.000    2.286    0.000    0.000    0.000    0.000 
#
# Total GULP energy -156101.222173 kJ/mol
# GULP energy per Si atom -5575.043649 kJ/mol
# Density = 1.863428 g / cm^3
# Si number density = 18.676790 Si / 1000 Ang^3
#
#
#
# Elastic Constant Matrix: (Units=GPa)
#
#
# Indices 1 2 3 4 5 6 
#
# 1 92.4216 28.5234 51.2320 0.0000 5.1512 0.0000
# 2 28.5234 66.7352 30.5388 0.0000 -0.4665 0.0000
# 3 51.2320 30.5388 111.1365 0.0000 -1.8544 0.0000
# 4 0.0000 0.0000 0.0000 7.6204 0.0000 -1.6243
# 5 5.1512 -0.4665 -1.8544 0.0000 40.7442 0.0000
# 6 0.0000 0.0000 0.0000 -1.6243 0.0000 13.6564
#
#
#
# Elastic Compliance Matrix: (Units=1/GPa)
#
#
# Indices 1 2 3 4 5 6 
#
# 1 0.015541 -0.003846 -0.006146 0.000000 -0.002289 0.000000
# 2 -0.003846 0.018092 -0.003189 0.000000 0.000548 0.000000
# 3 -0.006146 -0.003189 0.012729 0.000000 0.001320 0.000000
# 4 0.000000 0.000000 0.000000 0.134640 0.000000 0.016014
# 5 -0.002289 0.000548 0.001320 0.000000 0.024899 0.000000
# 6 0.000000 0.000000 0.000000 0.016014 0.000000 0.075131
#
#
# Mechanical properties :
#
#
# Convention : Reuss Voigt Hill
#
# Bulk Modulus (GPa) = 49.99899 54.54239 52.27069
# Shear Modulus (GPa) = 15.92050 23.07081 19.49566
#
# Velocity S-wave (km/s) = 2.92279 3.51845 3.23436
# Velocity P-wave (km/s) = 6.18216 6.76555 6.48042
#
# Compressibility (1/GPa) = 0.02000040
#
# Stress axis : x y z
#
# Youngs Moduli (GPa) = 64.34506 55.27380 78.55908
#
# Poissons Ratio (x) = 0.21260 0.48279
# Poissons Ratio (y) = 0.24749 0.25054
# Poissons Ratio (z) = 0.39543 0.17628
#
# Static dielectric constant tensor:
#      x y z
#    x 1.715720 0.000000 -0.011040 
#    y 0.000000 1.661550 0.000000 
#    z -0.011040 0.000000 1.673610 
# 
# From -- ./inp_files/79535.got.cif
#   From: 2010.05.17/outbox.cif.g08.bks.cpg/sg10_40_cif.got.tgz:79535.got - 2010.06.03 11:33:40.
