data_PCOD9145156
_publ_section_title
;
Structure prediction by ZEFSAII (Michael W. Deem and Ramdas Pophale) SiO2 
 PCOD9145156
Probable space group: P 2/M
;
_chemical_formula_sum "Si O2"
_cell_formula_units_Z 28
_cell_length_a 12.936550
_cell_length_b 14.090797
_cell_length_c 9.139128
_cell_angle_alpha 90.000000
_cell_angle_beta 135.031927
_cell_angle_gamma 90.000000
_cell_volume 1177.339336
_symmetry_space_group_name_H-M "P 2/M"
_symmetry_group_IT_number 10
_symmetry_cell_setting 'monoclinic'
loop_
_space_group_symop_operation_xyz
x,y,z
-x,y,-z
-x,-y,-z
x,-y,z
loop_
_atom_site_type_symbol
_atom_site_label
_atom_site_fract_x
_atom_site_fract_y
_atom_site_fract_z
Si Si1 0.045135 0.109074 0.197326
Si Si2 0.872301 0.810132 0.256737
Si Si3 0.572814 0.896212 0.735134
Si Si4 0.295908 0.110410 0.665299
Si Si5 0.820930 0.395079 0.159756
Si Si6 0.367195 0.395910 0.751132
Si Si7 0.440069 0.685423 0.278904
O O1 0.905345 0.116947 0.161625
O O2 0.183037 0.146423 0.427076
O O3 0.085679 0.000000 0.207316
O O4 0.000000 0.155825 0.000000
O O5 0.727829 0.829311 0.209973
O O6 0.901156 0.704719 0.222879
O O7 0.000000 0.830055 0.500000
O O8 0.500000 0.897023 0.500000
O O9 0.451756 0.893855 0.743055
O O10 0.635070 0.789355 0.802602
O O11 0.645518 0.000000 0.818734
O O12 0.256580 0.000000 0.662477
O O13 0.886362 0.500000 0.204120
O O14 0.770350 0.387226 0.279636
O O15 0.679185 0.385099 0.911412
O O16 0.359979 0.500000 0.672032
O O17 0.416847 0.320125 0.682293
O O18 0.500000 0.396711 0.000000
O O19 0.500000 0.664713 0.500000
#
# Coordination Sequence:
#
# PCOD9145156 Si02
#       7
#     4   4   4   4   4   4   4
#     4   9  18  32  53  82 111 139 175 218 264 314
#     4  10  20  35  56  78 103 138 182 226 264 307
#     4   9  18  31  47  73 110 145 172 201 246 309
#     4   9  17  32  54  78 107 142 178 218 260 306
#     4  10  21  36  53  74 101 134 173 220 270 315
#     4   8  15  29  48  69  95 128 167 211 256 303
#     4  10  19  31  51  76 103 135 173 214 259 313
#
# _framework density 23.782439
#
# number of rings (size 3 to 8) (size 9 to 14) (size 15 to 20)
#    0.000    2.714    0.000    2.571    0.000    5.429 
#    0.000    2.857    0.000    6.000    0.000    0.000 
#    0.000    0.000    0.000    0.000    0.000    0.000 
#
# Total GULP energy -156093.357095 kJ/mol
# GULP energy per Si atom -5574.762753 kJ/mol
# Density = 2.372831 g / cm^3
# Si number density = 23.782439 Si / 1000 Ang^3
#
#
#
# Elastic Constant Matrix: (Units=GPa)
#
#
# Indices 1 2 3 4 5 6 
#
# 1 38.0858 1.8246 31.8125 0.0000 -15.2584 0.0000
# 2 1.8246 118.0776 18.1291 0.0000 -5.9826 0.0000
# 3 31.8125 18.1291 92.1810 0.0000 -23.4882 0.0000
# 4 0.0000 0.0000 0.0000 23.2295 0.0000 -9.8958
# 5 -15.2584 -5.9826 -23.4882 0.0000 25.1210 0.0000
# 6 0.0000 0.0000 0.0000 -9.8958 0.0000 9.6400
#
#
#
# Elastic Compliance Matrix: (Units=1/GPa)
#
#
# Indices 1 2 3 4 5 6 
#
# 1 0.041288 0.001783 -0.010635 0.000000 0.015559 0.000000
# 2 0.001783 0.008817 -0.002020 0.000000 0.001295 0.000000
# 3 -0.010635 -0.002020 0.017259 0.000000 0.009197 0.000000
# 4 0.000000 0.000000 0.000000 0.076505 0.000000 0.078535
# 5 0.015559 0.001295 0.009197 0.000000 0.058165 0.000000
# 6 0.000000 0.000000 0.000000 0.078535 0.000000 0.184352
#
#
# Mechanical properties :
#
#
# Convention : Reuss Voigt Hill
#
# Bulk Modulus (GPa) = 21.91976 39.09746 30.50861
# Shear Modulus (GPa) = 11.81096 24.70332 18.25714
#
# Velocity S-wave (km/s) = 2.23093 3.22642 2.77370
# Velocity P-wave (km/s) = 3.98407 5.50954 4.80769
#
# Compressibility (1/GPa) = 0.04562095
#
# Stress axis : x y z
#
# Youngs Moduli (GPa) = 24.22032 113.41577 57.94083
#
# Poissons Ratio (x) = -0.20224 0.61620
# Poissons Ratio (y) = -0.04319 0.11702
# Poissons Ratio (z) = 0.25758 0.22905
#
# Static dielectric constant tensor:
#      x y z
#    x 1.948950 0.000000 0.046560 
#    y 0.000000 1.962920 0.000000 
#    z 0.046560 0.000000 1.960820 
# 
# From -- ./inp_files/29627.got.cif
#   From: 2010.05.17/outbox.cif.g08.bks.cpg/sg10_15_cif.got.tgz:29627.got - 2010.06.03 11:33:40.
