data_PCOD9145354
_publ_section_title
;
Structure prediction by ZEFSAII (Michael W. Deem and Ramdas Pophale) SiO2 
 PCOD9145354
Probable space group: P 2/M
;
_chemical_formula_sum "Si O2"
_cell_formula_units_Z 22
_cell_length_a 16.707923
_cell_length_b 13.218204
_cell_length_c 5.279932
_cell_angle_alpha 90.000000
_cell_angle_beta 128.892933
_cell_angle_gamma 90.000000
_cell_volume 907.573420
_symmetry_space_group_name_H-M "P 2/M"
_symmetry_group_IT_number 10
_symmetry_cell_setting 'monoclinic'
loop_
_space_group_symop_operation_xyz
x,y,z
-x,y,-z
-x,-y,-z
x,-y,z
loop_
_atom_site_type_symbol
_atom_site_label
_atom_site_fract_x
_atom_site_fract_y
_atom_site_fract_z
Si Si1 0.420733 0.221258 0.044915
Si Si2 0.266293 0.000000 0.256784
Si Si3 0.326201 0.389712 0.160700
Si Si4 0.189363 0.174123 0.393841
Si Si5 0.596463 0.000000 0.962285
Si Si6 0.068211 0.000000 0.388058
Si Si7 0.187284 0.389560 0.383086
O O1 0.396260 0.293912 0.232031
O O2 0.306455 0.202085 0.703783
O O3 0.460214 0.107295 0.173307
O O4 0.500000 0.268042 0.000000
O O5 0.201101 0.898257 0.173657
O O6 0.345238 0.000000 0.651879
O O7 0.324051 0.000000 0.110206
O O8 0.378141 0.500000 0.245283
O O9 0.240425 0.390053 0.765974
O O10 0.272048 0.384749 0.325401
O O11 0.136618 0.100829 0.491983
O O12 0.132594 0.281048 0.248745
O O13 0.000000 0.000000 0.500000
O O14 0.000000 0.000000 0.000000
O O15 0.135349 0.500000 0.249723
#
# Coordination Sequence:
#
# PCOD9145354 Si02
#       7
#     4   2   4   4   2   2   4
#     4  10  20  35  56  84 118 157 196 234 285 343
#     4   9  18  32  53  74 100 140 179 221 278 326
#     4   9  18  32  50  77 114 156 200 237 270 322
#     4   9  20  38  60  86 119 152 190 241 288 339
#     4  10  19  32  46  71 104 140 183 225 271 328
#     4  11  26  44  67  93 115 148 194 242 296 352
#     4   9  17  32  56  83 112 151 192 233 287 339
#
# _framework density 24.240465
#
# number of rings (size 3 to 8) (size 9 to 14) (size 15 to 20)
#    0.000    2.545    0.000    1.909    0.000    9.091 
#    0.000   18.182    0.000   10.909    0.000    0.000 
#    0.000    0.000    0.000    0.000    0.000    0.000 
#
# Total GULP energy -122811.598943 kJ/mol
# GULP energy per Si atom -5582.345406 kJ/mol
# Density = 2.418529 g / cm^3
# Si number density = 24.240465 Si / 1000 Ang^3
#
#
#
# Elastic Constant Matrix: (Units=GPa)
#
#
# Indices 1 2 3 4 5 6 
#
# 1 138.3490 36.8672 32.6094 0.0000 -27.1958 0.0000
# 2 36.8672 230.0269 -7.9526 0.0000 -9.2139 0.0000
# 3 32.6094 -7.9526 101.8461 0.0000 -19.3194 0.0000
# 4 0.0000 0.0000 0.0000 1176.9616 0.0000 -157.2107
# 5 -27.1958 -9.2139 -19.3194 0.0000 34.5340 0.0000
# 6 0.0000 0.0000 0.0000 -157.2107 0.0000 28.3039
#
#
#
# Elastic Compliance Matrix: (Units=1/GPa)
#
#
# Indices 1 2 3 4 5 6 
#
# 1 0.009171 -0.001305 -0.001940 0.000000 0.005789 0.000000
# 2 -0.001305 0.004617 0.000914 0.000000 0.000715 0.000000
# 3 -0.001940 0.000914 0.011487 0.000000 0.005142 0.000000
# 4 0.000000 0.000000 0.000000 0.003292 0.000000 0.018286
# 5 0.005789 0.000715 0.005142 0.000000 0.036583 0.000000
# 6 0.000000 0.000000 0.000000 0.018286 0.000000 0.136897
#
#
# Mechanical properties :
#
#
# Convention : Reuss Voigt Hill
#
# Bulk Modulus (GPa) = 48.51548 65.91890 57.21719
# Shear Modulus (GPa) = 23.41039 275.20645 149.30842
#
# Velocity S-wave (km/s) = 3.11103 10.66669 7.85674
# Velocity P-wave (km/s) = 5.74129 13.37749 10.29368
#
# Compressibility (1/GPa) = 0.02061198
#
# Stress axis : x y z
#
# Youngs Moduli (GPa) = 109.03815 216.60285 87.05689
#
# Poissons Ratio (x) = 0.28269 0.16891
# Poissons Ratio (y) = 0.14230 -0.07958
# Poissons Ratio (z) = 0.21156 -0.19799
#
# Static dielectric constant tensor:
#      x y z
#    x 1.891200 0.000000 0.040160 
#    y 0.000000 2.051050 0.000000 
#    z 0.040160 0.000000 1.996100 
# 
# From -- ./inp_files/11101.got.cif
#   From: 2010.05.17/outbox.cif.g08.bks.cpg/sg10_6_cif.got.tgz:11101.got - 2010.06.03 11:33:40.
