data_PCOD9145242
_publ_section_title
;
Structure prediction by ZEFSAII (Michael W. Deem and Ramdas Pophale) SiO2 
 PCOD9145242
Probable space group: P 2/M
;
_chemical_formula_sum "Si O2"
_cell_formula_units_Z 28
_cell_length_a 21.481246
_cell_length_b 7.404096
_cell_length_c 14.291431
_cell_angle_alpha 90.000000
_cell_angle_beta 146.213633
_cell_angle_gamma 90.000000
_cell_volume 1264.033145
_symmetry_space_group_name_H-M "P 2/M"
_symmetry_group_IT_number 10
_symmetry_cell_setting 'monoclinic'
loop_
_space_group_symop_operation_xyz
x,y,z
-x,y,-z
-x,-y,-z
x,-y,z
loop_
_atom_site_type_symbol
_atom_site_label
_atom_site_fract_x
_atom_site_fract_y
_atom_site_fract_z
Si Si1 0.570656 0.282148 0.227848
Si Si2 0.833678 0.217086 0.038996
Si Si3 0.117915 0.714535 0.683728
Si Si4 0.337159 0.720400 0.855841
Si Si5 0.028381 0.218709 0.142854
Si Si6 0.370345 0.221122 0.338492
Si Si7 0.730320 0.791282 0.592704
O O1 0.571989 0.500000 0.232279
O O2 0.639059 0.224588 0.220952
O O3 0.628876 0.216591 0.393857
O O4 0.443324 0.224306 0.051143
O O5 0.860115 0.261415 0.178989
O O6 0.933836 0.284682 0.096429
O O7 0.832400 0.000000 0.030157
O O8 0.711852 0.277285 0.848776
O O9 0.116082 0.500000 0.663857
O O10 0.222226 0.786849 0.755105
O O11 0.000000 0.788173 0.500000
O O12 0.337560 0.500000 0.856279
O O13 0.156721 0.282580 0.314113
O O14 0.025470 0.000000 0.148496
O O15 0.000000 0.262551 0.000000
O O16 0.500000 0.279961 0.500000
O O17 0.309146 0.284035 0.357287
O O18 0.373556 0.000000 0.342982
O O19 0.757424 0.000000 0.647389
#
# Coordination Sequence:
#
# PCOD9145242 Si02
#       7
#     4   4   4   4   4   4   4
#     4   9  18  34  56  75  97 132 172 211 251 302
#     4  10  20  35  56  78 102 137 177 215 253 300
#     4  10  22  38  55  75 104 139 173 211 261 313
#     4   8  17  36  55  71  97 137 175 204 250 314
#     4   9  16  31  52  73 100 135 170 201 242 300
#     4   9  18  32  51  77 108 139 171 206 253 312
#     4  10  19  31  52  79 104 131 167 210 254 300
#
# _framework density 22.151319000000001
#
# number of rings (size 3 to 8) (size 9 to 14) (size 15 to 20)
#    0.000    2.714    1.429    0.857    4.000    0.286 
#    0.000    2.857    0.000    1.714    0.000    0.000 
#    0.000    0.000    0.000    0.000    0.000    0.000 
#
# Total GULP energy -156332.668464 kJ/mol
# GULP energy per Si atom -5583.309588 kJ/mol
# Density = 2.210090 g / cm^3
# Si number density = 22.151319 Si / 1000 Ang^3
#
#
#
# Elastic Constant Matrix: (Units=GPa)
#
#
# Indices 1 2 3 4 5 6 
#
# 1 100.0251 0.3677 88.2912 0.0000 27.0286 0.0000
# 2 0.3677 71.0546 -1.3731 0.0000 9.9839 0.0000
# 3 88.2912 -1.3731 170.5668 0.0000 9.2417 0.0000
# 4 0.0000 0.0000 0.0000 12.3296 0.0000 -13.3171
# 5 27.0286 9.9839 9.2417 0.0000 39.7351 0.0000
# 6 0.0000 0.0000 0.0000 -13.3171 0.0000 0.0908
#
#
#
# Elastic Compliance Matrix: (Units=1/GPa)
#
#
# Indices 1 2 3 4 5 6 
#
# 1 0.024156 0.001632 -0.011726 0.000000 -0.014114 0.000000
# 2 0.001632 0.014716 -0.000472 0.000000 -0.004698 0.000000
# 3 -0.011726 -0.000472 0.011637 0.000000 0.005388 0.000000
# 4 0.000000 0.000000 0.000000 -0.000515 0.000000 -0.075568
# 5 -0.014114 -0.004698 0.005388 0.000000 0.034694 0.000000
# 6 0.000000 0.000000 0.000000 -0.075568 0.000000 -0.069965
#
#
# Mechanical properties :
#
#
# Convention : Reuss Voigt Hill
#
# Bulk Modulus (GPa) = 34.04046 57.35758 45.69902
# Shear Modulus (GPa) = 109.53435 27.38846 68.46141
#
# Velocity S-wave (km/s) = 7.03957 3.52010 5.56537
# Velocity P-wave (km/s) = 9.02633 6.51699 7.87229
#
# Compressibility (1/GPa) = 0.02937681
#
# Stress axis : x y z
#
# Youngs Moduli (GPa) = 41.39810 67.95230 85.93410
#
# Poissons Ratio (x) = -0.11087 1.00766
# Poissons Ratio (y) = -0.06754 0.04052
# Poissons Ratio (z) = 0.48543 0.03204
#
# Static dielectric constant tensor:
#      x y z
#    x 1.773010 0.000000 0.036900 
#    y 0.000000 1.850510 0.000000 
#    z 0.036900 0.000000 1.798690 
# 
# From -- ./inp_files/46018.got.cif
#   From: 2010.05.17/outbox.cif.g08.bks.cpg/sg10_24_cif.got.tgz:46018.got - 2010.06.03 11:33:40.
