data_PCOD9145363
_publ_section_title
;
Structure prediction by ZEFSAII (Michael W. Deem and Ramdas Pophale) SiO2 
 PCOD9145363
Probable space group: P 2/M
;
_chemical_formula_sum "Si O2"
_cell_formula_units_Z 28
_cell_length_a 17.923265
_cell_length_b 9.939293
_cell_length_c 14.434904
_cell_angle_alpha 90.000000
_cell_angle_beta 140.276034
_cell_angle_gamma 90.000000
_cell_volume 1643.418846
_symmetry_space_group_name_H-M "P 2/M"
_symmetry_group_IT_number 10
_symmetry_cell_setting 'monoclinic'
loop_
_space_group_symop_operation_xyz
x,y,z
-x,y,-z
-x,-y,-z
x,-y,z
loop_
_atom_site_type_symbol
_atom_site_label
_atom_site_fract_x
_atom_site_fract_y
_atom_site_fract_z
Si Si1 0.532822 0.155492 0.429207
Si Si2 0.180074 0.342923 0.844215
Si Si3 0.203698 0.154617 0.688026
Si Si4 0.088614 0.652285 0.434252
Si Si5 0.550889 0.754845 0.145980
Si Si6 0.351659 0.850095 0.091735
Si Si7 0.326146 0.647081 0.559209
O O1 0.500000 0.204877 0.500000
O O2 0.421993 0.158661 0.254629
O O3 0.629482 0.240987 0.468229
O O4 0.570249 0.000000 0.473225
O O5 0.212055 0.500000 0.861969
O O6 0.203476 0.251991 0.776202
O O7 0.041518 0.336241 0.728472
O O8 0.258646 0.268804 0.995027
O O9 0.117519 0.230292 0.534428
O O10 0.335275 0.158377 0.772466
O O11 0.171320 0.000000 0.675694
O O12 0.098262 0.500000 0.485961
O O13 0.190718 0.660858 0.456222
O O14 0.447205 0.831682 0.100500
O O15 0.603182 0.658257 0.275583
O O16 0.500000 0.699132 0.000000
O O17 0.300002 0.000000 0.033097
O O18 0.348299 0.500000 0.540682
#
# Coordination Sequence:
#
# PCOD9145363 Si02
#       7
#     4   4   4   4   4   4   4
#     4   9  19  37  59  82 108 133 156 197 262 320
#     4  11  22  34  48  67 100 140 173 211 257 299
#     4  11  21  32  49  71  95 133 183 222 251 293
#     4   9  20  37  50  66  99 139 174 212 256 295
#     4  10  19  32  47  71 105 141 164 206 260 304
#     4  10  20  34  52  76 102 132 171 210 250 304
#     4   9  19  34  53  78 101 129 174 214 246 295
#
# _framework density 17.037654
#
# number of rings (size 3 to 8) (size 9 to 14) (size 15 to 20)
#    0.000    2.143    1.429    1.714    0.000   10.286 
#    0.000    0.000    0.000    0.857    0.000    6.000 
#    0.000    0.000    0.000    0.000    0.000    0.000 
#
# Total GULP energy -156043.926992 kJ/mol
# GULP energy per Si atom -5572.997393 kJ/mol
# Density = 1.699888 g / cm^3
# Si number density = 17.037654 Si / 1000 Ang^3
#
#
#
# Elastic Constant Matrix: (Units=GPa)
#
#
# Indices 1 2 3 4 5 6 
#
# 1 67.2213 42.5809 39.3058 0.0000 -7.9142 0.0000
# 2 42.5809 126.6170 36.7463 0.0000 9.8732 0.0000
# 3 39.3058 36.7463 56.4843 0.0000 7.4623 0.0000
# 4 0.0000 0.0000 0.0000 14.5342 0.0000 0.9358
# 5 -7.9142 9.8732 7.4623 0.0000 25.7883 0.0000
# 6 0.0000 0.0000 0.0000 0.9358 0.0000 16.8909
#
#
#
# Elastic Compliance Matrix: (Units=1/GPa)
#
#
# Indices 1 2 3 4 5 6 
#
# 1 0.034315 -0.006635 -0.022136 0.000000 0.019477 0.000000
# 2 -0.006635 0.011116 -0.001854 0.000000 -0.005755 0.000000
# 3 -0.022136 -0.001854 0.036514 0.000000 -0.016649 0.000000
# 4 0.000000 0.000000 0.000000 0.069049 0.000000 -0.003826
# 5 0.019477 -0.005755 -0.016649 0.000000 0.051776 0.000000
# 6 0.000000 0.000000 0.000000 -0.003826 0.000000 0.059416
#
#
# Mechanical properties :
#
#
# Convention : Reuss Voigt Hill
#
# Bulk Modulus (GPa) = 48.32049 54.17650 51.24850
# Shear Modulus (GPa) = 15.13617 20.22197 17.67907
#
# Velocity S-wave (km/s) = 2.98383 3.44888 3.22475
# Velocity P-wave (km/s) = 6.34772 6.90846 6.63402
#
# Compressibility (1/GPa) = 0.02069515
#
# Stress axis : x y z
#
# Youngs Moduli (GPa) = 29.14144 89.96038 27.38688
#
# Poissons Ratio (x) = 0.59686 0.60624
# Poissons Ratio (y) = 0.19334 0.05079
# Poissons Ratio (z) = 0.64508 0.16682
#
# Static dielectric constant tensor:
#      x y z
#    x 1.559740 0.000000 0.009090 
#    y 0.000000 1.597100 0.000000 
#    z 0.009090 0.000000 1.596510 
# 
# From -- ./inp_files/68694.got.cif
#   From: 2010.05.17/outbox.cif.g08.bks.cpg/sg10_35_cif.got.tgz:68694.got - 2010.06.03 11:33:40.
