data_PCOD9145816
_publ_section_title
;
Structure prediction by ZEFSAII (Michael W. Deem and Ramdas Pophale) SiO2 
 PCOD9145816
Probable space group: P 2/M
;
_chemical_formula_sum "Si O2"
_cell_formula_units_Z 18
_cell_length_a 9.597323
_cell_length_b 7.132537
_cell_length_c 9.834732
_cell_angle_alpha 90.000000
_cell_angle_beta 104.289450
_cell_angle_gamma 90.000000
_cell_volume 652.390874
_symmetry_space_group_name_H-M "P 2/M"
_symmetry_group_IT_number 10
_symmetry_cell_setting 'monoclinic'
loop_
_space_group_symop_operation_xyz
x,y,z
-x,y,-z
-x,-y,-z
x,-y,z
loop_
_atom_site_type_symbol
_atom_site_label
_atom_site_fract_x
_atom_site_fract_y
_atom_site_fract_z
Si Si1 0.842597 0.218883 0.482566
Si Si2 0.939348 0.217894 0.796532
Si Si3 0.540183 0.228078 0.355188
Si Si4 0.207217 0.500000 0.846485
Si Si5 0.314178 0.224043 0.069815
O O1 0.703975 0.300101 0.375775
O O2 0.000000 0.299674 0.500000
O O3 0.828685 0.227075 0.642094
O O4 0.850757 0.000000 0.444522
O O5 0.980424 0.000000 0.819980
O O6 0.077938 0.338965 0.798623
O O7 0.842910 0.271963 0.902223
O O8 0.500000 0.282262 0.500000
O O9 0.429426 0.280870 0.212142
O O10 0.544682 0.000000 0.356525
O O11 0.317412 0.336293 0.932415
O O12 0.323881 0.000000 0.053837
#
# Coordination Sequence:
#
# PCOD9145816 Si02
#       5
#     4   4   4   2   4
#     4   9  17  31  55  84 109 140 181 221 273 336
#     4  10  19  33  53  77 110 145 177 223 274 320
#     4   9  15  29  53  79 110 141 172 223 282 324
#     4  12  23  34  50  80 112 143 188 229 263 318
#     4  10  19  32  53  79 109 144 178 221 275 323
#
# _framework density 27.590820000000001
#
# number of rings (size 3 to 8) (size 9 to 14) (size 15 to 20)
#    0.000    2.222    2.222    2.667    0.000    1.778 
#    0.000    2.222    0.000    2.667    0.000    7.778 
#    0.000    0.000    0.000    0.000    0.000    0.000 
#
# Total GULP energy -100366.022886 kJ/mol
# GULP energy per Si atom -5575.890160 kJ/mol
# Density = 2.752802 g / cm^3
# Si number density = 27.590820 Si / 1000 Ang^3
#
#
#
# Elastic Constant Matrix: (Units=GPa)
#
#
# Indices 1 2 3 4 5 6 
#
# 1 128.0899 -1.2967 46.9380 0.0000 26.2428 0.0000
# 2 -1.2967 166.6974 22.1721 0.0000 21.8241 0.0000
# 3 46.9380 22.1721 151.8642 0.0000 44.4248 0.0000
# 4 0.0000 0.0000 0.0000 81.0849 0.0000 106.4305
# 5 26.2428 21.8241 44.4248 0.0000 65.1051 0.0000
# 6 0.0000 0.0000 0.0000 106.4305 0.0000 6.0577
#
#
#
# Elastic Compliance Matrix: (Units=1/GPa)
#
#
# Indices 1 2 3 4 5 6 
#
# 1 0.009116 0.000679 -0.002218 0.000000 -0.002389 0.000000
# 2 0.000679 0.006342 -0.000542 0.000000 -0.002030 0.000000
# 3 -0.002218 -0.000542 0.008789 0.000000 -0.004922 0.000000
# 4 0.000000 0.000000 0.000000 -0.000559 0.000000 0.009822
# 5 -0.002389 -0.002030 -0.004922 0.000000 0.020361 0.000000
# 6 0.000000 0.000000 0.000000 0.009822 0.000000 -0.007483
#
#
# Mechanical properties :
#
#
# Convention : Reuss Voigt Hill
#
# Bulk Modulus (GPa) = 49.78904 64.69759 57.24332
# Shear Modulus (GPa) = 105.43168 55.70542 80.56855
#
# Velocity S-wave (km/s) = 6.18834 4.49819 5.40968
# Velocity P-wave (km/s) = 8.31537 7.10479 7.73381
#
# Compressibility (1/GPa) = 0.02008474
#
# Stress axis : x y z
#
# Youngs Moduli (GPa) = 109.69730 157.67952 113.77592
#
# Poissons Ratio (x) = -0.10701 0.25234
# Poissons Ratio (y) = -0.07444 0.06166
# Poissons Ratio (z) = 0.24330 0.08545
#
# Static dielectric constant tensor:
#      x y z
#    x 2.222330 0.000000 -0.102010 
#    y 0.000000 2.053170 0.000000 
#    z -0.102010 0.000000 2.250940 
# 
# From -- ./inp_files/44753.got.cif
#   From: 2010.05.17/outbox.cif.g08.bks.cpg/sg10_23_cif.got.tgz:44753.got - 2010.06.03 11:33:40.
