data_PCOD9145790
_publ_section_title
;
Structure prediction by ZEFSAII (Michael W. Deem and Ramdas Pophale) SiO2 
 PCOD9145790
Probable space group: P 2/M
;
_chemical_formula_sum "Si O2"
_cell_formula_units_Z 24
_cell_length_a 10.469265
_cell_length_b 8.714177
_cell_length_c 23.720478
_cell_angle_alpha 90.000000
_cell_angle_beta 140.790192
_cell_angle_gamma 90.000000
_cell_volume 1368.026021
_symmetry_space_group_name_H-M "P 2/M"
_symmetry_group_IT_number 10
_symmetry_cell_setting 'monoclinic'
loop_
_space_group_symop_operation_xyz
x,y,z
-x,y,-z
-x,-y,-z
x,-y,z
loop_
_atom_site_type_symbol
_atom_site_label
_atom_site_fract_x
_atom_site_fract_y
_atom_site_fract_z
Si Si1 0.980221 0.684128 0.927861
Si Si2 0.279771 0.315235 0.445459
Si Si3 0.632495 0.183809 0.732496
Si Si4 0.270032 0.814462 0.932762
Si Si5 0.778744 0.314606 0.445694
Si Si6 0.921161 0.183904 0.728657
O O1 0.977868 0.500000 0.923982
O O2 0.774667 0.748465 0.829834
O O3 0.163498 0.746011 0.951743
O O4 0.000000 0.730064 0.000000
O O5 0.500000 0.261474 0.500000
O O6 0.279126 0.500000 0.444654
O O7 0.243508 0.264798 0.496898
O O8 0.117995 0.257259 0.344999
O O9 0.405653 0.245351 0.652791
O O10 0.742286 0.228858 0.711027
O O11 0.635702 0.000000 0.737240
O O12 0.127116 0.772242 0.830991
O O13 0.264334 0.000000 0.935999
O O14 0.500000 0.767132 0.000000
O O15 0.762817 0.500000 0.437992
O O16 0.000000 0.270586 0.500000
O O17 0.917635 0.000000 0.721988
#
# Coordination Sequence:
#
# PCOD9145790 Si02
#       6
#     4   4   4   4   4   4
#     4  10  21  37  58  83 110 142 184 228 271 325
#     4  10  19  32  53  78 101 135 179 216 256 313
#     4  10  20  35  57  81 106 140 182 223 268 322
#     4   9  19  37  58  81 113 146 178 221 276 328
#     4  10  21  37  54  75 109 145 175 218 273 318
#     4   9  18  32  53  80 105 136 175 219 264 307
#
# _framework density 17.543527000000001
#
# number of rings (size 3 to 8) (size 9 to 14) (size 15 to 20)
#    0.000    2.333    1.667    2.000    0.000    5.667 
#    3.000    0.000    0.000    0.000    0.000    0.000 
#    0.000    0.000    0.000    0.000    0.000    0.000 
#
# Total GULP energy -133894.662012 kJ/mol
# GULP energy per Si atom -5578.944250 kJ/mol
# Density = 1.750360 g / cm^3
# Si number density = 17.543527 Si / 1000 Ang^3
#
#
#
# Elastic Constant Matrix: (Units=GPa)
#
#
# Indices 1 2 3 4 5 6 
#
# 1 127.0085 33.2548 97.8454 0.0000 9.3793 0.0000
# 2 33.2548 19.9000 35.9165 0.0000 1.6944 0.0000
# 3 97.8454 35.9165 153.0603 0.0000 3.7458 0.0000
# 4 0.0000 0.0000 0.0000 14.5969 0.0000 14.3697
# 5 9.3793 1.6944 3.7458 0.0000 36.8061 0.0000
# 6 0.0000 0.0000 0.0000 14.3697 0.0000 4.2508
#
#
#
# Elastic Compliance Matrix: (Units=1/GPa)
#
#
# Indices 1 2 3 4 5 6 
#
# 1 0.018466 -0.016347 -0.007891 0.000000 -0.003150 0.000000
# 2 -0.016347 0.101778 -0.013454 0.000000 0.000849 0.000000
# 3 -0.007891 -0.013454 0.014707 0.000000 0.001134 0.000000
# 4 0.000000 0.000000 0.000000 -0.029430 0.000000 0.099486
# 5 -0.003150 0.000849 0.001134 0.000000 0.027818 0.000000
# 6 0.000000 0.000000 0.000000 0.099486 0.000000 -0.101059
#
#
# Mechanical properties :
#
#
# Convention : Reuss Voigt Hill
#
# Bulk Modulus (GPa) = 16.78778 70.44470 43.61624
# Shear Modulus (GPa) = 39.20971 19.99423 29.60197
#
# Velocity S-wave (km/s) = 4.73270 3.37960 4.11219
# Velocity P-wave (km/s) = 6.28129 7.44784 6.88930
#
# Compressibility (1/GPa) = 0.05956712
#
# Stress axis : x y z
#
# Youngs Moduli (GPa) = 54.15466 9.82529 67.99370
#
# Poissons Ratio (x) = 0.16061 0.53656
# Poissons Ratio (y) = 0.88526 0.91476
# Poissons Ratio (z) = 0.42735 0.13219
#
# Static dielectric constant tensor:
#      x y z
#    x 1.585950 0.000000 0.003460 
#    y 0.000000 1.592260 0.000000 
#    z 0.003460 0.000000 1.586990 
# 
# From -- ./inp_files/33954.got.cif
#   From: 2010.05.17/outbox.cif.g08.bks.cpg/sg10_17_cif.got.tgz:33954.got - 2010.06.03 11:33:40.
