data_PCOD9145126
_publ_section_title
;
Structure prediction by ZEFSAII (Michael W. Deem and Ramdas Pophale) SiO2 
 PCOD9145126
Probable space group: P 2/M
;
_chemical_formula_sum "Si O2"
_cell_formula_units_Z 32
_cell_length_a 10.292823
_cell_length_b 14.081720
_cell_length_c 25.023371
_cell_angle_alpha 90.000000
_cell_angle_beta 35.048635
_cell_angle_gamma 90.000000
_cell_volume 2082.827641
_symmetry_space_group_name_H-M "P 2/M"
_symmetry_group_IT_number 10
_symmetry_cell_setting 'monoclinic'
loop_
_space_group_symop_operation_xyz
x,y,z
-x,y,-z
-x,-y,-z
x,-y,z
loop_
_atom_site_type_symbol
_atom_site_label
_atom_site_fract_x
_atom_site_fract_y
_atom_site_fract_z
Si Si1 0.812411 0.108774 0.484287
Si Si2 0.731917 0.299766 0.453343
Si Si3 0.516326 0.699318 0.249776
Si Si4 0.206325 0.615321 0.258332
Si Si5 0.665999 0.108481 0.653592
Si Si6 0.988331 0.609222 0.067804
Si Si7 0.475453 0.384766 0.947244
Si Si8 0.246859 0.613386 0.436869
O O1 0.758895 0.188612 0.459053
O O2 0.681608 0.126405 0.584427
O O3 0.077211 0.115397 0.410931
O O4 0.767170 0.000000 0.482911
O O5 0.500000 0.316134 0.500000
O O6 0.719479 0.351956 0.514619
O O7 0.956871 0.340053 0.348710
O O8 0.364588 0.654882 0.253032
O O9 0.476165 0.811391 0.269024
O O10 0.775062 0.671406 0.155415
O O11 0.425175 0.654046 0.335269
O O12 0.194563 0.500000 0.266698
O O13 0.329536 0.641218 0.160935
O O14 0.589747 0.000000 0.687223
O O15 0.951899 0.500000 0.098590
O O16 0.000000 0.606901 0.000000
O O17 0.229149 0.643490 0.008479
O O18 0.477283 0.500000 0.947207
O O19 0.500000 0.351794 0.000000
O O20 0.250245 0.500000 0.433854
O O21 0.000000 0.647065 0.500000
#
# Coordination Sequence:
#
# PCOD9145126 Si02
#       8
#     4   4   4   4   4   4   4   4
#     4   9  17  34  54  74 101 138 181 223 263 304
#     4  12  24  35  49  78 115 145 178 217 261 316
#     4  12  19  31  56  81 105 132 178 221 263 315
#     4  11  21  34  53  75 106 149 178 211 263 310
#     4   9  17  31  56  80 100 132 177 223 266 310
#     4  10  19  31  50  79 104 129 173 223 260 296
#     4   9  19  36  54  72 100 137 179 221 260 303
#     4  11  21  33  50  72 104 148 182 204 243 316
#
# _framework density 15.363728999999999
#
# number of rings (size 3 to 8) (size 9 to 14) (size 15 to 20)
#    0.000    1.625    5.000    2.250    0.000    2.250 
#    0.000    1.250    0.000    0.375    0.000    0.000 
#    0.000    2.500    0.000    0.000    0.000    0.000 
#
# Total GULP energy -178500.910427 kJ/mol
# GULP energy per Si atom -5578.153451 kJ/mol
# Density = 1.532876 g / cm^3
# Si number density = 15.363729 Si / 1000 Ang^3
#
#
#
# Elastic Constant Matrix: (Units=GPa)
#
#
# Indices 1 2 3 4 5 6 
#
# 1 112.2366 32.4822 61.4936 0.0000 -3.5362 0.0000
# 2 32.4822 87.6487 49.9275 0.0000 -0.5546 0.0000
# 3 61.4936 49.9275 128.0581 0.0000 -2.0084 0.0000
# 4 0.0000 0.0000 0.0000 14.5143 0.0000 -3.7514
# 5 -3.5362 -0.5546 -2.0084 0.0000 19.0715 0.0000
# 6 0.0000 0.0000 0.0000 -3.7514 0.0000 16.9794
#
#
#
# Elastic Compliance Matrix: (Units=1/GPa)
#
#
# Indices 1 2 3 4 5 6 
#
# 1 0.012302 -0.001540 -0.005280 0.000000 0.001680 0.000000
# 2 -0.001540 0.014860 -0.005060 0.000000 -0.000386 0.000000
# 3 -0.005280 -0.005060 0.012320 0.000000 0.000171 0.000000
# 4 0.000000 0.000000 0.000000 0.073070 0.000000 0.016144
# 5 0.001680 -0.000386 0.000171 0.000000 0.052753 0.000000
# 6 0.000000 0.000000 0.000000 0.016144 0.000000 0.062462
#
#
# Mechanical properties :
#
#
# Convention : Reuss Voigt Hill
#
# Bulk Modulus (GPa) = 63.61265 68.41667 66.01466
# Shear Modulus (GPa) = 19.47291 22.38239 20.92765
#
# Velocity S-wave (km/s) = 3.56400 3.82099 3.69473
# Velocity P-wave (km/s) = 7.64398 8.00591 7.82704
#
# Compressibility (1/GPa) = 0.01572014
#
# Stress axis : x y z
#
# Youngs Moduli (GPa) = 81.29082 67.29505 81.16885
#
# Poissons Ratio (x) = 0.10367 0.42859
# Poissons Ratio (y) = 0.12522 0.41071
# Poissons Ratio (z) = 0.42924 0.34051
#
# Static dielectric constant tensor:
#      x y z
#    x 1.500390 0.000000 0.039920 
#    y 0.000000 1.522230 0.000000 
#    z 0.039920 0.000000 1.089510 
# 
# From -- ./inp_files/61532.got.cif
#   From: 2010.05.17/outbox.cif.g08.bks.cpg/sg10_31_cif.got.tgz:61532.got - 2010.06.03 11:33:40.
