data_PCOD9145096
_publ_section_title
;
Structure prediction by ZEFSAII (Michael W. Deem and Ramdas Pophale) SiO2 
 PCOD9145096
Probable space group: P 2/M
;
_chemical_formula_sum "Si O2"
_cell_formula_units_Z 28
_cell_length_a 9.236217
_cell_length_b 9.004038
_cell_length_c 29.606971
_cell_angle_alpha 90.000000
_cell_angle_beta 39.101019
_cell_angle_gamma 90.000000
_cell_volume 1552.891459
_symmetry_space_group_name_H-M "P 2/M"
_symmetry_group_IT_number 10
_symmetry_cell_setting 'monoclinic'
loop_
_space_group_symop_operation_xyz
x,y,z
-x,y,-z
-x,-y,-z
x,-y,z
loop_
_atom_site_type_symbol
_atom_site_label
_atom_site_fract_x
_atom_site_fract_y
_atom_site_fract_z
Si Si1 0.540984 0.320324 0.348319
Si Si2 0.777089 0.822597 0.651135
Si Si3 0.838268 0.670807 0.494303
Si Si4 0.082220 0.178966 0.929946
Si Si5 0.386209 0.178887 0.209523
Si Si6 0.071195 0.321121 0.209581
Si Si7 0.766314 0.321041 0.929972
O O1 0.521282 0.500000 0.349491
O O2 0.406321 0.249168 0.338890
O O3 0.406179 0.277640 0.426903
O O4 0.807100 0.279250 0.282955
O O5 0.715109 0.778938 0.717118
O O6 0.027287 0.766703 0.574807
O O7 0.764628 0.000000 0.650300
O O8 0.821787 0.500000 0.482903
O O9 0.000000 0.672083 0.500000
O O10 0.346928 0.222875 0.858518
O O11 0.920691 0.249957 0.931385
O O12 0.068214 0.000000 0.929867
O O13 0.000000 0.221606 0.000000
O O14 0.239694 0.249948 0.205104
O O15 0.375854 0.000000 0.208280
O O16 0.087250 0.500000 0.208589
O O17 0.142765 0.277468 0.141537
O O18 0.780581 0.500000 0.929965
O O19 0.500000 0.278320 0.000000
#
# Coordination Sequence:
#
# PCOD9145096 Si02
#       7
#     4   4   4   4   4   4   4
#     4   9  18  33  52  75 101 130 170 215 254 300
#     4  10  19  31  50  76 103 132 168 209 256 309
#     4   8  15  29  49  72  99 130 166 211 256 298
#     4  10  21  37  57  80 105 137 176 210 245 299
#     4  10  22  37  51  74 107 137 170 213 255 298
#     4  10  21  36  54  76 102 136 176 211 250 305
#     4  10  21  36  55  82 111 135 166 211 258 302
#
# _framework density 18.03088
#
# number of rings (size 3 to 8) (size 9 to 14) (size 15 to 20)
#    0.000    2.429    0.000    3.000    0.000    6.000 
#    0.000    0.714    0.000    4.286    0.000    0.000 
#    0.000    0.000    0.000    0.000    0.000    0.000 
#
# Total GULP energy -156253.184007 kJ/mol
# GULP energy per Si atom -5580.470857 kJ/mol
# Density = 1.798984 g / cm^3
# Si number density = 18.030880 Si / 1000 Ang^3
#
#
#
# Elastic Constant Matrix: (Units=GPa)
#
#
# Indices 1 2 3 4 5 6 
#
# 1 148.0601 42.0557 109.4770 0.0000 -1.8959 0.0000
# 2 42.0557 19.7986 47.7964 0.0000 2.5897 0.0000
# 3 109.4770 47.7964 208.2745 0.0000 -5.4254 0.0000
# 4 0.0000 0.0000 0.0000 22.9326 0.0000 1.3147
# 5 -1.8959 2.5897 -5.4254 0.0000 29.8444 0.0000
# 6 0.0000 0.0000 0.0000 1.3147 0.0000 33.1624
#
#
#
# Elastic Compliance Matrix: (Units=1/GPa)
#
#
# Indices 1 2 3 4 5 6 
#
# 1 0.017672 -0.035639 -0.001005 0.000000 0.004032 0.000000
# 2 -0.035639 0.191850 -0.025909 0.000000 -0.023622 0.000000
# 3 -0.001005 -0.025909 0.011387 0.000000 0.004254 0.000000
# 4 0.000000 0.000000 0.000000 0.043705 0.000000 -0.001733
# 5 0.004032 -0.023622 0.004254 0.000000 0.036586 0.000000
# 6 0.000000 0.000000 0.000000 -0.001733 0.000000 0.030223
#
#
# Mechanical properties :
#
#
# Convention : Reuss Voigt Hill
#
# Bulk Modulus (GPa) = 10.43824 86.08795 48.26310
# Shear Modulus (GPa) = 10.23614 28.97484 19.60549
#
# Velocity S-wave (km/s) = 2.38523 4.01304 3.30104
# Velocity P-wave (km/s) = 3.65888 8.32592 6.43072
#
# Compressibility (1/GPa) = 0.09580155
#
# Stress axis : x y z
#
# Youngs Moduli (GPa) = 56.58632 5.21239 87.82291
#
# Poissons Ratio (x) = 0.18576 0.08830
# Poissons Ratio (y) = 2.01668 2.27544
# Poissons Ratio (z) = 0.05689 0.13505
#
# Static dielectric constant tensor:
#      x y z
#    x 1.570800 0.000000 -0.010280 
#    y 0.000000 1.606710 0.000000 
#    z -0.010280 0.000000 1.638190 
# 
# From -- ./inp_files/91971.got.cif
#   From: 2010.05.17/outbox.cif.g08.bks.cpg/sg10_46_cif.got.tgz:91971.got - 2010.06.03 11:33:40.
