data_PCOD9145140
_publ_section_title
;
Structure prediction by ZEFSAII (Michael W. Deem and Ramdas Pophale) SiO2 
 PCOD9145140
Probable space group: P 2/M
;
_chemical_formula_sum "Si O2"
_cell_formula_units_Z 26
_cell_length_a 30.881351
_cell_length_b 7.434361
_cell_length_c 30.881355
_cell_angle_alpha 90.000000
_cell_angle_beta 170.007362
_cell_angle_gamma 90.000000
_cell_volume 1230.240222
_symmetry_space_group_name_H-M "P 2/M"
_symmetry_group_IT_number 10
_symmetry_cell_setting 'monoclinic'
loop_
_space_group_symop_operation_xyz
x,y,z
-x,y,-z
-x,-y,-z
x,-y,z
loop_
_atom_site_type_symbol
_atom_site_label
_atom_site_fract_x
_atom_site_fract_y
_atom_site_fract_z
Si Si1 0.049373 0.716930 0.450628
Si Si2 0.671806 0.283949 0.828158
Si Si3 0.899577 0.787358 0.600435
Si Si4 0.235725 0.000000 0.264272
Si Si5 0.378894 0.789812 0.121118
Si Si6 0.474866 0.280232 0.025133
Si Si7 0.197656 0.282404 0.302309
O O1 0.048174 0.500000 0.451828
O O2 0.074600 0.766556 0.425390
O O3 0.287925 0.779231 0.713098
O O4 0.786905 0.779231 0.212078
O O5 0.671187 0.500000 0.828781
O O6 0.647029 0.221193 0.852945
O O7 0.432916 0.230678 0.564205
O O8 0.935756 0.230677 0.067044
O O9 0.639409 0.710110 0.361435
O O10 0.894431 0.000000 0.605579
O O11 0.138574 0.710110 0.860601
O O12 0.500000 0.000000 0.500000
O O13 0.220098 0.825590 0.279885
O O14 0.000000 0.000000 0.000000
O O15 0.385161 0.000000 0.114848
O O16 0.474639 0.500000 0.025361
O O17 0.500000 0.224974 0.000000
O O18 0.200610 0.500000 0.299353
#
# Coordination Sequence:
#
# PCOD9145140 Si02
#       7
#     4   4   4   2   4   4   4
#     4  10  19  31  51  73  95 131 170 209 264 322
#     4  10  21  38  60  88 119 153 191 239 297 337
#     4  10  21  36  49  73 108 142 178 216 270 326
#     4  12  26  42  66  96 122 164 210 244 298 356
#     4  10  21  34  54  79 106 144 186 225 266 326
#     4   9  17  30  49  74  98 121 162 218 268 318
#     4  10  23  41  62  91 125 158 198 248 299 350
#
# _framework density 21.134081999999999
#
# number of rings (size 3 to 8) (size 9 to 14) (size 15 to 20)
#    0.000    2.000    0.000    3.231    2.154    3.692 
#    0.000    0.000    0.000    2.769    0.000    0.000 
#    0.000    0.000    0.000    0.000    0.000    0.000 
#
# Total GULP energy -145357.994929 kJ/mol
# GULP energy per Si atom -5590.692113 kJ/mol
# Density = 2.108598 g / cm^3
# Si number density = 21.134082 Si / 1000 Ang^3
#
#
#
# Elastic Constant Matrix: (Units=GPa)
#
#
# Indices 1 2 3 4 5 6 
#
# 1 156.1646 4.6874 127.5711 0.0000 6.8359 0.0000
# 2 4.6874 66.3273 27.1619 0.0000 1.9816 0.0000
# 3 127.5711 27.1619 270.0144 0.0000 3.2018 0.0000
# 4 0.0000 0.0000 0.0000 -10.9948 0.0000 -3.8840
# 5 6.8359 1.9816 3.2018 0.0000 52.7414 0.0000
# 6 0.0000 0.0000 0.0000 -3.8840 0.0000 33.0619
#
#
#
# Elastic Compliance Matrix: (Units=1/GPa)
#
#
# Indices 1 2 3 4 5 6 
#
# 1 0.010608 0.001388 -0.005138 0.000000 -0.001115 0.000000
# 2 0.001388 0.015919 -0.002249 0.000000 -0.000641 0.000000
# 3 -0.005138 -0.002249 0.006353 0.000000 0.000365 0.000000
# 4 0.000000 0.000000 0.000000 -0.087328 0.000000 -0.010259
# 5 -0.001115 -0.000641 0.000365 0.000000 0.019107 0.000000
# 6 0.000000 0.000000 0.000000 -0.010259 0.000000 0.029041
#
#
# Mechanical properties :
#
#
# Convention : Reuss Voigt Hill
#
# Bulk Modulus (GPa) = 47.89176 90.14969 69.02072
# Shear Modulus (GPa) = 394.94597 37.16743 216.05670
#
# Velocity S-wave (km/s) = 13.68510 4.19817 10.12192
# Velocity P-wave (km/s) = 16.50513 8.13930 13.01283
#
# Compressibility (1/GPa) = 0.02088042
#
# Stress axis : x y z
#
# Youngs Moduli (GPa) = 94.26711 62.81792 157.40312
#
# Poissons Ratio (x) = -0.08718 0.80879
# Poissons Ratio (y) = -0.13083 0.35407
# Poissons Ratio (z) = 0.48437 0.14131
#
# Static dielectric constant tensor:
#      x y z
#    x 1.680560 0.000000 -0.001960 
#    y 0.000000 1.798130 0.000000 
#    z -0.001960 0.000000 1.658240 
# 
# From -- ./inp_files/95961.got.cif
#   From: 2010.05.17/outbox.cif.g08.bks.cpg/sg10_48_cif.got.tgz:95961.got - 2010.06.03 11:33:40.
