data_PCOD9145841
_publ_section_title
;
Structure prediction by ZEFSAII (Michael W. Deem and Ramdas Pophale) SiO2 
 PCOD9145841
Probable space group: P 2/M
;
_chemical_formula_sum "Si O2"
_cell_formula_units_Z 32
_cell_length_a 26.528304
_cell_length_b 7.559509
_cell_length_c 20.321521
_cell_angle_alpha 90.000000
_cell_angle_beta 20.490375
_cell_angle_gamma 90.000000
_cell_volume 1426.557888
_symmetry_space_group_name_H-M "P 2/M"
_symmetry_group_IT_number 10
_symmetry_cell_setting 'monoclinic'
loop_
_space_group_symop_operation_xyz
x,y,z
-x,y,-z
-x,-y,-z
x,-y,z
loop_
_atom_site_type_symbol
_atom_site_label
_atom_site_fract_x
_atom_site_fract_y
_atom_site_fract_z
Si Si1 0.136408 0.283854 0.436344
Si Si2 0.376971 0.704156 0.242488
Si Si3 0.853030 0.794481 0.210260
Si Si4 0.854284 0.794353 0.975906
Si Si5 0.821752 0.714066 0.868787
Si Si6 0.350647 0.298500 0.657127
Si Si7 0.179882 0.214549 0.602520
Si Si8 0.313755 0.716309 0.097711
O O1 0.132643 0.500000 0.443224
O O2 0.263051 0.220068 0.330011
O O3 0.981205 0.225427 0.651512
O O4 0.182826 0.234786 0.305963
O O5 0.396970 0.500000 0.197640
O O6 0.299497 0.710937 0.407799
O O7 0.535997 0.780916 0.055761
O O8 0.728825 0.784938 0.307960
O O9 0.809412 0.723894 0.335001
O O10 0.886965 0.000000 0.182199
O O11 0.000000 0.715073 0.000000
O O12 0.759676 0.702922 0.147093
O O13 0.857116 0.000000 0.991504
O O14 0.792452 0.775204 0.978430
O O15 0.020098 0.732607 0.773332
O O16 0.821743 0.500000 0.870249
O O17 0.714047 0.772622 0.942995
O O18 0.500000 0.216626 0.500000
O O19 0.382645 0.500000 0.598156
O O20 0.191298 0.000000 0.584664
O O21 0.318878 0.500000 0.090629
#
# Coordination Sequence:
#
# PCOD9145841 Si02
#       8
#     4   4   4   4   4   4   4   4
#     4   9  16  29  52  80 108 144 187 227 276 335
#     4  10  19  32  53  81 109 142 186 231 276 330
#     4  10  20  39  63  87 114 149 193 233 277 336
#     4  11  22  39  61  82 111 151 189 229 278 336
#     4  10  19  33  55  83 111 143 186 233 279 330
#     4  11  25  42  61  90 123 150 183 232 286 338
#     4  10  21  37  58  82 111 145 184 232 278 329
#     4   9  18  31  50  79 115 145 177 232 287 328
#
# _framework density 22.431616000000002
#
# number of rings (size 3 to 8) (size 9 to 14) (size 15 to 20)
#    0.000    2.000    2.500    1.500    0.000    6.250 
#    0.000    4.375    0.000    4.500    0.000    0.000 
#    0.000    0.000    0.000    0.000    0.000    0.000 
#
# Total GULP energy -178815.959250 kJ/mol
# GULP energy per Si atom -5587.998727 kJ/mol
# Density = 2.238056 g / cm^3
# Si number density = 22.431616 Si / 1000 Ang^3
#
#
#
# Elastic Constant Matrix: (Units=GPa)
#
#
# Indices 1 2 3 4 5 6 
#
# 1 86.9696 -6.9057 -14.3863 0.0000 6.2676 0.0000
# 2 -6.9057 53.5707 -4.4835 0.0000 -3.6607 0.0000
# 3 -14.3863 -4.4835 38.5329 0.0000 -2.2077 0.0000
# 4 0.0000 0.0000 0.0000 15.6882 0.0000 14.7863
# 5 6.2676 -3.6607 -2.2077 0.0000 40.5444 0.0000
# 6 0.0000 0.0000 0.0000 14.7863 0.0000 35.2121
#
#
#
# Elastic Compliance Matrix: (Units=1/GPa)
#
#
# Indices 1 2 3 4 5 6 
#
# 1 0.012557 0.001920 0.004825 0.000000 -0.001505 0.000000
# 2 0.001920 0.019280 0.003052 0.000000 0.001610 0.000000
# 3 0.004825 0.003052 0.028170 0.000000 0.001063 0.000000
# 4 0.000000 0.000000 0.000000 0.105495 0.000000 -0.044300
# 5 -0.001505 0.001610 0.001063 0.000000 0.025100 0.000000
# 6 0.000000 0.000000 0.000000 -0.044300 0.000000 0.047002
#
#
# Mechanical properties :
#
#
# Convention : Reuss Voigt Hill
#
# Bulk Modulus (GPa) = 12.56252 14.16912 13.36582
# Shear Modulus (GPa) = 20.44631 31.94554 26.19593
#
# Velocity S-wave (km/s) = 3.02237 3.77786 3.42103
# Velocity P-wave (km/s) = 4.21808 5.03586 4.64500
#
# Compressibility (1/GPa) = 0.07960189
#
# Stress axis : x y z
#
# Youngs Moduli (GPa) = 79.63437 51.86757 35.49934
#
# Poissons Ratio (x) = -0.09957 -0.17130
# Poissons Ratio (y) = -0.15288 -0.10836
# Poissons Ratio (z) = -0.38427 -0.15832
#
# Static dielectric constant tensor:
#      x y z
#    x 1.809330 0.000000 -0.019120 
#    y 0.000000 1.860870 0.000000 
#    z -0.019120 0.000000 1.796400 
# 
# From -- ./inp_files/86791.got.cif
#   From: 2010.05.17/outbox.cif.g08.bks.cpg/sg10_44_cif.got.tgz:86791.got - 2010.06.03 11:33:40.
