data_PCOD9145550
_publ_section_title
;
Structure prediction by ZEFSAII (Michael W. Deem and Ramdas Pophale) SiO2 
 PCOD9145550
Probable space group: P 2/M
;
_chemical_formula_sum "Si O2"
_cell_formula_units_Z 32
_cell_length_a 14.519391
_cell_length_b 18.634076
_cell_length_c 14.579879
_cell_angle_alpha 90.000000
_cell_angle_beta 149.058383
_cell_angle_gamma 90.000000
_cell_volume 2028.206477
_symmetry_space_group_name_H-M "P 2/M"
_symmetry_group_IT_number 10
_symmetry_cell_setting 'monoclinic'
loop_
_space_group_symop_operation_xyz
x,y,z
-x,y,-z
-x,-y,-z
x,-y,z
loop_
_atom_site_type_symbol
_atom_site_label
_atom_site_fract_x
_atom_site_fract_y
_atom_site_fract_z
Si Si1 0.513149 0.416986 0.903353
Si Si2 0.243362 0.186992 0.360653
Si Si3 0.451555 0.416018 0.558271
Si Si4 0.097009 0.667000 0.311589
Si Si5 0.652414 0.195454 0.761889
Si Si6 0.898562 0.581324 0.509497
Si Si7 0.942453 0.081015 0.057536
Si Si8 0.284980 0.345487 0.083161
O O1 0.578745 0.500000 0.951251
O O2 0.313209 0.414944 0.691313
O O3 0.633813 0.363253 0.947444
O O4 0.500000 0.400438 0.000000
O O5 0.150382 0.251290 0.336934
O O6 0.444203 0.175315 0.569533
O O7 0.267293 0.207423 0.272645
O O8 0.110342 0.119327 0.249943
O O9 0.500000 0.386186 0.500000
O O10 0.416860 0.500000 0.522180
O O11 0.274219 0.377642 0.440699
O O12 0.615866 0.401105 0.765817
O O13 0.049880 0.642251 0.374200
O O14 0.927856 0.647911 0.104241
O O15 0.667443 0.267568 0.834741
O O16 0.770497 0.133246 0.909866
O O17 0.937949 0.500000 0.578289
O O18 0.000000 0.589123 0.500000
O O19 0.907660 0.000000 0.060268
O O20 0.000000 0.076618 0.000000
#
# Coordination Sequence:
#
# PCOD9145550 Si02
#       8
#     4   4   4   4   4   4   4   4
#     4  10  20  35  53  74 101 133 171 218 271 320
#     4  10  19  32  51  74 102 138 173 208 255 307
#     4  11  24  38  50  69  99 135 179 226 263 302
#     4  12  22  34  54  75 100 137 176 220 263 315
#     4  10  19  32  51  74 102 138 173 208 255 307
#     4  10  20  35  53  74 101 133 171 218 271 320
#     4   9  18  32  50  75 105 133 165 206 252 309
#     4  12  22  34  54  75 100 137 176 220 263 315
#
# _framework density 15.777486
#
# number of rings (size 3 to 8) (size 9 to 14) (size 15 to 20)
#    0.000    1.500    3.750    2.250    0.000    5.000 
#    0.000    3.750    0.000    0.000    0.000    0.000 
#    0.000    1.000    0.500    0.000    0.000    0.000 
#
# Total GULP energy -178528.719308 kJ/mol
# GULP energy per Si atom -5579.022478 kJ/mol
# Density = 1.574158 g / cm^3
# Si number density = 15.777486 Si / 1000 Ang^3
#
#
#
# Elastic Constant Matrix: (Units=GPa)
#
#
# Indices 1 2 3 4 5 6 
#
# 1 52.9487 25.8898 11.2468 0.0000 -6.5889 0.0000
# 2 25.8898 73.7243 9.4830 0.0000 -7.0472 0.0000
# 3 11.2468 9.4830 76.4738 0.0000 -2.0432 0.0000
# 4 0.0000 0.0000 0.0000 -11.9905 0.0000 19.8588
# 5 -6.5889 -7.0472 -2.0432 0.0000 20.5784 0.0000
# 6 0.0000 0.0000 0.0000 19.8588 0.0000 10.9757
#
#
#
# Elastic Compliance Matrix: (Units=1/GPa)
#
#
# Indices 1 2 3 4 5 6 
#
# 1 0.023684 -0.007551 -0.002420 0.000000 0.004757 0.000000
# 2 -0.007551 0.016632 -0.000867 0.000000 0.003192 0.000000
# 3 -0.002420 -0.000867 0.013547 0.000000 0.000274 0.000000
# 4 0.000000 0.000000 0.000000 -0.020867 0.000000 0.037756
# 5 0.004757 0.003192 0.000274 0.000000 0.051238 0.000000
# 6 0.000000 0.000000 0.000000 0.037756 0.000000 0.022797
#
#
# Mechanical properties :
#
#
# Convention : Reuss Voigt Hill
#
# Bulk Modulus (GPa) = 31.06695 32.93178 31.99936
# Shear Modulus (GPa) = 35.85872 14.34787 25.10330
#
# Velocity S-wave (km/s) = 4.77254 3.01888 3.99317
# Velocity P-wave (km/s) = 7.07834 5.75061 6.44874
#
# Compressibility (1/GPa) = 0.03218855
#
# Stress axis : x y z
#
# Youngs Moduli (GPa) = 42.22184 60.12352 73.81699
#
# Poissons Ratio (x) = 0.45401 0.17862
# Poissons Ratio (y) = 0.31883 0.06397
# Poissons Ratio (z) = 0.10217 0.05211
#
# Static dielectric constant tensor:
#      x y z
#    x 1.539620 0.000000 -0.001740 
#    y 0.000000 1.516450 0.000000 
#    z -0.001740 0.000000 1.542990 
# 
# From -- ./inp_files/67730.got.cif
#   From: 2010.05.17/outbox.cif.g08.bks.cpg/sg10_34_cif.got.tgz:67730.got - 2010.06.03 11:33:40.
