data_PCOD9145243
_publ_section_title
;
Structure prediction by ZEFSAII (Michael W. Deem and Ramdas Pophale) SiO2 
 PCOD9145243
Probable space group: P 2/M
;
_chemical_formula_sum "Si O2"
_cell_formula_units_Z 32
_cell_length_a 16.498751
_cell_length_b 13.774353
_cell_length_c 7.613756
_cell_angle_alpha 90.000000
_cell_angle_beta 76.916847
_cell_angle_gamma 90.000000
_cell_volume 1685.385173
_symmetry_space_group_name_H-M "P 2/M"
_symmetry_group_IT_number 10
_symmetry_cell_setting 'monoclinic'
loop_
_space_group_symop_operation_xyz
x,y,z
-x,y,-z
-x,-y,-z
x,-y,z
loop_
_atom_site_type_symbol
_atom_site_label
_atom_site_fract_x
_atom_site_fract_y
_atom_site_fract_z
Si Si1 0.499393 0.111334 0.712534
Si Si2 0.923867 0.237861 0.947551
Si Si3 0.212237 0.613979 0.819592
Si Si4 0.331912 0.218733 0.800702
Si Si5 0.762106 0.608775 0.608845
Si Si6 0.216139 0.886720 0.141157
Si Si7 0.059440 0.604992 0.305295
Si Si8 0.321431 0.194595 0.387147
O O1 0.500000 0.105798 0.500000
O O2 0.426770 0.187704 0.793020
O O3 0.590046 0.151925 0.716132
O O4 0.485314 0.000000 0.783336
O O5 0.869327 0.167069 0.857398
O O6 0.973188 0.312922 0.802652
O O7 0.859398 0.311206 0.079508
O O8 0.000000 0.182537 0.000000
O O9 0.207651 0.500000 0.879652
O O10 0.298090 0.670290 0.830915
O O11 0.210229 0.611517 0.608747
O O12 0.316045 0.190320 0.602500
O O13 0.278595 0.156898 0.964488
O O14 0.731033 0.500000 0.661769
O O15 0.845238 0.624530 0.683284
O O16 0.695422 0.694033 0.661805
O O17 0.250966 0.863628 0.317410
O O18 0.209031 0.000000 0.119657
O O19 0.056761 0.500000 0.218960
O O20 0.000000 0.601447 0.500000
#
# Coordination Sequence:
#
# PCOD9145243 Si02
#       8
#     4   4   4   4   4   4   4   4
#     4   9  17  31  54  82 110 142 186 232 274 315
#     4  11  22  36  53  77 108 141 176 231 278 320
#     4   9  18  33  55  81 108 143 181 216 267 330
#     4   9  20  36  56  83 115 145 174 230 277 320
#     4   9  17  32  52  77 108 141 177 220 268 326
#     4  11  23  38  58  81 104 144 192 227 274 331
#     4  10  19  31  52  79 105 134 171 218 270 323
#     4  10  19  36  57  80 112 148 182 226 275 325
#
# _framework density 18.986757999999998
#
# number of rings (size 3 to 8) (size 9 to 14) (size 15 to 20)
#    0.000    2.250    1.250    1.875    0.000    4.250 
#    0.000    1.875    0.000    4.125    0.000    2.625 
#    0.000    0.000    0.000    0.000    0.000    0.000 
#
# Total GULP energy -178258.812800 kJ/mol
# GULP energy per Si atom -5570.587900 kJ/mol
# Density = 1.894354 g / cm^3
# Si number density = 18.986758 Si / 1000 Ang^3
#
#
#
# Elastic Constant Matrix: (Units=GPa)
#
#
# Indices 1 2 3 4 5 6 
#
# 1 90.4519 25.2654 5.4368 0.0000 8.9929 0.0000
# 2 25.2654 86.3465 4.8552 0.0000 5.3197 0.0000
# 3 5.4368 4.8552 25.0276 0.0000 0.8779 0.0000
# 4 0.0000 0.0000 0.0000 1.4595 0.0000 -16.7013
# 5 8.9929 5.3197 0.8779 0.0000 19.1266 0.0000
# 6 0.0000 0.0000 0.0000 -16.7013 0.0000 -13.6306
#
#
#
# Elastic Compliance Matrix: (Units=1/GPa)
#
#
# Indices 1 2 3 4 5 6 
#
# 1 0.012573 -0.003268 -0.001925 0.000000 -0.004914 0.000000
# 2 -0.003268 0.012752 -0.001696 0.000000 -0.001932 0.000000
# 3 -0.001925 -0.001696 0.040720 0.000000 -0.000492 0.000000
# 4 0.000000 0.000000 0.000000 0.045613 0.000000 -0.055889
# 5 -0.004914 -0.001932 -0.000492 0.000000 0.055154 0.000000
# 6 0.000000 0.000000 0.000000 -0.055889 0.000000 -0.004884
#
#
# Mechanical properties :
#
#
# Convention : Reuss Voigt Hill
#
# Bulk Modulus (GPa) = 19.13244 30.32675 24.72960
# Shear Modulus (GPa) = 25.88956 12.47568 19.18262
#
# Velocity S-wave (km/s) = 3.69665 2.56612 3.18199
# Velocity P-wave (km/s) = 5.32155 4.97868 5.15296
#
# Compressibility (1/GPa) = 0.05226726
#
# Stress axis : x y z
#
# Youngs Moduli (GPa) = 79.53763 78.42001 24.55773
#
# Poissons Ratio (x) = 0.25626 0.04727
# Poissons Ratio (y) = 0.25992 0.04165
# Poissons Ratio (z) = 0.15310 0.13301
#
# Static dielectric constant tensor:
#      x y z
#    x 1.696700 0.000000 0.022630 
#    y 0.000000 1.652900 0.000000 
#    z 0.022630 0.000000 1.708970 
# 
# From -- ./inp_files/29057.got.cif
#   From: 2010.05.17/outbox.cif.g08.bks.cpg/sg10_15_cif.got.tgz:29057.got - 2010.06.03 11:33:40.
