data_PCOD9145738
_publ_section_title
;
Structure prediction by ZEFSAII (Michael W. Deem and Ramdas Pophale) SiO2 
 PCOD9145738
Probable space group: P 2/M
;
_chemical_formula_sum "Si O2"
_cell_formula_units_Z 32
_cell_length_a 12.207828
_cell_length_b 8.857841
_cell_length_c 29.042333
_cell_angle_alpha 90.000000
_cell_angle_beta 146.193236
_cell_angle_gamma 90.000000
_cell_volume 1747.350371
_symmetry_space_group_name_H-M "P 2/M"
_symmetry_group_IT_number 10
_symmetry_cell_setting 'monoclinic'
loop_
_space_group_symop_operation_xyz
x,y,z
-x,y,-z
-x,-y,-z
x,-y,z
loop_
_atom_site_type_symbol
_atom_site_label
_atom_site_fract_x
_atom_site_fract_y
_atom_site_fract_z
Si Si1 0.526156 0.819438 0.309213
Si Si2 0.830673 0.817122 0.879694
Si Si3 0.072723 0.821202 0.293343
Si Si4 0.263428 0.182423 0.047598
Si Si5 0.429477 0.680193 0.371225
Si Si6 0.675783 0.680350 0.185049
Si Si7 0.224648 0.678710 0.439994
Si Si8 0.808291 0.677987 0.335354
O O1 0.328798 0.767399 0.213077
O O2 0.526012 0.742278 0.358582
O O3 0.707193 0.771605 0.340161
O O4 0.520845 0.000000 0.312243
O O5 0.763170 0.774522 0.907721
O O6 0.831248 0.000000 0.879594
O O7 0.057415 0.770706 0.952122
O O8 0.217040 0.753472 0.305402
O O9 0.171956 0.772735 0.376542
O O10 0.854552 0.751204 0.218713
O O11 0.061772 0.000000 0.285660
O O12 0.461477 0.256521 0.098239
O O13 0.280173 0.000000 0.051297
O O14 0.413162 0.500000 0.363783
O O15 0.573683 0.717690 0.464316
O O16 0.683039 0.500000 0.183971
O O17 0.718820 0.719501 0.253966
O O18 0.227969 0.500000 0.428257
O O19 0.042199 0.698573 0.411404
O O20 0.770080 0.500000 0.329540
#
# Coordination Sequence:
#
# PCOD9145738 Si02
#       8
#     4   4   4   4   4   4   4   4
#     4  11  21  34  52  76 108 143 179 218 258 308
#     4   8  16  29  49  76 109 142 173 212 260 312
#     4  11  22  36  57  82 105 132 173 224 267 308
#     4   9  15  29  52  78 106 140 177 212 258 311
#     4  11  23  39  56  74 102 143 180 215 264 318
#     4  10  19  32  52  80 111 140 172 215 264 314
#     4   9  20  38  58  78 104 137 174 217 267 317
#     4   9  18  33  51  74 104 139 175 210 257 315
#
# _framework density 18.313442999999999
#
# number of rings (size 3 to 8) (size 9 to 14) (size 15 to 20)
#    0.000    2.250    1.250    4.125    0.000    5.000 
#    0.000    5.000    0.000    0.750    0.000    5.250 
#    0.000    0.000    0.000    0.000    0.000    0.000 
#
# Total GULP energy -178587.424109 kJ/mol
# GULP energy per Si atom -5580.857003 kJ/mol
# Density = 1.827176 g / cm^3
# Si number density = 18.313443 Si / 1000 Ang^3
#
#
#
# Elastic Constant Matrix: (Units=GPa)
#
#
# Indices 1 2 3 4 5 6 
#
# 1 48.2832 19.9538 2.2808 0.0000 21.6805 0.0000
# 2 19.9538 38.3907 11.6096 0.0000 10.9547 0.0000
# 3 2.2808 11.6096 43.8683 0.0000 25.7507 0.0000
# 4 0.0000 0.0000 0.0000 74.3968 0.0000 -24.1673
# 5 21.6805 10.9547 25.7507 0.0000 29.9423 0.0000
# 6 0.0000 0.0000 0.0000 -24.1673 0.0000 43.7095
#
#
#
# Elastic Compliance Matrix: (Units=1/GPa)
#
#
# Indices 1 2 3 4 5 6 
#
# 1 0.067631 -0.027063 0.053676 0.000000 -0.085231 0.000000
# 2 -0.027063 0.040102 -0.024428 0.000000 0.025933 0.000000
# 3 0.053676 -0.024428 0.088934 0.000000 -0.106412 0.000000
# 4 0.000000 0.000000 0.000000 0.016384 0.000000 0.009059
# 5 -0.085231 0.025933 -0.106412 0.000000 0.177139 0.000000
# 6 0.000000 0.000000 0.000000 0.009059 0.000000 0.027887
#
#
# Mechanical properties :
#
#
# Convention : Reuss Voigt Hill
#
# Bulk Modulus (GPa) = 4.97423 22.02560 13.49992
# Shear Modulus (GPa) = 10.40110 36.05626 23.22868
#
# Velocity S-wave (km/s) = 2.38575 4.44198 3.56532
# Velocity P-wave (km/s) = 3.21110 6.19365 4.93318
#
# Compressibility (1/GPa) = 0.20103614
#
# Stress axis : x y z
#
# Youngs Moduli (GPa) = 14.78616 24.93666 11.24433
#
# Poissons Ratio (x) = 0.67487 -0.60355
# Poissons Ratio (y) = 0.40016 0.27468
# Poissons Ratio (z) = -0.79367 0.60916
#
# Static dielectric constant tensor:
#      x y z
#    x 1.622730 0.000000 0.013470 
#    y 0.000000 1.609630 0.000000 
#    z 0.013470 0.000000 1.640770 
# 
# From -- ./inp_files/95083.got.cif
#   From: 2010.05.17/outbox.cif.g08.bks.cpg/sg10_48_cif.got.tgz:95083.got - 2010.06.03 11:33:40.
