data_PCOD9145169
_publ_section_title
;
Structure prediction by ZEFSAII (Michael W. Deem and Ramdas Pophale) SiO2 
 PCOD9145169
Probable space group: P 2/M
;
_chemical_formula_sum "Si O2"
_cell_formula_units_Z 32
_cell_length_a 21.548800
_cell_length_b 7.515105
_cell_length_c 27.162364
_cell_angle_alpha 90.000000
_cell_angle_beta 159.327750
_cell_angle_gamma 90.000000
_cell_volume 1552.841607
_symmetry_space_group_name_H-M "P 2/M"
_symmetry_group_IT_number 10
_symmetry_cell_setting 'monoclinic'
loop_
_space_group_symop_operation_xyz
x,y,z
-x,y,-z
-x,-y,-z
x,-y,z
loop_
_atom_site_type_symbol
_atom_site_label
_atom_site_fract_x
_atom_site_fract_y
_atom_site_fract_z
Si Si1 0.526262 0.782043 0.344637
Si Si2 0.189910 0.217507 0.159880
Si Si3 0.232184 0.288984 0.934667
Si Si4 0.170486 0.208011 0.357704
Si Si5 0.196349 0.210458 0.640667
Si Si6 0.481530 0.284783 0.930574
Si Si7 0.294857 0.216485 0.345533
Si Si8 0.482427 0.213651 0.774534
O O1 0.351999 0.728325 0.245380
O O2 0.697984 0.721661 0.502761
O O3 0.524565 0.721270 0.286698
O O4 0.526322 0.000000 0.343119
O O5 0.218499 0.278203 0.237046
O O6 0.192064 0.000000 0.161469
O O7 0.000000 0.274395 0.000000
O O8 0.221286 0.500000 0.921510
O O9 0.035255 0.220347 0.784447
O O10 0.359821 0.219770 0.986324
O O11 0.334435 0.250955 0.061488
O O12 0.206168 0.283276 0.329744
O O13 0.217755 0.000000 0.389426
O O14 0.302945 0.232992 0.770443
O O15 0.324409 0.282449 0.692497
O O16 0.000000 0.284960 0.500000
O O17 0.178691 0.000000 0.617573
O O18 0.487395 0.500000 0.935398
O O19 0.500000 0.221811 0.000000
O O20 0.500000 0.260067 0.500000
O O21 0.280453 0.000000 0.333982
O O22 0.466103 0.000000 0.760842
#
# Coordination Sequence:
#
# PCOD9145169 Si02
#       8
#     4   4   4   4   4   4   4   4
#     4   9  17  29  45  72 104 128 159 206 250 290
#     4   9  16  24  38  66 100 127 156 200 250 289
#     4  10  21  36  52  73 101 132 167 206 249 296
#     4  10  19  31  51  77 103 132 166 205 251 300
#     4   9  18  32  50  75 105 134 162 197 246 300
#     4   9  19  36  55  74  98 129 168 211 247 287
#     4   9  15  26  43  68 101 129 158 204 251 289
#     4   9  18  33  52  73 100 133 167 203 245 294
#
# _framework density 20.607382000000001
#
# number of rings (size 3 to 8) (size 9 to 14) (size 15 to 20)
#    0.000    2.750    1.250    0.375    1.750    2.000 
#    0.000    1.875    0.000    0.375    0.000    0.875 
#    0.000    0.000    0.000    0.000    0.000    0.000 
#
# Total GULP energy -178566.875627 kJ/mol
# GULP energy per Si atom -5580.214863 kJ/mol
# Density = 2.056048 g / cm^3
# Si number density = 20.607382 Si / 1000 Ang^3
#
#
#
# Elastic Constant Matrix: (Units=GPa)
#
#
# Indices 1 2 3 4 5 6 
#
# 1 139.6668 -5.1598 94.9061 0.0000 -27.9112 0.0000
# 2 -5.1598 49.4332 -13.9996 0.0000 -1.1349 0.0000
# 3 94.9061 -13.9996 177.6079 0.0000 -9.3954 0.0000
# 4 0.0000 0.0000 0.0000 43.7793 0.0000 -31.9832
# 5 -27.9112 -1.1349 -9.3954 0.0000 31.8494 0.0000
# 6 0.0000 0.0000 0.0000 -31.9832 0.0000 27.2076
#
#
#
# Elastic Compliance Matrix: (Units=1/GPa)
#
#
# Indices 1 2 3 4 5 6 
#
# 1 0.013846 -0.000273 -0.006886 0.000000 0.010093 0.000000
# 2 -0.000273 0.020745 0.001836 0.000000 0.001041 0.000000
# 3 -0.006886 0.001836 0.009284 0.000000 -0.003231 0.000000
# 4 0.000000 0.000000 0.000000 0.161754 0.000000 0.190146
# 5 0.010093 0.001041 -0.003231 0.000000 0.039327 0.000000
# 6 0.000000 0.000000 0.000000 0.190146 0.000000 0.260276
#
#
# Mechanical properties :
#
#
# Convention : Reuss Voigt Hill
#
# Bulk Modulus (GPa) = 30.09499 57.57791 43.83645
# Shear Modulus (GPa) = 9.48849 39.96466 24.72657
#
# Velocity S-wave (km/s) = 2.14812 4.40857 3.46770
# Velocity P-wave (km/s) = 4.55941 7.34269 6.11160
#
# Compressibility (1/GPa) = 0.03322812
#
# Stress axis : x y z
#
# Youngs Moduli (GPa) = 72.22153 48.20495 107.71149
#
# Poissons Ratio (x) = 0.01317 0.74175
# Poissons Ratio (y) = 0.01974 -0.19779
# Poissons Ratio (z) = 0.49735 -0.08852
#
# Static dielectric constant tensor:
#      x y z
#    x 1.748550 0.000000 0.003940 
#    y 0.000000 1.781980 0.000000 
#    z 0.003940 0.000000 1.698130 
# 
# From -- ./inp_files/93804.got.cif
#   From: 2010.05.17/outbox.cif.g08.bks.cpg/sg10_47_cif.got.tgz:93804.got - 2010.06.03 11:33:40.
