data_PCOD9145166
_publ_section_title
;
Structure prediction by ZEFSAII (Michael W. Deem and Ramdas Pophale) SiO2 
 PCOD9145166
Probable space group: P 2/M
;
_chemical_formula_sum "Si O2"
_cell_formula_units_Z 28
_cell_length_a 12.683117
_cell_length_b 11.384952
_cell_length_c 12.685522
_cell_angle_alpha 90.000000
_cell_angle_beta 89.966108
_cell_angle_gamma 90.000000
_cell_volume 1831.746918
_symmetry_space_group_name_H-M "P 2/M"
_symmetry_group_IT_number 10
_symmetry_cell_setting 'monoclinic'
loop_
_space_group_symop_operation_xyz
x,y,z
-x,y,-z
-x,-y,-z
x,-y,z
loop_
_atom_site_type_symbol
_atom_site_label
_atom_site_fract_x
_atom_site_fract_y
_atom_site_fract_z
Si Si1 0.273201 0.252595 0.389214
Si Si2 0.926549 0.500000 0.335831
Si Si3 0.719847 0.860062 0.379542
Si Si4 0.513864 0.865524 0.627039
Si Si5 0.164319 0.500000 0.426443
Si Si6 0.120844 0.139949 0.219515
Si Si7 0.889546 0.252569 0.227027
Si Si8 0.127047 0.134466 0.985815
O O1 0.266654 0.199277 0.506690
O O2 0.392415 0.225070 0.351238
O O3 0.232097 0.385358 0.397126
O O4 0.196571 0.183782 0.310763
O O5 0.865535 0.500000 0.448632
O O6 0.897355 0.385348 0.268072
O O7 0.051467 0.500000 0.365637
O O8 0.602958 0.832543 0.334301
O O9 0.811280 0.816304 0.303894
O O10 0.723416 0.000000 0.393369
O O11 0.500000 0.869293 0.500000
O O12 0.541060 0.000000 0.659803
O O13 0.007077 0.199328 0.233242
O O14 0.107024 0.000000 0.223189
O O15 0.165908 0.167406 0.102513
O O16 0.851349 0.225040 0.107953
O O17 0.159770 0.000000 0.958515
O O18 0.000000 0.130711 0.000000
#
# Coordination Sequence:
#
# PCOD9145166 Si02
#       8
#     4   2   4   4   2   4   4   4
#     4  11  19  33  50  70  99 137 169 196 249 300
#     4  11  22  36  45  67 109 144 161 206 249 283
#     4  10  19  31  51  77 101 127 163 208 257 302
#     4   8  16  31  49  72 100 126 158 210 257 289
#     4  11  22  36  45  67 109 144 161 206 249 283
#     4  10  19  31  51  77 101 127 163 208 257 302
#     4  11  19  33  50  70  99 137 169 196 249 300
#     4   8  16  31  49  72 100 126 158 210 257 289
#
# _framework density 15.285952999999999
#
# number of rings (size 3 to 8) (size 9 to 14) (size 15 to 20)
#    0.000    2.143    2.857    4.286    0.000    0.571 
#    0.000    9.286    0.000    0.857    0.000    4.000 
#    0.000    2.286    0.000    0.000    0.000    0.000 
#
# Total GULP energy -155958.717072 kJ/mol
# GULP energy per Si atom -5569.954181 kJ/mol
# Density = 1.525116 g / cm^3
# Si number density = 15.285953 Si / 1000 Ang^3
#
#
#
# Elastic Constant Matrix: (Units=GPa)
#
#
# Indices 1 2 3 4 5 6 
#
# 1 55.5457 19.0446 16.8968 0.0000 5.7800 0.0000
# 2 19.0446 67.7116 19.1802 0.0000 0.0360 0.0000
# 3 16.8968 19.1802 55.8830 0.0000 -5.5474 0.0000
# 4 0.0000 0.0000 0.0000 19.2377 0.0000 0.0152
# 5 5.7800 0.0360 -5.5474 0.0000 3.6744 0.0000
# 6 0.0000 0.0000 0.0000 0.0152 0.0000 19.1920
#
#
#
# Elastic Compliance Matrix: (Units=1/GPa)
#
#
# Indices 1 2 3 4 5 6 
#
# 1 0.031852 -0.004579 -0.015325 0.000000 -0.073196 0.000000
# 2 -0.004579 0.017346 -0.004553 0.000000 0.000158 0.000000
# 3 -0.015325 -0.004553 0.031158 0.000000 0.071192 0.000000
# 4 0.000000 0.000000 0.000000 0.051981 0.000000 -0.000041
# 5 -0.073196 0.000158 0.071192 0.000000 0.494775 0.000000
# 6 0.000000 0.000000 0.000000 -0.000041 0.000000 0.052105
#
#
# Mechanical properties :
#
#
# Convention : Reuss Voigt Hill
#
# Bulk Modulus (GPa) = 31.80526 32.15370 31.97948
# Shear Modulus (GPa) = 6.76945 16.68872 11.72909
#
# Velocity S-wave (km/s) = 2.10669 3.30778 2.77304
# Velocity P-wave (km/s) = 5.17393 5.97235 5.58742
#
# Compressibility (1/GPa) = 0.03144134
#
# Stress axis : x y z
#
# Youngs Moduli (GPa) = 31.39559 57.65006 32.09434
#
# Poissons Ratio (x) = 0.26396 0.49185
# Poissons Ratio (y) = 0.14375 0.14614
# Poissons Ratio (z) = 0.48114 0.26250
#
# Static dielectric constant tensor:
#      x y z
#    x 1.517830 0.000000 0.000050 
#    y 0.000000 1.498710 0.000000 
#    z 0.000050 0.000000 1.517730 
# 
# From -- ./inp_files/46108.got.cif
#   From: 2010.05.17/outbox.cif.g08.bks.cpg/sg10_24_cif.got.tgz:46108.got - 2010.06.03 11:33:40.
