data_PCOD9145072
_publ_section_title
;
Structure prediction by ZEFSAII (Michael W. Deem and Ramdas Pophale) SiO2 
 PCOD9145072
Probable space group: P 2/M
;
_chemical_formula_sum "Si O2"
_cell_formula_units_Z 32
_cell_length_a 17.242501
_cell_length_b 9.185011
_cell_length_c 23.352700
_cell_angle_alpha 90.000000
_cell_angle_beta 31.084675
_cell_angle_gamma 90.000000
_cell_volume 1909.513656
_symmetry_space_group_name_H-M "P 2/M"
_symmetry_group_IT_number 10
_symmetry_cell_setting 'monoclinic'
loop_
_space_group_symop_operation_xyz
x,y,z
-x,y,-z
-x,-y,-z
x,-y,z
loop_
_atom_site_type_symbol
_atom_site_label
_atom_site_fract_x
_atom_site_fract_y
_atom_site_fract_z
Si Si1 0.840946 0.169197 0.164532
Si Si2 0.150730 0.166246 0.365503
Si Si3 0.977899 0.325905 0.380711
Si Si4 0.885700 0.326001 0.951465
Si Si5 0.052206 0.325480 0.730468
Si Si6 0.669727 0.830002 0.392611
Si Si7 0.649811 0.825388 0.173182
Si Si8 0.305160 0.824364 0.380616
O O1 0.734625 0.177531 0.287383
O O2 0.745056 0.210831 0.169808
O O3 0.984667 0.266786 0.087814
O O4 0.889357 0.000000 0.127851
O O5 0.276753 0.212133 0.331472
O O6 0.000000 0.165530 0.500000
O O7 0.110269 0.265901 0.337539
O O8 0.178150 0.000000 0.329617
O O9 0.968000 0.500000 0.392135
O O10 0.999851 0.286526 0.300317
O O11 0.822550 0.254724 0.501600
O O12 0.876962 0.500000 0.959961
O O13 0.941071 0.282618 0.852658
O O14 0.731493 0.253638 0.069099
O O15 0.067315 0.500000 0.723596
O O16 0.213348 0.254747 0.641840
O O17 0.500000 0.773589 0.500000
O O18 0.666221 0.000000 0.412411
O O19 0.474804 0.786905 0.290271
O O20 0.657208 0.000000 0.160716
O O21 0.284236 0.000000 0.399094
#
# Coordination Sequence:
#
# PCOD9145072 Si02
#       8
#     4   4   4   4   4   4   4   4
#     4   9  18  32  48  69  95 125 161 201 242 280
#     4   8  15  30  49  71  99 129 157 188 236 291
#     4  10  19  31  50  75 100 127 162 197 233 286
#     4  10  20  35  51  67  93 128 167 205 240 279
#     4   9  20  35  48  67  96 130 162 197 240 283
#     4   9  18  30  47  70  95 125 162 199 234 282
#     4  10  20  33  51  72  97 126 158 201 245 284
#     4   9  19  33  50  74 103 130 154 190 245 295
#
# _framework density 16.758194
#
# number of rings (size 3 to 8) (size 9 to 14) (size 15 to 20)
#    0.000    2.750    0.000    1.875    1.750    6.500 
#    0.000    0.000    0.000    0.750    0.000    5.250 
#    0.000    0.000    0.000    0.000    0.000    0.000 
#
# Total GULP energy -178360.845001 kJ/mol
# GULP energy per Si atom -5573.776406 kJ/mol
# Density = 1.672005 g / cm^3
# Si number density = 16.758194 Si / 1000 Ang^3
#
#
#
# Elastic Constant Matrix: (Units=GPa)
#
#
# Indices 1 2 3 4 5 6 
#
# 1 102.0097 34.1715 26.3054 0.0000 18.4030 0.0000
# 2 34.1715 26.2478 18.8533 0.0000 6.7988 0.0000
# 3 26.3054 18.8533 37.4982 0.0000 0.9744 0.0000
# 4 0.0000 0.0000 0.0000 10.6536 0.0000 9.0863
# 5 18.4030 6.7988 0.9744 0.0000 14.2645 0.0000
# 6 0.0000 0.0000 0.0000 9.0863 0.0000 15.7616
#
#
#
# Elastic Compliance Matrix: (Units=1/GPa)
#
#
# Indices 1 2 3 4 5 6 
#
# 1 0.020311 -0.019034 -0.004241 0.000000 -0.016842 0.000000
# 2 -0.019034 0.089401 -0.031183 0.000000 -0.015925 0.000000
# 3 -0.004241 -0.031183 0.044872 0.000000 0.017268 0.000000
# 4 0.000000 0.000000 0.000000 0.184657 0.000000 -0.106452
# 5 -0.016842 -0.015925 0.017268 0.000000 0.098243 0.000000
# 6 0.000000 0.000000 0.000000 -0.106452 0.000000 0.124814
#
#
# Mechanical properties :
#
#
# Convention : Reuss Voigt Hill
#
# Bulk Modulus (GPa) = 21.89655 36.04625 28.97140
# Shear Modulus (GPa) = 7.28401 13.89765 10.59083
#
# Velocity S-wave (km/s) = 2.08710 2.88289 2.51665
# Velocity P-wave (km/s) = 4.34770 5.71294 5.07643
#
# Compressibility (1/GPa) = 0.04566929
#
# Stress axis : x y z
#
# Youngs Moduli (GPa) = 49.23459 11.18559 22.28549
#
# Poissons Ratio (x) = 0.21290 0.09451
# Poissons Ratio (y) = 0.93712 0.69492
# Poissons Ratio (z) = 0.20880 0.34880
#
# Static dielectric constant tensor:
#      x y z
#    x 1.576530 0.000000 0.009310 
#    y 0.000000 1.562910 0.000000 
#    z 0.009310 0.000000 1.554370 
# 
# From -- ./inp_files/89934.got.cif
#   From: 2010.05.17/outbox.cif.g08.bks.cpg/sg10_45_cif.got.tgz:89934.got - 2010.06.03 11:33:40.
