data_PCOD9145836
_publ_section_title
;
Structure prediction by ZEFSAII (Michael W. Deem and Ramdas Pophale) SiO2 
 PCOD9145836
Probable space group: P 2/M
;
_chemical_formula_sum "Si O2"
_cell_formula_units_Z 32
_cell_length_a 14.599770
_cell_length_b 14.398937
_cell_length_c 20.569960
_cell_angle_alpha 90.000000
_cell_angle_beta 22.849652
_cell_angle_gamma 90.000000
_cell_volume 1679.164709
_symmetry_space_group_name_H-M "P 2/M"
_symmetry_group_IT_number 10
_symmetry_cell_setting 'monoclinic'
loop_
_space_group_symop_operation_xyz
x,y,z
-x,y,-z
-x,-y,-z
x,-y,z
loop_
_atom_site_type_symbol
_atom_site_label
_atom_site_fract_x
_atom_site_fract_y
_atom_site_fract_z
Si Si1 0.543753 0.891130 0.780750
Si Si2 0.190817 0.289468 0.430458
Si Si3 0.599633 0.391693 0.093972
Si Si4 0.145015 0.606552 0.736548
Si Si5 0.610616 0.769617 0.360815
Si Si6 0.634730 0.216884 0.979188
Si Si7 0.038538 0.898545 0.051203
Si Si8 0.858228 0.730793 0.389339
O O1 0.736512 0.818297 0.628961
O O2 0.307241 0.877181 0.892801
O O3 0.609513 0.000000 0.736174
O O4 0.463876 0.857025 0.904575
O O5 0.419516 0.352271 0.265260
O O6 0.104765 0.300931 0.560717
O O7 0.000000 0.313713 0.500000
O O8 0.551252 0.500000 0.109611
O O9 0.584674 0.318497 0.044006
O O10 0.872405 0.385783 0.937138
O O11 0.210171 0.500000 0.691198
O O12 0.310569 0.664216 0.676344
O O13 0.154085 0.651861 0.658561
O O14 0.500000 0.805638 0.500000
O O15 0.402023 0.777110 0.444893
O O16 0.852335 0.823165 0.194388
O O17 0.915355 0.209632 0.781843
O O18 0.500000 0.208683 0.000000
O O19 0.986470 0.000000 0.114799
O O20 0.000000 0.904596 0.000000
#
# Coordination Sequence:
#
# PCOD9145836 Si02
#       8
#     4   4   4   4   4   4   4   4
#     4  10  21  38  58  78 105 143 182 218 261 318
#     4  11  22  37  55  78 111 142 176 225 273 312
#     4   9  19  36  56  77 105 142 181 218 261 318
#     4   9  19  36  57  80 108 143 179 214 259 321
#     4  10  19  32  53  80 111 138 168 215 269 318
#     4  10  20  38  58  77 105 141 185 225 260 310
#     4  10  20  35  56  79 104 139 178 214 260 321
#     4  10  20  33  54  82 109 140 175 220 272 311
#
# _framework density 19.057092999999998
#
# number of rings (size 3 to 8) (size 9 to 14) (size 15 to 20)
#    0.000    2.125    0.000    5.250    0.000    4.000 
#    0.000    3.750    0.000    2.625    0.000    0.000 
#    0.000    0.000    0.000    0.000    0.000    0.000 
#
# Total GULP energy -178395.263906 kJ/mol
# GULP energy per Si atom -5574.851997 kJ/mol
# Density = 1.901372 g / cm^3
# Si number density = 19.057093 Si / 1000 Ang^3
#
#
#
# Elastic Constant Matrix: (Units=GPa)
#
#
# Indices 1 2 3 4 5 6 
#
# 1 50.1432 -5.7693 -8.0391 0.0000 -3.3750 0.0000
# 2 -5.7693 65.4614 23.6971 0.0000 -7.7142 0.0000
# 3 -8.0391 23.6971 56.3563 0.0000 2.7429 0.0000
# 4 0.0000 0.0000 0.0000 29.4920 0.0000 -9.3669
# 5 -3.3750 -7.7142 2.7429 0.0000 24.2510 0.0000
# 6 0.0000 0.0000 0.0000 -9.3669 0.0000 18.0662
#
#
#
# Elastic Compliance Matrix: (Units=1/GPa)
#
#
# Indices 1 2 3 4 5 6 
#
# 1 0.020663 0.001379 0.002219 0.000000 0.003063 0.000000
# 2 0.001379 0.019236 -0.008244 0.000000 0.007243 0.000000
# 3 0.002219 -0.008244 0.021760 0.000000 -0.004775 0.000000
# 4 0.000000 0.000000 0.000000 0.040592 0.000000 0.021046
# 5 0.003063 0.007243 -0.004775 0.000000 0.044506 0.000000
# 6 0.000000 0.000000 0.000000 0.021046 0.000000 0.066264
#
#
# Mechanical properties :
#
#
# Convention : Reuss Voigt Hill
#
# Bulk Modulus (GPa) = 19.09648 21.30427 20.20038
# Shear Modulus (GPa) = 20.85344 25.16667 23.01005
#
# Velocity S-wave (km/s) = 3.31155 3.63794 3.47858
# Velocity P-wave (km/s) = 4.96631 5.37118 5.17271
#
# Compressibility (1/GPa) = 0.05236567
#
# Stress axis : x y z
#
# Youngs Moduli (GPa) = 48.39468 51.98675 45.95655
#
# Poissons Ratio (x) = -0.07169 -0.10196
# Poissons Ratio (y) = -0.06673 0.37887
# Poissons Ratio (z) = -0.10737 0.42859
#
# Static dielectric constant tensor:
#      x y z
#    x 1.652230 0.000000 -0.013240 
#    y 0.000000 1.692310 0.000000 
#    z -0.013240 0.000000 1.671450 
# 
# From -- ./inp_files/85390.got.cif
#   From: 2010.05.17/outbox.cif.g08.bks.cpg/sg10_43_cif.got.tgz:85390.got - 2010.06.03 11:33:40.
