data_PCOD9145044
_publ_section_title
;
Structure prediction by ZEFSAII (Michael W. Deem and Ramdas Pophale) SiO2 
 PCOD9145044
Probable space group: P 2/M
;
_chemical_formula_sum "Si O2"
_cell_formula_units_Z 32
_cell_length_a 10.505269
_cell_length_b 7.637434
_cell_length_c 24.471641
_cell_angle_alpha 90.000000
_cell_angle_beta 124.314725
_cell_angle_gamma 90.000000
_cell_volume 1621.710421
_symmetry_space_group_name_H-M "P 2/M"
_symmetry_group_IT_number 10
_symmetry_cell_setting 'monoclinic'
loop_
_space_group_symop_operation_xyz
x,y,z
-x,y,-z
-x,-y,-z
x,-y,z
loop_
_atom_site_type_symbol
_atom_site_label
_atom_site_fract_x
_atom_site_fract_y
_atom_site_fract_z
Si Si1 0.327107 0.211449 0.466883
Si Si2 0.030805 0.714371 0.919970
Si Si3 0.897534 0.705255 0.183406
Si Si4 0.754384 0.711161 0.928614
Si Si5 0.600044 0.793744 0.174568
Si Si6 0.178469 0.785323 0.544390
Si Si7 0.260862 0.798532 0.680685
Si Si8 0.963320 0.707393 0.671029
O O1 0.500000 0.274862 0.500000
O O2 0.260343 0.271667 0.508823
O O3 0.208691 0.263143 0.390828
O O4 0.329812 0.000000 0.468846
O O5 0.032923 0.500000 0.920160
O O6 0.065314 0.778683 0.867318
O O7 0.866347 0.767340 0.905975
O O8 0.161480 0.768627 0.995168
O O9 0.935274 0.500000 0.189035
O O10 0.719328 0.720417 0.158787
O O11 0.995495 0.775704 0.258509
O O12 0.754697 0.500000 0.928747
O O13 0.578559 0.767990 0.881168
O O14 0.644802 0.719857 0.245512
O O15 0.633659 0.000000 0.184350
O O16 0.260087 0.722194 0.619766
O O17 0.000000 0.731428 0.500000
O O18 0.179444 0.000000 0.546124
O O19 0.083455 0.793761 0.658069
O O20 0.312189 0.000000 0.687881
O O21 0.996560 0.500000 0.677977
#
# Coordination Sequence:
#
# PCOD9145044 Si02
#       8
#     4   4   4   4   4   4   4   4
#     4  10  20  34  51  71  95 127 165 201 237 286
#     4   8  16  33  56  76  94 128 175 208 236 288
#     4   9  18  34  54  74  97 131 171 204 241 294
#     4   9  17  33  56  76  97 128 167 209 246 287
#     4  10  20  32  48  75 108 134 159 201 252 295
#     4   9  15  28  53  73  87 119 166 205 233 270
#     4   9  17  32  52  70  94 129 167 199 235 287
#     4  10  19  31  50  73 100 128 156 198 250 290
#
# _framework density 19.732254000000001
#
# number of rings (size 3 to 8) (size 9 to 14) (size 15 to 20)
#    0.000    2.750    1.250    1.500    0.000    1.750 
#    2.250    6.250    0.000    0.000    0.000    0.000 
#    0.000    0.000    0.000    0.000    0.000    0.000 
#
# Total GULP energy -178451.343211 kJ/mol
# GULP energy per Si atom -5576.604475 kJ/mol
# Density = 1.968734 g / cm^3
# Si number density = 19.732254 Si / 1000 Ang^3
#
#
#
# Elastic Constant Matrix: (Units=GPa)
#
#
# Indices 1 2 3 4 5 6 
#
# 1 133.6760 -5.0114 98.3278 0.0000 -10.7963 0.0000
# 2 -5.0114 38.8699 -2.1398 0.0000 -6.9476 0.0000
# 3 98.3278 -2.1398 133.3207 0.0000 -12.6969 0.0000
# 4 0.0000 0.0000 0.0000 10.7965 0.0000 -0.8030
# 5 -10.7963 -6.9476 -12.6969 0.0000 36.8053 0.0000
# 6 0.0000 0.0000 0.0000 -0.8030 0.0000 -7.4076
#
#
#
# Elastic Compliance Matrix: (Units=1/GPa)
#
#
# Indices 1 2 3 4 5 6 
#
# 1 0.016467 0.001638 -0.012024 0.000000 0.000992 0.000000
# 2 0.001638 0.026902 -0.000256 0.000000 0.005471 0.000000
# 3 -0.012024 -0.000256 0.016568 0.000000 0.002140 0.000000
# 4 0.000000 0.000000 0.000000 0.091882 0.000000 -0.009961
# 5 0.000992 0.005471 0.002140 0.000000 0.029232 0.000000
# 6 0.000000 0.000000 0.000000 -0.009961 0.000000 -0.133916
#
#
# Mechanical properties :
#
#
# Convention : Reuss Voigt Hill
#
# Bulk Modulus (GPa) = 25.87012 54.24665 40.05839
# Shear Modulus (GPa) = 61.49978 22.35150 41.92564
#
# Velocity S-wave (km/s) = 5.58881 3.36927 4.61448
# Velocity P-wave (km/s) = 7.40172 6.53353 6.98113
#
# Compressibility (1/GPa) = 0.03865464
#
# Stress axis : x y z
#
# Youngs Moduli (GPa) = 60.72864 37.17224 60.35575
#
# Poissons Ratio (x) = -0.06090 0.72571
# Poissons Ratio (y) = -0.09949 0.01542
# Poissons Ratio (z) = 0.73020 0.00950
#
# Static dielectric constant tensor:
#      x y z
#    x 1.658210 0.000000 -0.023870 
#    y 0.000000 1.747700 0.000000 
#    z -0.023870 0.000000 1.707760 
# 
# From -- ./inp_files/88564.got.cif
#   From: 2010.05.17/outbox.cif.g08.bks.cpg/sg10_45_cif.got.tgz:88564.got - 2010.06.03 11:33:40.
