data_PCOD9145022
_publ_section_title
;
Structure prediction by ZEFSAII (Michael W. Deem and Ramdas Pophale) SiO2 
 PCOD9145022
Probable space group: P 2/M
;
_chemical_formula_sum "Si O2"
_cell_formula_units_Z 32
_cell_length_a 21.156914
_cell_length_b 14.814020
_cell_length_c 8.984178
_cell_angle_alpha 90.000000
_cell_angle_beta 34.850963
_cell_angle_gamma 90.000000
_cell_volume 1609.077892
_symmetry_space_group_name_H-M "P 2/M"
_symmetry_group_IT_number 10
_symmetry_cell_setting 'monoclinic'
loop_
_space_group_symop_operation_xyz
x,y,z
-x,y,-z
-x,-y,-z
x,-y,z
loop_
_atom_site_type_symbol
_atom_site_label
_atom_site_fract_x
_atom_site_fract_y
_atom_site_fract_z
Si Si1 0.252175 0.603339 0.478877
Si Si2 0.483365 0.786140 0.706563
Si Si3 0.386469 0.103841 0.316759
Si Si4 0.941178 0.599304 0.920481
Si Si5 0.424862 0.600778 0.420380
Si Si6 0.734156 0.204131 0.700281
Si Si7 0.084190 0.258938 0.471638
Si Si8 0.231391 0.599062 0.019223
O O1 0.260166 0.500000 0.404490
O O2 0.344228 0.608341 0.433065
O O3 0.268281 0.689927 0.343883
O O4 0.132039 0.613041 0.790971
O O5 0.500000 0.795580 0.500000
O O6 0.582348 0.837702 0.599880
O O7 0.490874 0.681900 0.741520
O O8 0.365748 0.818972 0.994374
O O9 0.291861 0.148902 0.399330
O O10 0.362698 0.000000 0.397791
O O11 0.500000 0.106844 0.000000
O O12 0.995062 0.500000 0.821349
O O13 0.851100 0.594178 0.962084
O O14 0.019697 0.678136 0.713618
O O15 0.472425 0.500000 0.328621
O O16 0.350130 0.612298 0.713504
O O17 0.849309 0.185753 0.561557
O O18 0.181138 0.320979 0.212246
O O19 0.000000 0.233774 0.500000
O O20 0.228114 0.500000 0.099064
#
# Coordination Sequence:
#
# PCOD9145022 Si02
#       8
#     4   4   4   4   4   4   4   4
#     4   9  18  32  51  77 111 151 196 236 271 319
#     4  11  22  36  58  87 116 147 182 228 270 332
#     4   9  20  41  65  87 112 139 173 225 287 343
#     4   8  15  28  46  69 103 148 197 242 275 305
#     4   9  17  31  49  74 116 159 189 221 266 324
#     4  11  22  36  56  84 113 147 189 226 277 331
#     4  10  19  31  49  75 110 149 193 236 278 322
#     4   8  14  26  45  69 104 152 195 229 268 314
#
# _framework density 19.887167999999999
#
# number of rings (size 3 to 8) (size 9 to 14) (size 15 to 20)
#    0.000    2.625    1.250    2.625    0.000    4.000 
#    0.000    2.500    0.000    0.375    0.000    1.750 
#    0.000    0.000    0.000    0.000    0.000    0.000 
#
# Total GULP energy -178568.789753 kJ/mol
# GULP energy per Si atom -5580.274680 kJ/mol
# Density = 1.984190 g / cm^3
# Si number density = 19.887168 Si / 1000 Ang^3
#
#
#
# Elastic Constant Matrix: (Units=GPa)
#
#
# Indices 1 2 3 4 5 6 
#
# 1 140.1780 47.8792 24.3791 0.0000 5.9348 0.0000
# 2 47.8792 65.2789 4.9873 0.0000 2.6692 0.0000
# 3 24.3791 4.9873 39.0023 0.0000 2.9479 0.0000
# 4 0.0000 0.0000 0.0000 7.0433 0.0000 -1.9003
# 5 5.9348 2.6692 2.9479 0.0000 25.5026 0.0000
# 6 0.0000 0.0000 0.0000 -1.9003 0.0000 5.4909
#
#
#
# Elastic Compliance Matrix: (Units=1/GPa)
#
#
# Indices 1 2 3 4 5 6 
#
# 1 0.010673 -0.007353 -0.005651 0.000000 -0.001061 0.000000
# 2 -0.007353 0.020586 0.002015 0.000000 -0.000676 0.000000
# 3 -0.005651 0.002015 0.029085 0.000000 -0.002258 0.000000
# 4 0.000000 0.000000 0.000000 0.156601 0.000000 0.054197
# 5 -0.001061 -0.000676 -0.002258 0.000000 0.039790 0.000000
# 6 0.000000 0.000000 0.000000 0.054197 0.000000 0.200878
#
#
# Mechanical properties :
#
#
# Convention : Reuss Voigt Hill
#
# Bulk Modulus (GPa) = 26.06516 44.32781 35.19649
# Shear Modulus (GPa) = 10.15478 18.75493 14.45486
#
# Velocity S-wave (km/s) = 2.26214 3.07427 2.69893
# Velocity P-wave (km/s) = 4.46744 5.91097 5.23916
#
# Compressibility (1/GPa) = 0.03836539
#
# Stress axis : x y z
#
# Youngs Moduli (GPa) = 93.69448 48.57729 34.38234
#
# Poissons Ratio (x) = 0.35719 0.19429
# Poissons Ratio (y) = 0.68894 -0.06928
# Poissons Ratio (z) = 0.52946 -0.09788
#
# Static dielectric constant tensor:
#      x y z
#    x 1.767780 0.000000 -0.010860 
#    y 0.000000 1.679500 0.000000 
#    z -0.010860 0.000000 1.708230 
# 
# From -- ./inp_files/35094.got.cif
#   From: 2010.05.17/outbox.cif.g08.bks.cpg/sg10_18_cif.got.tgz:35094.got - 2010.06.03 11:33:40.
