data_PCOD9145339
_publ_section_title
;
Structure prediction by ZEFSAII (Michael W. Deem and Ramdas Pophale) SiO2 
 PCOD9145339
Probable space group: P 2/M
;
_chemical_formula_sum "Si O2"
_cell_formula_units_Z 24
_cell_length_a 14.479204
_cell_length_b 14.245349
_cell_length_c 8.046557
_cell_angle_alpha 90.000000
_cell_angle_beta 138.797058
_cell_angle_gamma 90.000000
_cell_volume 1093.286684
_symmetry_space_group_name_H-M "P 2/M"
_symmetry_group_IT_number 10
_symmetry_cell_setting 'monoclinic'
loop_
_space_group_symop_operation_xyz
x,y,z
-x,y,-z
-x,-y,-z
x,-y,z
loop_
_atom_site_type_symbol
_atom_site_label
_atom_site_fract_x
_atom_site_fract_y
_atom_site_fract_z
Si Si1 0.332479 0.281826 0.095642
Si Si2 0.829659 0.389040 0.417384
Si Si3 0.932696 0.294871 0.081523
Si Si4 0.054690 0.106266 0.383812
Si Si5 0.574711 0.392801 0.284269
Si Si6 0.636234 0.110375 0.078708
O O1 0.240321 0.329055 0.822954
O O2 0.234196 0.299058 0.120654
O O3 0.348451 0.173718 0.063831
O O4 0.483944 0.328742 0.282469
O O5 0.819402 0.500000 0.368255
O O6 0.732999 0.368962 0.449024
O O7 0.985770 0.357855 0.672334
O O8 0.979674 0.187853 0.181859
O O9 0.000000 0.323939 0.000000
O O10 0.221945 0.122135 0.621906
O O11 0.000000 0.111768 0.500000
O O12 0.027756 0.000000 0.287981
O O13 0.568366 0.500000 0.335279
O O14 0.500000 0.390063 0.000000
O O15 0.623647 0.000000 0.022738
O O16 0.500000 0.140228 0.000000
#
# Coordination Sequence:
#
# PCOD9145339 Si02
#       6
#     4   4   4   4   4   4
#     4  11  19  34  58  82 108 141 179 226 269 318
#     4  10  20  37  60  82 105 137 182 231 276 320
#     4  12  25  37  50  78 116 151 184 216 264 320
#     4  10  19  37  61  82 107 140 182 225 264 313
#     4   8  16  31  56  85 104 128 175 231 279 320
#     4  10  19  31  57  92 113 129 167 228 282 317
#
# _framework density 21.952157
#
# number of rings (size 3 to 8) (size 9 to 14) (size 15 to 20)
#    0.000    1.833    3.333    3.500    0.000    2.667 
#    0.000    0.833    0.000    2.000    0.000    3.500 
#    0.000    0.000    0.000    0.000    0.000    0.000 
#
# Total GULP energy -134101.492796 kJ/mol
# GULP energy per Si atom -5587.562200 kJ/mol
# Density = 2.190219 g / cm^3
# Si number density = 21.952157 Si / 1000 Ang^3
#
#
#
# Elastic Constant Matrix: (Units=GPa)
#
#
# Indices 1 2 3 4 5 6 
#
# 1 124.2927 18.4785 22.5068 0.0000 28.9378 0.0000
# 2 18.4785 64.8096 6.8658 0.0000 4.6587 0.0000
# 3 22.5068 6.8658 46.3585 0.0000 20.7511 0.0000
# 4 0.0000 0.0000 0.0000 18.1168 0.0000 36.5984
# 5 28.9378 4.6587 20.7511 0.0000 43.4124 0.0000
# 6 0.0000 0.0000 0.0000 36.5984 0.0000 54.1421
#
#
#
# Elastic Compliance Matrix: (Units=1/GPa)
#
#
# Indices 1 2 3 4 5 6 
#
# 1 0.010026 -0.002245 -0.002101 0.000000 -0.005438 0.000000
# 2 -0.002245 0.016197 -0.001527 0.000000 0.000489 0.000000
# 3 -0.002101 -0.001527 0.028137 0.000000 -0.011885 0.000000
# 4 0.000000 0.000000 0.000000 -0.150997 0.000000 0.102070
# 5 -0.005438 0.000489 -0.011885 0.000000 0.032288 0.000000
# 6 0.000000 0.000000 0.000000 0.102070 0.000000 -0.050526
#
#
# Mechanical properties :
#
#
# Convention : Reuss Voigt Hill
#
# Bulk Modulus (GPa) = 23.46710 36.79590 30.13150
# Shear Modulus (GPa) = -56.22776 35.64158 -10.29309
#
# Velocity S-wave (km/s) = -5.06650 4.03377 -2.16773
# Velocity P-wave (km/s) = 4.84897 6.20430 2.73686
#
# Compressibility (1/GPa) = 0.04261285
#
# Stress axis : x y z
#
# Youngs Moduli (GPa) = 99.74312 61.74128 35.53996
#
# Poissons Ratio (x) = 0.13861 0.07466
# Poissons Ratio (y) = 0.22393 0.05429
# Poissons Ratio (z) = 0.20955 0.09431
#
# Static dielectric constant tensor:
#      x y z
#    x 1.845170 0.000000 0.010110 
#    y 0.000000 1.780160 0.000000 
#    z 0.010110 0.000000 1.806680 
# 
# From -- ./inp_files/29659.got.cif
#   From: 2010.05.17/outbox.cif.g08.bks.cpg/sg10_15_cif.got.tgz:29659.got - 2010.06.03 11:33:40.
