data_PCOD9145759
_publ_section_title
;
Structure prediction by ZEFSAII (Michael W. Deem and Ramdas Pophale) SiO2 
 PCOD9145759
Probable space group: P 2/M
;
_chemical_formula_sum "Si O2"
_cell_formula_units_Z 32
_cell_length_a 21.176650
_cell_length_b 16.678817
_cell_length_c 21.283313
_cell_angle_alpha 90.000000
_cell_angle_beta 166.492524
_cell_angle_gamma 90.000000
_cell_volume 1755.831983
_symmetry_space_group_name_H-M "P 2/M"
_symmetry_group_IT_number 10
_symmetry_cell_setting 'monoclinic'
loop_
_space_group_symop_operation_xyz
x,y,z
-x,y,-z
-x,-y,-z
x,-y,z
loop_
_atom_site_type_symbol
_atom_site_label
_atom_site_fract_x
_atom_site_fract_y
_atom_site_fract_z
Si Si1 0.508084 0.844930 0.320394
Si Si2 0.674802 0.691494 0.403025
Si Si3 0.858781 0.405891 0.077692
Si Si4 0.091735 0.351581 0.018389
Si Si5 0.341333 0.904751 0.912369
Si Si6 0.174019 0.172684 0.541908
Si Si7 0.585513 0.244259 0.515985
Si Si8 0.018013 0.088222 0.770664
O O1 0.636142 0.766214 0.412308
O O2 0.497052 0.821206 0.381064
O O3 0.729216 0.912788 0.524873
O O4 0.230406 0.862295 0.016919
O O5 0.400033 0.641589 0.145469
O O6 0.753588 0.737379 0.413651
O O7 0.900120 0.634096 0.649897
O O8 0.833645 0.500000 0.065466
O O9 0.908324 0.395874 0.049655
O O10 0.398842 0.322488 0.323715
O O11 0.000000 0.384411 0.000000
O O12 0.891961 0.275674 0.813705
O O13 0.553080 0.869673 0.168878
O O14 0.276005 0.000000 0.859956
O O15 0.500000 0.901204 0.000000
O O16 0.074550 0.848091 0.651802
O O17 0.050960 0.127327 0.362387
O O18 0.500000 0.212658 0.500000
O O19 0.131490 0.000000 0.871798
#
# Coordination Sequence:
#
# PCOD9145759 Si02
#       8
#     4   4   4   4   4   4   4   4
#     4  11  19  34  55  71 102 138 177 234 276 323
#     4  11  22  37  55  80 108 146 195 224 274 330
#     4  12  22  36  55  79 116 147 178 235 296 345
#     4  10  19  33  52  76 105 139 180 227 278 354
#     4  11  22  37  59  90 128 163 190 217 263 323
#     4  11  22  37  58  81 118 159 191 231 257 312
#     4  10  19  32  53  74  96 131 183 230 271 338
#     4  11  22  33  52  80 106 139 181 225 274 318
#
# _framework density 18.224979000000001
#
# number of rings (size 3 to 8) (size 9 to 14) (size 15 to 20)
#    0.000    1.125    2.500    6.750    0.000    1.250 
#    0.000    0.000    0.000    6.000    0.000    0.000 
#    0.000   35.000    0.000    0.000    0.000    0.000 
#
# Total GULP energy -178243.775154 kJ/mol
# GULP energy per Si atom -5570.117974 kJ/mol
# Density = 1.818350 g / cm^3
# Si number density = 18.224979 Si / 1000 Ang^3
#
#
#
# Elastic Constant Matrix: (Units=GPa)
#
#
# Indices 1 2 3 4 5 6 
#
# 1 67.0240 26.0005 6.5285 0.0000 0.9058 0.0000
# 2 26.0005 75.1224 12.3403 0.0000 2.6165 0.0000
# 3 6.5285 12.3403 100.4849 0.0000 -1.0055 0.0000
# 4 0.0000 0.0000 0.0000 30.3513 0.0000 -2.4672
# 5 0.9058 2.6165 -1.0055 0.0000 29.3945 0.0000
# 6 0.0000 0.0000 0.0000 -2.4672 0.0000 16.4818
#
#
#
# Elastic Compliance Matrix: (Units=1/GPa)
#
#
# Indices 1 2 3 4 5 6 
#
# 1 0.017249 -0.005904 -0.000396 0.000000 -0.000019 0.000000
# 2 -0.005904 0.015654 -0.001551 0.000000 -0.001265 0.000000
# 3 -0.000396 -0.001551 0.010173 0.000000 0.000498 0.000000
# 4 0.000000 0.000000 0.000000 0.033353 0.000000 0.004993
# 5 -0.000019 -0.001265 0.000498 0.000000 0.034150 0.000000
# 6 0.000000 0.000000 0.000000 0.004993 0.000000 0.061420
#
#
# Mechanical properties :
#
#
# Convention : Reuss Voigt Hill
#
# Bulk Modulus (GPa) = 36.53236 36.93000 36.73118
# Shear Modulus (GPa) = 25.40291 28.42967 26.91629
#
# Velocity S-wave (km/s) = 3.73748 3.95388 3.84720
# Velocity P-wave (km/s) = 6.22204 6.41495 6.31923
#
# Compressibility (1/GPa) = 0.02737299
#
# Stress axis : x y z
#
# Youngs Moduli (GPa) = 57.97326 63.88108 98.29969
#
# Poissons Ratio (x) = 0.37718 0.03891
# Poissons Ratio (y) = 0.34230 0.15251
# Poissons Ratio (z) = 0.02294 0.09911
#
# Static dielectric constant tensor:
#      x y z
#    x 1.715780 0.000000 0.034730 
#    y 0.000000 1.586570 0.000000 
#    z 0.034730 0.000000 1.662980 
# 
# From -- ./inp_files/91145.got.cif
#   From: 2010.05.17/outbox.cif.g08.bks.cpg/sg10_46_cif.got.tgz:91145.got - 2010.06.03 11:33:40.
