data_PCOD9145916
_publ_section_title
;
Structure prediction by ZEFSAII (Michael W. Deem and Ramdas Pophale) SiO2 
 PCOD9145916
Probable space group: P 2/M
;
_chemical_formula_sum "Si O2"
_cell_formula_units_Z 28
_cell_length_a 15.388767
_cell_length_b 8.840078
_cell_length_c 17.158301
_cell_angle_alpha 90.000000
_cell_angle_beta 45.898054
_cell_angle_gamma 90.000000
_cell_volume 1676.180328
_symmetry_space_group_name_H-M "P 2/M"
_symmetry_group_IT_number 10
_symmetry_cell_setting 'monoclinic'
loop_
_space_group_symop_operation_xyz
x,y,z
-x,y,-z
-x,-y,-z
x,-y,z
loop_
_atom_site_type_symbol
_atom_site_label
_atom_site_fract_x
_atom_site_fract_y
_atom_site_fract_z
Si Si1 0.885166 0.180913 0.518140
Si Si2 0.396463 0.180643 0.894388
Si Si3 0.343452 0.681068 0.251897
Si Si4 0.058069 0.681518 0.851140
Si Si5 0.020508 0.318590 0.698006
Si Si6 0.735274 0.318186 0.873822
Si Si7 0.822032 0.818613 0.080626
O O1 0.764835 0.252540 0.629138
O O2 0.912356 0.237184 0.414242
O O3 0.000000 0.226721 0.500000
O O4 0.875886 0.000000 0.525878
O O5 0.526895 0.255663 0.804404
O O6 0.304093 0.218842 0.882085
O O7 0.408883 0.000000 0.889726
O O8 0.334907 0.238611 0.012467
O O9 0.342127 0.500000 0.257747
O O10 0.318661 0.722050 0.176806
O O11 0.054711 0.500000 0.861556
O O12 0.071015 0.718529 0.752113
O O13 0.158322 0.750967 0.845773
O O14 0.930617 0.748412 0.961271
O O15 0.028511 0.500000 0.681996
O O16 0.877645 0.279063 0.786106
O O17 0.725166 0.500000 0.890298
O O18 0.836048 0.000000 0.073893
#
# Coordination Sequence:
#
# PCOD9145916 Si02
#       7
#     4   4   4   4   4   4   4
#     4  11  23  37  56  81 109 142 182 226 269 316
#     4  11  23  36  53  79 113 148 181 222 271 324
#     4  11  23  38  57  77 106 148 188 225 266 317
#     4  10  19  32  54  81 107 139 179 224 266 314
#     4  10  20  35  56  81 111 143 180 223 268 318
#     4  10  20  35  54  79 110 146 183 219 265 321
#     4  10  20  33  51  77 111 145 175 216 272 327
#
# _framework density 16.704647000000001
#
# number of rings (size 3 to 8) (size 9 to 14) (size 15 to 20)
#    0.000    1.571    2.857    3.429    0.000    6.857 
#    0.000    0.000    0.000    0.857    0.000    6.000 
#    0.000    0.000    0.000    0.000    0.000    0.000 
#
# Total GULP energy -156411.075897 kJ/mol
# GULP energy per Si atom -5586.109853 kJ/mol
# Density = 1.666663 g / cm^3
# Si number density = 16.704647 Si / 1000 Ang^3
#
#
#
# Elastic Constant Matrix: (Units=GPa)
#
#
# Indices 1 2 3 4 5 6 
#
# 1 165.0340 67.5236 94.7382 0.0000 5.4507 0.0000
# 2 67.5236 56.7667 51.8732 0.0000 1.0576 0.0000
# 3 94.7382 51.8732 111.2192 0.0000 -7.5852 0.0000
# 4 0.0000 0.0000 0.0000 50.1575 0.0000 14.7339
# 5 5.4507 1.0576 -7.5852 0.0000 25.7301 0.0000
# 6 0.0000 0.0000 0.0000 14.7339 0.0000 39.5311
#
#
#
# Elastic Compliance Matrix: (Units=1/GPa)
#
#
# Indices 1 2 3 4 5 6 
#
# 1 0.015482 -0.010326 -0.008742 0.000000 -0.005433 0.000000
# 2 -0.010326 0.038398 -0.009258 0.000000 -0.002120 0.000000
# 3 -0.008742 -0.009258 0.021337 0.000000 0.008523 0.000000
# 4 0.000000 0.000000 0.000000 0.022388 0.000000 -0.008345
# 5 -0.005433 -0.002120 0.008523 0.000000 0.042615 0.000000
# 6 0.000000 0.000000 0.000000 -0.008345 0.000000 0.028407
#
#
# Mechanical properties :
#
#
# Convention : Reuss Voigt Hill
#
# Bulk Modulus (GPa) = 53.86449 84.58777 69.22613
# Shear Modulus (GPa) = 21.60123 31.00941 26.30532
#
# Velocity S-wave (km/s) = 3.59991 4.31319 3.97259
# Velocity P-wave (km/s) = 7.04232 8.69207 7.91032
#
# Compressibility (1/GPa) = 0.01856511
#
# Stress axis : x y z
#
# Youngs Moduli (GPa) = 64.58993 26.04319 46.86644
#
# Poissons Ratio (x) = 0.26892 0.40973
# Poissons Ratio (y) = 0.66696 0.43387
# Poissons Ratio (z) = 0.56467 0.24110
#
# Static dielectric constant tensor:
#      x y z
#    x 1.571370 0.000000 0.003820 
#    y 0.000000 1.558630 0.000000 
#    z 0.003820 0.000000 1.520670 
# 
# From -- ./inp_files/57909.got.cif
#   From: 2010.05.17/outbox.cif.g08.bks.cpg/sg10_29_cif.got.tgz:57909.got - 2010.06.03 11:33:40.
