data_PCOD9145443
_publ_section_title
;
Structure prediction by ZEFSAII (Michael W. Deem and Ramdas Pophale) SiO2 
 PCOD9145443
Probable space group: P 2/M
;
_chemical_formula_sum "Si O2"
_cell_formula_units_Z 24
_cell_length_a 25.094615
_cell_length_b 8.598773
_cell_length_c 18.999625
_cell_angle_alpha 90.000000
_cell_angle_beta 160.750086
_cell_angle_gamma 90.000000
_cell_volume 1351.657966
_symmetry_space_group_name_H-M "P 2/M"
_symmetry_group_IT_number 10
_symmetry_cell_setting 'monoclinic'
loop_
_space_group_symop_operation_xyz
x,y,z
-x,y,-z
-x,-y,-z
x,-y,z
loop_
_atom_site_type_symbol
_atom_site_label
_atom_site_fract_x
_atom_site_fract_y
_atom_site_fract_z
Si Si1 0.836081 0.312643 0.077902
Si Si2 0.480061 0.188022 0.395143
Si Si3 0.508202 0.186317 0.091496
Si Si4 0.336505 0.814306 0.508683
Si Si5 0.825726 0.686335 0.565604
Si Si6 0.345957 0.686443 0.016088
O O1 0.831814 0.500000 0.067905
O O2 0.803891 0.273006 0.119992
O O3 0.006268 0.259331 0.258839
O O4 0.685998 0.248432 0.845868
O O5 0.500000 0.241856 0.500000
O O6 0.627917 0.233403 0.527445
O O7 0.474373 0.000000 0.387730
O O8 0.674939 0.246314 0.333721
O O9 0.505086 0.000000 0.091755
O O10 0.500000 0.234223 0.000000
O O11 0.362126 0.252598 0.957068
O O12 0.196783 0.738658 0.381401
O O13 0.319837 0.000000 0.491137
O O14 0.500736 0.762567 0.753159
O O15 0.817486 0.500000 0.552295
O O16 0.364616 0.500000 0.038994
#
# Coordination Sequence:
#
# PCOD9145443 Si02
#       6
#     4   4   4   4   4   4
#     4   9  19  33  49  72  97 123 157 195 234 277
#     4   9  18  32  50  72  96 124 159 196 234 278
#     4  10  20  33  49  71  97 123 155 193 232 278
#     4   9  16  28  47  69  93 122 157 193 230 276
#     4  10  19  32  50  71  96 124 157 194 232 279
#     4   9  16  29  49  69  91 121 157 192 228 275
#
# _framework density 17.755973000000001
#
# number of rings (size 3 to 8) (size 9 to 14) (size 15 to 20)
#    0.000    2.667    0.000    4.000    0.000    4.333 
#    0.000    1.667    0.000   10.000    0.000    0.000 
#    0.000    0.000    0.000    0.000    0.000    0.000 
#
# Total GULP energy -133659.522417 kJ/mol
# GULP energy per Si atom -5569.146767 kJ/mol
# Density = 1.771556 g / cm^3
# Si number density = 17.755973 Si / 1000 Ang^3
#
#
#
# Elastic Constant Matrix: (Units=GPa)
#
#
# Indices 1 2 3 4 5 6 
#
# 1 202.0374 17.5478 62.6867 0.0000 16.3204 0.0000
# 2 17.5478 8.6048 12.6435 0.0000 3.3520 0.0000
# 3 62.6867 12.6435 43.8950 0.0000 15.5463 0.0000
# 4 0.0000 0.0000 0.0000 8.6165 0.0000 3.7849
# 5 16.3204 3.3520 15.5463 0.0000 33.7458 0.0000
# 6 0.0000 0.0000 0.0000 3.7849 0.0000 31.5671
#
#
#
# Elastic Compliance Matrix: (Units=1/GPa)
#
#
# Indices 1 2 3 4 5 6 
#
# 1 0.008995 0.001359 -0.013919 0.000000 0.001927 0.000000
# 2 0.001359 0.203535 -0.063541 0.000000 0.008398 0.000000
# 3 -0.013919 -0.063541 0.067328 0.000000 -0.017974 0.000000
# 4 0.000000 0.000000 0.000000 0.122509 0.000000 -0.014689
# 5 0.001927 0.008398 -0.017974 0.000000 0.036147 0.000000
# 6 0.000000 0.000000 0.000000 -0.014689 0.000000 0.033440
#
#
# Mechanical properties :
#
#
# Convention : Reuss Voigt Hill
#
# Bulk Modulus (GPa) = 7.83361 48.92148 28.37754
# Shear Modulus (GPa) = 7.49953 25.56315 16.53134
#
# Velocity S-wave (km/s) = 2.05739 3.79844 3.05459
# Velocity P-wave (km/s) = 3.17257 6.84467 5.33454
#
# Compressibility (1/GPa) = 0.12765501
#
# Stress axis : x y z
#
# Youngs Moduli (GPa) = 111.17691 4.91315 14.85263
#
# Poissons Ratio (x) = -0.00668 0.20674
# Poissons Ratio (y) = -0.15106 0.94375
# Poissons Ratio (z) = 1.54751 0.31219
#
# Static dielectric constant tensor:
#      x y z
#    x 1.683400 0.000000 0.016070 
#    y 0.000000 1.601580 0.000000 
#    z 0.016070 0.000000 1.580500 
# 
# From -- ./inp_files/31224.got.cif
#   From: 2010.05.17/outbox.cif.g08.bks.cpg/sg10_16_cif.got.tgz:31224.got - 2010.06.03 11:33:40.
