data_PCOD9145987
_publ_section_title
;
Structure prediction by ZEFSAII (Michael W. Deem and Ramdas Pophale) SiO2 
 PCOD9145987
Probable space group: P 2/M
;
_chemical_formula_sum "Si O2"
_cell_formula_units_Z 28
_cell_length_a 7.030021
_cell_length_b 15.363776
_cell_length_c 11.947192
_cell_angle_alpha 90.000000
_cell_angle_beta 62.215158
_cell_angle_gamma 90.000000
_cell_volume 1141.612157
_symmetry_space_group_name_H-M "P 2/M"
_symmetry_group_IT_number 10
_symmetry_cell_setting 'monoclinic'
loop_
_space_group_symop_operation_xyz
x,y,z
-x,y,-z
-x,-y,-z
x,-y,z
loop_
_atom_site_type_symbol
_atom_site_label
_atom_site_fract_x
_atom_site_fract_y
_atom_site_fract_z
Si Si1 0.834977 0.905872 0.321849
Si Si2 0.945137 0.399934 0.752344
Si Si3 0.477851 0.096336 0.222766
Si Si4 0.831635 0.123559 0.951651
Si Si5 0.427093 0.294732 0.270717
Si Si6 0.191362 0.271465 0.540931
Si Si7 0.727183 0.679100 0.002984
O O1 0.654749 0.897864 0.274177
O O2 0.806333 0.825705 0.411950
O O3 0.064721 0.904601 0.193696
O O4 0.808221 0.000000 0.384651
O O5 0.983828 0.500000 0.715313
O O6 0.739623 0.361764 0.740084
O O7 0.131287 0.337970 0.655332
O O8 0.881305 0.388999 0.900379
O O9 0.373200 0.192996 0.254738
O O10 0.375435 0.000000 0.264804
O O11 0.608474 0.096149 0.069766
O O12 0.826684 0.227545 0.948750
O O13 0.000000 0.095681 0.000000
O O14 0.398597 0.296336 0.411026
O O15 0.655260 0.317881 0.151725
O O16 0.000000 0.275638 0.500000
O O17 0.500000 0.674559 0.000000
#
# Coordination Sequence:
#
# PCOD9145987 Si02
#       7
#     4   4   4   4   4   4   4
#     4  10  19  32  55  81 109 151 193 223 262 323
#     4  10  20  37  61  81 102 140 188 231 277 335
#     4   9  18  33  54  82 113 146 185 226 270 323
#     4   9  16  30  54  82 111 145 190 231 272 323
#     4   9  20  33  52  81 112 139 174 226 275 320
#     4  10  21  36  52  78 113 146 184 223 270 325
#     4   9  17  32  55  80 109 136 181 229 281 325
#
# _framework density 24.526719
#
# number of rings (size 3 to 8) (size 9 to 14) (size 15 to 20)
#    0.000    2.571    1.429    0.429    0.000    8.286 
#    0.000    3.571    0.000    5.143    0.000    5.000 
#    0.000    0.000    0.000    0.000    0.000    0.000 
#
# Total GULP energy -156432.093916 kJ/mol
# GULP energy per Si atom -5586.860497 kJ/mol
# Density = 2.447090 g / cm^3
# Si number density = 24.526719 Si / 1000 Ang^3
#
#
#
# Elastic Constant Matrix: (Units=GPa)
#
#
# Indices 1 2 3 4 5 6 
#
# 1 58.9517 17.9421 28.4701 0.0000 5.9033 0.0000
# 2 17.9421 153.4894 60.8223 0.0000 -10.4964 0.0000
# 3 28.4701 60.8223 181.0608 0.0000 -0.9081 0.0000
# 4 0.0000 0.0000 0.0000 0.3786 0.0000 19.9556
# 5 5.9033 -10.4964 -0.9081 0.0000 23.3357 0.0000
# 6 0.0000 0.0000 0.0000 19.9556 0.0000 -15.7130
#
#
#
# Elastic Compliance Matrix: (Units=1/GPa)
#
#
# Indices 1 2 3 4 5 6 
#
# 1 0.019244 -0.001649 -0.002501 0.000000 -0.005707 0.000000
# 2 -0.001649 0.007917 -0.002381 0.000000 0.003886 0.000000
# 3 -0.002501 -0.002381 0.006715 0.000000 -0.000177 0.000000
# 4 0.000000 0.000000 0.000000 0.038877 0.000000 0.049374
# 5 -0.005707 0.003886 -0.000177 0.000000 0.046037 0.000000
# 6 0.000000 0.000000 0.000000 0.049374 0.000000 -0.000937
#
#
# Mechanical properties :
#
#
# Convention : Reuss Voigt Hill
#
# Bulk Modulus (GPa) = 48.04106 67.55231 57.79668
# Shear Modulus (GPa) = 36.27070 20.68477 28.47774
#
# Velocity S-wave (km/s) = 3.84972 2.90721 3.41117
# Velocity P-wave (km/s) = 6.27616 6.23468 6.25546
#
# Compressibility (1/GPa) = 0.02081553
#
# Stress axis : x y z
#
# Youngs Moduli (GPa) = 51.96408 126.31117 148.91895
#
# Poissons Ratio (x) = 0.20827 0.37240
# Poissons Ratio (y) = 0.08568 0.35453
# Poissons Ratio (z) = 0.12994 0.30071
#
# Static dielectric constant tensor:
#      x y z
#    x 2.036660 0.000000 -0.005450 
#    y 0.000000 1.872200 0.000000 
#    z -0.005450 0.000000 1.986840 
# 
# From -- ./inp_files/42874.got.cif
#   From: 2010.05.17/outbox.cif.g08.bks.cpg/sg10_22_cif.got.tgz:42874.got - 2010.06.03 11:33:40.
