data_PCOD9145774
_publ_section_title
;
Structure prediction by ZEFSAII (Michael W. Deem and Ramdas Pophale) SiO2 
 PCOD9145774
Probable space group: P 2/M
;
_chemical_formula_sum "Si O2"
_cell_formula_units_Z 32
_cell_length_a 18.703817
_cell_length_b 8.866851
_cell_length_c 27.132460
_cell_angle_alpha 90.000000
_cell_angle_beta 155.343975
_cell_angle_gamma 90.000000
_cell_volume 1877.161097
_symmetry_space_group_name_H-M "P 2/M"
_symmetry_group_IT_number 10
_symmetry_cell_setting 'monoclinic'
loop_
_space_group_symop_operation_xyz
x,y,z
-x,y,-z
-x,-y,-z
x,-y,z
loop_
_atom_site_type_symbol
_atom_site_label
_atom_site_fract_x
_atom_site_fract_y
_atom_site_fract_z
Si Si1 0.984553 0.679616 0.933004
Si Si2 0.908064 0.172660 0.388860
Si Si3 0.098013 0.182638 0.270225
Si Si4 0.785999 0.818788 0.007290
Si Si5 0.586728 0.680722 0.234483
Si Si6 0.319466 0.180756 0.315474
Si Si7 0.307017 0.818834 0.491195
Si Si8 0.764351 0.680271 0.449130
O O1 0.004831 0.500000 0.939642
O O2 0.800860 0.732980 0.798188
O O3 0.123859 0.763200 0.986489
O O4 0.000000 0.716966 0.000000
O O5 0.730303 0.257667 0.286902
O O6 0.000000 0.171094 0.500000
O O7 0.044932 0.254641 0.439928
O O8 0.880327 0.000000 0.356033
O O9 0.246290 0.222159 0.323458
O O10 0.153482 0.234324 0.359091
O O11 0.094798 0.000000 0.270143
O O12 0.917446 0.230123 0.133235
O O13 0.598070 0.749395 0.892633
O O14 0.776812 0.000000 0.001743
O O15 0.580991 0.500000 0.228885
O O16 0.650110 0.724216 0.329662
O O17 0.516481 0.211226 0.427394
O O18 0.292933 0.000000 0.293631
O O19 0.306612 0.743142 0.544158
O O20 0.294264 0.000000 0.489812
O O21 0.770662 0.500000 0.454027
#
# Coordination Sequence:
#
# PCOD9145774 Si02
#       8
#     4   4   4   4   4   4   4   4
#     4  10  21  34  47  66 100 140 169 205 259 307
#     4   9  17  32  54  78 103 132 169 208 246 297
#     4   8  16  33  53  73  99 131 171 218 262 297
#     4  10  20  34  54  76  98 130 175 216 249 296
#     4  10  20  34  53  77 108 140 166 200 251 308
#     4   9  18  32  51  74  96 129 174 217 256 300
#     4  10  19  32  53  77 101 132 171 215 258 302
#     4  10  21  34  49  75 110 140 165 200 254 308
#
# _framework density 17.047018999999999
#
# number of rings (size 3 to 8) (size 9 to 14) (size 15 to 20)
#    0.000    2.500    0.000    3.000    1.750    6.000 
#    0.000    3.125    0.000    4.500    0.000    5.250 
#    0.000    0.000    0.000    0.000    0.000    0.000 
#
# Total GULP energy -178422.292724 kJ/mol
# GULP energy per Si atom -5575.696648 kJ/mol
# Density = 1.700822 g / cm^3
# Si number density = 17.047019 Si / 1000 Ang^3
#
#
#
# Elastic Constant Matrix: (Units=GPa)
#
#
# Indices 1 2 3 4 5 6 
#
# 1 39.5464 17.9475 35.3204 0.0000 2.4960 0.0000
# 2 17.9475 39.3741 33.5980 0.0000 7.6400 0.0000
# 3 35.3204 33.5980 89.6026 0.0000 20.0992 0.0000
# 4 0.0000 0.0000 0.0000 10.2693 0.0000 3.7603
# 5 2.4960 7.6400 20.0992 0.0000 20.3546 0.0000
# 6 0.0000 0.0000 0.0000 3.7603 0.0000 13.0891
#
#
#
# Elastic Compliance Matrix: (Units=1/GPa)
#
#
# Indices 1 2 3 4 5 6 
#
# 1 0.043618 -0.007720 -0.017661 0.000000 0.014989 0.000000
# 2 -0.007720 0.038714 -0.010824 0.000000 -0.002897 0.000000
# 3 -0.017661 -0.010824 0.026697 0.000000 -0.020134 0.000000
# 4 0.000000 0.000000 0.000000 0.108825 0.000000 -0.031264
# 5 0.014989 -0.002897 -0.020134 0.000000 0.068259 0.000000
# 6 0.000000 0.000000 0.000000 -0.031264 0.000000 0.085381
#
#
# Mechanical properties :
#
#
# Convention : Reuss Voigt Hill
#
# Bulk Modulus (GPa) = 27.30766 38.02832 32.66799
# Shear Modulus (GPa) = 10.96224 14.18642 12.57433
#
# Velocity S-wave (km/s) = 2.53861 2.88791 2.71887
# Velocity P-wave (km/s) = 4.96453 5.78587 5.39087
#
# Compressibility (1/GPa) = 0.03661976
#
# Stress axis : x y z
#
# Youngs Moduli (GPa) = 22.92614 25.83029 37.45735
#
# Poissons Ratio (x) = 0.19941 0.66154
# Poissons Ratio (y) = 0.17699 0.40542
# Poissons Ratio (z) = 0.40490 0.27958
#
# Static dielectric constant tensor:
#      x y z
#    x 1.559230 0.000000 -0.004510 
#    y 0.000000 1.572190 0.000000 
#    z -0.004510 0.000000 1.578150 
# 
# From -- ./inp_files/87206.got.cif
#   From: 2010.05.17/outbox.cif.g08.bks.cpg/sg10_44_cif.got.tgz:87206.got - 2010.06.03 11:33:40.
