data_PCOD9145906
_publ_section_title
;
Structure prediction by ZEFSAII (Michael W. Deem and Ramdas Pophale) SiO2 
 PCOD9145906
Probable space group: P 2/M
;
_chemical_formula_sum "Si O2"
_cell_formula_units_Z 32
_cell_length_a 27.098816
_cell_length_b 8.602780
_cell_length_c 21.541819
_cell_angle_alpha 90.000000
_cell_angle_beta 21.176640
_cell_angle_gamma 90.000000
_cell_volume 1814.147760
_symmetry_space_group_name_H-M "P 2/M"
_symmetry_group_IT_number 10
_symmetry_cell_setting 'monoclinic'
loop_
_space_group_symop_operation_xyz
x,y,z
-x,y,-z
-x,-y,-z
x,-y,z
loop_
_atom_site_type_symbol
_atom_site_label
_atom_site_fract_x
_atom_site_fract_y
_atom_site_fract_z
Si Si1 0.902782 0.685995 0.924066
Si Si2 0.405234 0.188013 0.019364
Si Si3 0.392380 0.686605 0.780951
Si Si4 0.302739 0.189021 0.275146
Si Si5 0.901028 0.187913 0.060345
Si Si6 0.011695 0.813318 0.669407
Si Si7 0.267889 0.313647 0.056564
Si Si8 0.592521 0.187224 0.449165
O O1 0.909893 0.500000 0.912487
O O2 0.988998 0.755956 0.766333
O O3 0.744778 0.732607 0.095963
O O4 0.942545 0.745101 0.945084
O O5 0.563925 0.236394 0.841628
O O6 0.401775 0.000000 0.019830
O O7 0.330245 0.234391 0.171482
O O8 0.332007 0.255759 0.045236
O O9 0.402361 0.500000 0.767448
O O10 0.522595 0.757038 0.594386
O O11 0.362570 0.734291 0.886782
O O12 0.157268 0.241434 0.471862
O O13 0.302118 0.000000 0.276609
O O14 0.747230 0.239220 0.257099
O O15 0.902094 0.000000 0.054705
O O16 0.000000 0.234454 0.000000
O O17 0.883037 0.751656 0.780707
O O18 0.008921 0.000000 0.671461
O O19 0.259615 0.500000 0.065747
O O20 0.500000 0.242532 0.500000
O O21 0.591611 0.000000 0.449877
#
# Coordination Sequence:
#
# PCOD9145906 Si02
#       8
#     4   4   4   4   4   4   4   4
#     4  10  20  35  54  77 106 139 174 214 261 316
#     4   9  17  35  59  80 105 140 177 219 266 313
#     4   9  19  34  52  73 102 137 171 211 257 306
#     4   8  17  34  57  82 106 135 180 224 261 313
#     4  10  21  37  54  75 105 136 170 216 264 308
#     4  10  19  34  57  81 105 139 179 220 265 313
#     4  10  21  36  51  78 114 143 176 218 263 313
#     4  10  19  32  54  80  99 125 172 219 254 302
#
# _framework density 17.639137000000002
#
# number of rings (size 3 to 8) (size 9 to 14) (size 15 to 20)
#    0.000    2.500    1.250    2.625    0.000    4.000 
#    2.250    6.250    0.000    0.000    0.000    0.000 
#    0.000    0.000    0.000    0.000    0.000    0.000 
#
# Total GULP energy -178489.524380 kJ/mol
# GULP energy per Si atom -5577.797637 kJ/mol
# Density = 1.759899 g / cm^3
# Si number density = 17.639137 Si / 1000 Ang^3
#
#
#
# Elastic Constant Matrix: (Units=GPa)
#
#
# Indices 1 2 3 4 5 6 
#
# 1 171.6894 36.4178 94.2147 0.0000 0.6469 0.0000
# 2 36.4178 24.8516 28.8969 0.0000 -0.5576 0.0000
# 3 94.2147 28.8969 155.6864 0.0000 4.0049 0.0000
# 4 0.0000 0.0000 0.0000 -7.4446 0.0000 -6.7515
# 5 0.6469 -0.5576 4.0049 0.0000 16.7341 0.0000
# 6 0.0000 0.0000 0.0000 -6.7515 0.0000 10.6098
#
#
#
# Elastic Compliance Matrix: (Units=1/GPa)
#
#
# Indices 1 2 3 4 5 6 
#
# 1 0.010387 -0.010069 -0.004425 0.000000 0.000322 0.000000
# 2 -0.010069 0.061343 -0.005388 0.000000 0.003723 0.000000
# 3 -0.004425 -0.005388 0.010164 0.000000 -0.002441 0.000000
# 4 0.000000 0.000000 0.000000 -0.085172 0.000000 -0.054199
# 5 0.000322 0.003723 -0.002441 0.000000 0.060454 0.000000
# 6 0.000000 0.000000 0.000000 -0.054199 0.000000 0.059763
#
#
# Mechanical properties :
#
#
# Convention : Reuss Voigt Hill
#
# Bulk Modulus (GPa) = 23.73652 74.58734 49.16193
# Shear Modulus (GPa) = 29.28305 16.82642 23.05473
#
# Velocity S-wave (km/s) = 4.07887 3.09192 3.61920
# Velocity P-wave (km/s) = 5.97235 7.42452 6.73767
#
# Compressibility (1/GPa) = 0.04212918
#
# Stress axis : x y z
#
# Youngs Moduli (GPa) = 96.26970 16.30182 98.38469
#
# Poissons Ratio (x) = 0.16414 0.43540
# Poissons Ratio (y) = 0.96933 0.53013
# Poissons Ratio (z) = 0.42604 0.08784
#
# Static dielectric constant tensor:
#      x y z
#    x 1.581100 0.000000 0.000030 
#    y 0.000000 1.595800 0.000000 
#    z 0.000030 0.000000 1.597240 
# 
# From -- ./inp_files/86893.got.cif
#   From: 2010.05.17/outbox.cif.g08.bks.cpg/sg10_44_cif.got.tgz:86893.got - 2010.06.03 11:33:40.
