data_PCOD9145146
_publ_section_title
;
Structure prediction by ZEFSAII (Michael W. Deem and Ramdas Pophale) SiO2 
 PCOD9145146
Probable space group: P 2/M
;
_chemical_formula_sum "Si O2"
_cell_formula_units_Z 32
_cell_length_a 13.132492
_cell_length_b 7.417383
_cell_length_c 22.811055
_cell_angle_alpha 90.000000
_cell_angle_beta 141.223223
_cell_angle_gamma 90.000000
_cell_volume 1391.608999
_symmetry_space_group_name_H-M "P 2/M"
_symmetry_group_IT_number 10
_symmetry_cell_setting 'monoclinic'
loop_
_space_group_symop_operation_xyz
x,y,z
-x,y,-z
-x,-y,-z
x,-y,z
loop_
_atom_site_type_symbol
_atom_site_label
_atom_site_fract_x
_atom_site_fract_y
_atom_site_fract_z
Si Si1 0.308823 0.783506 0.278767
Si Si2 0.348848 0.783490 0.625601
Si Si3 0.512989 0.782830 0.189107
Si Si4 0.032125 0.722259 0.702820
Si Si5 0.317697 0.703191 0.413571
Si Si6 0.623810 0.287454 0.105345
Si Si7 0.009519 0.295939 0.441253
Si Si8 0.823447 0.779991 0.902036
O O1 0.487196 0.741241 0.334815
O O2 0.280114 0.697184 0.327853
O O3 0.197572 0.727577 0.174947
O O4 0.296873 0.000000 0.280847
O O5 0.370629 0.726555 0.703743
O O6 0.203711 0.699428 0.523837
O O7 0.331154 0.000000 0.617391
O O8 0.558908 0.729709 0.143462
O O9 0.331670 0.723250 0.128402
O O10 0.514458 0.000000 0.190714
O O11 0.028137 0.500000 0.701619
O O12 0.849519 0.784179 0.636024
O O13 0.064186 0.782337 0.650291
O O14 0.188829 0.781040 0.810558
O O15 0.500000 0.786586 0.500000
O O16 0.333219 0.500000 0.444909
O O17 0.637340 0.500000 0.099471
O O18 0.500000 0.213993 0.000000
O O19 0.947320 0.500000 0.419036
O O20 0.000000 0.202443 0.500000
O O21 0.818976 0.000000 0.901698
O O22 0.000000 0.719070 0.000000
#
# Coordination Sequence:
#
# PCOD9145146 Si02
#       8
#     4   4   4   4   4   4   4   4
#     4   9  18  32  50  73  99 127 162 203 245 292
#     4   9  18  32  49  72 103 132 156 193 249 303
#     4   9  18  33  53  76 102 132 167 208 251 298
#     4   9  19  35  51  72 103 133 167 210 252 301
#     4  10  20  34  52  72  99 137 171 202 249 304
#     4  10  21  37  55  73  98 136 175 211 255 299
#     4  10  19  31  51  75  96 124 164 206 244 289
#     4   8  15  30  52  76 102 132 164 202 254 308
#
# _framework density 22.994966000000002
#
# number of rings (size 3 to 8) (size 9 to 14) (size 15 to 20)
#    0.000    2.750    0.000    3.000    0.000    4.750 
#    0.000    3.750    0.000    0.750    0.000    0.000 
#    0.000    0.000    0.000    0.000    0.000    0.000 
#
# Total GULP energy -178489.436279 kJ/mol
# GULP energy per Si atom -5577.794884 kJ/mol
# Density = 2.294263 g / cm^3
# Si number density = 22.994966 Si / 1000 Ang^3
#
#
#
# Elastic Constant Matrix: (Units=GPa)
#
#
# Indices 1 2 3 4 5 6 
#
# 1 107.5426 3.1649 53.5628 0.0000 -5.8888 0.0000
# 2 3.1649 70.5605 7.9587 0.0000 5.3676 0.0000
# 3 53.5628 7.9587 154.5187 0.0000 11.8795 0.0000
# 4 0.0000 0.0000 0.0000 9.7496 0.0000 -1.1990
# 5 -5.8888 5.3676 11.8795 0.0000 35.2794 0.0000
# 6 0.0000 0.0000 0.0000 -1.1990 0.0000 -11.0229
#
#
#
# Elastic Compliance Matrix: (Units=1/GPa)
#
#
# Indices 1 2 3 4 5 6 
#
# 1 0.011626 -0.000300 -0.004278 0.000000 0.003427 0.000000
# 2 -0.000300 0.014398 -0.000478 0.000000 -0.002080 0.000000
# 3 -0.004278 -0.000478 0.008242 0.000000 -0.003417 0.000000
# 4 0.000000 0.000000 0.000000 0.101214 0.000000 -0.011010
# 5 0.003427 -0.002080 -0.003417 0.000000 0.030384 0.000000
# 6 0.000000 0.000000 0.000000 -0.011010 0.000000 -0.089522
#
#
# Mechanical properties :
#
#
# Convention : Reuss Voigt Hill
#
# Bulk Modulus (GPa) = 41.39998 51.33275 46.36636
# Shear Modulus (GPa) = 52.90786 24.66356 38.78571
#
# Velocity S-wave (km/s) = 4.80192 3.27855 4.11141
# Velocity P-wave (km/s) = 6.98481 6.05837 6.53802
#
# Compressibility (1/GPa) = 0.02415460
#
# Stress axis : x y z
#
# Youngs Moduli (GPa) = 86.01550 69.45520 121.33066
#
# Poissons Ratio (x) = 0.02081 0.51905
# Poissons Ratio (y) = 0.02577 0.05798
# Poissons Ratio (z) = 0.36798 0.03319
#
# Static dielectric constant tensor:
#      x y z
#    x 1.922580 0.000000 0.063480 
#    y 0.000000 1.861490 0.000000 
#    z 0.063480 0.000000 1.901880 
# 
# From -- ./inp_files/83875.got.cif
#   From: 2010.05.17/outbox.cif.g08.bks.cpg/sg10_42_cif.got.tgz:83875.got - 2010.06.03 11:33:40.
