data_PCOD9145609
_publ_section_title
;
Structure prediction by ZEFSAII (Michael W. Deem and Ramdas Pophale) SiO2 
 PCOD9145609
Probable space group: P 2/M
;
_chemical_formula_sum "Si O2"
_cell_formula_units_Z 22
_cell_length_a 15.502141
_cell_length_b 14.003023
_cell_length_c 11.720672
_cell_angle_alpha 90.000000
_cell_angle_beta 27.226648
_cell_angle_gamma 90.000000
_cell_volume 1164.040394
_symmetry_space_group_name_H-M "P 2/M"
_symmetry_group_IT_number 10
_symmetry_cell_setting 'monoclinic'
loop_
_space_group_symop_operation_xyz
x,y,z
-x,y,-z
-x,-y,-z
x,-y,z
loop_
_atom_site_type_symbol
_atom_site_label
_atom_site_fract_x
_atom_site_fract_y
_atom_site_fract_z
Si Si1 0.900743 0.607283 0.787903
Si Si2 0.174351 0.230843 0.560006
Si Si3 0.787908 0.891527 0.701363
Si Si4 0.278973 0.602877 0.750573
Si Si5 0.429016 0.290453 0.958766
Si Si6 0.000000 0.758200 0.000000
O O1 0.968686 0.500000 0.677619
O O2 0.058645 0.688415 0.623784
O O3 0.804053 0.599953 0.025180
O O4 0.736610 0.644077 0.896672
O O5 0.205900 0.143555 0.436546
O O6 0.381422 0.276742 0.338825
O O7 0.057069 0.197938 0.810070
O O8 0.000000 0.886336 0.500000
O O9 0.720900 0.000000 0.791676
O O10 0.661544 0.814216 0.915436
O O11 0.500000 0.615598 0.500000
O O12 0.240295 0.500000 0.738881
O O13 0.176480 0.688839 0.811346
O O14 0.500000 0.323920 0.000000
#
# Coordination Sequence:
#
# PCOD9145609 Si02
#       6
#     4   4   4   4   4   2
#     4  10  20  34  50  75 115 153 183 223 267 312
#     4  10  21  36  56  84 113 144 184 223 270 325
#     4  10  20  39  65  83 102 136 179 230 279 327
#     4   9  17  29  48  71 100 144 193 227 255 300
#     4  10  21  35  56  82 109 139 189 230 266 321
#     4  10  19  32  51  78 112 144 172 220 270 316
#
# _framework density 18.899685999999999
#
# number of rings (size 3 to 8) (size 9 to 14) (size 15 to 20)
#    0.000    2.182    1.818    1.364    0.000    5.091 
#    0.000    6.818    0.000    0.000    0.000    2.545 
#    0.000    0.000    0.000    0.000    0.000    0.000 
#
# Total GULP energy -122610.802533 kJ/mol
# GULP energy per Si atom -5573.218297 kJ/mol
# Density = 1.885667 g / cm^3
# Si number density = 18.899686 Si / 1000 Ang^3
#
#
#
# Elastic Constant Matrix: (Units=GPa)
#
#
# Indices 1 2 3 4 5 6 
#
# 1 53.3354 17.5710 8.0364 0.0000 -6.3129 0.0000
# 2 17.5710 58.2837 -3.9193 0.0000 -5.9378 0.0000
# 3 8.0364 -3.9193 71.4893 0.0000 -2.6963 0.0000
# 4 0.0000 0.0000 0.0000 17.6575 0.0000 2.6546
# 5 -6.3129 -5.9378 -2.6963 0.0000 33.3360 0.0000
# 6 0.0000 0.0000 0.0000 2.6546 0.0000 22.0503
#
#
#
# Elastic Compliance Matrix: (Units=1/GPa)
#
#
# Indices 1 2 3 4 5 6 
#
# 1 0.021587 -0.006410 -0.002675 0.000000 0.002730 0.000000
# 2 -0.006410 0.019461 0.001878 0.000000 0.002404 0.000000
# 3 -0.002675 0.001878 0.014429 0.000000 0.000995 0.000000
# 4 0.000000 0.000000 0.000000 0.057677 0.000000 -0.006944
# 5 0.002730 0.002404 0.000995 0.000000 0.031023 0.000000
# 6 0.000000 0.000000 0.000000 -0.006944 0.000000 0.046187
#
#
# Mechanical properties :
#
#
# Convention : Reuss Voigt Hill
#
# Bulk Modulus (GPa) = 24.35216 25.16496 24.75856
# Shear Modulus (GPa) = 22.88686 25.37012 24.12849
#
# Velocity S-wave (km/s) = 3.48367 3.66779 3.57692
# Velocity P-wave (km/s) = 5.39390 5.59293 5.49432
#
# Compressibility (1/GPa) = 0.04106411
#
# Stress axis : x y z
#
# Youngs Moduli (GPa) = 46.32395 51.38462 69.30327
#
# Poissons Ratio (x) = 0.32936 0.18540
# Poissons Ratio (y) = 0.29692 -0.13016
# Poissons Ratio (z) = 0.12392 -0.09651
#
# Static dielectric constant tensor:
#      x y z
#    x 1.719170 0.000000 0.007320 
#    y 0.000000 1.681180 0.000000 
#    z 0.007320 0.000000 1.667830 
# 
# From -- ./inp_files/51344.got.cif
#   From: 2010.05.17/outbox.cif.g08.bks.cpg/sg10_26_cif.got.tgz:51344.got - 2010.06.03 11:33:40.
