data_PCOD9145413
_publ_section_title
;
Structure prediction by ZEFSAII (Michael W. Deem and Ramdas Pophale) SiO2 
 PCOD9145413
Probable space group: P 2/M
;
_chemical_formula_sum "Si O2"
_cell_formula_units_Z 28
_cell_length_a 9.958228
_cell_length_b 8.661087
_cell_length_c 32.715147
_cell_angle_alpha 90.000000
_cell_angle_beta 34.398107
_cell_angle_gamma 90.000000
_cell_volume 1594.062958
_symmetry_space_group_name_H-M "P 2/M"
_symmetry_group_IT_number 10
_symmetry_cell_setting 'monoclinic'
loop_
_space_group_symop_operation_xyz
x,y,z
-x,y,-z
-x,-y,-z
x,-y,z
loop_
_atom_site_type_symbol
_atom_site_label
_atom_site_fract_x
_atom_site_fract_y
_atom_site_fract_z
Si Si1 0.701867 0.685197 0.692819
Si Si2 0.951376 0.313795 0.945683
Si Si3 0.622731 0.312374 0.099486
Si Si4 0.745706 0.814460 0.298633
Si Si5 0.794523 0.186564 0.582801
Si Si6 0.175548 0.815269 0.812391
Si Si7 0.128685 0.686217 0.261324
O O1 0.688420 0.500000 0.695604
O O2 0.821050 0.745345 0.621420
O O3 0.433221 0.749736 0.760685
O O4 0.835215 0.733693 0.700697
O O5 0.949550 0.500000 0.943181
O O6 0.182557 0.269920 0.914976
O O7 0.983881 0.244855 0.892790
O O8 0.726012 0.263926 0.029588
O O9 0.619925 0.500000 0.099922
O O10 0.362380 0.258983 0.177673
O O11 0.468580 0.768068 0.366732
O O12 0.856981 0.767500 0.226722
O O13 0.894681 0.746100 0.298119
O O14 0.753209 0.000000 0.299029
O O15 0.000000 0.234505 0.500000
O O16 0.797443 0.000000 0.585194
O O17 0.186079 0.000000 0.811000
O O18 0.128160 0.500000 0.260509
#
# Coordination Sequence:
#
# PCOD9145413 Si02
#       7
#     4   4   4   4   4   4   4
#     4  10  19  32  54  80 103 131 170 210 248 296
#     4   9  15  28  50  71  95 130 173 220 260 293
#     4   8  15  28  47  71  99 131 168 214 259 298
#     4   9  20  35  51  73 101 134 168 203 249 302
#     4   9  19  38  60  80 104 133 166 204 245 295
#     4  10  19  32  49  72 102 134 174 217 254 301
#     4  10  19  33  51  75 104 134 169 209 254 302
#
# _framework density 17.565176999999998
#
# number of rings (size 3 to 8) (size 9 to 14) (size 15 to 20)
#    0.000    2.714    1.429    2.571    0.000    4.286 
#    0.000    3.571    0.000    8.571    0.000    0.000 
#    0.000    0.000    0.000    0.000    0.000    0.000 
#
# Total GULP energy -156083.702545 kJ/mol
# GULP energy per Si atom -5574.417948 kJ/mol
# Density = 1.752520 g / cm^3
# Si number density = 17.565177 Si / 1000 Ang^3
#
#
#
# Elastic Constant Matrix: (Units=GPa)
#
#
# Indices 1 2 3 4 5 6 
#
# 1 123.0683 24.2752 57.4152 0.0000 14.1100 0.0000
# 2 24.2752 15.7216 24.2920 0.0000 5.9157 0.0000
# 3 57.4152 24.2920 126.5596 0.0000 21.1469 0.0000
# 4 0.0000 0.0000 0.0000 35.9195 0.0000 8.4818
# 5 14.1100 5.9157 21.1469 0.0000 19.7557 0.0000
# 6 0.0000 0.0000 0.0000 8.4818 0.0000 26.8674
#
#
#
# Elastic Compliance Matrix: (Units=1/GPa)
#
#
# Indices 1 2 3 4 5 6 
#
# 1 0.012376 -0.014534 -0.002527 0.000000 -0.001782 0.000000
# 2 -0.014534 0.109265 -0.012965 0.000000 -0.008460 0.000000
# 3 -0.002527 -0.012965 0.012892 0.000000 -0.008113 0.000000
# 4 0.000000 0.000000 0.000000 0.030083 0.000000 -0.009497
# 5 -0.001782 -0.008460 -0.008113 0.000000 0.063108 0.000000
# 6 0.000000 0.000000 0.000000 -0.009497 0.000000 0.040218
#
#
# Mechanical properties :
#
#
# Convention : Reuss Voigt Hill
#
# Bulk Modulus (GPa) = 13.42645 53.03493 33.23069
# Shear Modulus (GPa) = 14.17155 27.13296 20.65226
#
# Velocity S-wave (km/s) = 2.84350 3.93453 3.43264
# Velocity P-wave (km/s) = 4.29430 7.13439 5.88815
#
# Compressibility (1/GPa) = 0.07447984
#
# Stress axis : x y z
#
# Youngs Moduli (GPa) = 80.80458 9.15210 77.56787
#
# Poissons Ratio (x) = 0.13301 0.19601
# Poissons Ratio (y) = 1.17439 1.00570
# Poissons Ratio (z) = 0.20419 0.11866
#
# Static dielectric constant tensor:
#      x y z
#    x 1.582130 0.000000 0.014600 
#    y 0.000000 1.598580 0.000000 
#    z 0.014600 0.000000 1.608970 
# 
# From -- ./inp_files/37958.got.cif
#   From: 2010.05.17/outbox.cif.g08.bks.cpg/sg10_19_cif.got.tgz:37958.got - 2010.06.03 11:33:40.
