data_PCOD9145517
_publ_section_title
;
Structure prediction by ZEFSAII (Michael W. Deem and Ramdas Pophale) SiO2 
 PCOD9145517
Probable space group: P 2/M
;
_chemical_formula_sum "Si O2"
_cell_formula_units_Z 32
_cell_length_a 24.114365
_cell_length_b 7.331669
_cell_length_c 24.550919
_cell_angle_alpha 90.000000
_cell_angle_beta 18.201691
_cell_angle_gamma 90.000000
_cell_volume 1355.832240
_symmetry_space_group_name_H-M "P 2/M"
_symmetry_group_IT_number 10
_symmetry_cell_setting 'monoclinic'
loop_
_space_group_symop_operation_xyz
x,y,z
-x,y,-z
-x,-y,-z
x,-y,z
loop_
_atom_site_type_symbol
_atom_site_label
_atom_site_fract_x
_atom_site_fract_y
_atom_site_fract_z
Si Si1 0.204557 0.221923 0.299536
Si Si2 0.288729 0.709817 0.694849
Si Si3 0.227387 0.776630 0.068294
Si Si4 0.252426 0.283481 0.847926
Si Si5 0.439275 0.778479 0.976052
Si Si6 0.463728 0.781387 0.750759
Si Si7 0.100772 0.278301 0.762901
Si Si8 0.842575 0.794174 0.414543
O O1 0.298423 0.274734 0.154706
O O2 0.000000 0.282587 0.500000
O O3 0.198042 0.000000 0.306348
O O4 0.358620 0.278292 0.198846
O O5 0.500000 0.706271 0.500000
O O6 0.221045 0.500000 0.757324
O O7 0.235815 0.792480 0.802479
O O8 0.227558 0.783374 0.693968
O O9 0.359978 0.722014 0.992390
O O10 0.025927 0.712334 0.264766
O O11 0.219804 0.000000 0.074572
O O12 0.306076 0.716590 0.936959
O O13 0.237026 0.500000 0.855799
O O14 0.427409 0.256751 0.721142
O O15 0.091723 0.221718 0.035469
O O16 0.442506 0.000000 0.973839
O O17 0.649248 0.708827 0.600940
O O18 0.528939 0.000000 0.251976
O O19 0.109991 0.500000 0.748541
O O20 0.135839 0.199679 0.671099
O O21 0.833037 0.000000 0.446009
#
# Coordination Sequence:
#
# PCOD9145517 Si02
#       8
#     4   4   4   4   4   4   4   4
#     4   8  13  21  34  55  83 112 147 191 231 267
#     4   9  17  29  46  69  94 117 146 189 237 286
#     4   9  17  30  44  60  88 122 160 199 230 274
#     4  10  19  32  51  72  93 120 154 192 238 289
#     4   8  14  23  36  55  80 115 153 189 230 269
#     4  10  20  33  49  68  92 125 161 196 236 280
#     4  10  19  32  51  72  93 120 154 192 238 289
#     4  10  20  33  49  68  92 125 161 196 236 280
#
# _framework density 23.601741000000001
#
# number of rings (size 3 to 8) (size 9 to 14) (size 15 to 20)
#    0.000    2.750    1.250    1.875    0.000    4.000 
#    0.000    5.625    0.000    3.750    0.000    0.000 
#    0.000    0.000    0.000    9.000    0.000   29.500 
#
# Total GULP energy -178567.912214 kJ/mol
# GULP energy per Si atom -5580.247257 kJ/mol
# Density = 2.354802 g / cm^3
# Si number density = 23.601741 Si / 1000 Ang^3
#
#
#
# Elastic Constant Matrix: (Units=GPa)
#
#
# Indices 1 2 3 4 5 6 
#
# 1 125.0594 -10.3890 21.1546 0.0000 -31.3915 0.0000
# 2 -10.3890 91.6535 -0.8513 0.0000 -1.1920 0.0000
# 3 21.1546 -0.8513 94.3756 0.0000 -34.6180 0.0000
# 4 0.0000 0.0000 0.0000 -4.8744 0.0000 0.9606
# 5 -31.3915 -1.1920 -34.6180 0.0000 34.1486 0.0000
# 6 0.0000 0.0000 0.0000 0.9606 0.0000 5.3979
#
#
#
# Elastic Compliance Matrix: (Units=1/GPa)
#
#
# Indices 1 2 3 4 5 6 
#
# 1 0.010782 0.001396 0.001989 0.000000 0.011976 0.000000
# 2 0.001396 0.011105 0.000637 0.000000 0.002317 0.000000
# 3 0.001989 0.000637 0.017249 0.000000 0.019336 0.000000
# 4 0.000000 0.000000 0.000000 -0.198204 0.000000 0.035273
# 5 0.011976 0.002317 0.019336 0.000000 0.059976 0.000000
# 6 0.000000 0.000000 0.000000 0.035273 0.000000 0.178981
#
#
# Mechanical properties :
#
#
# Convention : Reuss Voigt Hill
#
# Bulk Modulus (GPa) = 21.19523 36.76857 28.98190
# Shear Modulus (GPa) = 57.09632 27.01269 42.05450
#
# Velocity S-wave (km/s) = 4.92383 3.38675 4.22576
# Velocity P-wave (km/s) = 6.42848 5.55932 6.00963
#
# Compressibility (1/GPa) = 0.04718042
#
# Stress axis : x y z
#
# Youngs Moduli (GPa) = 92.74715 90.04955 57.97547
#
# Poissons Ratio (x) = -0.12574 -0.11531
# Poissons Ratio (y) = -0.12951 -0.03694
# Poissons Ratio (z) = -0.18446 -0.05737
#
# Static dielectric constant tensor:
#      x y z
#    x 1.892470 0.000000 -0.025260 
#    y 0.000000 1.958560 0.000000 
#    z -0.025260 0.000000 1.905440 
# 
# From -- ./inp_files/86251.got.cif
#   From: 2010.05.17/outbox.cif.g08.bks.cpg/sg10_44_cif.got.tgz:86251.got - 2010.06.03 11:33:40.
