data_PCOD9145239
_publ_section_title
;
Structure prediction by ZEFSAII (Michael W. Deem and Ramdas Pophale) SiO2 
 PCOD9145239
Probable space group: P 2/M
;
_chemical_formula_sum "Si O2"
_cell_formula_units_Z 26
_cell_length_a 5.058001
_cell_length_b 13.425925
_cell_length_c 23.502804
_cell_angle_alpha 90.000000
_cell_angle_beta 113.614139
_cell_angle_gamma 90.000000
_cell_volume 1462.390596
_symmetry_space_group_name_H-M "P 2/M"
_symmetry_group_IT_number 10
_symmetry_cell_setting 'monoclinic'
loop_
_space_group_symop_operation_xyz
x,y,z
-x,y,-z
-x,-y,-z
x,-y,z
loop_
_atom_site_type_symbol
_atom_site_label
_atom_site_fract_x
_atom_site_fract_y
_atom_site_fract_z
Si Si1 0.690003 0.379996 0.646520
Si Si2 0.004356 0.759074 0.763718
Si Si3 0.162494 0.817375 0.068663
Si Si4 0.043455 0.379838 0.567634
Si Si5 0.284244 0.302686 0.899033
Si Si6 0.542836 0.885647 0.794929
Si Si7 0.170590 0.500000 0.955283
O O1 0.723462 0.500000 0.658593
O O2 0.872771 0.315448 0.706409
O O3 0.353520 0.352907 0.620241
O O4 0.797579 0.356582 0.591922
O O5 0.753010 0.814287 0.777158
O O6 0.200632 0.698508 0.825766
O O7 0.221691 0.843136 0.759585
O O8 0.376533 0.726650 0.066304
O O9 0.365061 0.877497 0.130036
O O10 0.897702 0.781858 0.084807
O O11 0.000000 0.862892 0.000000
O O12 0.047594 0.500000 0.563389
O O13 0.000000 0.340524 0.500000
O O14 0.152859 0.401744 0.915546
O O15 0.570011 0.000000 0.779949
O O16 0.500000 0.500000 0.000000
O O17 0.000000 0.500000 0.000000
#
# Coordination Sequence:
#
# PCOD9145239 Si02
#       7
#     4   4   4   4   4   4   2
#     4  10  19  31  52  78 110 149 176 207 243 301
#     4  10  21  36  53  76 105 135 173 214 256 309
#     4  10  19  34  52  71  94 123 159 210 270 325
#     4   9  17  30  48  76 112 148 179 207 243 285
#     4  10  21  33  48  68  97 132 163 213 253 295
#     4  10  21  37  55  75 100 131 168 221 276 316
#     4  12  22  32  48  68  92 130 177 208 243 300
#
# _framework density 17.779107
#
# number of rings (size 3 to 8) (size 9 to 14) (size 15 to 20)
#    0.000    2.000    0.000    4.615    1.077    2.154 
#    0.000    0.000    0.000    5.538    0.000    0.000 
#    0.000   43.077    0.000    0.000    0.000    0.000 
#
# Total GULP energy -144855.309221 kJ/mol
# GULP energy per Si atom -5571.358047 kJ/mol
# Density = 1.773864 g / cm^3
# Si number density = 17.779107 Si / 1000 Ang^3
#
#
#
# Elastic Constant Matrix: (Units=GPa)
#
#
# Indices 1 2 3 4 5 6 
#
# 1 76.2195 -1.0735 -6.6781 0.0000 -2.6476 0.0000
# 2 -1.0735 49.3553 22.4580 0.0000 -5.0305 0.0000
# 3 -6.6781 22.4580 60.2482 0.0000 -2.1453 0.0000
# 4 0.0000 0.0000 0.0000 10.2684 0.0000 2.1715
# 5 -2.6476 -5.0305 -2.1453 0.0000 14.0052 0.0000
# 6 0.0000 0.0000 0.0000 2.1715 0.0000 15.4403
#
#
#
# Elastic Compliance Matrix: (Units=1/GPa)
#
#
# Indices 1 2 3 4 5 6 
#
# 1 0.013356 -0.000181 0.001645 0.000000 0.002712 0.000000
# 2 -0.000181 0.025192 -0.009140 0.000000 0.007614 0.000000
# 3 0.001645 -0.009140 0.020191 0.000000 0.000121 0.000000
# 4 0.000000 0.000000 0.000000 0.100371 0.000000 -0.014116
# 5 0.002712 0.007614 0.000121 0.000000 0.074668 0.000000
# 6 0.000000 0.000000 0.000000 -0.014116 0.000000 0.066751
#
#
# Mechanical properties :
#
#
# Convention : Reuss Voigt Hill
#
# Bulk Modulus (GPa) = 23.04868 23.91510 23.48189
# Shear Modulus (GPa) = 15.13570 19.35055 17.24313
#
# Velocity S-wave (km/s) = 2.92090 3.30265 3.11763
# Velocity P-wave (km/s) = 4.93636 5.29375 5.11817
#
# Compressibility (1/GPa) = 0.04338644
#
# Stress axis : x y z
#
# Youngs Moduli (GPa) = 74.87425 39.69490 49.52593
#
# Poissons Ratio (x) = 0.00720 -0.08145
# Poissons Ratio (y) = 0.01359 0.45265
# Poissons Ratio (z) = -0.12314 0.36279
#
# Static dielectric constant tensor:
#      x y z
#    x 1.618880 0.000000 0.001450 
#    y 0.000000 1.574000 0.000000 
#    z 0.001450 0.000000 1.617760 
# 
# From -- ./inp_files/81239.got.cif
#   From: 2010.05.17/outbox.cif.g08.bks.cpg/sg10_41_cif.got.tgz:81239.got - 2010.06.03 11:33:40.
