data_PCOD9145866
_publ_section_title
;
Structure prediction by ZEFSAII (Michael W. Deem and Ramdas Pophale) SiO2 
 PCOD9145866
Probable space group: P 2/M
;
_chemical_formula_sum "Si O2"
_cell_formula_units_Z 28
_cell_length_a 16.390293
_cell_length_b 9.009869
_cell_length_c 20.247672
_cell_angle_alpha 90.000000
_cell_angle_beta 28.084769
_cell_angle_gamma 90.000000
_cell_volume 1407.653833
_symmetry_space_group_name_H-M "P 2/M"
_symmetry_group_IT_number 10
_symmetry_cell_setting 'monoclinic'
loop_
_space_group_symop_operation_xyz
x,y,z
-x,y,-z
-x,-y,-z
x,-y,z
loop_
_atom_site_type_symbol
_atom_site_label
_atom_site_fract_x
_atom_site_fract_y
_atom_site_fract_z
Si Si1 0.664542 0.173591 0.525907
Si Si2 0.625162 0.670775 0.345883
Si Si3 0.742519 0.677286 0.972725
Si Si4 0.084645 0.825687 0.781397
Si Si5 0.389179 0.825137 0.210063
Si Si6 0.236601 0.673098 0.197641
Si Si7 0.160766 0.672943 0.475403
O O1 0.480294 0.233490 0.631903
O O2 0.800126 0.187120 0.368062
O O3 0.734377 0.272600 0.535500
O O4 0.655695 0.000000 0.550701
O O5 0.500000 0.669997 0.500000
O O6 0.647696 0.500000 0.308996
O O7 0.803586 0.744335 0.242127
O O8 0.744464 0.500000 0.979434
O O9 0.765841 0.711207 0.877839
O O10 0.900549 0.750307 0.899140
O O11 0.555930 0.744928 0.122437
O O12 0.066040 0.000000 0.809042
O O13 0.358679 0.768693 0.157440
O O14 0.224217 0.772183 0.369755
O O15 0.411390 0.000000 0.196105
O O16 0.287376 0.500000 0.167769
O O17 0.041026 0.688773 0.363747
O O18 0.194732 0.500000 0.436273
#
# Coordination Sequence:
#
# PCOD9145866 Si02
#       7
#     4   4   4   4   4   4   4
#     4  10  19  32  53  83 117 148 184 233 287 334
#     4   9  17  29  49  78 113 150 189 230 275 330
#     4  11  22  39  61  84 113 151 193 235 282 340
#     4  10  19  32  53  83 117 148 184 233 287 334
#     4  12  26  40  56  83 116 151 190 236 290 340
#     4  10  22  40  62  85 110 145 192 240 285 338
#     4  11  22  39  61  84 113 151 193 235 282 340
#
# _framework density 19.891254
#
# number of rings (size 3 to 8) (size 9 to 14) (size 15 to 20)
#    0.000    1.571    1.429    4.286    0.000    8.571 
#    0.000    0.000    0.000    0.857    0.000    6.000 
#    0.000    0.000    0.000    0.000    0.000    0.000 
#
# Total GULP energy -156550.546982 kJ/mol
# GULP energy per Si atom -5591.090964 kJ/mol
# Density = 1.984598 g / cm^3
# Si number density = 19.891254 Si / 1000 Ang^3
#
#
#
# Elastic Constant Matrix: (Units=GPa)
#
#
# Indices 1 2 3 4 5 6 
#
# 1 55.8522 17.9898 12.2370 0.0000 -34.9525 0.0000
# 2 17.9898 68.3877 24.1137 0.0000 -26.5989 0.0000
# 3 12.2370 24.1137 60.7447 0.0000 -20.2103 0.0000
# 4 0.0000 0.0000 0.0000 48.0412 0.0000 41.6901
# 5 -34.9525 -26.5989 -20.2103 0.0000 33.8926 0.0000
# 6 0.0000 0.0000 0.0000 41.6901 0.0000 121.8743
#
#
#
# Elastic Compliance Matrix: (Units=1/GPa)
#
#
# Indices 1 2 3 4 5 6 
#
# 1 0.059157 0.010240 0.008719 0.000000 0.074243 0.000000
# 2 0.010240 0.023458 -0.002166 0.000000 0.027679 0.000000
# 3 0.008719 -0.002166 0.022445 0.000000 0.020676 0.000000
# 4 0.000000 0.000000 0.000000 0.029603 0.000000 -0.010127
# 5 0.074243 0.027679 0.020676 0.000000 0.140121 0.000000
# 6 0.000000 0.000000 0.000000 -0.010127 0.000000 0.011669
#
#
# Mechanical properties :
#
#
# Convention : Reuss Voigt Hill
#
# Bulk Modulus (GPa) = 7.21258 32.62951 19.92104
# Shear Modulus (GPa) = 16.71779 49.47121 33.09450
#
# Velocity S-wave (km/s) = 2.90221 4.99248 4.08336
# Velocity P-wave (km/s) = 3.85543 7.04788 5.68054
#
# Compressibility (1/GPa) = 0.13864665
#
# Stress axis : x y z
#
# Youngs Moduli (GPa) = 16.90408 42.62952 44.55384
#
# Poissons Ratio (x) = -0.43654 -0.38847
# Poissons Ratio (y) = -0.17310 0.09650
# Poissons Ratio (z) = -0.14739 0.09234
#
# Static dielectric constant tensor:
#      x y z
#    x 1.691710 0.000000 0.021260 
#    y 0.000000 1.659220 0.000000 
#    z 0.021260 0.000000 1.705670 
# 
# From -- ./inp_files/70279.got.cif
#   From: 2010.05.17/outbox.cif.g08.bks.cpg/sg10_36_cif.got.tgz:70279.got - 2010.06.03 11:33:40.
