data_PCOD9145221
_publ_section_title
;
Structure prediction by ZEFSAII (Michael W. Deem and Ramdas Pophale) SiO2 
 PCOD9145221
Probable space group: P 2/M
;
_chemical_formula_sum "Si O2"
_cell_formula_units_Z 32
_cell_length_a 12.532681
_cell_length_b 8.341241
_cell_length_c 31.889152
_cell_angle_alpha 90.000000
_cell_angle_beta 151.547658
_cell_angle_gamma 90.000000
_cell_volume 1588.234196
_symmetry_space_group_name_H-M "P 2/M"
_symmetry_group_IT_number 10
_symmetry_cell_setting 'monoclinic'
loop_
_space_group_symop_operation_xyz
x,y,z
-x,y,-z
-x,-y,-z
x,-y,z
loop_
_atom_site_type_symbol
_atom_site_label
_atom_site_fract_x
_atom_site_fract_y
_atom_site_fract_z
Si Si1 0.753747 0.310833 0.692874
Si Si2 0.373421 0.693732 0.498634
Si Si3 0.824270 0.189964 0.210120
Si Si4 0.625953 0.313245 0.975316
Si Si5 0.134123 0.193228 0.679850
Si Si6 0.907740 0.188203 0.834093
Si Si7 0.464839 0.816725 0.230870
Si Si8 0.262508 0.320959 0.083010
O O1 0.740119 0.500000 0.697638
O O2 0.527425 0.259212 0.591200
O O3 0.808747 0.216781 0.754054
O O4 0.959450 0.280655 0.732369
O O5 0.500000 0.747807 0.500000
O O6 0.365813 0.500000 0.494897
O O7 0.122541 0.757506 0.413530
O O8 0.611770 0.223608 0.106625
O O9 0.786915 0.243087 0.245769
O O10 0.867868 0.000000 0.225516
O O11 0.582504 0.500000 0.968368
O O12 0.700122 0.290085 0.952682
O O13 0.843107 0.260879 0.076419
O O14 0.291524 0.255193 0.696179
O O15 0.150464 0.000000 0.684462
O O16 0.722786 0.256712 0.803175
O O17 0.933891 0.000000 0.852353
O O18 0.359583 0.808718 0.148065
O O19 0.496206 0.000000 0.256115
O O20 0.352964 0.500000 0.124433
O O21 0.000000 0.325295 0.000000
#
# Coordination Sequence:
#
# PCOD9145221 Si02
#       8
#     4   4   4   4   4   4   4   4
#     4  11  24  43  64  86 118 155 197 246 299 359
#     4  10  21  39  64  92 119 149 190 242 301 359
#     4  11  22  37  60  91 124 155 195 244 297 354
#     4  11  22  36  57  87 123 161 202 245 295 347
#     4  10  21  36  59  93 125 152 189 242 300 353
#     4  11  24  41  61  84 118 164 208 245 288 348
#     4  10  21  37  57  85 121 159 198 243 294 346
#     4  10  19  31  51  82 116 152 198 245 287 340
#
# _framework density 20.148161000000002
#
# number of rings (size 3 to 8) (size 9 to 14) (size 15 to 20)
#    0.000    1.500    3.750    1.500    0.000    4.000 
#    0.000    3.125    0.000    3.750    0.000    0.000 
#    0.000    0.000    0.000    0.000    0.000    0.000 
#
# Total GULP energy -178553.328596 kJ/mol
# GULP energy per Si atom -5579.791519 kJ/mol
# Density = 2.010230 g / cm^3
# Si number density = 20.148161 Si / 1000 Ang^3
#
#
#
# Elastic Constant Matrix: (Units=GPa)
#
#
# Indices 1 2 3 4 5 6 
#
# 1 32.2864 -4.4695 18.4965 0.0000 4.5877 0.0000
# 2 -4.4695 10.9646 4.3279 0.0000 -2.6304 0.0000
# 3 18.4965 4.3279 126.2241 0.0000 11.0937 0.0000
# 4 0.0000 0.0000 0.0000 33.5185 0.0000 8.5132
# 5 4.5877 -2.6304 11.0937 0.0000 29.2092 0.0000
# 6 0.0000 0.0000 0.0000 8.5132 0.0000 32.7019
#
#
#
# Elastic Compliance Matrix: (Units=1/GPa)
#
#
# Indices 1 2 3 4 5 6 
#
# 1 0.036926 0.016846 -0.005806 0.000000 -0.002078 0.000000
# 2 0.016846 0.102967 -0.006809 0.000000 0.009213 0.000000
# 3 -0.005806 -0.006809 0.009291 0.000000 -0.003230 0.000000
# 4 0.000000 0.000000 0.000000 0.031947 0.000000 -0.008317
# 5 -0.002078 0.009213 -0.003230 0.000000 0.036618 0.000000
# 6 0.000000 0.000000 0.000000 -0.008317 0.000000 0.032744
#
#
# Mechanical properties :
#
#
# Convention : Reuss Voigt Hill
#
# Bulk Modulus (GPa) = 6.34335 22.90944 14.62639
# Shear Modulus (GPa) = 16.97331 29.16059 23.06695
#
# Velocity S-wave (km/s) = 2.90560 3.80848 3.38726
# Velocity P-wave (km/s) = 3.79630 5.54387 4.75113
#
# Compressibility (1/GPa) = 0.15764550
#
# Stress axis : x y z
#
# Youngs Moduli (GPa) = 27.08107 9.71184 107.63644
#
# Poissons Ratio (x) = -0.16360 0.62494
# Poissons Ratio (y) = -0.45620 0.73286
# Poissons Ratio (z) = 0.15723 0.06612
#
# Static dielectric constant tensor:
#      x y z
#    x 1.740760 0.000000 0.025730 
#    y 0.000000 1.723640 0.000000 
#    z 0.025730 0.000000 1.711130 
# 
# From -- ./inp_files/95103.got.cif
#   From: 2010.05.17/outbox.cif.g08.bks.cpg/sg10_48_cif.got.tgz:95103.got - 2010.06.03 11:33:40.
