data_PCOD9145564
_publ_section_title
;
Structure prediction by ZEFSAII (Michael W. Deem and Ramdas Pophale) SiO2 
 PCOD9145564
Probable space group: P 2/M
;
_chemical_formula_sum "Si O2"
_cell_formula_units_Z 32
_cell_length_a 19.890602
_cell_length_b 7.377016
_cell_length_c 19.955304
_cell_angle_alpha 90.000000
_cell_angle_beta 151.593573
_cell_angle_gamma 90.000000
_cell_volume 1392.967677
_symmetry_space_group_name_H-M "P 2/M"
_symmetry_group_IT_number 10
_symmetry_cell_setting 'monoclinic'
loop_
_space_group_symop_operation_xyz
x,y,z
-x,y,-z
-x,-y,-z
x,-y,z
loop_
_atom_site_type_symbol
_atom_site_label
_atom_site_fract_x
_atom_site_fract_y
_atom_site_fract_z
Si Si1 0.057621 0.721243 0.623682
Si Si2 0.374930 0.721361 0.941143
Si Si3 0.529606 0.779142 0.600551
Si Si4 0.978316 0.778577 0.904564
Si Si5 0.271245 0.217609 0.113659
Si Si6 0.488546 0.714437 0.184176
Si Si7 0.196078 0.711552 0.506260
Si Si8 0.234970 0.218151 0.390860
O O1 0.062574 0.500000 0.629651
O O2 0.217681 0.780594 0.780956
O O3 0.000000 0.772818 0.500000
O O4 0.938322 0.785182 0.571504
O O5 0.371434 0.500000 0.938176
O O6 0.500000 0.774690 0.000000
O O7 0.420087 0.783164 0.055090
O O8 0.500000 0.715350 0.500000
O O9 0.666652 0.719821 0.760449
O O10 0.397322 0.725590 0.530121
O O11 0.535136 0.000000 0.601990
O O12 0.840507 0.720060 0.743262
O O13 0.973730 0.000000 0.903673
O O14 0.109561 0.723564 0.972422
O O15 0.000000 0.718143 0.000000
O O16 0.376682 0.264521 0.146336
O O17 0.269214 0.000000 0.113130
O O18 0.506525 0.500000 0.190631
O O19 0.646490 0.787239 0.339224
O O20 0.202236 0.500000 0.529995
O O21 0.170684 0.724142 0.404655
O O22 0.231647 0.000000 0.387162
#
# Coordination Sequence:
#
# PCOD9145564 Si02
#       8
#     4   4   4   4   4   4   4   4
#     4   9  17  30  50  75 101 131 168 207 245 288
#     4   9  17  30  50  75 101 131 168 207 245 288
#     4   9  16  28  49  73  94 123 168 212 245 285
#     4   9  18  32  51  75 100 127 166 216 259 295
#     4  10  19  32  51  75 101 131 167 208 253 299
#     4  10  20  33  50  74 105 136 165 204 251 297
#     4  10  20  33  50  74 105 136 165 204 251 297
#     4  10  19  32  51  75 101 131 167 208 253 299
#
# _framework density 22.972536999999999
#
# number of rings (size 3 to 8) (size 9 to 14) (size 15 to 20)
#    0.000    2.500    1.250    1.500    1.750    6.000 
#    0.000    0.000    0.000    5.250    0.000    0.000 
#    0.000    0.000    0.000    0.000    0.000    0.000 
#
# Total GULP energy -178672.483630 kJ/mol
# GULP energy per Si atom -5583.515113 kJ/mol
# Density = 2.292025 g / cm^3
# Si number density = 22.972537 Si / 1000 Ang^3
#
#
#
# Elastic Constant Matrix: (Units=GPa)
#
#
# Indices 1 2 3 4 5 6 
#
# 1 120.4142 -6.6099 38.4426 0.0000 -3.7037 0.0000
# 2 -6.6099 78.2161 4.1384 0.0000 3.0899 0.0000
# 3 38.4426 4.1384 131.5976 0.0000 -0.2160 0.0000
# 4 0.0000 0.0000 0.0000 5.9897 0.0000 2.6994
# 5 -3.7037 3.0899 -0.2160 0.0000 39.0443 0.0000
# 6 0.0000 0.0000 0.0000 2.6994 0.0000 15.8099
#
#
#
# Elastic Compliance Matrix: (Units=1/GPa)
#
#
# Indices 1 2 3 4 5 6 
#
# 1 0.009249 0.000895 -0.002729 0.000000 0.000791 0.000000
# 2 0.000895 0.012933 -0.000670 0.000000 -0.000942 0.000000
# 3 -0.002729 -0.000670 0.008417 0.000000 -0.000159 0.000000
# 4 0.000000 0.000000 0.000000 0.180870 0.000000 -0.030882
# 5 0.000791 -0.000942 -0.000159 0.000000 0.025761 0.000000
# 6 0.000000 0.000000 0.000000 -0.030882 0.000000 0.068524
#
#
# Mechanical properties :
#
#
# Convention : Reuss Voigt Hill
#
# Bulk Modulus (GPa) = 39.07439 44.68556 41.87998
# Shear Modulus (GPa) = 15.65964 31.78592 23.72278
#
# Velocity S-wave (km/s) = 2.61371 3.72378 3.21699
# Velocity P-wave (km/s) = 5.11417 6.16301 5.66292
#
# Compressibility (1/GPa) = 0.02559221
#
# Stress axis : x y z
#
# Youngs Moduli (GPa) = 108.11637 77.31936 118.80928
#
# Poissons Ratio (x) = -0.06918 0.32420
# Poissons Ratio (y) = -0.09674 0.07956
# Poissons Ratio (z) = 0.29502 0.05178
#
# Static dielectric constant tensor:
#      x y z
#    x 1.820240 0.000000 0.007690 
#    y 0.000000 1.911100 0.000000 
#    z 0.007690 0.000000 1.816820 
# 
# From -- ./inp_files/78950.got.cif
#   From: 2010.05.17/outbox.cif.g08.bks.cpg/sg10_40_cif.got.tgz:78950.got - 2010.06.03 11:33:40.
