data_PCOD9145120
_publ_section_title
;
Structure prediction by ZEFSAII (Michael W. Deem and Ramdas Pophale) SiO2 
 PCOD9145120
Probable space group: P 2/M
;
_chemical_formula_sum "Si O2"
_cell_formula_units_Z 30
_cell_length_a 28.762378
_cell_length_b 10.516669
_cell_length_c 5.384638
_cell_angle_alpha 90.000000
_cell_angle_beta 96.499162
_cell_angle_gamma 90.000000
_cell_volume 1618.301778
_symmetry_space_group_name_H-M "P 2/M"
_symmetry_group_IT_number 10
_symmetry_cell_setting 'monoclinic'
loop_
_space_group_symop_operation_xyz
x,y,z
-x,y,-z
-x,-y,-z
x,-y,z
loop_
_atom_site_type_symbol
_atom_site_label
_atom_site_fract_x
_atom_site_fract_y
_atom_site_fract_z
Si Si1 0.969020 0.353681 0.731335
Si Si2 0.500000 0.775750 0.500000
Si Si3 0.884714 0.154456 0.670471
Si Si4 0.327465 0.150642 0.388978
Si Si5 0.827761 0.152956 0.134507
Si Si6 0.447414 0.639603 0.087247
Si Si7 0.418572 0.861244 0.745801
Si Si8 0.279011 0.156049 0.862315
O O1 0.950070 0.500000 0.720328
O O2 0.930327 0.243087 0.706827
O O3 0.000000 0.341272 0.500000
O O4 0.000000 0.340833 0.000000
O O5 0.460206 0.683985 0.369179
O O6 0.471751 0.859542 0.677521
O O7 0.853530 0.187093 0.893944
O O8 0.894009 0.000000 0.680088
O O9 0.857006 0.184825 0.399233
O O10 0.381338 0.159773 0.504249
O O11 0.311282 0.199671 0.112075
O O12 0.317444 0.000000 0.371019
O O13 0.298092 0.200523 0.607241
O O14 0.774242 0.197497 0.121984
O O15 0.825063 0.000000 0.129545
O O16 0.427096 0.500000 0.058792
O O17 0.500000 0.636649 0.000000
O O18 0.417479 0.746891 0.937074
O O19 0.407751 0.000000 0.851130
O O20 0.280039 0.000000 0.855170
#
# Coordination Sequence:
#
# PCOD9145120 Si02
#       8
#     4   2   4   4   4   4   4   4
#     4  10  21  36  52  72 104 145 184 218 253 303
#     4  10  20  32  52  72 100 132 168 212 258 304
#     4  10  19  31  50  78 106 133 172 220 265 310
#     4   9  18  29  46  71 103 135 168 204 251 316
#     4   9  17  29  48  75 106 133 166 215 269 314
#     4   9  19  35  52  70  93 125 167 207 245 298
#     4  10  21  33  49  75 104 133 165 210 262 311
#     4   9  16  29  47  70 102 137 165 204 260 313
#
# _framework density 18.537951
#
# number of rings (size 3 to 8) (size 9 to 14) (size 15 to 20)
#    0.000    2.533    0.000    2.000    1.867    7.200 
#    0.000    0.000    0.000    0.000    0.000    5.600 
#    0.000    0.000    0.000    0.000    0.000    0.000 
#
# Total GULP energy -167119.789056 kJ/mol
# GULP energy per Si atom -5570.659635 kJ/mol
# Density = 1.849576 g / cm^3
# Si number density = 18.537951 Si / 1000 Ang^3
#
#
#
# Elastic Constant Matrix: (Units=GPa)
#
#
# Indices 1 2 3 4 5 6 
#
# 1 76.0878 29.3615 25.2601 0.0000 -4.8857 0.0000
# 2 29.3615 81.3753 29.7065 0.0000 10.2432 0.0000
# 3 25.2601 29.7065 102.8125 0.0000 0.7168 0.0000
# 4 0.0000 0.0000 0.0000 8.1632 0.0000 -1.9122
# 5 -4.8857 10.2432 0.7168 0.0000 28.7254 0.0000
# 6 0.0000 0.0000 0.0000 -1.9122 0.0000 -0.6585
#
#
#
# Elastic Compliance Matrix: (Units=1/GPa)
#
#
# Indices 1 2 3 4 5 6 
#
# 1 0.016449 -0.005658 -0.002441 0.000000 0.004876 0.000000
# 2 -0.005658 0.016379 -0.003296 0.000000 -0.006721 0.000000
# 3 -0.002441 -0.003296 0.011275 0.000000 0.000479 0.000000
# 4 0.000000 0.000000 0.000000 0.072907 0.000000 -0.211717
# 5 0.004876 -0.006721 0.000479 0.000000 0.038026 0.000000
# 6 0.000000 0.000000 0.000000 -0.211717 0.000000 -0.903823
#
#
# Mechanical properties :
#
#
# Convention : Reuss Voigt Hill
#
# Bulk Modulus (GPa) = 46.91507 47.65907 47.28707
# Shear Modulus (GPa) = -6.95515 18.97585 6.01035
#
# Velocity S-wave (km/s) = -1.93907 3.20288 1.80256
# Velocity P-wave (km/s) = 4.51101 6.28034 5.46772
#
# Compressibility (1/GPa) = 0.02131511
#
# Stress axis : x y z
#
# Youngs Moduli (GPa) = 60.79228 61.05255 88.69186
#
# Poissons Ratio (x) = 0.34544 0.21647
# Poissons Ratio (y) = 0.34397 0.29230
# Poissons Ratio (z) = 0.14837 0.20121
#
# Static dielectric constant tensor:
#      x y z
#    x 1.657700 0.000000 -0.028970 
#    y 0.000000 1.621220 0.000000 
#    z -0.028970 0.000000 1.692050 
# 
# From -- ./inp_files/13461.got.cif
#   From: 2010.05.17/outbox.cif.g08.bks.cpg/sg10_7_cif.got.tgz:13461.got - 2010.06.03 11:33:40.
