data_PCOD9145562
_publ_section_title
;
Structure prediction by ZEFSAII (Michael W. Deem and Ramdas Pophale) SiO2 
 PCOD9145562
Probable space group: P 2/M
;
_chemical_formula_sum "Si O2"
_cell_formula_units_Z 32
_cell_length_a 27.672723
_cell_length_b 7.625225
_cell_length_c 22.110144
_cell_angle_alpha 90.000000
_cell_angle_beta 159.817034
_cell_angle_gamma 90.000000
_cell_volume 1609.679290
_symmetry_space_group_name_H-M "P 2/M"
_symmetry_group_IT_number 10
_symmetry_cell_setting 'monoclinic'
loop_
_space_group_symop_operation_xyz
x,y,z
-x,y,-z
-x,-y,-z
x,-y,z
loop_
_atom_site_type_symbol
_atom_site_label
_atom_site_fract_x
_atom_site_fract_y
_atom_site_fract_z
Si Si1 0.303959 0.205757 0.487950
Si Si2 0.708089 0.788775 0.780805
Si Si3 0.906952 0.290635 0.581504
Si Si4 0.075641 0.295832 0.530553
Si Si5 0.414474 0.214746 0.489935
Si Si6 0.992838 0.293216 0.812064
Si Si7 0.393155 0.787582 0.927999
Si Si8 0.602477 0.211937 0.272998
O O1 0.355729 0.278774 0.484888
O O2 0.375303 0.279528 0.632741
O O3 0.137239 0.219151 0.302530
O O4 0.339657 0.000000 0.528686
O O5 0.677238 0.729752 0.675852
O O6 0.574535 0.732157 0.664038
O O7 0.705681 0.000000 0.777320
O O8 0.856962 0.735097 0.981910
O O9 0.928661 0.500000 0.604648
O O10 0.949651 0.218397 0.566096
O O11 0.742150 0.259305 0.399721
O O12 0.982470 0.222543 0.730954
O O13 0.031474 0.500000 0.475644
O O14 0.241050 0.287378 0.737098
O O15 0.000000 0.215094 0.500000
O O16 0.411532 0.000000 0.486670
O O17 0.966025 0.500000 0.777159
O O18 0.381098 0.000000 0.913880
O O19 0.500000 0.739958 0.000000
O O20 0.465947 0.730431 0.076073
O O21 0.599037 0.000000 0.271082
#
# Coordination Sequence:
#
# PCOD9145562 Si02
#       8
#     4   4   4   4   4   4   4   4
#     4   9  17  32  53  74  97 128 165 203 241 283
#     4   9  17  33  54  74  97 129 166 199 237 288
#     4   9  18  33  51  68  95 131 164 199 240 284
#     4  10  21  36  52  71  96 129 169 206 238 283
#     4   8  16  32  54  75  97 126 163 206 241 277
#     4  10  20  33  49  73 102 130 161 199 243 290
#     4  10  19  32  51  75 101 127 158 200 247 293
#     4   9  17  30  50  74  99 125 159 201 244 290
#
# _framework density 19.879736000000001
#
# number of rings (size 3 to 8) (size 9 to 14) (size 15 to 20)
#    0.000    2.750    1.250    1.125    0.000    2.000 
#    2.250    5.000    0.000    0.000    0.000    0.000 
#    0.000    0.000    0.000    0.000    0.000    0.000 
#
# Total GULP energy -178441.178473 kJ/mol
# GULP energy per Si atom -5576.286827 kJ/mol
# Density = 1.983449 g / cm^3
# Si number density = 19.879736 Si / 1000 Ang^3
#
#
#
# Elastic Constant Matrix: (Units=GPa)
#
#
# Indices 1 2 3 4 5 6 
#
# 1 193.0793 7.1577 51.8753 0.0000 -15.4801 0.0000
# 2 7.1577 38.0659 -8.0206 0.0000 -2.6105 0.0000
# 3 51.8753 -8.0206 76.9541 0.0000 -17.2202 0.0000
# 4 0.0000 0.0000 0.0000 -9.8517 0.0000 -2.3096
# 5 -15.4801 -2.6105 -17.2202 0.0000 18.1766 0.0000
# 6 0.0000 0.0000 0.0000 -2.3096 0.0000 9.2966
#
#
#
# Elastic Compliance Matrix: (Units=1/GPa)
#
#
# Indices 1 2 3 4 5 6 
#
# 1 0.006516 -0.002066 -0.004356 0.000000 0.001126 0.000000
# 2 -0.002066 0.028529 0.006205 0.000000 0.008216 0.000000
# 3 -0.004356 0.006205 0.020237 0.000000 0.016354 0.000000
# 4 0.000000 0.000000 0.000000 -0.095919 0.000000 -0.023830
# 5 0.001126 0.008216 0.016354 0.000000 0.072648 0.000000
# 6 0.000000 0.000000 0.000000 -0.023830 0.000000 0.101645
#
#
# Mechanical properties :
#
#
# Convention : Reuss Voigt Hill
#
# Bulk Modulus (GPa) = 18.23199 45.56935 31.90067
# Shear Modulus (GPa) = 32.81353 20.66343 26.73848
#
# Velocity S-wave (km/s) = 4.06717 3.22750 3.67142
# Velocity P-wave (km/s) = 5.58989 6.07135 5.83559
#
# Compressibility (1/GPa) = 0.05484865
#
# Stress axis : x y z
#
# Youngs Moduli (GPa) = 153.45738 35.05150 49.41325
#
# Poissons Ratio (x) = 0.07241 0.21525
# Poissons Ratio (y) = 0.31703 -0.30659
# Poissons Ratio (z) = 0.66848 -0.21748
#
# Static dielectric constant tensor:
#      x y z
#    x 1.725570 0.000000 -0.040180 
#    y 0.000000 1.748140 0.000000 
#    z -0.040180 0.000000 1.666950 
# 
# From -- ./inp_files/87037.got.cif
#   From: 2010.05.17/outbox.cif.g08.bks.cpg/sg10_44_cif.got.tgz:87037.got - 2010.06.03 11:33:40.
