data_PCOD9145433
_publ_section_title
;
Structure prediction by ZEFSAII (Michael W. Deem and Ramdas Pophale) SiO2 
 PCOD9145433
Probable space group: P 2/M
;
_chemical_formula_sum "Si O2"
_cell_formula_units_Z 28
_cell_length_a 11.362422
_cell_length_b 7.868540
_cell_length_c 20.917148
_cell_angle_alpha 90.000000
_cell_angle_beta 128.826744
_cell_angle_gamma 90.000000
_cell_volume 1456.901896
_symmetry_space_group_name_H-M "P 2/M"
_symmetry_group_IT_number 10
_symmetry_cell_setting 'monoclinic'
loop_
_space_group_symop_operation_xyz
x,y,z
-x,y,-z
-x,-y,-z
x,-y,z
loop_
_atom_site_type_symbol
_atom_site_label
_atom_site_fract_x
_atom_site_fract_y
_atom_site_fract_z
Si Si1 0.050698 0.687562 0.608868
Si Si2 0.225896 0.193006 0.548685
Si Si3 0.043566 0.207642 0.942395
Si Si4 0.474335 0.791560 0.417767
Si Si5 0.837911 0.793206 0.752404
Si Si6 0.879877 0.203954 0.233846
Si Si7 0.672607 0.207211 0.046365
O O1 0.985888 0.500000 0.589112
O O2 0.158568 0.706650 0.585050
O O3 0.140525 0.724923 0.703234
O O4 0.907120 0.807774 0.549353
O O5 0.378612 0.260992 0.571504
O O6 0.250716 0.000000 0.579075
O O7 0.210301 0.259465 0.971138
O O8 0.915513 0.260177 0.846275
O O9 0.044741 0.000000 0.942833
O O10 0.000000 0.261395 0.000000
O O11 0.500000 0.737165 0.500000
O O12 0.324848 0.735363 0.328541
O O13 0.470578 0.000000 0.417992
O O14 0.957624 0.745530 0.738501
O O15 0.832552 0.000000 0.753868
O O16 0.759703 0.256962 0.140443
O O17 0.875810 0.000000 0.235752
O O18 0.667408 0.000000 0.040174
O O19 0.500000 0.264527 0.000000
#
# Coordination Sequence:
#
# PCOD9145433 Si02
#       7
#     4   4   4   4   4   4   4
#     4  11  21  33  48  66  93 126 160 195 234 276
#     4  10  19  32  50  70  94 121 155 193 234 282
#     4   8  13  22  36  57  91 130 153 177 234 296
#     4   9  16  26  43  68  94 118 149 191 232 271
#     4   8  14  25  42  66  94 121 153 190 230 281
#     4   9  16  29  50  70  93 125 158 191 233 282
#     4   8  14  25  41  66  97 122 151 195 240 282
#
# _framework density 19.218865999999998
#
# number of rings (size 3 to 8) (size 9 to 14) (size 15 to 20)
#    0.000    3.000    0.000    5.143    0.000    2.286 
#    2.571    0.000    0.000    8.143    0.000    0.000 
#    0.000    2.857    0.000    0.000    0.000    0.000 
#
# Total GULP energy -155898.113775 kJ/mol
# GULP energy per Si atom -5567.789778 kJ/mol
# Density = 1.917512 g / cm^3
# Si number density = 19.218866 Si / 1000 Ang^3
#
#
#
# Elastic Constant Matrix: (Units=GPa)
#
#
# Indices 1 2 3 4 5 6 
#
# 1 137.3025 8.5049 96.4054 0.0000 20.0933 0.0000
# 2 8.5049 20.8834 7.9895 0.0000 -0.9768 0.0000
# 3 96.4054 7.9895 114.5063 0.0000 1.1695 0.0000
# 4 0.0000 0.0000 0.0000 -20.8960 0.0000 30.8814
# 5 20.0933 -0.9768 1.1695 0.0000 35.7133 0.0000
# 6 0.0000 0.0000 0.0000 30.8814 0.0000 -89.8488
#
#
#
# Elastic Compliance Matrix: (Units=1/GPa)
#
#
# Indices 1 2 3 4 5 6 
#
# 1 0.021912 -0.002532 -0.018151 0.000000 -0.011803 0.000000
# 2 -0.002532 0.049567 -0.001356 0.000000 0.002824 0.000000
# 3 -0.018151 -0.001356 0.024013 0.000000 0.009389 0.000000
# 4 0.000000 0.000000 0.000000 -0.097258 0.000000 -0.033428
# 5 -0.011803 0.002824 0.009389 0.000000 0.034411 0.000000
# 6 0.000000 0.000000 0.000000 -0.033428 0.000000 -0.022619
#
#
# Mechanical properties :
#
#
# Convention : Reuss Voigt Hill
#
# Bulk Modulus (GPa) = 19.44947 55.38798 37.41873
# Shear Modulus (GPa) = 70.18494 -4.35347 32.91574
#
# Velocity S-wave (km/s) = 6.04963 -1.50669 4.14294
# Velocity P-wave (km/s) = 7.67720 5.08481 6.51132
#
# Compressibility (1/GPa) = 0.05141528
#
# Stress axis : x y z
#
# Youngs Moduli (GPa) = 45.63802 20.17484 41.64363
#
# Poissons Ratio (x) = 0.05108 0.75586
# Poissons Ratio (y) = 0.11554 0.05646
# Poissons Ratio (z) = 0.82836 0.02735
#
# Static dielectric constant tensor:
#      x y z
#    x 1.666620 0.000000 0.009850 
#    y 0.000000 1.670430 0.000000 
#    z 0.009850 0.000000 1.666900 
# 
# From -- ./inp_files/83411.got.cif
#   From: 2010.05.17/outbox.cif.g08.bks.cpg/sg10_42_cif.got.tgz:83411.got - 2010.06.03 11:33:40.
