data_PCOD9145322
_publ_section_title
;
Structure prediction by ZEFSAII (Michael W. Deem and Ramdas Pophale) SiO2 
 PCOD9145322
Probable space group: P 2/M
;
_chemical_formula_sum "Si O2"
_cell_formula_units_Z 30
_cell_length_a 21.079302
_cell_length_b 8.128093
_cell_length_c 12.692026
_cell_angle_alpha 90.000000
_cell_angle_beta 144.315386
_cell_angle_gamma 90.000000
_cell_volume 1268.484108
_symmetry_space_group_name_H-M "P 2/M"
_symmetry_group_IT_number 10
_symmetry_cell_setting 'monoclinic'
loop_
_space_group_symop_operation_xyz
x,y,z
-x,y,-z
-x,-y,-z
x,-y,z
loop_
_atom_site_type_symbol
_atom_site_label
_atom_site_fract_x
_atom_site_fract_y
_atom_site_fract_z
Si Si1 0.042404 0.189083 0.720702
Si Si2 0.760280 0.000000 0.459456
Si Si3 0.522787 0.311255 0.240219
Si Si4 0.142111 0.678424 0.644125
Si Si5 0.649617 0.827376 0.123097
Si Si6 0.775727 0.307973 0.613391
Si Si7 0.406477 0.802637 0.289459
Si Si8 0.178048 0.198861 0.094608
O O1 0.102734 0.283668 0.708214
O O2 0.916539 0.196766 0.515476
O O3 0.077530 0.000000 0.760715
O O4 0.078404 0.246201 0.883679
O O5 0.688741 0.139317 0.293889
O O6 0.817627 0.151383 0.603316
O O7 0.523891 0.500000 0.208959
O O8 0.644629 0.270838 0.442109
O O9 0.441625 0.281291 0.228437
O O10 0.471482 0.209076 0.075221
O O11 0.104302 0.500000 0.559008
O O12 0.270190 0.690270 0.811038
O O13 0.681514 0.000000 0.110446
O O14 0.789853 0.500000 0.596303
O O15 0.819962 0.289019 0.791543
O O16 0.500000 0.760421 0.500000
O O17 0.288668 0.762153 0.178342
O O18 0.409928 0.000000 0.277707
O O19 0.177862 0.000000 0.112370
#
# Coordination Sequence:
#
# PCOD9145322 Si02
#       8
#     4   2   4   4   4   4   4   4
#     4  10  20  34  61  93 130 165 201 232 287 369
#     4  10  26  45  68  81 119 155 212 258 325 360
#     4  11  23  36  56  90 125 157 201 249 300 366
#     4  11  21  37  60  91 129 159 195 248 300 359
#     4  10  23  40  62  83 109 158 201 249 310 359
#     4  11  24  40  63  89 121 159 206 260 308 362
#     4  10  19  31  54  84 120 167 201 228 280 356
#     4  10  20  36  58  88 123 166 206 244 293 358
#
# _framework density 23.650276999999999
#
# number of rings (size 3 to 8) (size 9 to 14) (size 15 to 20)
#    0.400    1.200    2.000    4.000    1.867    5.067 
#    0.000    1.333    0.000    1.600    0.000    1.867 
#    0.000    0.000    0.000    0.000    0.000    0.000 
#
# Total GULP energy -167031.304619 kJ/mol
# GULP energy per Si atom -5567.710154 kJ/mol
# Density = 2.359645 g / cm^3
# Si number density = 23.650277 Si / 1000 Ang^3
#
#
#
# Elastic Constant Matrix: (Units=GPa)
#
#
# Indices 1 2 3 4 5 6 
#
# 1 43.1377 9.1041 19.7137 0.0000 -12.1812 0.0000
# 2 9.1041 85.5577 20.1643 0.0000 -12.5725 0.0000
# 3 19.7137 20.1643 139.9526 0.0000 -27.4079 0.0000
# 4 0.0000 0.0000 0.0000 43.0242 0.0000 -45.9533
# 5 -12.1812 -12.5725 -27.4079 0.0000 38.9795 0.0000
# 6 0.0000 0.0000 0.0000 -45.9533 0.0000 90.9112
#
#
#
# Elastic Compliance Matrix: (Units=1/GPa)
#
#
# Indices 1 2 3 4 5 6 
#
# 1 0.026254 -0.001348 -0.002299 0.000000 0.006153 0.000000
# 2 -0.001348 0.012501 -0.001049 0.000000 0.002874 0.000000
# 3 -0.002299 -0.001049 0.008597 0.000000 0.004988 0.000000
# 4 0.000000 0.000000 0.000000 0.050515 0.000000 0.025534
# 5 0.006153 0.002874 0.004988 0.000000 0.032012 0.000000
# 6 0.000000 0.000000 0.000000 0.025534 0.000000 0.023907
#
#
# Mechanical properties :
#
#
# Convention : Reuss Voigt Hill
#
# Bulk Modulus (GPa) = 26.34222 40.73469 33.53846
# Shear Modulus (GPa) = 28.43657 49.22738 38.83198
#
# Velocity S-wave (km/s) = 3.47129 4.56726 4.05646
# Velocity P-wave (km/s) = 5.21813 6.71374 6.01262
#
# Compressibility (1/GPa) = 0.03796187
#
# Stress axis : x y z
#
# Youngs Moduli (GPa) = 38.08913 79.99485 116.31867
#
# Poissons Ratio (x) = 0.10780 0.26741
# Poissons Ratio (y) = 0.05133 0.12196
# Poissons Ratio (z) = 0.08756 0.08388
#
# Static dielectric constant tensor:
#      x y z
#    x 1.941950 0.000000 0.009000 
#    y 0.000000 1.883280 0.000000 
#    z 0.009000 0.000000 1.868070 
# 
# From -- ./inp_files/72139.got.cif
#   From: 2010.05.17/outbox.cif.g08.bks.cpg/sg10_37_cif.got.tgz:72139.got - 2010.06.03 11:33:40.
