data_PCOD9145940
_publ_section_title
;
Structure prediction by ZEFSAII (Michael W. Deem and Ramdas Pophale) SiO2 
 PCOD9145940
Probable space group: P 2/M
;
_chemical_formula_sum "Si O2"
_cell_formula_units_Z 24
_cell_length_a 11.154475
_cell_length_b 14.332208
_cell_length_c 19.344884
_cell_angle_alpha 90.000000
_cell_angle_beta 160.054430
_cell_angle_gamma 90.000000
_cell_volume 1054.981491
_symmetry_space_group_name_H-M "P 2/M"
_symmetry_group_IT_number 10
_symmetry_cell_setting 'monoclinic'
loop_
_space_group_symop_operation_xyz
x,y,z
-x,y,-z
-x,-y,-z
x,-y,z
loop_
_atom_site_type_symbol
_atom_site_label
_atom_site_fract_x
_atom_site_fract_y
_atom_site_fract_z
Si Si1 0.438705 0.203301 0.801415
Si Si2 0.424414 0.600885 0.729745
Si Si3 0.598274 0.107411 0.752581
Si Si4 0.826954 0.206930 0.742813
Si Si5 0.492652 0.607646 0.604327
Si Si6 0.103910 0.744109 0.753858
O O1 0.522178 0.310652 0.827261
O O2 0.381422 0.153844 0.697430
O O3 0.156151 0.204509 0.708995
O O4 0.793049 0.167551 0.028523
O O5 0.553090 0.500000 0.824897
O O6 0.538931 0.612562 0.712434
O O7 0.000000 0.599346 0.500000
O O8 0.596530 0.160154 0.678581
O O9 0.501067 0.000000 0.690691
O O10 0.000000 0.112210 0.000000
O O11 0.758147 0.317900 0.715322
O O12 0.863510 0.200627 0.679493
O O13 0.530903 0.500000 0.604283
O O14 0.106580 0.648757 0.376636
O O15 0.500000 0.730206 0.000000
#
# Coordination Sequence:
#
# PCOD9145940 Si02
#       6
#     4   4   4   4   4   4
#     4  10  19  36  58  83 112 145 186 229 275 328
#     4  10  19  32  54  82 111 148 187 228 276 322
#     4   9  18  35  60  86 111 142 182 228 279 333
#     4  10  21  36  56  84 114 148 183 226 280 329
#     4  11  22  36  56  82 113 152 193 230 272 322
#     4  10  22  37  55  79 113 152 187 226 275 328
#
# _framework density 22.749213000000001
#
# number of rings (size 3 to 8) (size 9 to 14) (size 15 to 20)
#    0.000    2.000    3.333    0.500    0.000    2.333 
#    0.000    5.833    0.000   11.500    0.000    0.000 
#    0.000    0.000    0.000    0.000    0.000    0.000 
#
# Total GULP energy -133893.465232 kJ/mol
# GULP energy per Si atom -5578.894385 kJ/mol
# Density = 2.269743 g / cm^3
# Si number density = 22.749213 Si / 1000 Ang^3
#
#
#
# Elastic Constant Matrix: (Units=GPa)
#
#
# Indices 1 2 3 4 5 6 
#
# 1 239.3200 92.8341 33.8773 0.0000 -10.0303 0.0000
# 2 92.8341 90.5506 12.9753 0.0000 -2.0727 0.0000
# 3 33.8773 12.9753 71.9412 0.0000 3.7399 0.0000
# 4 0.0000 0.0000 0.0000 19.2784 0.0000 1.8410
# 5 -10.0303 -2.0727 3.7399 0.0000 32.2748 0.0000
# 6 0.0000 0.0000 0.0000 1.8410 0.0000 3.3941
#
#
#
# Elastic Compliance Matrix: (Units=1/GPa)
#
#
# Indices 1 2 3 4 5 6 
#
# 1 0.007379 -0.007189 -0.002287 0.000000 0.002097 0.000000
# 2 -0.007189 0.018371 0.000128 0.000000 -0.001069 0.000000
# 3 -0.002287 0.000128 0.015082 0.000000 -0.002450 0.000000
# 4 0.000000 0.000000 0.000000 0.054705 0.000000 -0.029674
# 5 0.002097 -0.001069 -0.002450 0.000000 0.031851 0.000000
# 6 0.000000 0.000000 0.000000 -0.029674 0.000000 0.310726
#
#
# Mechanical properties :
#
#
# Convention : Reuss Voigt Hill
#
# Bulk Modulus (GPa) = 45.17873 75.68725 60.43299
# Shear Modulus (GPa) = 10.77145 28.46447 19.61796
#
# Velocity S-wave (km/s) = 2.17834 3.54111 2.93978
# Velocity P-wave (km/s) = 5.12147 7.07543 6.17621
#
# Compressibility (1/GPa) = 0.02213431
#
# Stress axis : x y z
#
# Youngs Moduli (GPa) = 135.52166 54.43255 66.30600
#
# Poissons Ratio (x) = 0.39133 0.15165
# Poissons Ratio (y) = 0.97430 -0.00846
# Poissons Ratio (z) = 0.30995 -0.00694
#
# Static dielectric constant tensor:
#      x y z
#    x 1.866040 0.000000 -0.006040 
#    y 0.000000 1.800650 0.000000 
#    z -0.006040 0.000000 1.970890 
# 
# From -- ./inp_files/29681.got.cif
#   From: 2010.05.17/outbox.cif.g08.bks.cpg/sg10_15_cif.got.tgz:29681.got - 2010.06.03 11:33:40.
