data_PCOD9145752
_publ_section_title
;
Structure prediction by ZEFSAII (Michael W. Deem and Ramdas Pophale) SiO2 
 PCOD9145752
Probable space group: P 2/M
;
_chemical_formula_sum "Si O2"
_cell_formula_units_Z 32
_cell_length_a 20.625860
_cell_length_b 8.907616
_cell_length_c 25.655978
_cell_angle_alpha 90.000000
_cell_angle_beta 22.748812
_cell_angle_gamma 90.000000
_cell_volume 1822.750116
_symmetry_space_group_name_H-M "P 2/M"
_symmetry_group_IT_number 10
_symmetry_cell_setting 'monoclinic'
loop_
_space_group_symop_operation_xyz
x,y,z
-x,y,-z
-x,-y,-z
x,-y,z
loop_
_atom_site_type_symbol
_atom_site_label
_atom_site_fract_x
_atom_site_fract_y
_atom_site_fract_z
Si Si1 0.325661 0.327425 0.162062
Si Si2 0.360080 0.179583 0.871984
Si Si3 0.151600 0.180150 0.847850
Si Si4 0.009424 0.321082 0.850969
Si Si5 0.841176 0.678765 0.373513
Si Si6 0.547477 0.680710 0.090356
Si Si7 0.850886 0.178126 0.798535
Si Si8 0.487181 0.819955 0.662035
O O1 0.266263 0.500000 0.207420
O O2 0.386190 0.279211 0.174472
O O3 0.199462 0.227042 0.222608
O O4 0.500000 0.326990 0.000000
O O5 0.455096 0.255454 0.849788
O O6 0.440611 0.215097 0.756385
O O7 0.357962 0.000000 0.879927
O O8 0.170161 0.240170 0.013415
O O9 0.327101 0.218747 0.744971
O O10 0.118859 0.263490 0.818152
O O11 0.147000 0.000000 0.842703
O O12 0.000000 0.216005 0.000000
O O13 0.984331 0.500000 0.872823
O O14 0.096811 0.287027 0.731112
O O15 0.851353 0.500000 0.373389
O O16 0.654161 0.736594 0.520956
O O17 0.969958 0.759406 0.317039
O O18 0.561833 0.500000 0.079631
O O19 0.711785 0.747349 0.939807
O O20 0.843269 0.000000 0.809748
O O21 0.511600 0.000000 0.640249
#
# Coordination Sequence:
#
# PCOD9145752 Si02
#       8
#     4   4   4   4   4   4   4   4
#     4   8  16  30  48  74 113 151 183 228 282 334
#     4  11  21  36  59  85 114 149 189 237 285 335
#     4  10  20  39  62  84 114 148 185 233 286 339
#     4  11  23  37  58  86 114 148 190 235 281 338
#     4  11  24  40  57  81 117 154 190 235 285 338
#     4  10  19  32  52  82 116 149 188 233 282 335
#     4  11  20  31  53  81 112 150 191 234 281 334
#     4  10  23  41  60  84 113 148 191 233 284 345
#
# _framework density 17.555890999999999
#
# number of rings (size 3 to 8) (size 9 to 14) (size 15 to 20)
#    0.000    1.750    2.500    3.375    0.000    6.500 
#    0.000    2.500    0.000    0.750    0.000    5.250 
#    0.000    0.000    0.000    0.000    0.000    0.000 
#
# Total GULP energy -178690.801677 kJ/mol
# GULP energy per Si atom -5584.087552 kJ/mol
# Density = 1.751593 g / cm^3
# Si number density = 17.555891 Si / 1000 Ang^3
#
#
#
# Elastic Constant Matrix: (Units=GPa)
#
#
# Indices 1 2 3 4 5 6 
#
# 1 144.6034 60.6377 44.4531 0.0000 -14.5344 0.0000
# 2 60.6377 68.9156 49.8127 0.0000 -4.6043 0.0000
# 3 44.4531 49.8127 86.4063 0.0000 -7.2509 0.0000
# 4 0.0000 0.0000 0.0000 31.2872 0.0000 0.2598
# 5 -14.5344 -4.6043 -7.2509 0.0000 21.0853 0.0000
# 6 0.0000 0.0000 0.0000 0.2598 0.0000 35.4763
#
#
#
# Elastic Compliance Matrix: (Units=1/GPa)
#
#
# Indices 1 2 3 4 5 6 
#
# 1 0.011638 -0.010074 0.000318 0.000000 0.005932 0.000000
# 2 -0.010074 0.033601 -0.014576 0.000000 -0.004619 0.000000
# 3 0.000318 -0.014576 0.020145 0.000000 0.003964 0.000000
# 4 0.000000 0.000000 0.000000 0.031964 0.000000 -0.000234
# 5 0.005932 -0.004619 0.003964 0.000000 0.051870 0.000000
# 6 0.000000 0.000000 0.000000 -0.000234 0.000000 0.028190
#
#
# Mechanical properties :
#
#
# Convention : Reuss Voigt Hill
#
# Bulk Modulus (GPa) = 59.80500 67.74804 63.77652
# Shear Modulus (GPa) = 21.58468 27.23786 24.41127
#
# Velocity S-wave (km/s) = 3.51020 3.94317 3.73297
# Velocity P-wave (km/s) = 7.11113 7.70748 7.41530
#
# Compressibility (1/GPa) = 0.01672101
#
# Stress axis : x y z
#
# Youngs Moduli (GPa) = 85.92302 29.76087 49.63924
#
# Poissons Ratio (x) = 0.29980 -0.01577
# Poissons Ratio (y) = 0.86556 0.72354
# Poissons Ratio (z) = -0.02730 0.43379
#
# Static dielectric constant tensor:
#      x y z
#    x 1.612830 0.000000 -0.004040 
#    y 0.000000 1.586590 0.000000 
#    z -0.004040 0.000000 1.565090 
# 
# From -- ./inp_files/93592.got.cif
#   From: 2010.05.17/outbox.cif.g08.bks.cpg/sg10_47_cif.got.tgz:93592.got - 2010.06.03 11:33:40.
