data_PCOD9145107
_publ_section_title
;
Structure prediction by ZEFSAII (Michael W. Deem and Ramdas Pophale) SiO2 
 PCOD9145107
Probable space group: P 2/M
;
_chemical_formula_sum "Si O2"
_cell_formula_units_Z 28
_cell_length_a 15.607344
_cell_length_b 8.451806
_cell_length_c 22.796905
_cell_angle_alpha 90.000000
_cell_angle_beta 32.815585
_cell_angle_gamma 90.000000
_cell_volume 1629.682795
_symmetry_space_group_name_H-M "P 2/M"
_symmetry_group_IT_number 10
_symmetry_cell_setting 'monoclinic'
loop_
_space_group_symop_operation_xyz
x,y,z
-x,y,-z
-x,-y,-z
x,-y,z
loop_
_atom_site_type_symbol
_atom_site_label
_atom_site_fract_x
_atom_site_fract_y
_atom_site_fract_z
Si Si1 0.476096 0.189747 0.631904
Si Si2 0.826827 0.308521 0.261110
Si Si3 0.998536 0.688805 0.592918
Si Si4 0.755939 0.811132 0.644607
Si Si5 0.071112 0.690706 0.021405
Si Si6 0.178128 0.308725 0.603046
Si Si7 0.586702 0.809368 0.197772
O O1 0.342418 0.250800 0.664728
O O2 0.648282 0.252121 0.515760
O O3 0.431415 0.241766 0.723770
O O4 0.479095 0.000000 0.629331
O O5 0.825535 0.500000 0.261300
O O6 0.855471 0.255855 0.311306
O O7 0.960297 0.253899 0.138396
O O8 0.978684 0.500000 0.604296
O O9 0.140866 0.732306 0.466443
O O10 0.052451 0.743467 0.626210
O O11 0.842497 0.765804 0.655029
O O12 0.573898 0.762060 0.743125
O O13 0.765206 0.000000 0.630933
O O14 0.066107 0.500000 0.023777
O O15 0.251970 0.743223 0.921165
O O16 0.000000 0.747216 0.000000
O O17 0.178697 0.500000 0.602068
O O18 0.595080 0.000000 0.192452
#
# Coordination Sequence:
#
# PCOD9145107 Si02
#       7
#     4   4   4   4   4   4   4
#     4  11  21  33  50  76 106 137 171 207 247 301
#     4  10  21  37  52  72 103 138 174 209 253 301
#     4  10  19  31  50  77 102 130 168 207 248 300
#     4  10  19  33  51  74 103 135 163 202 258 303
#     4  10  20  34  54  76  97 130 175 216 250 292
#     4  10  21  35  52  73 105 141 168 205 254 304
#     4  10  21  34  51  75 105 135 165 205 256 302
#
# _framework density 17.181259000000001
#
# number of rings (size 3 to 8) (size 9 to 14) (size 15 to 20)
#    0.000    1.857    2.857    2.571    0.000    5.429 
#    0.000    0.000    0.000    0.857    0.000    6.000 
#    0.000    0.000    0.000    0.000    0.000    0.000 
#
# Total GULP energy -156298.753021 kJ/mol
# GULP energy per Si atom -5582.098322 kJ/mol
# Density = 1.714215 g / cm^3
# Si number density = 17.181259 Si / 1000 Ang^3
#
#
#
# Elastic Constant Matrix: (Units=GPa)
#
#
# Indices 1 2 3 4 5 6 
#
# 1 144.9099 5.8664 43.3668 0.0000 -0.8308 0.0000
# 2 5.8664 4.2120 -2.1689 0.0000 2.7133 0.0000
# 3 43.3668 -2.1689 52.6615 0.0000 4.2051 0.0000
# 4 0.0000 0.0000 0.0000 26.8298 0.0000 -7.6531
# 5 -0.8308 2.7133 4.2051 0.0000 30.0314 0.0000
# 6 0.0000 0.0000 0.0000 -7.6531 0.0000 21.4802
#
#
#
# Elastic Compliance Matrix: (Units=1/GPa)
#
#
# Indices 1 2 3 4 5 6 
#
# 1 0.010914 -0.022923 -0.010236 0.000000 0.003806 0.000000
# 2 -0.022923 0.308418 0.034238 0.000000 -0.033294 0.000000
# 3 -0.010236 0.034238 0.029427 0.000000 -0.007497 0.000000
# 4 0.000000 0.000000 0.000000 0.041489 0.000000 0.014782
# 5 0.003806 -0.033294 -0.007497 0.000000 0.037462 0.000000
# 6 0.000000 0.000000 0.000000 0.014782 0.000000 0.051821
#
#
# Mechanical properties :
#
#
# Convention : Reuss Voigt Hill
#
# Bulk Modulus (GPa) = 2.84968 32.87913 17.86440
# Shear Modulus (GPa) = 8.41264 25.98287 17.19776
#
# Velocity S-wave (km/s) = 2.21518 3.89302 3.16723
# Velocity P-wave (km/s) = 2.86442 6.27580 4.87804
#
# Compressibility (1/GPa) = 0.35091697
#
# Stress axis : x y z
#
# Youngs Moduli (GPa) = 91.62717 3.24236 33.98258
#
# Poissons Ratio (x) = 0.07432 0.34783
# Poissons Ratio (y) = 2.10035 -1.16348
# Poissons Ratio (z) = 0.93785 -0.11101
#
# Static dielectric constant tensor:
#      x y z
#    x 1.597610 0.000000 0.010960 
#    y 0.000000 1.587710 0.000000 
#    z 0.010960 0.000000 1.552290 
# 
# From -- ./inp_files/63371.got.cif
#   From: 2010.05.17/outbox.cif.g08.bks.cpg/sg10_32_cif.got.tgz:63371.got - 2010.06.03 11:33:40.
