data_PCOD9145476
_publ_section_title
;
Structure prediction by ZEFSAII (Michael W. Deem and Ramdas Pophale) SiO2 
 PCOD9145476
Probable space group: P 2/M
;
_chemical_formula_sum "Si O2"
_cell_formula_units_Z 20
_cell_length_a 22.027181
_cell_length_b 7.500755
_cell_length_c 15.744443
_cell_angle_alpha 90.000000
_cell_angle_beta 17.876928
_cell_angle_gamma 90.000000
_cell_volume 798.531311
_symmetry_space_group_name_H-M "P 2/M"
_symmetry_group_IT_number 10
_symmetry_cell_setting 'monoclinic'
loop_
_space_group_symop_operation_xyz
x,y,z
-x,y,-z
-x,-y,-z
x,-y,z
loop_
_atom_site_type_symbol
_atom_site_label
_atom_site_fract_x
_atom_site_fract_y
_atom_site_fract_z
Si Si1 0.200485 0.294800 0.255687
Si Si2 0.698827 0.790820 0.180752
Si Si3 0.483969 0.790410 0.299995
Si Si4 0.916141 0.200958 0.239764
Si Si5 0.306836 0.705835 0.299734
O O1 0.200055 0.500000 0.226249
O O2 0.179803 0.303100 0.384453
O O3 0.000000 0.197574 0.500000
O O4 0.394570 0.222323 0.950245
O O5 0.500000 0.783532 0.500000
O O6 0.627605 0.718305 0.183545
O O7 0.754477 0.000000 0.093205
O O8 0.878013 0.714679 0.000434
O O9 0.256828 0.719977 0.591590
O O10 0.456685 0.000000 0.355618
O O11 0.795778 0.195736 0.488255
O O12 0.960886 0.000000 0.149938
O O13 0.352919 0.500000 0.265724
O O14 0.500000 0.788164 0.000000
#
# Coordination Sequence:
#
# PCOD9145476 Si02
#       5
#     4   4   4   4   4
#     4  10  20  33  50  73 103 140 176 207 246 302
#     4   9  19  36  55  76 104 134 168 216 267 310
#     4  10  20  33  52  78 103 131 171 214 256 302
#     4  10  20  33  53  80 105 134 173 214 256 301
#     4  10  19  32  50  73 104 141 173 201 246 305
#
# _framework density 25.04598
#
# number of rings (size 3 to 8) (size 9 to 14) (size 15 to 20)
#    0.000    2.200    2.000    1.200    0.000    2.400 
#    0.000    4.000    0.000    2.400    0.000    2.800 
#    0.000    0.000    0.000    0.000    0.000    0.000 
#
# Total GULP energy -111358.204339 kJ/mol
# GULP energy per Si atom -5567.910217 kJ/mol
# Density = 2.498897 g / cm^3
# Si number density = 25.045980 Si / 1000 Ang^3
#
#
#
# Elastic Constant Matrix: (Units=GPa)
#
#
# Indices 1 2 3 4 5 6 
#
# 1 115.3936 7.9552 44.4858 0.0000 -24.7654 0.0000
# 2 7.9552 79.8792 5.3848 0.0000 -4.8888 0.0000
# 3 44.4858 5.3848 100.3483 0.0000 -48.9839 0.0000
# 4 0.0000 0.0000 0.0000 23.2359 0.0000 23.5279
# 5 -24.7654 -4.8888 -48.9839 0.0000 61.0282 0.0000
# 6 0.0000 0.0000 0.0000 23.5279 0.0000 16.7988
#
#
#
# Elastic Compliance Matrix: (Units=1/GPa)
#
#
# Indices 1 2 3 4 5 6 
#
# 1 0.010520 -0.000713 -0.004225 0.000000 0.000821 0.000000
# 2 -0.000713 0.012634 -0.000015 0.000000 0.000711 0.000000
# 3 -0.004225 -0.000015 0.018089 0.000000 0.012803 0.000000
# 4 0.000000 0.000000 0.000000 -0.102918 0.000000 0.144144
# 5 0.000821 0.000711 0.012803 0.000000 0.027052 0.000000
# 6 0.000000 0.000000 0.000000 0.144144 0.000000 -0.142355
#
#
# Mechanical properties :
#
#
# Convention : Reuss Voigt Hill
#
# Bulk Modulus (GPa) = 31.90974 45.69698 38.80336
# Shear Modulus (GPa) = -31.92304 36.06560 2.07128
#
# Velocity S-wave (km/s) = -3.57400 3.79882 0.91038
# Velocity P-wave (km/s) = 2.06474 6.12586 4.07818
#
# Compressibility (1/GPa) = 0.03133839
#
# Stress axis : x y z
#
# Youngs Moduli (GPa) = 95.05710 79.14901 55.28324
#
# Poissons Ratio (x) = 0.05641 0.23355
# Poissons Ratio (y) = 0.06774 0.00083
# Poissons Ratio (z) = 0.40158 0.00119
#
# Static dielectric constant tensor:
#      x y z
#    x 2.241490 0.000000 -0.168530 
#    y 0.000000 1.977050 0.000000 
#    z -0.168530 0.000000 2.010460 
# 
# From -- ./inp_files/23570.got.cif
#   From: 2010.05.17/outbox.cif.g08.bks.cpg/sg10_12_cif.got.tgz:23570.got - 2010.06.03 11:33:40.
