data_PCOD9145070
_publ_section_title
;
Structure prediction by ZEFSAII (Michael W. Deem and Ramdas Pophale) SiO2 
 PCOD9145070
Probable space group: P 2/M
;
_chemical_formula_sum "Si O2"
_cell_formula_units_Z 32
_cell_length_a 17.794558
_cell_length_b 7.734772
_cell_length_c 12.316969
_cell_angle_alpha 90.000000
_cell_angle_beta 46.409268
_cell_angle_gamma 90.000000
_cell_volume 1227.855057
_symmetry_space_group_name_H-M "P 2/M"
_symmetry_group_IT_number 10
_symmetry_cell_setting 'monoclinic'
loop_
_space_group_symop_operation_xyz
x,y,z
-x,y,-z
-x,-y,-z
x,-y,z
loop_
_atom_site_type_symbol
_atom_site_label
_atom_site_fract_x
_atom_site_fract_y
_atom_site_fract_z
Si Si1 0.688894 0.697228 0.915146
Si Si2 0.587419 0.707031 0.802452
Si Si3 0.111688 0.198799 0.411125
Si Si4 0.793294 0.704599 0.473929
Si Si5 0.478010 0.206251 0.349491
Si Si6 0.034347 0.792101 0.845270
Si Si7 0.332777 0.789460 0.675691
Si Si8 0.182645 0.794303 0.002874
O O1 0.660001 0.500000 0.964601
O O2 0.607165 0.774060 0.905782
O O3 0.793477 0.702224 0.736783
O O4 0.736317 0.770748 0.979321
O O5 0.590776 0.500000 0.812106
O O6 0.684255 0.771918 0.631326
O O7 0.501168 0.739677 0.795451
O O8 0.127167 0.203695 0.523665
O O9 0.000000 0.274476 0.500000
O O10 0.115344 0.000000 0.366906
O O11 0.790057 0.500000 0.495025
O O12 0.850562 0.734016 0.303447
O O13 0.573695 0.246299 0.332641
O O14 0.376691 0.277450 0.516343
O O15 0.469631 0.000000 0.355757
O O16 0.936307 0.731938 0.867928
O O17 0.039888 0.000000 0.838110
O O18 0.000000 0.739617 0.000000
O O19 0.323616 0.000000 0.673657
O O20 0.234194 0.724794 0.840700
O O21 0.174046 0.000000 0.997716
#
# Coordination Sequence:
#
# PCOD9145070 Si02
#       8
#     4   4   4   4   4   4   4   4
#     4  10  21  36  52  75 108 144 184 224 267 322
#     4   9  20  36  53  77 110 142 176 226 275 314
#     4  10  19  31  50  74  99 131 176 225 270 313
#     4  10  21  35  50  72 105 143 179 219 265 313
#     4   9  17  33  60  86 107 135 178 223 270 327
#     4  10  22  36  52  78 109 143 185 227 271 323
#     4   8  17  34  56  85 112 137 173 222 274 324
#     4  10  20  36  56  77 111 147 178 222 273 325
#
# _framework density 26.061709
#
# number of rings (size 3 to 8) (size 9 to 14) (size 15 to 20)
#    0.000    2.500    0.000    3.375    1.750    7.750 
#    0.000    3.125    0.000    3.750    0.000    0.000 
#    0.000    0.000    0.000    0.000    0.000    0.000 
#
# Total GULP energy -178564.362855 kJ/mol
# GULP energy per Si atom -5580.136339 kJ/mol
# Density = 2.600239 g / cm^3
# Si number density = 26.061709 Si / 1000 Ang^3
#
#
#
# Elastic Constant Matrix: (Units=GPa)
#
#
# Indices 1 2 3 4 5 6 
#
# 1 90.1796 0.8949 10.9015 0.0000 19.4599 0.0000
# 2 0.8949 44.4186 1.1448 0.0000 -7.7556 0.0000
# 3 10.9015 1.1448 133.9296 0.0000 28.4030 0.0000
# 4 0.0000 0.0000 0.0000 28.5696 0.0000 2.6623
# 5 19.4599 -7.7556 28.4030 0.0000 53.7452 0.0000
# 6 0.0000 0.0000 0.0000 2.6623 0.0000 1.2109
#
#
#
# Elastic Compliance Matrix: (Units=1/GPa)
#
#
# Indices 1 2 3 4 5 6 
#
# 1 0.012075 -0.001031 -0.000017 0.000000 -0.004512 0.000000
# 2 -0.001031 0.023307 -0.001022 0.000000 0.004277 0.000000
# 3 -0.000017 -0.001022 0.008454 0.000000 -0.004609 0.000000
# 4 0.000000 0.000000 0.000000 0.044022 0.000000 -0.096791
# 5 -0.004512 0.004277 -0.004609 0.000000 0.023293 0.000000
# 6 0.000000 0.000000 0.000000 -0.096791 0.000000 1.038675
#
#
# Mechanical properties :
#
#
# Convention : Reuss Voigt Hill
#
# Bulk Modulus (GPa) = 25.19160 32.71222 28.95191
# Shear Modulus (GPa) = 4.28376 33.74424 19.01400
#
# Velocity S-wave (km/s) = 1.28346 3.60221 2.70400
# Velocity P-wave (km/s) = 3.44724 5.46629 4.56967
#
# Compressibility (1/GPa) = 0.03969577
#
# Stress axis : x y z
#
# Youngs Moduli (GPa) = 82.81668 42.90571 118.28404
#
# Poissons Ratio (x) = 0.04422 0.00204
# Poissons Ratio (y) = 0.08535 0.12092
# Poissons Ratio (z) = 0.00143 0.04386
#
# Static dielectric constant tensor:
#      x y z
#    x 2.221540 0.000000 -0.033780 
#    y 0.000000 1.933130 0.000000 
#    z -0.033780 0.000000 2.125470 
# 
# From -- ./inp_files/55290.got.cif
#   From: 2010.05.17/outbox.cif.g08.bks.cpg/sg10_28_cif.got.tgz:55290.got - 2010.06.03 11:33:40.
