data_PCOD9145274
_publ_section_title
;
Structure prediction by ZEFSAII (Michael W. Deem and Ramdas Pophale) SiO2 
 PCOD9145274
Probable space group: P 2/M
;
_chemical_formula_sum "Si O2"
_cell_formula_units_Z 32
_cell_length_a 20.798394
_cell_length_b 13.099353
_cell_length_c 6.477084
_cell_angle_alpha 90.000000
_cell_angle_beta 104.524045
_cell_angle_gamma 90.000000
_cell_volume 1708.258504
_symmetry_space_group_name_H-M "P 2/M"
_symmetry_group_IT_number 10
_symmetry_cell_setting 'monoclinic'
loop_
_space_group_symop_operation_xyz
x,y,z
-x,y,-z
-x,-y,-z
x,-y,z
loop_
_atom_site_type_symbol
_atom_site_label
_atom_site_fract_x
_atom_site_fract_y
_atom_site_fract_z
Si Si1 0.071248 0.198527 0.064658
Si Si2 0.060923 0.381719 0.385098
Si Si3 0.852645 0.742196 0.253775
Si Si4 0.689223 0.723463 0.526172
Si Si5 0.640188 0.612239 0.101860
Si Si6 0.801896 0.120452 0.575467
Si Si7 0.235200 0.609200 0.103744
Si Si8 0.429024 0.620943 0.339534
O O1 0.059819 0.302737 0.191701
O O2 0.134899 0.145798 0.224998
O O3 0.087736 0.216943 0.838076
O O4 0.000000 0.143157 0.000000
O O5 0.063837 0.500000 0.321927
O O6 0.123812 0.346556 0.572572
O O7 0.000000 0.371618 0.500000
O O8 0.820096 0.828025 0.370118
O O9 0.806340 0.695153 0.041069
O O10 0.664224 0.697025 0.278767
O O11 0.732241 0.825829 0.584493
O O12 0.742268 0.639267 0.649773
O O13 0.623775 0.700387 0.607996
O O14 0.633086 0.500000 0.197763
O O15 0.698596 0.603298 0.980521
O O16 0.575551 0.633386 0.911614
O O17 0.794304 0.000000 0.555456
O O18 0.200561 0.500000 0.073064
O O19 0.500000 0.637187 0.500000
O O20 0.411664 0.500000 0.362699
#
# Coordination Sequence:
#
# PCOD9145274 Si02
#       8
#     4   4   4   4   4   4   4   4
#     4  11  23  42  63  84 116 153 199 253 314 376
#     4  10  21  35  55  84 118 154 189 226 284 368
#     4  11  21  40  55  81 115 151 193 249 301 360
#     4  11  19  36  57  83 120 154 196 244 298 347
#     4   9  17  30  51  81 120 157 190 228 276 338
#     4  11  26  43  62  86 110 148 209 271 321 360
#     4  10  19  31  52  84 115 147 184 226 282 357
#     4   9  19  34  55  91 134 170 200 227 273 354
#
# _framework density 18.732527999999999
#
# number of rings (size 3 to 8) (size 9 to 14) (size 15 to 20)
#    0.000    1.750    3.750    2.250    0.000    2.500 
#    0.000    2.500    0.000    0.375    0.000    0.875 
#    0.000    0.000    0.000    0.000    0.000    0.000 
#
# Total GULP energy -178249.814112 kJ/mol
# GULP energy per Si atom -5570.306691 kJ/mol
# Density = 1.868989 g / cm^3
# Si number density = 18.732528 Si / 1000 Ang^3
#
#
#
# Elastic Constant Matrix: (Units=GPa)
#
#
# Indices 1 2 3 4 5 6 
#
# 1 73.4163 38.1671 26.8290 0.0000 14.6728 0.0000
# 2 38.1671 111.4870 27.2292 0.0000 9.7031 0.0000
# 3 26.8290 27.2292 74.4861 0.0000 22.5160 0.0000
# 4 0.0000 0.0000 0.0000 9.2792 0.0000 1.2647
# 5 14.6728 9.7031 22.5160 0.0000 35.9328 0.0000
# 6 0.0000 0.0000 0.0000 1.2647 0.0000 10.9142
#
#
#
# Elastic Compliance Matrix: (Units=1/GPa)
#
#
# Indices 1 2 3 4 5 6 
#
# 1 0.018338 -0.005066 -0.003582 0.000000 -0.003876 0.000000
# 2 -0.005066 0.011256 -0.002463 0.000000 0.000573 0.000000
# 3 -0.003582 -0.002463 0.018471 0.000000 -0.009447 0.000000
# 4 0.000000 0.000000 0.000000 0.109498 0.000000 -0.012688
# 5 -0.003876 0.000573 -0.009447 0.000000 0.035177 0.000000
# 6 0.000000 0.000000 0.000000 -0.012688 0.000000 0.093094
#
#
# Mechanical properties :
#
#
# Convention : Reuss Voigt Hill
#
# Bulk Modulus (GPa) = 38.69367 49.31557 44.00462
# Shear Modulus (GPa) = 15.78930 22.36949 19.07940
#
# Velocity S-wave (km/s) = 2.90639 3.45940 3.19488
# Velocity P-wave (km/s) = 5.65363 6.50691 6.09522
#
# Compressibility (1/GPa) = 0.02584402
#
# Stress axis : x y z
#
# Youngs Moduli (GPa) = 54.53139 88.84418 54.13775
#
# Poissons Ratio (x) = 0.45007 0.19390
# Poissons Ratio (y) = 0.27625 0.13334
# Poissons Ratio (z) = 0.19531 0.21883
#
# Static dielectric constant tensor:
#      x y z
#    x 1.729150 0.000000 -0.004680 
#    y 0.000000 1.640230 0.000000 
#    z -0.004680 0.000000 1.684850 
# 
# From -- ./inp_files/13257.got.cif
#   From: 2010.05.17/outbox.cif.g08.bks.cpg/sg10_7_cif.got.tgz:13257.got - 2010.06.03 11:33:40.
