data_PCOD9145684
_publ_section_title
;
Structure prediction by ZEFSAII (Michael W. Deem and Ramdas Pophale) SiO2 
 PCOD9145684
Probable space group: P 2/M
;
_chemical_formula_sum "Si O2"
_cell_formula_units_Z 32
_cell_length_a 20.618444
_cell_length_b 9.118945
_cell_length_c 12.461275
_cell_angle_alpha 90.000000
_cell_angle_beta 126.046945
_cell_angle_gamma 90.000000
_cell_volume 1894.357123
_symmetry_space_group_name_H-M "P 2/M"
_symmetry_group_IT_number 10
_symmetry_cell_setting 'monoclinic'
loop_
_space_group_symop_operation_xyz
x,y,z
-x,y,-z
-x,-y,-z
x,-y,z
loop_
_atom_site_type_symbol
_atom_site_label
_atom_site_fract_x
_atom_site_fract_y
_atom_site_fract_z
Si Si1 0.871726 0.324300 0.603232
Si Si2 0.294270 0.824324 0.154259
Si Si3 0.237672 0.326065 0.310012
Si Si4 0.375509 0.325232 0.620649
Si Si5 0.263286 0.175419 0.673423
Si Si6 0.794941 0.176292 0.150900
Si Si7 0.965988 0.324394 0.348996
Si Si8 0.465992 0.323918 0.348455
O O1 0.861109 0.500000 0.576283
O O2 0.839196 0.291959 0.690595
O O3 0.813368 0.242008 0.463708
O O4 0.963417 0.288419 0.666441
O O5 0.246294 0.764243 0.210370
O O6 0.383030 0.756721 0.246814
O O7 0.298741 0.000000 0.162433
O O8 0.250708 0.779676 0.001655
O O9 0.238121 0.500000 0.286420
O O10 0.314399 0.296781 0.461908
O O11 0.627905 0.500000 0.363159
O O12 0.340422 0.241155 0.688451
O O13 0.464444 0.286062 0.668834
O O14 0.254133 0.215655 0.789216
O O15 0.262997 0.000000 0.663150
O O16 0.882694 0.246350 0.244479
O O17 0.803227 0.000000 0.158325
O O18 0.953708 0.500000 0.336458
O O19 0.000000 0.284875 0.500000
O O20 0.500000 0.288830 0.500000
O O21 0.453407 0.500000 0.333502
#
# Coordination Sequence:
#
# PCOD9145684 Si02
#       8
#     4   4   4   4   4   4   4   4
#     4   9  18  33  53  80 110 134 167 222 274 311
#     4  11  23  37  53  77 110 144 182 221 258 311
#     4   9  17  33  54  76 106 142 172 211 270 322
#     4   9  18  33  55  80 107 134 169 221 270 312
#     4  10  19  32  52  77 106 141 179 212 258 318
#     4  10  23  39  52  74 112 151 178 212 266 320
#     4  10  19  33  57  85 106 132 180 230 264 307
#     4  10  19  36  58  80 106 138 176 219 270 319
#
# _framework density 16.892275000000001
#
# number of rings (size 3 to 8) (size 9 to 14) (size 15 to 20)
#    0.000    2.250    2.500    1.500    0.000    5.000 
#    0.000    1.250    0.000    7.500    0.000    0.000 
#    0.000    0.000    0.000    0.000    0.000    0.000 
#
# Total GULP energy -178519.419671 kJ/mol
# GULP energy per Si atom -5578.731865 kJ/mol
# Density = 1.685383 g / cm^3
# Si number density = 16.892275 Si / 1000 Ang^3
#
#
#
# Elastic Constant Matrix: (Units=GPa)
#
#
# Indices 1 2 3 4 5 6 
#
# 1 168.1990 56.8867 86.9168 0.0000 -15.4192 0.0000
# 2 56.8867 33.4936 48.8283 0.0000 -8.3238 0.0000
# 3 86.9168 48.8283 118.3715 0.0000 -9.2255 0.0000
# 4 0.0000 0.0000 0.0000 6.6810 0.0000 5.0910
# 5 -15.4192 -8.3238 -9.2255 0.0000 22.6037 0.0000
# 6 0.0000 0.0000 0.0000 5.0910 0.0000 19.4052
#
#
#
# Elastic Compliance Matrix: (Units=1/GPa)
#
#
# Indices 1 2 3 4 5 6 
#
# 1 0.014059 -0.021790 -0.001252 0.000000 0.001055 0.000000
# 2 -0.021790 0.114295 -0.029978 0.000000 0.014989 0.000000
# 3 -0.001252 -0.029978 0.021490 0.000000 -0.003123 0.000000
# 4 0.000000 0.000000 0.000000 0.187079 0.000000 -0.049080
# 5 0.001055 0.014989 -0.003123 0.000000 0.049205 0.000000
# 6 0.000000 0.000000 0.000000 -0.049080 0.000000 0.064409
#
#
# Mechanical properties :
#
#
# Convention : Reuss Voigt Hill
#
# Bulk Modulus (GPa) = 22.83008 78.36974 50.59991
# Shear Modulus (GPa) = 8.75382 18.23346 13.49364
#
# Velocity S-wave (km/s) = 2.27890 3.28898 2.82938
# Velocity P-wave (km/s) = 4.52426 7.80498 6.37913
#
# Compressibility (1/GPa) = 0.04380186
#
# Stress axis : x y z
#
# Youngs Moduli (GPa) = 71.12942 8.74931 46.53276
#
# Poissons Ratio (x) = 0.19065 0.05827
# Poissons Ratio (y) = 1.54993 1.39498
# Poissons Ratio (z) = 0.08908 0.26229
#
# Static dielectric constant tensor:
#      x y z
#    x 1.585300 0.000000 -0.014330 
#    y 0.000000 1.561720 0.000000 
#    z -0.014330 0.000000 1.538080 
# 
# From -- ./inp_files/55336.got.cif
#   From: 2010.05.17/outbox.cif.g08.bks.cpg/sg10_28_cif.got.tgz:55336.got - 2010.06.03 11:33:40.
