data_PCOD9145699
_publ_section_title
;
Structure prediction by ZEFSAII (Michael W. Deem and Ramdas Pophale) SiO2 
 PCOD9145699
Probable space group: P 2/M
;
_chemical_formula_sum "Si O2"
_cell_formula_units_Z 32
_cell_length_a 14.664740
_cell_length_b 8.156721
_cell_length_c 21.276534
_cell_angle_alpha 90.000000
_cell_angle_beta 43.962053
_cell_angle_gamma 90.000000
_cell_volume 1766.705169
_symmetry_space_group_name_H-M "P 2/M"
_symmetry_group_IT_number 10
_symmetry_cell_setting 'monoclinic'
loop_
_space_group_symop_operation_xyz
x,y,z
-x,y,-z
-x,-y,-z
x,-y,z
loop_
_atom_site_type_symbol
_atom_site_label
_atom_site_fract_x
_atom_site_fract_y
_atom_site_fract_z
Si Si1 0.913895 0.804672 0.101928
Si Si2 0.914543 0.197497 0.482392
Si Si3 0.642888 0.806143 0.672726
Si Si4 0.075237 0.697901 0.281898
Si Si5 0.361909 0.305396 0.806241
Si Si6 0.642519 0.306276 0.815703
Si Si7 0.924986 0.301525 0.856830
Si Si8 0.644959 0.300043 0.044440
O O1 0.766877 0.737379 0.168858
O O2 0.985493 0.759396 0.130854
O O3 0.906978 0.000000 0.099944
O O4 0.000000 0.740835 0.000000
O O5 0.764205 0.247954 0.569368
O O6 0.000000 0.254864 0.500000
O O7 0.979821 0.254481 0.385681
O O8 0.918874 0.000000 0.480120
O O9 0.498737 0.773189 0.716874
O O10 0.650001 0.717236 0.736676
O O11 0.657726 0.000000 0.677572
O O12 0.082202 0.500000 0.277828
O O13 0.223161 0.761778 0.222283
O O14 0.032315 0.751818 0.233816
O O15 0.380256 0.500000 0.798082
O O16 0.339254 0.251566 0.890143
O O17 0.640961 0.500000 0.830897
O O18 0.498670 0.241030 0.906530
O O19 0.926168 0.500000 0.858519
O O20 0.774057 0.247658 0.943361
O O21 0.642140 0.500000 0.043965
#
# Coordination Sequence:
#
# PCOD9145699 Si02
#       8
#     4   4   4   4   4   4   4   4
#     4  11  22  35  54  81 108 139 179 221 261 308
#     4  10  20  35  54  76 104 143 182 216 267 322
#     4  10  19  32  52  78 106 137 174 220 264 314
#     4  10  21  33  51  78 108 141 182 228 266 307
#     4  10  19  33  55  81 106 137 172 216 269 315
#     4   9  17  30  47  74 106 141 179 216 259 306
#     4  10  20  35  52  75 107 145 182 219 267 316
#     4   8  15  28  48  72 102 139 175 207 250 310
#
# _framework density 18.112812999999999
#
# number of rings (size 3 to 8) (size 9 to 14) (size 15 to 20)
#    0.000    2.250    2.500    1.875    0.000    2.750 
#    0.000    2.500    0.000    0.750    0.000    8.750 
#    0.000    0.000    0.000    0.000    0.000    0.000 
#
# Total GULP energy -178503.863928 kJ/mol
# GULP energy per Si atom -5578.245748 kJ/mol
# Density = 1.807159 g / cm^3
# Si number density = 18.112813 Si / 1000 Ang^3
#
#
#
# Elastic Constant Matrix: (Units=GPa)
#
#
# Indices 1 2 3 4 5 6 
#
# 1 89.9721 -2.0003 58.2604 0.0000 -4.3258 0.0000
# 2 -2.0003 11.3095 4.4059 0.0000 -1.6000 0.0000
# 3 58.2604 4.4059 112.2400 0.0000 -4.0499 0.0000
# 4 0.0000 0.0000 0.0000 12.2779 0.0000 -4.9564
# 5 -4.3258 -1.6000 -4.0499 0.0000 26.5425 0.0000
# 6 0.0000 0.0000 0.0000 -4.9564 0.0000 13.4374
#
#
#
# Elastic Compliance Matrix: (Units=1/GPa)
#
#
# Indices 1 2 3 4 5 6 
#
# 1 0.017305 0.006899 -0.009187 0.000000 0.001834 0.000000
# 2 0.006899 0.093184 -0.007035 0.000000 0.005668 0.000000
# 3 -0.009187 -0.007035 0.013962 0.000000 0.000209 0.000000
# 4 0.000000 0.000000 0.000000 0.095697 0.000000 0.035298
# 5 0.001834 0.005668 0.000209 0.000000 0.038348 0.000000
# 6 0.000000 0.000000 0.000000 0.035298 0.000000 0.087439
#
#
# Mechanical properties :
#
#
# Convention : Reuss Voigt Hill
#
# Bulk Modulus (GPa) = 9.45125 37.20595 23.32860
# Shear Modulus (GPa) = 12.50475 20.64193 16.57334
#
# Velocity S-wave (km/s) = 2.63036 3.37950 3.02819
# Velocity P-wave (km/s) = 3.80189 5.98447 5.01340
#
# Compressibility (1/GPa) = 0.10580613
#
# Stress axis : x y z
#
# Youngs Moduli (GPa) = 57.78591 10.73147 71.62302
#
# Poissons Ratio (x) = -0.07404 0.65802
# Poissons Ratio (y) = -0.39869 0.50384
# Poissons Ratio (z) = 0.53089 0.07549
#
# Static dielectric constant tensor:
#      x y z
#    x 1.614400 0.000000 -0.017410 
#    y 0.000000 1.646730 0.000000 
#    z -0.017410 0.000000 1.623260 
# 
# From -- ./inp_files/70043.got.cif
#   From: 2010.05.17/outbox.cif.g08.bks.cpg/sg10_36_cif.got.tgz:70043.got - 2010.06.03 11:33:40.
