data_PCOD9145879
_publ_section_title
;
Structure prediction by ZEFSAII (Michael W. Deem and Ramdas Pophale) SiO2 
 PCOD9145879
Probable space group: P 2/M
;
_chemical_formula_sum "Si O2"
_cell_formula_units_Z 20
_cell_length_a 16.014867
_cell_length_b 8.456498
_cell_length_c 7.277439
_cell_angle_alpha 90.000000
_cell_angle_beta 71.716080
_cell_angle_gamma 90.000000
_cell_volume 935.822823
_symmetry_space_group_name_H-M "P 2/M"
_symmetry_group_IT_number 10
_symmetry_cell_setting 'monoclinic'
loop_
_space_group_symop_operation_xyz
x,y,z
-x,y,-z
-x,-y,-z
x,-y,z
loop_
_atom_site_type_symbol
_atom_site_label
_atom_site_fract_x
_atom_site_fract_y
_atom_site_fract_z
Si Si1 0.668304 0.825534 0.840880
Si Si2 0.396943 0.166648 0.522966
Si Si3 0.605393 0.500000 0.471960
Si Si4 0.145159 0.308355 0.390980
Si Si5 0.010846 0.691251 0.786852
Si Si6 0.396627 0.500000 0.088535
O O1 0.611302 0.831216 0.692523
O O2 0.767271 0.788079 0.708765
O O3 0.638322 0.666261 0.964725
O O4 0.660484 0.000000 0.932498
O O5 0.500000 0.166823 0.500000
O O6 0.357783 0.332250 0.618675
O O7 0.357619 0.000000 0.613463
O O8 0.500000 0.500000 0.500000
O O9 0.622083 0.500000 0.679655
O O10 0.162119 0.500000 0.379960
O O11 0.097868 0.261757 0.614228
O O12 0.073551 0.275419 0.281706
O O13 0.015762 0.500000 0.792849
O O14 0.000000 0.753618 0.000000
O O15 0.500000 0.500000 0.000000
#
# Coordination Sequence:
#
# PCOD9145879 Si02
#       6
#     4   4   2   4   4   2
#     4  10  19  32  54  77 107 144 183 230 279 335
#     4   8  14  25  43  66  92 127 166 210 258 303
#     4   8  14  26  46  66  87 114 160 208 246 306
#     4   9  16  30  55  82 111 150 184 229 283 332
#     4   8  15  29  54  83 114 147 187 227 276 341
#     4  10  20  34  54  75 101 138 184 227 276 332
#
# _framework density 21.371569000000001
#
# number of rings (size 3 to 8) (size 9 to 14) (size 15 to 20)
#    0.000    3.200    1.000    1.200    0.000    0.400 
#    0.000    2.000   17.600    2.400    0.000    0.000 
#    0.000    0.000    0.000    0.000    0.000    0.000 
#
# Total GULP energy -111391.108313 kJ/mol
# GULP energy per Si atom -5569.555416 kJ/mol
# Density = 2.132293 g / cm^3
# Si number density = 21.371569 Si / 1000 Ang^3
#
#
#
# Elastic Constant Matrix: (Units=GPa)
#
#
# Indices 1 2 3 4 5 6 
#
# 1 23.9493 7.9662 13.2781 0.0000 -5.2847 0.0000
# 2 7.9662 209.2501 19.9946 0.0000 -8.0917 0.0000
# 3 13.2781 19.9946 82.2973 0.0000 17.3435 0.0000
# 4 0.0000 0.0000 0.0000 -13.1523 0.0000 -6.9209
# 5 -5.2847 -8.0917 17.3435 0.0000 28.5169 0.0000
# 6 0.0000 0.0000 0.0000 -6.9209 0.0000 7.0687
#
#
#
# Elastic Compliance Matrix: (Units=1/GPa)
#
#
# Indices 1 2 3 4 5 6 
#
# 1 0.052148 -0.000194 -0.011919 0.000000 0.016858 0.000000
# 2 -0.000194 0.005044 -0.001707 0.000000 0.002433 0.000000
# 3 -0.011919 -0.001707 0.017270 0.000000 -0.013196 0.000000
# 4 0.000000 0.000000 0.000000 -0.050179 0.000000 -0.049130
# 5 0.016858 0.002433 -0.013196 0.000000 0.046907 0.000000
# 6 0.000000 0.000000 0.000000 -0.049130 0.000000 0.093366
#
#
# Mechanical properties :
#
#
# Convention : Reuss Voigt Hill
#
# Bulk Modulus (GPa) = 21.35815 44.21938 32.78876
# Shear Modulus (GPa) = 24.06129 22.77049 23.41589
#
# Velocity S-wave (km/s) = 3.35902 3.26768 3.31366
# Velocity P-wave (km/s) = 5.00594 5.91376 5.47869
#
# Compressibility (1/GPa) = 0.04682054
#
# Stress axis : x y z
#
# Youngs Moduli (GPa) = 19.17631 198.27310 57.90449
#
# Poissons Ratio (x) = 0.03856 0.69017
# Poissons Ratio (y) = 0.00373 0.09883
# Poissons Ratio (z) = 0.22856 0.33840
#
# Static dielectric constant tensor:
#      x y z
#    x 1.866770 0.000000 0.137510 
#    y 0.000000 1.881290 0.000000 
#    z 0.137510 0.000000 1.862820 
# 
# From -- ./inp_files/31172.got.cif
#   From: 2010.05.17/outbox.cif.g08.bks.cpg/sg10_16_cif.got.tgz:31172.got - 2010.06.03 11:33:40.
