data_PCOD9145300
_publ_section_title
;
Structure prediction by ZEFSAII (Michael W. Deem and Ramdas Pophale) SiO2 
 PCOD9145300
Probable space group: P 2/M
;
_chemical_formula_sum "Si O2"
_cell_formula_units_Z 32
_cell_length_a 33.908414
_cell_length_b 8.988282
_cell_length_c 12.630508
_cell_angle_alpha 90.000000
_cell_angle_beta 27.909033
_cell_angle_gamma 90.000000
_cell_volume 1801.834893
_symmetry_space_group_name_H-M "P 2/M"
_symmetry_group_IT_number 10
_symmetry_cell_setting 'monoclinic'
loop_
_space_group_symop_operation_xyz
x,y,z
-x,y,-z
-x,-y,-z
x,-y,z
loop_
_atom_site_type_symbol
_atom_site_label
_atom_site_fract_x
_atom_site_fract_y
_atom_site_fract_z
Si Si1 0.689313 0.174414 0.663913
Si Si2 0.729450 0.323163 0.784420
Si Si3 0.852119 0.322256 0.683924
Si Si4 0.507384 0.173314 0.810677
Si Si5 0.799558 0.179147 0.030776
Si Si6 0.328756 0.323841 0.509426
Si Si7 0.535402 0.323975 0.300235
Si Si8 0.020832 0.830107 0.324802
O O1 0.733682 0.236700 0.663776
O O2 0.709015 0.263661 0.510894
O O3 0.706473 0.000000 0.608654
O O4 0.588766 0.192102 0.923419
O O5 0.737071 0.500000 0.746001
O O6 0.798024 0.280117 0.709289
O O7 0.635784 0.298639 0.054444
O O8 0.847423 0.500000 0.708424
O O9 0.949095 0.270863 0.444120
O O10 0.814392 0.245124 0.878660
O O11 0.574380 0.271685 0.713878
O O12 0.507458 0.226192 0.688766
O O13 0.530015 0.000000 0.768401
O O14 0.719181 0.246620 0.279285
O O15 0.795864 0.000000 0.033363
O O16 0.882120 0.218764 0.905874
O O17 0.322168 0.500000 0.532153
O O18 0.500000 0.290894 0.500000
O O19 0.520499 0.500000 0.313648
O O20 0.000000 0.832952 0.500000
O O21 0.013784 0.000000 0.302672
#
# Coordination Sequence:
#
# PCOD9145300 Si02
#       8
#     4   4   4   4   4   4   4   4
#     4  10  21  38  57  76 102 138 181 223 263 307
#     4   9  19  34  51  76 107 139 177 216 258 309
#     4  10  19  31  53  83 113 142 175 215 258 314
#     4  10  21  36  53  76 103 136 179 222 261 309
#     4  10  21  36  53  78 110 141 174 216 266 316
#     4  12  24  36  55  79 105 137 175 221 271 319
#     4   9  18  32  50  71 103 144 177 214 260 306
#     4   8  16  32  52  74 105 142 175 210 258 315
#
# _framework density 17.759671999999998
#
# number of rings (size 3 to 8) (size 9 to 14) (size 15 to 20)
#    0.000    2.250    0.000    3.750    1.750    7.000 
#    0.000    0.000    0.000    0.750    0.000    5.250 
#    0.000    0.000    0.000    0.000    0.000    0.000 
#
# Total GULP energy -178576.313543 kJ/mol
# GULP energy per Si atom -5580.509798 kJ/mol
# Density = 1.771925 g / cm^3
# Si number density = 17.759672 Si / 1000 Ang^3
#
#
#
# Elastic Constant Matrix: (Units=GPa)
#
#
# Indices 1 2 3 4 5 6 
#
# 1 107.3025 52.3232 18.6812 0.0000 -14.3918 0.0000
# 2 52.3232 73.2442 22.9218 0.0000 -8.8438 0.0000
# 3 18.6812 22.9218 19.3006 0.0000 -7.5036 0.0000
# 4 0.0000 0.0000 0.0000 -30.7915 0.0000 -57.6194
# 5 -14.3918 -8.8438 -7.5036 0.0000 20.2555 0.0000
# 6 0.0000 0.0000 0.0000 -57.6194 0.0000 -24.8598
#
#
#
# Elastic Compliance Matrix: (Units=1/GPa)
#
#
# Indices 1 2 3 4 5 6 
#
# 1 0.015034 -0.009854 -0.000431 0.000000 0.006220 0.000000
# 2 -0.009854 0.028188 -0.025557 0.000000 -0.004162 0.000000
# 3 -0.000431 -0.025557 0.091268 0.000000 0.022346 0.000000
# 4 0.000000 0.000000 0.000000 0.009732 0.000000 -0.022556
# 5 0.006220 -0.004162 0.022346 0.000000 0.060250 0.000000
# 6 0.000000 0.000000 0.000000 -0.022556 0.000000 0.012054
#
#
# Mechanical properties :
#
#
# Convention : Reuss Voigt Hill
#
# Bulk Modulus (GPa) = 15.92176 43.07777 29.49977
# Shear Modulus (GPa) = 16.17387 -0.01775 8.07806
#
# Velocity S-wave (km/s) = 3.02107 -0.10008 2.13504
# Velocity P-wave (km/s) = 4.59932 4.92902 4.76702
#
# Compressibility (1/GPa) = 0.06280714
#
# Stress axis : x y z
#
# Youngs Moduli (GPa) = 66.51802 35.47667 10.95680
#
# Poissons Ratio (x) = 0.34958 0.00472
# Poissons Ratio (y) = 0.65545 0.28002
# Poissons Ratio (z) = 0.02864 0.90666
#
# Static dielectric constant tensor:
#      x y z
#    x 1.599000 0.000000 -0.017050 
#    y 0.000000 1.592140 0.000000 
#    z -0.017050 0.000000 1.610840 
# 
# From -- ./inp_files/58165.got.cif
#   From: 2010.05.17/outbox.cif.g08.bks.cpg/sg10_30_cif.got.tgz:58165.got - 2010.06.03 11:33:40.
