data_PCOD9145900
_publ_section_title
;
Structure prediction by ZEFSAII (Michael W. Deem and Ramdas Pophale) SiO2 
 PCOD9145900
Probable space group: P 2/M
;
_chemical_formula_sum "Si O2"
_cell_formula_units_Z 32
_cell_length_a 5.500760
_cell_length_b 9.343043
_cell_length_c 31.909214
_cell_angle_alpha 90.000000
_cell_angle_beta 95.404475
_cell_angle_gamma 90.000000
_cell_volume 1632.646793
_symmetry_space_group_name_H-M "P 2/M"
_symmetry_group_IT_number 10
_symmetry_cell_setting 'monoclinic'
loop_
_space_group_symop_operation_xyz
x,y,z
-x,y,-z
-x,-y,-z
x,-y,z
loop_
_atom_site_type_symbol
_atom_site_label
_atom_site_fract_x
_atom_site_fract_y
_atom_site_fract_z
Si Si1 0.474071 0.173886 0.451521
Si Si2 0.366344 0.328778 0.264395
Si Si3 0.369647 0.164677 0.177273
Si Si4 0.112097 0.337549 0.097587
Si Si5 0.663305 0.159712 0.964374
Si Si6 0.105624 0.671593 0.685371
Si Si7 0.728262 0.846405 0.115234
Si Si8 0.051785 0.826441 0.595850
O O1 0.500000 0.222435 0.500000
O O2 0.210672 0.216126 0.428288
O O3 0.712621 0.216075 0.428435
O O4 0.474265 0.000000 0.451962
O O5 0.361989 0.500000 0.256756
O O6 0.352963 0.245106 0.220555
O O7 0.128046 0.294428 0.288815
O O8 0.628337 0.295365 0.290224
O O9 0.230433 0.251075 0.138487
O O10 0.640385 0.158148 0.161536
O O11 0.287908 0.000000 0.179762
O O12 0.189851 0.500000 0.098475
O O13 0.140925 0.265304 0.052354
O O14 0.835307 0.306457 0.105033
O O15 0.490213 0.142098 0.921274
O O16 0.751758 0.000000 0.977184
O O17 0.500000 0.213574 0.000000
O O18 0.099744 0.500000 0.677962
O O19 0.077732 0.755915 0.641642
O O20 0.866522 0.000000 0.110805
O O21 0.053512 0.000000 0.599030
#
# Coordination Sequence:
#
# PCOD9145900 Si02
#       8
#     4   4   4   4   4   4   4   4
#     4   9  17  30  51  81 113 145 186 239 292 338
#     4  10  22  39  58  83 112 148 192 234 286 352
#     4  10  22  39  59  82 108 140 181 234 285 332
#     4  11  22  35  55  81 111 145 179 221 276 339
#     4   9  19  37  58  79 106 142 184 228 272 325
#     4  10  22  39  57  80 115 154 190 232 289 350
#     4   9  19  36  56  79 107 140 180 223 276 334
#     4  10  19  32  54  80 108 145 191 237 283 340
#
# _framework density 19.600073999999999
#
# number of rings (size 3 to 8) (size 9 to 14) (size 15 to 20)
#    0.000    2.250    0.000    3.375    1.750    5.750 
#    0.000    2.500    0.000    2.250    0.000    0.000 
#    0.000    0.000    0.000    0.000    0.000    0.000 
#
# Total GULP energy -178177.097114 kJ/mol
# GULP energy per Si atom -5568.034285 kJ/mol
# Density = 1.955546 g / cm^3
# Si number density = 19.600074 Si / 1000 Ang^3
#
#
#
# Elastic Constant Matrix: (Units=GPa)
#
#
# Indices 1 2 3 4 5 6 
#
# 1 113.9139 19.8969 59.0712 0.0000 -14.7420 0.0000
# 2 19.8969 31.9327 22.1473 0.0000 -15.8120 0.0000
# 3 59.0712 22.1473 130.3771 0.0000 -30.3268 0.0000
# 4 0.0000 0.0000 0.0000 -5.9896 0.0000 1.6692
# 5 -14.7420 -15.8120 -30.3268 0.0000 30.5401 0.0000
# 6 0.0000 0.0000 0.0000 1.6692 0.0000 15.8906
#
#
#
# Elastic Compliance Matrix: (Units=1/GPa)
#
#
# Indices 1 2 3 4 5 6 
#
# 1 0.012003 -0.004840 -0.005008 0.000000 -0.001685 0.000000
# 2 -0.004840 0.044812 -0.000736 0.000000 0.020134 0.000000
# 3 -0.005008 -0.000736 0.012241 0.000000 0.009356 0.000000
# 4 0.000000 0.000000 0.000000 -0.162208 0.000000 0.017039
# 5 -0.001685 0.020134 0.009356 0.000000 0.051646 0.000000
# 6 0.000000 0.000000 0.000000 0.017039 0.000000 0.061140
#
#
# Mechanical properties :
#
#
# Convention : Reuss Voigt Hill
#
# Bulk Modulus (GPa) = 20.88243 53.16160 37.02201
# Shear Modulus (GPa) = 88.08436 19.76211 53.92323
#
# Velocity S-wave (km/s) = 6.71106 3.17877 5.25085
# Velocity P-wave (km/s) = 8.41003 6.37611 7.46269
#
# Compressibility (1/GPa) = 0.04788715
#
# Stress axis : x y z
#
# Youngs Moduli (GPa) = 83.31384 22.31566 81.69588
#
# Poissons Ratio (x) = 0.10800 0.40913
# Poissons Ratio (y) = 0.40322 0.06013
# Poissons Ratio (z) = 0.41724 0.01643
#
# Static dielectric constant tensor:
#      x y z
#    x 1.831490 0.000000 -0.011300 
#    y 0.000000 1.722350 0.000000 
#    z -0.011300 0.000000 1.641390 
# 
# From -- ./inp_files/94324.got.cif
#   From: 2010.05.17/outbox.cif.g08.bks.cpg/sg10_48_cif.got.tgz:94324.got - 2010.06.03 11:33:40.
