data_PCOD9145152
_publ_section_title
;
Structure prediction by ZEFSAII (Michael W. Deem and Ramdas Pophale) SiO2 
 PCOD9145152
Probable space group: P 2/M
;
_chemical_formula_sum "Si O2"
_cell_formula_units_Z 32
_cell_length_a 22.337577
_cell_length_b 9.395319
_cell_length_c 17.359165
_cell_angle_alpha 90.000000
_cell_angle_beta 152.835068
_cell_angle_gamma 90.000000
_cell_volume 1663.290375
_symmetry_space_group_name_H-M "P 2/M"
_symmetry_group_IT_number 10
_symmetry_cell_setting 'monoclinic'
loop_
_space_group_symop_operation_xyz
x,y,z
-x,y,-z
-x,-y,-z
x,-y,z
loop_
_atom_site_type_symbol
_atom_site_label
_atom_site_fract_x
_atom_site_fract_y
_atom_site_fract_z
Si Si1 0.379759 0.833895 0.803247
Si Si2 0.646457 0.673163 0.653408
Si Si3 0.110920 0.163282 0.324124
Si Si4 0.831007 0.669490 0.176037
Si Si5 0.908566 0.836267 0.512174
Si Si6 0.854716 0.330826 0.019324
Si Si7 0.338851 0.330107 0.504761
Si Si8 0.462762 0.670119 0.144608
O O1 0.239376 0.785196 0.677904
O O2 0.434010 0.743055 0.794291
O O3 0.359670 0.000000 0.757390
O O4 0.500000 0.829079 0.000000
O O5 0.500000 0.724151 0.500000
O O6 0.644568 0.500000 0.651920
O O7 0.681454 0.714729 0.606566
O O8 0.741134 0.715384 0.831061
O O9 0.099929 0.166671 0.404213
O O10 0.236597 0.247254 0.439695
O O11 0.984176 0.243939 0.147820
O O12 0.115784 0.000000 0.305361
O O13 0.843198 0.500000 0.203824
O O14 0.826592 0.690353 0.077946
O O15 0.960159 0.747841 0.356692
O O16 0.687168 0.719147 0.039283
O O17 0.924631 0.000000 0.505043
O O18 0.876680 0.500000 0.034441
O O19 0.316346 0.500000 0.484065
O O20 0.483095 0.305400 0.706562
O O21 0.464172 0.500000 0.133828
#
# Coordination Sequence:
#
# PCOD9145152 Si02
#       8
#     4   4   4   4   4   4   4   4
#     4  10  21  38  59  81 106 137 174 215 258 309
#     4   9  17  30  49  72  98 131 172 218 263 304
#     4  10  19  32  50  72 100 134 172 215 259 307
#     4   9  18  32  53  80 107 139 175 215 261 307
#     4   9  18  34  54  77 103 135 175 213 254 308
#     4   9  17  31  51  73 101 135 175 218 259 304
#     4  10  19  31  51  76 101 132 172 215 259 307
#     4  10  20  34  54  82 111 135 171 218 263 315
#
# _framework density 19.238973999999999
#
# number of rings (size 3 to 8) (size 9 to 14) (size 15 to 20)
#    0.000    2.500    1.250    1.125    0.000    5.250 
#    0.000    3.750    0.000    6.750    0.000    0.000 
#    0.000    0.000    0.000    0.000    0.000    0.000 
#
# Total GULP energy -178365.937658 kJ/mol
# GULP energy per Si atom -5573.935552 kJ/mol
# Density = 1.919519 g / cm^3
# Si number density = 19.238974 Si / 1000 Ang^3
#
#
#
# Elastic Constant Matrix: (Units=GPa)
#
#
# Indices 1 2 3 4 5 6 
#
# 1 18.4506 8.4958 15.1006 0.0000 3.4844 0.0000
# 2 8.4958 18.6139 32.0286 0.0000 3.5696 0.0000
# 3 15.1006 32.0286 152.3603 0.0000 14.0684 0.0000
# 4 0.0000 0.0000 0.0000 9.8763 0.0000 -8.9171
# 5 3.4844 3.5696 14.0684 0.0000 29.5174 0.0000
# 6 0.0000 0.0000 0.0000 -8.9171 0.0000 -2.1170
#
#
#
# Elastic Compliance Matrix: (Units=1/GPa)
#
#
# Indices 1 2 3 4 5 6 
#
# 1 0.069187 -0.030759 0.000020 0.000000 -0.004457 0.000000
# 2 -0.030759 0.097937 -0.017554 0.000000 0.000153 0.000000
# 3 0.000020 -0.017554 0.010519 0.000000 -0.002893 0.000000
# 4 0.000000 0.000000 0.000000 0.021081 0.000000 -0.088796
# 5 -0.004457 0.000153 -0.002893 0.000000 0.035765 0.000000
# 6 0.000000 0.000000 0.000000 -0.088796 0.000000 -0.098347
#
#
# Mechanical properties :
#
#
# Convention : Reuss Voigt Hill
#
# Bulk Modulus (GPa) = 12.33675 33.40830 22.87253
# Shear Modulus (GPa) = 19.24959 16.37533 17.81246
#
# Velocity S-wave (km/s) = 3.16658 2.92062 3.04608
# Velocity P-wave (km/s) = 4.44926 5.36432 4.92808
#
# Compressibility (1/GPa) = 0.08105860
#
# Stress axis : x y z
#
# Youngs Moduli (GPa) = 14.45351 10.21060 95.07027
#
# Poissons Ratio (x) = 0.31407 -0.00194
# Poissons Ratio (y) = 0.44458 1.66883
# Poissons Ratio (z) = -0.00029 0.17923
#
# Static dielectric constant tensor:
#      x y z
#    x 1.685370 0.000000 -0.017400 
#    y 0.000000 1.641750 0.000000 
#    z -0.017400 0.000000 1.710520 
# 
# From -- ./inp_files/87029.got.cif
#   From: 2010.05.17/outbox.cif.g08.bks.cpg/sg10_44_cif.got.tgz:87029.got - 2010.06.03 11:33:40.
