data_PCOD9145078
_publ_section_title
;
Structure prediction by ZEFSAII (Michael W. Deem and Ramdas Pophale) SiO2 
 PCOD9145078
Probable space group: P 2/M
;
_chemical_formula_sum "Si O2"
_cell_formula_units_Z 28
_cell_length_a 12.475017
_cell_length_b 7.487526
_cell_length_c 15.025410
_cell_angle_alpha 90.000000
_cell_angle_beta 69.336727
_cell_angle_gamma 90.000000
_cell_volume 1313.193488
_symmetry_space_group_name_H-M "P 2/M"
_symmetry_group_IT_number 10
_symmetry_cell_setting 'monoclinic'
loop_
_space_group_symop_operation_xyz
x,y,z
-x,y,-z
-x,-y,-z
x,-y,z
loop_
_atom_site_type_symbol
_atom_site_label
_atom_site_fract_x
_atom_site_fract_y
_atom_site_fract_z
Si Si1 0.263044 0.289904 0.055378
Si Si2 0.111825 0.781789 0.581108
Si Si3 0.009620 0.283468 0.100922
Si Si4 0.631389 0.793661 0.796481
Si Si5 0.219136 0.793099 0.725656
Si Si6 0.143988 0.782191 0.367768
Si Si7 0.621273 0.216587 0.166480
O O1 0.260415 0.500000 0.073699
O O2 0.132811 0.221363 0.100956
O O3 0.346963 0.210428 0.104326
O O4 0.307229 0.262873 0.942610
O O5 0.193246 0.715834 0.636000
O O6 0.147309 0.731802 0.470857
O O7 0.979651 0.724471 0.633438
O O8 0.111888 0.000000 0.583852
O O9 0.006851 0.500000 0.105216
O O10 0.901800 0.214403 0.187043
O O11 0.000000 0.232332 0.000000
O O12 0.745274 0.716270 0.717428
O O13 0.508420 0.716357 0.806847
O O14 0.627141 0.000000 0.768998
O O15 0.313629 0.715882 0.764767
O O16 0.251024 0.000000 0.702767
O O17 0.142729 0.000000 0.364363
O O18 0.619720 0.000000 0.170193
#
# Coordination Sequence:
#
# PCOD9145078 Si02
#       7
#     4   4   4   4   4   4   4
#     4  11  22  35  52  72  95 128 168 206 246 292
#     4   8  14  26  47  75  99 121 156 202 244 288
#     4  10  20  34  49  69  99 128 157 199 248 293
#     4  10  20  34  51  71  98 132 167 202 244 287
#     4  10  19  31  50  75 101 130 166 201 238 287
#     4   8  14  27  48  72  98 125 156 198 248 290
#     4  10  21  34  47  69 102 134 165 204 241 282
#
# _framework density 21.322067000000001
#
# number of rings (size 3 to 8) (size 9 to 14) (size 15 to 20)
#    0.000    2.429    1.429    2.571    0.000    4.857 
#    0.000    0.714    0.000    5.143    0.000    4.000 
#    0.000    3.429    0.000    0.000    0.000    0.000 
#
# Total GULP energy -156372.888280 kJ/mol
# GULP energy per Si atom -5584.746010 kJ/mol
# Density = 2.127354 g / cm^3
# Si number density = 21.322067 Si / 1000 Ang^3
#
#
#
# Elastic Constant Matrix: (Units=GPa)
#
#
# Indices 1 2 3 4 5 6 
#
# 1 166.2591 3.4642 45.6008 0.0000 31.1000 0.0000
# 2 3.4642 59.8191 -6.2960 0.0000 -3.2574 0.0000
# 3 45.6008 -6.2960 57.5081 0.0000 26.1024 0.0000
# 4 0.0000 0.0000 0.0000 -96.1300 0.0000 -1.7748
# 5 31.1000 -3.2574 26.1024 0.0000 31.8348 0.0000
# 6 0.0000 0.0000 0.0000 -1.7748 0.0000 -3.7780
#
#
#
# Elastic Compliance Matrix: (Units=1/GPa)
#
#
# Indices 1 2 3 4 5 6 
#
# 1 0.008103 -0.001187 -0.004630 0.000000 -0.004241 0.000000
# 2 -0.001187 0.017088 0.002377 0.000000 0.000960 0.000000
# 3 -0.004630 0.002377 0.030513 0.000000 -0.020252 0.000000
# 4 0.000000 0.000000 0.000000 -0.010494 0.000000 0.004930
# 5 -0.004241 0.000960 -0.020252 0.000000 0.052258 0.000000
# 6 0.000000 0.000000 0.000000 0.004930 0.000000 -0.267008
#
#
# Mechanical properties :
#
#
# Convention : Reuss Voigt Hill
#
# Bulk Modulus (GPa) = 20.48262 41.01382 30.74822
# Shear Modulus (GPa) = -34.15664 2.43985 -15.85839
#
# Velocity S-wave (km/s) = -4.00676 1.07087 -2.73015
# Velocity P-wave (km/s) = 3.43197 4.56138 2.12459
#
# Compressibility (1/GPa) = 0.04882188
#
# Stress axis : x y z
#
# Youngs Moduli (GPa) = 123.41646 58.51968 32.77337
#
# Poissons Ratio (x) = 0.06949 0.15174
# Poissons Ratio (y) = 0.14656 -0.07790
# Poissons Ratio (z) = 0.57143 -0.13909
#
# Static dielectric constant tensor:
#      x y z
#    x 1.777330 0.000000 0.015910 
#    y 0.000000 1.962110 0.000000 
#    z 0.015910 0.000000 1.737080 
# 
# From -- ./inp_files/49120.got.cif
#   From: 2010.05.17/outbox.cif.g08.bks.cpg/sg10_25_cif.got.tgz:49120.got - 2010.06.03 11:33:40.
