data_PCOD9145442
_publ_section_title
;
Structure prediction by ZEFSAII (Michael W. Deem and Ramdas Pophale) SiO2 
 PCOD9145442
Probable space group: P 2/M
;
_chemical_formula_sum "Si O2"
_cell_formula_units_Z 28
_cell_length_a 21.418873
_cell_length_b 9.536811
_cell_length_c 27.839339
_cell_angle_alpha 90.000000
_cell_angle_beta 162.763856
_cell_angle_gamma 90.000000
_cell_volume 1685.023319
_symmetry_space_group_name_H-M "P 2/M"
_symmetry_group_IT_number 10
_symmetry_cell_setting 'monoclinic'
loop_
_space_group_symop_operation_xyz
x,y,z
-x,y,-z
-x,-y,-z
x,-y,z
loop_
_atom_site_type_symbol
_atom_site_label
_atom_site_fract_x
_atom_site_fract_y
_atom_site_fract_z
Si Si1 0.117686 0.666141 0.011000
Si Si2 0.185833 0.331756 0.674914
Si Si3 0.877701 0.166121 0.078001
Si Si4 0.625068 0.832472 0.990147
Si Si5 0.634102 0.832952 0.550889
Si Si6 0.321076 0.666149 0.262594
Si Si7 0.250309 0.340766 0.829475
O O1 0.113434 0.500000 0.998204
O O2 0.195363 0.749291 0.022124
O O3 0.880842 0.708463 0.853212
O O4 0.257325 0.689639 0.160775
O O5 0.229506 0.500000 0.704038
O O6 0.135966 0.304281 0.694996
O O7 0.000000 0.300793 0.500000
O O8 0.397733 0.243720 0.820607
O O9 0.746437 0.193058 0.029563
O O10 0.122328 0.205179 0.265227
O O11 0.869492 0.000000 0.062082
O O12 0.756783 0.765544 0.131267
O O13 0.600478 0.000000 0.979110
O O14 0.500000 0.797696 0.500000
O O15 0.522488 0.751902 0.426112
O O16 0.620246 0.000000 0.533756
O O17 0.351374 0.500000 0.291833
O O18 0.190792 0.500000 0.799760
O O19 0.500000 0.343416 0.000000
#
# Coordination Sequence:
#
# PCOD9145442 Si02
#       7
#     4   4   4   4   4   4   4
#     4   9  18  32  50  71  96 127 162 205 256 306
#     4   9  18  34  56  80 104 131 164 204 243 287
#     4  10  21  35  49  71 102 133 169 209 251 297
#     4  10  20  33  50  74 105 136 165 204 249 295
#     4  10  19  32  50  71  95 129 171 210 247 295
#     4   9  18  32  49  72  97 120 159 213 261 301
#     4   8  15  30  52  75  99 129 166 200 234 288
#
# _framework density 16.616980000000002
#
# number of rings (size 3 to 8) (size 9 to 14) (size 15 to 20)
#    0.000    2.714    1.429    2.143    0.000    5.429 
#    0.000    2.857    0.000    6.857    0.000    0.000 
#    0.000    0.000    0.000    0.000    0.000    0.000 
#
# Total GULP energy -155980.247369 kJ/mol
# GULP energy per Si atom -5570.723120 kJ/mol
# Density = 1.657916 g / cm^3
# Si number density = 16.616980 Si / 1000 Ang^3
#
#
#
# Elastic Constant Matrix: (Units=GPa)
#
#
# Indices 1 2 3 4 5 6 
#
# 1 109.0685 61.5430 39.8631 0.0000 -13.5505 0.0000
# 2 61.5430 46.9425 36.5355 0.0000 -8.0036 0.0000
# 3 39.8631 36.5355 66.5603 0.0000 -15.7881 0.0000
# 4 0.0000 0.0000 0.0000 23.0363 0.0000 -7.0840
# 5 -13.5505 -8.0036 -15.7881 0.0000 22.6682 0.0000
# 6 0.0000 0.0000 0.0000 -7.0840 0.0000 29.7700
#
#
#
# Elastic Compliance Matrix: (Units=1/GPa)
#
#
# Indices 1 2 3 4 5 6 
#
# 1 0.039480 -0.058498 0.010978 0.000000 0.010592 0.000000
# 2 -0.058498 0.123900 -0.037007 0.000000 -0.016998 0.000000
# 3 0.010978 -0.037007 0.032607 0.000000 0.016206 0.000000
# 4 0.000000 0.000000 0.000000 0.046837 0.000000 0.011145
# 5 0.010592 -0.016998 0.016206 0.000000 0.055732 0.000000
# 6 0.000000 0.000000 0.000000 0.011145 0.000000 0.036243
#
#
# Mechanical properties :
#
#
# Convention : Reuss Voigt Hill
#
# Bulk Modulus (GPa) = 37.12979 55.38384 46.25682
# Shear Modulus (GPa) = 9.74977 20.73687 15.24332
#
# Velocity S-wave (km/s) = 2.42489 3.53644 3.03204
# Velocity P-wave (km/s) = 5.49847 7.07653 6.33681
#
# Compressibility (1/GPa) = 0.02693255
#
# Stress axis : x y z
#
# Youngs Moduli (GPa) = 25.32899 8.07102 30.66814
#
# Poissons Ratio (x) = 0.47214 -0.33666
# Poissons Ratio (y) = 1.48170 1.13494
# Poissons Ratio (z) = -0.27805 0.29869
#
# Static dielectric constant tensor:
#      x y z
#    x 1.562250 0.000000 -0.014550 
#    y 0.000000 1.554480 0.000000 
#    z -0.014550 0.000000 1.568030 
# 
# From -- ./inp_files/79309.got.cif
#   From: 2010.05.17/outbox.cif.g08.bks.cpg/sg10_40_cif.got.tgz:79309.got - 2010.06.03 11:33:40.
