data_PCOD9145309
_publ_section_title
;
Structure prediction by ZEFSAII (Michael W. Deem and Ramdas Pophale) SiO2 
 PCOD9145309
Probable space group: P 2/M
;
_chemical_formula_sum "Si O2"
_cell_formula_units_Z 32
_cell_length_a 29.704649
_cell_length_b 7.826191
_cell_length_c 11.898342
_cell_angle_alpha 90.000000
_cell_angle_beta 28.574043
_cell_angle_gamma 90.000000
_cell_volume 1322.989189
_symmetry_space_group_name_H-M "P 2/M"
_symmetry_group_IT_number 10
_symmetry_cell_setting 'monoclinic'
loop_
_space_group_symop_operation_xyz
x,y,z
-x,y,-z
-x,-y,-z
x,-y,z
loop_
_atom_site_type_symbol
_atom_site_label
_atom_site_fract_x
_atom_site_fract_y
_atom_site_fract_z
Si Si1 0.924244 0.197210 0.075238
Si Si2 0.677175 0.798212 0.137233
Si Si3 0.131046 0.798979 0.399436
Si Si4 0.927571 0.307331 0.818537
Si Si5 0.275811 0.301262 0.733148
Si Si6 0.595224 0.293694 0.088751
Si Si7 0.446984 0.290308 0.229739
Si Si8 0.211808 0.301547 0.449916
O O1 0.827349 0.206740 0.356068
O O2 0.947308 0.000000 0.995777
O O3 0.924027 0.301951 0.962234
O O4 0.000000 0.259732 0.000000
O O5 0.663656 0.708415 0.285520
O O6 0.603758 0.766334 0.198094
O O7 0.682102 0.000000 0.147311
O O8 0.778819 0.734886 0.867320
O O9 0.139686 0.715800 0.503448
O O10 0.029338 0.770469 0.567598
O O11 0.144346 0.000000 0.386803
O O12 0.928561 0.500000 0.772181
O O13 0.826446 0.221574 0.014478
O O14 0.256736 0.500000 0.748938
O O15 0.340631 0.232003 0.490420
O O16 0.596039 0.500000 0.089561
O O17 0.510121 0.236911 0.197461
O O18 0.690277 0.237077 0.815733
O O19 0.444424 0.500000 0.232790
O O20 0.500000 0.236220 0.000000
O O21 0.222724 0.500000 0.455957
#
# Coordination Sequence:
#
# PCOD9145309 Si02
#       8
#     4   4   4   4   4   4   4   4
#     4  11  22  34  51  77 114 160 201 239 288 353
#     4  10  22  40  63  88 120 159 197 243 293 354
#     4  10  20  36  56  81 115 155 196 234 286 352
#     4  11  23  36  55  84 116 154 198 248 299 341
#     4  10  23  41  62  89 119 153 199 251 297 350
#     4   9  19  36  63  93 117 151 195 246 299 347
#     4   9  19  38  65  92 121 155 193 241 298 359
#     4  10  19  31  53  84 114 146 192 246 293 339
#
# _framework density 24.187650999999999
#
# number of rings (size 3 to 8) (size 9 to 14) (size 15 to 20)
#    0.000    2.000    1.250    1.875    1.750    4.500 
#    0.000    5.625    0.000    0.750    0.000    0.000 
#    0.000    0.000    0.000    0.000    0.000    0.000 
#
# Total GULP energy -178836.780371 kJ/mol
# GULP energy per Si atom -5588.649387 kJ/mol
# Density = 2.413260 g / cm^3
# Si number density = 24.187651 Si / 1000 Ang^3
#
#
#
# Elastic Constant Matrix: (Units=GPa)
#
#
# Indices 1 2 3 4 5 6 
#
# 1 93.4522 -4.4488 29.5876 0.0000 -9.7092 0.0000
# 2 -4.4488 38.5273 -1.9772 0.0000 -2.8274 0.0000
# 3 29.5876 -1.9772 103.9887 0.0000 -0.8858 0.0000
# 4 0.0000 0.0000 0.0000 10.2646 0.0000 12.5607
# 5 -9.7092 -2.8274 -0.8858 0.0000 32.3234 0.0000
# 6 0.0000 0.0000 0.0000 12.5607 0.0000 37.1153
#
#
#
# Elastic Compliance Matrix: (Units=1/GPa)
#
#
# Indices 1 2 3 4 5 6 
#
# 1 0.012242 0.001511 -0.003423 0.000000 0.003716 0.000000
# 2 0.001511 0.026337 0.000094 0.000000 0.002760 0.000000
# 3 -0.003423 0.000094 0.010586 0.000000 -0.000730 0.000000
# 4 0.000000 0.000000 0.000000 0.166285 0.000000 -0.056275
# 5 0.003716 0.002760 -0.000730 0.000000 0.032275 0.000000
# 6 0.000000 0.000000 0.000000 -0.056275 0.000000 0.045988
#
#
# Mechanical properties :
#
#
# Convention : Reuss Voigt Hill
#
# Bulk Modulus (GPa) = 21.96348 31.36571 26.66459
# Shear Modulus (GPa) = 15.99870 30.12778 23.06324
#
# Velocity S-wave (km/s) = 2.57464 3.53311 3.09125
# Velocity P-wave (km/s) = 4.23539 5.44423 4.87741
#
# Compressibility (1/GPa) = 0.04553013
#
# Stress axis : x y z
#
# Youngs Moduli (GPa) = 81.68387 37.96875 94.46510
#
# Poissons Ratio (x) = -0.05736 0.32334
# Poissons Ratio (y) = -0.12340 -0.00892
# Poissons Ratio (z) = 0.27960 -0.00359
#
# Static dielectric constant tensor:
#      x y z
#    x 1.923030 0.000000 -0.046790 
#    y 0.000000 1.863130 0.000000 
#    z -0.046790 0.000000 1.994360 
# 
# From -- ./inp_files/58111.got.cif
#   From: 2010.05.17/outbox.cif.g08.bks.cpg/sg10_30_cif.got.tgz:58111.got - 2010.06.03 11:33:40.
