data_PCOD9145508
_publ_section_title
;
Structure prediction by ZEFSAII (Michael W. Deem and Ramdas Pophale) SiO2 
 PCOD9145508
Probable space group: P 2/M
;
_chemical_formula_sum "Si O2"
_cell_formula_units_Z 32
_cell_length_a 11.304445
_cell_length_b 7.703265
_cell_length_c 19.414752
_cell_angle_alpha 90.000000
_cell_angle_beta 114.225264
_cell_angle_gamma 90.000000
_cell_volume 1541.778025
_symmetry_space_group_name_H-M "P 2/M"
_symmetry_group_IT_number 10
_symmetry_cell_setting 'monoclinic'
loop_
_space_group_symop_operation_xyz
x,y,z
-x,y,-z
-x,-y,-z
x,-y,z
loop_
_atom_site_type_symbol
_atom_site_label
_atom_site_fract_x
_atom_site_fract_y
_atom_site_fract_z
Si Si1 0.922161 0.699192 0.544965
Si Si2 0.275184 0.791081 0.741688
Si Si3 0.559118 0.709391 0.587120
Si Si4 0.712582 0.697334 0.030570
Si Si5 0.522280 0.797502 0.105242
Si Si6 0.081022 0.705664 0.818849
Si Si7 0.145456 0.713825 0.324062
Si Si8 0.694490 0.205257 0.403621
O O1 0.967258 0.500000 0.561685
O O2 0.923137 0.775101 0.621354
O O3 0.774243 0.702883 0.483186
O O4 0.000000 0.782529 0.500000
O O5 0.417530 0.747911 0.806964
O O6 0.172332 0.727052 0.773217
O O7 0.260466 0.727951 0.660325
O O8 0.264932 0.000000 0.736556
O O9 0.500000 0.772344 0.500000
O O10 0.562421 0.500000 0.585089
O O11 0.705238 0.769116 0.636991
O O12 0.456895 0.764259 0.620592
O O13 0.741314 0.500000 0.018308
O O14 0.609817 0.700297 0.069554
O O15 0.840475 0.778977 0.096550
O O16 0.628646 0.774606 0.948138
O O17 0.552358 0.000000 0.101262
O O18 0.069201 0.500000 0.828721
O O19 0.940848 0.771521 0.761273
O O20 0.143961 0.500000 0.325105
O O21 0.720478 0.000000 0.414554
#
# Coordination Sequence:
#
# PCOD9145508 Si02
#       8
#     4   4   4   4   4   4   4   4
#     4  10  19  32  51  71  92 122 158 188 221 276
#     4   9  19  32  44  64  96 128 153 186 227 272
#     4  10  19  35  55  69  86 116 158 202 234 271
#     4   9  15  23  38  64  94 118 145 183 224 262
#     4   9  15  25  41  59  85 124 159 178 210 266
#     4   9  17  29  47  70  95 123 152 186 228 276
#     4   9  17  31  49  69  91 117 152 192 230 268
#     4  11  22  34  48  68  96 122 152 195 241 277
#
# _framework density 20.755258000000001
#
# number of rings (size 3 to 8) (size 9 to 14) (size 15 to 20)
#    0.000    2.500    1.250    2.625    0.000    3.500 
#    0.000    1.250    0.000    0.000    0.000    0.875 
#    0.000    7.000    0.000    0.000    0.000    0.000 
#
# Total GULP energy -178351.036593 kJ/mol
# GULP energy per Si atom -5573.469894 kJ/mol
# Density = 2.070802 g / cm^3
# Si number density = 20.755258 Si / 1000 Ang^3
#
#
#
# Elastic Constant Matrix: (Units=GPa)
#
#
# Indices 1 2 3 4 5 6 
#
# 1 54.7156 -3.0962 3.7770 0.0000 26.1935 0.0000
# 2 -3.0962 43.5020 5.7736 0.0000 3.2077 0.0000
# 3 3.7770 5.7736 94.5533 0.0000 44.2503 0.0000
# 4 0.0000 0.0000 0.0000 9.0164 0.0000 -4.0946
# 5 26.1935 3.2077 44.2503 0.0000 34.7618 0.0000
# 6 0.0000 0.0000 0.0000 -4.0946 0.0000 -6.6677
#
#
#
# Elastic Compliance Matrix: (Units=1/GPa)
#
#
# Indices 1 2 3 4 5 6 
#
# 1 0.085474 0.008335 0.065744 0.000000 -0.148865 0.000000
# 2 0.008335 0.023998 0.005386 0.000000 -0.015350 0.000000
# 3 0.065744 0.005386 0.076775 0.000000 -0.147768 0.000000
# 4 0.000000 0.000000 0.000000 0.086724 0.000000 -0.053256
# 5 -0.148865 -0.015350 -0.147768 0.000000 0.330457 0.000000
# 6 0.000000 0.000000 0.000000 -0.053256 0.000000 -0.117272
#
#
# Mechanical properties :
#
#
# Convention : Reuss Voigt Hill
#
# Bulk Modulus (GPa) = 2.89707 22.85331 12.87519
# Shear Modulus (GPa) = 11.30492 19.84322 15.57407
#
# Velocity S-wave (km/s) = 2.33636 3.09537 2.74226
# Velocity P-wave (km/s) = 2.94567 4.87954 4.03031
#
# Compressibility (1/GPa) = 0.34517653
#
# Stress axis : x y z
#
# Youngs Moduli (GPa) = 11.69945 41.67057 13.02501
#
# Poissons Ratio (x) = -0.34731 -0.85632
# Poissons Ratio (y) = -0.09751 -0.07015
# Poissons Ratio (z) = -0.76917 -0.22442
#
# Static dielectric constant tensor:
#      x y z
#    x 1.756370 0.000000 0.057540 
#    y 0.000000 1.771000 0.000000 
#    z 0.057540 0.000000 1.800620 
# 
# From -- ./inp_files/54896.got.cif
#   From: 2010.05.17/outbox.cif.g08.bks.cpg/sg10_28_cif.got.tgz:54896.got - 2010.06.03 11:33:40.
