data_PCOD9145557
_publ_section_title
;
Structure prediction by ZEFSAII (Michael W. Deem and Ramdas Pophale) SiO2 
 PCOD9145557
Probable space group: P 2/M
;
_chemical_formula_sum "Si O2"
_cell_formula_units_Z 28
_cell_length_a 5.360441
_cell_length_b 32.752561
_cell_length_c 6.860757
_cell_angle_alpha 90.000000
_cell_angle_beta 103.227538
_cell_angle_gamma 90.000000
_cell_volume 1172.573203
_symmetry_space_group_name_H-M "P 2/M"
_symmetry_group_IT_number 10
_symmetry_cell_setting 'monoclinic'
loop_
_space_group_symop_operation_xyz
x,y,z
-x,y,-z
-x,-y,-z
x,-y,z
loop_
_atom_site_type_symbol
_atom_site_label
_atom_site_fract_x
_atom_site_fract_y
_atom_site_fract_z
Si Si1 0.074333 0.133350 0.231684
Si Si2 0.074718 0.313737 0.244269
Si Si3 0.424465 0.732306 0.756293
Si Si4 0.426630 0.546609 0.755873
Si Si5 0.789021 0.044404 0.633699
Si Si6 0.578034 0.174588 0.245565
Si Si7 0.926427 0.593077 0.755937
O O1 0.148861 0.085842 0.244007
O O2 0.327024 0.159640 0.314132
O O3 0.820500 0.144368 0.307287
O O4 0.000000 0.144896 0.000000
O O5 0.322624 0.284929 0.302933
O O6 0.132171 0.360342 0.309654
O O7 0.822221 0.296497 0.303197
O O8 0.000000 0.314128 0.000000
O O9 0.357404 0.778821 0.693516
O O10 0.500000 0.732652 0.000000
O O11 0.370370 0.500000 0.689955
O O12 0.677657 0.564625 0.697460
O O13 0.177538 0.575048 0.697507
O O14 0.500000 0.546023 0.000000
O O15 0.500000 0.047432 0.500000
O O16 0.000000 0.043606 0.500000
O O17 0.806356 0.000000 0.739573
O O18 0.500000 0.173959 0.000000
O O19 0.000000 0.593693 0.000000
#
# Coordination Sequence:
#
# PCOD9145557 Si02
#       7
#     4   4   4   4   4   4   4
#     4  10  19  32  51  74  98 125 159 197 234 274
#     4   9  15  21  30  43  60  85 114 145 185 240
#     4   9  15  23  34  49  71  97 122 150 193 247
#     4   9  15  21  27  33  43  62  90 131 185 238
#     4  10  21  37  55  75 101 132 163 196 237 283
#     4   9  17  28  43  65  91 116 144 181 222 266
#     4   9  15  21  27  36  49  66  96 136 177 231
#
# _framework density 23.879104999999999
#
# number of rings (size 3 to 8) (size 9 to 14) (size 15 to 20)
#    0.000    2.714    0.000    3.000    0.000    8.857 
#    0.000    0.000    0.000    5.143    0.000    0.000 
#    0.000    0.000    0.000    0.000    0.000    0.000 
#
# Total GULP energy -156725.478717 kJ/mol
# GULP energy per Si atom -5597.338526 kJ/mol
# Density = 2.382475 g / cm^3
# Si number density = 23.879105 Si / 1000 Ang^3
#
#
#
# Elastic Constant Matrix: (Units=GPa)
#
#
# Indices 1 2 3 4 5 6 
#
# 1 180.9681 60.0182 10.6529 0.0000 9.1678 0.0000
# 2 60.0182 161.1796 -4.5477 0.0000 28.8146 0.0000
# 3 10.6529 -4.5477 65.5473 0.0000 7.0264 0.0000
# 4 0.0000 0.0000 0.0000 19.8244 0.0000 9.0965
# 5 9.1678 28.8146 7.0264 0.0000 42.6222 0.0000
# 6 0.0000 0.0000 0.0000 9.0965 0.0000 44.9112
#
#
#
# Elastic Compliance Matrix: (Units=1/GPa)
#
#
# Indices 1 2 3 4 5 6 
#
# 1 0.006409 -0.002518 -0.001273 0.000000 0.000534 0.000000
# 2 -0.002518 0.008114 0.001529 0.000000 -0.005196 0.000000
# 3 -0.001273 0.001529 0.015932 0.000000 -0.003386 0.000000
# 4 0.000000 0.000000 0.000000 0.055611 0.000000 -0.011264
# 5 0.000534 -0.005196 -0.003386 0.000000 0.027418 0.000000
# 6 0.000000 0.000000 0.000000 -0.011264 0.000000 0.024548
#
#
# Mechanical properties :
#
#
# Convention : Reuss Voigt Hill
#
# Bulk Modulus (GPa) = 38.56444 59.99353 49.27898
# Shear Modulus (GPa) = 33.06893 44.24300 38.65597
#
# Velocity S-wave (km/s) = 3.72539 4.30908 4.02782
# Velocity P-wave (km/s) = 5.88979 7.06654 6.50483
#
# Compressibility (1/GPa) = 0.02593062
#
# Stress axis : x y z
#
# Youngs Moduli (GPa) = 156.03592 123.24665 62.76593
#
# Poissons Ratio (x) = 0.31030 0.07993
# Poissons Ratio (y) = 0.39286 -0.09598
# Poissons Ratio (z) = 0.19870 -0.18846
#
# Static dielectric constant tensor:
#      x y z
#    x 1.848410 0.000000 -0.038820 
#    y 0.000000 1.826750 0.000000 
#    z -0.038820 0.000000 2.021540 
# 
# From -- ./inp_files/15876.got.cif
#   From: 2010.05.17/outbox.cif.g08.bks.cpg/sg10_8_cif.got.tgz:15876.got - 2010.06.03 11:33:40.
