data_PCOD9145358
_publ_section_title
;
Structure prediction by ZEFSAII (Michael W. Deem and Ramdas Pophale) SiO2 
 PCOD9145358
Probable space group: P 2/M
;
_chemical_formula_sum "Si O2"
_cell_formula_units_Z 32
_cell_length_a 23.417610
_cell_length_b 12.923237
_cell_length_c 7.659402
_cell_angle_alpha 90.000000
_cell_angle_beta 120.077535
_cell_angle_gamma 90.000000
_cell_volume 2005.854981
_symmetry_space_group_name_H-M "P 2/M"
_symmetry_group_IT_number 10
_symmetry_cell_setting 'monoclinic'
loop_
_space_group_symop_operation_xyz
x,y,z
-x,y,-z
-x,-y,-z
x,-y,z
loop_
_atom_site_type_symbol
_atom_site_label
_atom_site_fract_x
_atom_site_fract_y
_atom_site_fract_z
Si Si1 0.053699 0.117226 0.926858
Si Si2 0.843624 0.383035 0.113039
Si Si3 0.573966 0.874104 0.059988
Si Si4 0.985822 0.327836 0.280611
Si Si5 0.869553 0.621558 0.564582
Si Si6 0.573768 0.874151 0.666513
Si Si7 0.187770 0.232406 0.227761
Si Si8 0.326999 0.125072 0.485310
O O1 0.125112 0.156114 0.103028
O O2 0.057880 0.000000 0.864923
O O3 0.028423 0.205562 0.756645
O O4 0.000000 0.118115 0.000000
O O5 0.817809 0.500000 0.064581
O O6 0.916298 0.380503 0.132687
O O7 0.853477 0.355390 0.333995
O O8 0.804791 0.300042 0.938261
O O9 0.629925 0.842064 0.281216
O O10 0.572905 0.000000 0.061727
O O11 0.500000 0.841310 0.000000
O O12 0.588143 0.840769 0.885046
O O13 0.000000 0.359440 0.500000
O O14 0.052359 0.356848 0.282904
O O15 0.857003 0.500000 0.571494
O O16 0.829769 0.692194 0.637922
O O17 0.500000 0.840919 0.500000
O O18 0.629184 0.842898 0.614312
O O19 0.572517 0.000000 0.662388
O O20 0.254591 0.171767 0.368197
O O21 0.322606 0.000000 0.479349
#
# Coordination Sequence:
#
# PCOD9145358 Si02
#       8
#     4   4   4   4   4   4   4   4
#     4  10  19  32  47  63  91 134 177 207 232 271
#     4   9  19  33  51  73  95 118 154 207 265 313
#     4   9  15  26  46  70  94 125 165 197 228 277
#     4   9  17  31  50  73  93 115 158 215 259 298
#     4  10  19  33  52  72  94 119 155 207 267 312
#     4   9  15  26  46  69  94 126 162 195 231 276
#     4  11  21  33  48  69  99 132 167 204 241 288
#     4  10  20  31  45  69 103 138 166 198 234 274
#
# _framework density 15.953296999999999
#
# number of rings (size 3 to 8) (size 9 to 14) (size 15 to 20)
#    0.000    2.375    2.500    1.125    0.000    2.750 
#    0.000    1.875    0.000    1.500    0.000    0.000 
#    0.000    4.000    0.000    0.000    0.000    0.000 
#
# Total GULP energy -178248.279314 kJ/mol
# GULP energy per Si atom -5570.258729 kJ/mol
# Density = 1.591699 g / cm^3
# Si number density = 15.953297 Si / 1000 Ang^3
#
#
#
# Elastic Constant Matrix: (Units=GPa)
#
#
# Indices 1 2 3 4 5 6 
#
# 1 84.7472 14.6032 43.9393 0.0000 3.5658 0.0000
# 2 14.6032 53.6709 15.5581 0.0000 0.6149 0.0000
# 3 43.9393 15.5581 93.4008 0.0000 5.6384 0.0000
# 4 0.0000 0.0000 0.0000 7.6077 0.0000 -6.9559
# 5 3.5658 0.6149 5.6384 0.0000 25.9567 0.0000
# 6 0.0000 0.0000 0.0000 -6.9559 0.0000 8.4776
#
#
#
# Elastic Compliance Matrix: (Units=1/GPa)
#
#
# Indices 1 2 3 4 5 6 
#
# 1 0.015873 -0.002267 -0.007053 0.000000 -0.000595 0.000000
# 2 -0.002267 0.019903 -0.002269 0.000000 0.000333 0.000000
# 3 -0.007053 -0.002269 0.014532 0.000000 -0.002134 0.000000
# 4 0.000000 0.000000 0.000000 0.526194 0.000000 0.431742
# 5 -0.000595 0.000333 -0.002134 0.000000 0.039063 0.000000
# 6 0.000000 0.000000 0.000000 0.431742 0.000000 0.472202
#
#
# Mechanical properties :
#
#
# Convention : Reuss Voigt Hill
#
# Bulk Modulus (GPa) = 36.86252 42.22448 39.54350
# Shear Modulus (GPa) = 4.46433 18.92295 11.69364
#
# Velocity S-wave (km/s) = 1.67465 3.44778 2.71032
# Velocity P-wave (km/s) = 5.18613 6.50958 5.88518
#
# Compressibility (1/GPa) = 0.02712783
#
# Stress axis : x y z
#
# Youngs Moduli (GPa) = 63.00183 50.24414 68.81595
#
# Poissons Ratio (x) = 0.11392 0.48539
# Poissons Ratio (y) = 0.14284 0.15613
# Poissons Ratio (z) = 0.44438 0.11399
#
# Static dielectric constant tensor:
#      x y z
#    x 1.530950 0.000000 -0.014500 
#    y 0.000000 1.528940 0.000000 
#    z -0.014500 0.000000 1.543020 
# 
# From -- ./inp_files/34862.got.cif
#   From: 2010.05.17/outbox.cif.g08.bks.cpg/sg10_18_cif.got.tgz:34862.got - 2010.06.03 11:33:40.
