data_PCOD9145324
_publ_section_title
;
Structure prediction by ZEFSAII (Michael W. Deem and Ramdas Pophale) SiO2 
 PCOD9145324
Probable space group: P 2/M
;
_chemical_formula_sum "Si O2"
_cell_formula_units_Z 18
_cell_length_a 5.349171
_cell_length_b 20.022209
_cell_length_c 7.234225
_cell_angle_alpha 90.000000
_cell_angle_beta 84.940592
_cell_angle_gamma 90.000000
_cell_volume 771.782769
_symmetry_space_group_name_H-M "P 2/M"
_symmetry_group_IT_number 10
_symmetry_cell_setting 'monoclinic'
loop_
_space_group_symop_operation_xyz
x,y,z
-x,y,-z
-x,-y,-z
x,-y,z
loop_
_atom_site_type_symbol
_atom_site_label
_atom_site_fract_x
_atom_site_fract_y
_atom_site_fract_z
Si Si1 0.785816 0.147962 0.274054
Si Si2 0.086634 0.577013 0.708676
Si Si3 0.233200 0.000000 0.626268
Si Si4 0.283157 0.204687 0.304652
Si Si5 0.591715 0.347212 0.795401
O O1 0.789468 0.068480 0.259628
O O2 0.538162 0.177619 0.203386
O O3 0.751633 0.168160 0.494777
O O4 0.041858 0.183765 0.205072
O O5 0.127434 0.500000 0.759243
O O6 0.349270 0.615993 0.722742
O O7 0.000000 0.578996 0.500000
O O8 0.835508 0.606832 0.818305
O O9 0.500000 0.000000 0.500000
O O10 0.000000 0.000000 0.500000
O O11 0.310820 0.283816 0.326580
O O12 0.500000 0.321769 0.000000
#
# Coordination Sequence:
#
# PCOD9145324 Si02
#       5
#     4   4   2   4   4
#     4  10  19  31  54  85 114 162 194 265 306 353
#     4  11  26  46  69  96 124 162 211 264 317 372
#     4  12  16  30  48  84 124 142 206 258 318 354
#     4  10  20  33  51  84 118 152 199 241 313 356
#     4  12  26  42  66  95 129 171 209 257 314 381
#
# _framework density 23.322621999999999
#
# number of rings (size 3 to 8) (size 9 to 14) (size 15 to 20)
#    0.000    1.111    4.444    3.333    9.333    4.444 
#    0.000    0.000    0.000    0.000    0.000    8.556 
#    0.000    0.000    0.000    0.000    0.000    0.000 
#
# Total GULP energy -100620.585899 kJ/mol
# GULP energy per Si atom -5590.032550 kJ/mol
# Density = 2.326954 g / cm^3
# Si number density = 23.322622 Si / 1000 Ang^3
#
#
#
# Elastic Constant Matrix: (Units=GPa)
#
#
# Indices 1 2 3 4 5 6 
#
# 1 268.5645 88.5697 6.2583 0.0000 -6.2213 0.0000
# 2 88.5697 202.0547 4.7010 0.0000 2.5449 0.0000
# 3 6.2583 4.7010 52.9163 0.0000 9.5704 0.0000
# 4 0.0000 0.0000 0.0000 -5.7991 0.0000 -3.1745
# 5 -6.2213 2.5449 9.5704 0.0000 20.6046 0.0000
# 6 0.0000 0.0000 0.0000 -3.1745 0.0000 48.7831
#
#
#
# Elastic Compliance Matrix: (Units=1/GPa)
#
#
# Indices 1 2 3 4 5 6 
#
# 1 0.004426 -0.001948 -0.000694 0.000000 0.001899 0.000000
# 2 -0.001948 0.005820 -0.000055 0.000000 -0.001282 0.000000
# 3 -0.000694 -0.000055 0.020766 0.000000 -0.009848 0.000000
# 4 0.000000 0.000000 0.000000 -0.166508 0.000000 -0.010835
# 5 0.001899 -0.001282 -0.009848 0.000000 0.053839 0.000000
# 6 0.000000 0.000000 0.000000 -0.010835 0.000000 0.019794
#
#
# Mechanical properties :
#
#
# Convention : Reuss Voigt Hill
#
# Bulk Modulus (GPa) = 39.03380 80.28816 59.66098
# Shear Modulus (GPa) = -104.31818 40.98483 -31.66667
#
# Velocity S-wave (km/s) = -6.69518 4.19656 -3.68879
# Velocity P-wave (km/s) = 6.55701 7.61454 2.73741
#
# Compressibility (1/GPa) = 0.02561882
#
# Stress axis : x y z
#
# Youngs Moduli (GPa) = 225.93395 171.80844 48.15598
#
# Poissons Ratio (x) = 0.33467 0.03342
# Poissons Ratio (y) = 0.44010 0.00265
# Poissons Ratio (z) = 0.15678 0.00944
#
# Static dielectric constant tensor:
#      x y z
#    x 1.887020 0.000000 -0.018270 
#    y 0.000000 1.859430 0.000000 
#    z -0.018270 0.000000 1.920320 
# 
# From -- ./inp_files/14721.got.cif
#   From: 2010.05.17/outbox.cif.g08.bks.cpg/sg10_8_cif.got.tgz:14721.got - 2010.06.03 11:33:40.
