data_PCOD9145897
_publ_section_title
;
Structure prediction by ZEFSAII (Michael W. Deem and Ramdas Pophale) SiO2 
 PCOD9145897
Probable space group: P 2/M
;
_chemical_formula_sum "Si O2"
_cell_formula_units_Z 28
_cell_length_a 16.250969
_cell_length_b 7.654209
_cell_length_c 11.422440
_cell_angle_alpha 90.000000
_cell_angle_beta 119.216132
_cell_angle_gamma 90.000000
_cell_volume 1240.068226
_symmetry_space_group_name_H-M "P 2/M"
_symmetry_group_IT_number 10
_symmetry_cell_setting 'monoclinic'
loop_
_space_group_symop_operation_xyz
x,y,z
-x,y,-z
-x,-y,-z
x,-y,z
loop_
_atom_site_type_symbol
_atom_site_label
_atom_site_fract_x
_atom_site_fract_y
_atom_site_fract_z
Si Si1 0.199256 0.797203 0.126934
Si Si2 0.891551 0.297333 0.175390
Si Si3 0.223731 0.789843 0.401402
Si Si4 0.301977 0.712621 0.842951
Si Si5 0.058650 0.199341 0.434575
Si Si6 0.605013 0.288038 0.851300
Si Si7 0.605628 0.709955 0.333344
O O1 0.193388 0.722225 0.253322
O O2 0.308480 0.782073 0.164357
O O3 0.172247 0.000000 0.111054
O O4 0.139172 0.714389 0.980842
O O5 0.906077 0.500000 0.214223
O O6 0.802476 0.229648 0.190128
O O7 0.986294 0.199933 0.275904
O O8 0.155111 0.718999 0.455590
O O9 0.330745 0.753014 0.511049
O O10 0.212282 0.000000 0.390349
O O11 0.298404 0.500000 0.837340
O O12 0.340479 0.775736 0.745742
O O13 0.372209 0.758942 0.998018
O O14 0.000000 0.282209 0.500000
O O15 0.080172 0.000000 0.485871
O O16 0.609029 0.500000 0.847007
O O17 0.501974 0.227771 0.740980
O O18 0.601163 0.500000 0.320554
#
# Coordination Sequence:
#
# PCOD9145897 Si02
#       7
#     4   4   4   4   4   4   4
#     4  10  21  38  56  74 103 143 182 216 258 313
#     4  10  20  35  58  84 109 137 173 220 265 309
#     4  10  23  39  53  74 106 142 178 218 261 311
#     4   8  15  30  52  79 109 137 167 209 264 318
#     4  10  21  38  59  82 109 140 173 212 262 318
#     4   9  18  33  54  80 108 137 175 221 264 310
#     4  10  19  32  54  80 106 140 177 217 266 314
#
# _framework density 22.579402999999999
#
# number of rings (size 3 to 8) (size 9 to 14) (size 15 to 20)
#    0.000    2.429    0.000    3.000    0.000    5.429 
#    0.000    8.571    0.000    4.286    0.000    0.000 
#    0.000    0.000    0.000    0.000    0.000    0.000 
#
# Total GULP energy -156415.634931 kJ/mol
# GULP energy per Si atom -5586.272676 kJ/mol
# Density = 2.252801 g / cm^3
# Si number density = 22.579403 Si / 1000 Ang^3
#
#
#
# Elastic Constant Matrix: (Units=GPa)
#
#
# Indices 1 2 3 4 5 6 
#
# 1 32.3731 -4.5644 24.3266 0.0000 4.3332 0.0000
# 2 -4.5644 51.5241 -3.4894 0.0000 -2.0198 0.0000
# 3 24.3266 -3.4894 77.2089 0.0000 7.0444 0.0000
# 4 0.0000 0.0000 0.0000 24.2249 0.0000 3.1840
# 5 4.3332 -2.0198 7.0444 0.0000 40.6688 0.0000
# 6 0.0000 0.0000 0.0000 3.1840 0.0000 12.4810
#
#
#
# Elastic Compliance Matrix: (Units=1/GPa)
#
#
# Indices 1 2 3 4 5 6 
#
# 1 0.041026 0.002700 -0.012617 0.000000 -0.002052 0.000000
# 2 0.002700 0.019673 -0.000025 0.000000 0.000694 0.000000
# 3 -0.012617 -0.000025 0.017073 0.000000 -0.001614 0.000000
# 4 0.000000 0.000000 0.000000 0.042712 0.000000 -0.010896
# 5 -0.002052 0.000694 -0.001614 0.000000 0.025122 0.000000
# 6 0.000000 0.000000 0.000000 -0.010896 0.000000 0.082901
#
#
# Mechanical properties :
#
#
# Convention : Reuss Voigt Hill
#
# Bulk Modulus (GPa) = 17.27475 21.51686 19.39581
# Shear Modulus (GPa) = 18.67845 25.13050 21.90447
#
# Velocity S-wave (km/s) = 2.87929 3.33976 3.11804
# Velocity P-wave (km/s) = 4.32678 4.94187 4.64452
#
# Compressibility (1/GPa) = 0.05788795
#
# Stress axis : x y z
#
# Youngs Moduli (GPa) = 24.37465 50.83098 58.57075
#
# Poissons Ratio (x) = -0.13722 0.73899
# Poissons Ratio (y) = -0.06580 0.00145
# Poissons Ratio (z) = 0.30754 0.00126
#
# Static dielectric constant tensor:
#      x y z
#    x 1.833890 0.000000 -0.020630 
#    y 0.000000 1.865860 0.000000 
#    z -0.020630 0.000000 1.823860 
# 
# From -- ./inp_files/50104.got.cif
#   From: 2010.05.17/outbox.cif.g08.bks.cpg/sg10_26_cif.got.tgz:50104.got - 2010.06.03 11:33:40.
