data_PCOD9145737
_publ_section_title
;
Structure prediction by ZEFSAII (Michael W. Deem and Ramdas Pophale) SiO2 
 PCOD9145737
Probable space group: P 2/M
;
_chemical_formula_sum "Si O2"
_cell_formula_units_Z 28
_cell_length_a 20.374500
_cell_length_b 8.871709
_cell_length_c 9.444532
_cell_angle_alpha 90.000000
_cell_angle_beta 103.840019
_cell_angle_gamma 90.000000
_cell_volume 1657.598539
_symmetry_space_group_name_H-M "P 2/M"
_symmetry_group_IT_number 10
_symmetry_cell_setting 'monoclinic'
loop_
_space_group_symop_operation_xyz
x,y,z
-x,y,-z
-x,-y,-z
x,-y,z
loop_
_atom_site_type_symbol
_atom_site_label
_atom_site_fract_x
_atom_site_fract_y
_atom_site_fract_z
Si Si1 0.435539 0.318522 0.872548
Si Si2 0.923603 0.821415 0.483421
Si Si3 0.305587 0.180747 0.305389
Si Si4 0.307113 0.319672 0.998460
Si Si5 0.564639 0.181559 0.439789
Si Si6 0.794820 0.822466 0.257329
Si Si7 0.801455 0.320780 0.552430
O O1 0.437211 0.500000 0.860498
O O2 0.437173 0.249400 0.717547
O O3 0.500000 0.271830 0.000000
O O4 0.367900 0.277457 0.923430
O O5 0.875878 0.805196 0.319469
O O6 0.879285 0.733366 0.576964
O O7 0.000000 0.770478 0.500000
O O8 0.924271 0.000000 0.518433
O O9 0.317694 0.244952 0.155815
O O10 0.367606 0.223672 0.440301
O O11 0.237779 0.250057 0.336949
O O12 0.301045 0.000000 0.298796
O O13 0.305837 0.500000 0.011697
O O14 0.238692 0.259734 0.890978
O O15 0.500000 0.228700 0.500000
O O16 0.563134 0.000000 0.427462
O O17 0.768931 0.748127 0.391067
O O18 0.779200 0.000000 0.247157
O O19 0.796722 0.500000 0.549355
#
# Coordination Sequence:
#
# PCOD9145737 Si02
#       7
#     4   4   4   4   4   4   4
#     4  10  22  38  55  77 106 140 178 220 272 329
#     4   8  16  32  55  82 111 143 180 219 264 322
#     4  11  22  36  54  76 106 144 183 224 275 330
#     4  11  22  35  53  78 107 140 181 228 274 321
#     4  10  22  38  56  79 105 136 180 229 274 321
#     4   9  18  33  53  78 107 140 177 216 264 318
#     4  10  19  32  52  80 110 139 177 222 267 312
#
# _framework density 16.891907
#
# number of rings (size 3 to 8) (size 9 to 14) (size 15 to 20)
#    0.857    1.286    0.000    3.857    0.000    5.429 
#    0.000    0.000    0.000    0.857    0.000    6.000 
#    0.000    0.000    0.000    0.000    0.000    0.000 
#
# Total GULP energy -156048.943085 kJ/mol
# GULP energy per Si atom -5573.176539 kJ/mol
# Density = 1.685346 g / cm^3
# Si number density = 16.891907 Si / 1000 Ang^3
#
#
#
# Elastic Constant Matrix: (Units=GPa)
#
#
# Indices 1 2 3 4 5 6 
#
# 1 122.9108 47.6112 62.5667 0.0000 -8.6067 0.0000
# 2 47.6112 61.1688 43.2639 0.0000 -4.4972 0.0000
# 3 62.5667 43.2639 132.8305 0.0000 -9.1363 0.0000
# 4 0.0000 0.0000 0.0000 38.4784 0.0000 4.3744
# 5 -8.6067 -4.4972 -9.1363 0.0000 22.2422 0.0000
# 6 0.0000 0.0000 0.0000 4.3744 0.0000 21.3868
#
#
#
# Elastic Compliance Matrix: (Units=1/GPa)
#
#
# Indices 1 2 3 4 5 6 
#
# 1 0.012963 -0.007432 -0.003544 0.000000 0.002058 0.000000
# 2 -0.007432 0.025551 -0.004800 0.000000 0.000319 0.000000
# 3 -0.003544 -0.004800 0.010908 0.000000 0.002139 0.000000
# 4 0.000000 0.000000 0.000000 0.026607 0.000000 -0.005442
# 5 0.002058 0.000319 0.002139 0.000000 0.046699 0.000000
# 6 0.000000 0.000000 0.000000 -0.005442 0.000000 0.047871
#
#
# Mechanical properties :
#
#
# Convention : Reuss Voigt Hill
#
# Bulk Modulus (GPa) = 55.95550 69.31041 62.63295
# Shear Modulus (GPa) = 24.02615 27.31937 25.67276
#
# Velocity S-wave (km/s) = 3.77549 4.02594 3.90272
# Velocity P-wave (km/s) = 7.22519 7.92033 7.58073
#
# Compressibility (1/GPa) = 0.01787134
#
# Stress axis : x y z
#
# Youngs Moduli (GPa) = 77.14368 39.13723 91.67660
#
# Poissons Ratio (x) = 0.29087 0.32487
# Poissons Ratio (y) = 0.57334 0.44001
# Poissons Ratio (z) = 0.27337 0.18784
#
# Static dielectric constant tensor:
#      x y z
#    x 1.585340 0.000000 0.008940 
#    y 0.000000 1.562010 0.000000 
#    z 0.008940 0.000000 1.547230 
# 
# From -- ./inp_files/33480.got.cif
#   From: 2010.05.17/outbox.cif.g08.bks.cpg/sg10_17_cif.got.tgz:33480.got - 2010.06.03 11:33:40.
