data_PCOD9145367
_publ_section_title
;
Structure prediction by ZEFSAII (Michael W. Deem and Ramdas Pophale) SiO2 
 PCOD9145367
Probable space group: P 2/M
;
_chemical_formula_sum "Si O2"
_cell_formula_units_Z 32
_cell_length_a 12.582630
_cell_length_b 14.567991
_cell_length_c 12.582625
_cell_angle_alpha 90.000000
_cell_angle_beta 107.350714
_cell_angle_gamma 90.000000
_cell_volume 2201.491474
_symmetry_space_group_name_H-M "P 2/M"
_symmetry_group_IT_number 10
_symmetry_cell_setting 'monoclinic'
loop_
_space_group_symop_operation_xyz
x,y,z
-x,y,-z
-x,-y,-z
x,-y,z
loop_
_atom_site_type_symbol
_atom_site_label
_atom_site_fract_x
_atom_site_fract_y
_atom_site_fract_z
Si Si1 0.269966 0.611175 0.730034
Si Si2 0.260891 0.707391 0.107077
Si Si3 0.183860 0.897503 0.023622
Si Si4 0.488758 0.390179 0.123283
Si Si5 0.107077 0.292609 0.260891
Si Si6 0.123283 0.390179 0.488758
Si Si7 0.885460 0.610416 0.114540
Si Si8 0.023621 0.897503 0.183860
O O1 0.271740 0.500000 0.728260
O O2 0.396310 0.641027 0.787826
O O3 0.212174 0.641026 0.603690
O O4 0.192467 0.634432 0.807534
O O5 0.379846 0.659840 0.133566
O O6 0.209984 0.707748 0.209984
O O7 0.263613 0.811449 0.063431
O O8 0.173529 0.652928 0.005968
O O9 0.100607 0.883347 0.899393
O O10 0.232792 0.000000 0.030836
O O11 0.103196 0.896684 0.103196
O O12 0.476252 0.500000 0.134815
O O13 0.500000 0.375171 0.000000
O O14 0.133566 0.340159 0.379846
O O15 0.063431 0.188551 0.263613
O O16 0.005967 0.347072 0.173530
O O17 0.134815 0.500000 0.476253
O O18 0.000000 0.375171 0.500000
O O19 0.892107 0.500000 0.107893
O O20 0.030835 0.000000 0.232792
#
# Coordination Sequence:
#
# PCOD9145367 Si02
#       8
#     4   4   4   4   4   4   4   4
#     4   9  18  33  49  64  85 126 174 193 207 260
#     4  11  20  29  45  73  99 121 151 192 244 282
#     4   8  14  26  43  64  93 124 151 184 230 286
#     4  10  19  32  48  66  93 128 162 190 220 273
#     4  11  20  29  45  73  99 121 151 192 244 282
#     4  10  19  32  48  66  93 128 162 190 220 273
#     4  11  19  28  44  69 100 124 149 192 237 275
#     4   8  14  26  43  64  93 124 151 184 230 286
#
# _framework density 14.535600000000001
#
# number of rings (size 3 to 8) (size 9 to 14) (size 15 to 20)
#    0.000    2.250    3.750    1.875    0.000    2.500 
#    0.000    0.625    0.000    3.000    0.000    0.875 
#    0.000    4.000    0.000    0.000    0.000    0.000 
#
# Total GULP energy -178316.593154 kJ/mol
# GULP energy per Si atom -5572.393536 kJ/mol
# Density = 1.450252 g / cm^3
# Si number density = 14.535600 Si / 1000 Ang^3
#
#
#
# Elastic Constant Matrix: (Units=GPa)
#
#
# Indices 1 2 3 4 5 6 
#
# 1 80.3043 38.2392 39.0829 0.0000 8.2272 0.0000
# 2 38.2392 79.5865 38.3298 0.0000 0.1242 0.0000
# 3 39.0829 38.3298 90.8171 0.0000 6.2136 0.0000
# 4 0.0000 0.0000 0.0000 10.1915 0.0000 13.6308
# 5 8.2272 0.1242 6.2136 0.0000 20.8390 0.0000
# 6 0.0000 0.0000 0.0000 13.6308 0.0000 0.2692
#
#
#
# Elastic Compliance Matrix: (Units=1/GPa)
#
#
# Indices 1 2 3 4 5 6 
#
# 1 0.018516 -0.006580 -0.004792 0.000000 -0.005842 0.000000
# 2 -0.006580 0.018185 -0.005118 0.000000 0.004015 0.000000
# 3 -0.004792 -0.005118 0.015416 0.000000 -0.002674 0.000000
# 4 0.000000 0.000000 0.000000 -0.001471 0.000000 0.074463
# 5 -0.005842 0.004015 -0.002674 0.000000 0.051067 0.000000
# 6 0.000000 0.000000 0.000000 0.074463 0.000000 -0.055675
#
#
# Mechanical properties :
#
#
# Convention : Reuss Voigt Hill
#
# Bulk Modulus (GPa) = 52.25097 53.55685 52.90391
# Shear Modulus (GPa) = 58.54949 15.26369 36.90659
#
# Velocity S-wave (km/s) = 6.35354 3.24402 5.04436
# Velocity P-wave (km/s) = 9.47883 7.13841 8.39062
#
# Compressibility (1/GPa) = 0.01913840
#
# Stress axis : x y z
#
# Youngs Moduli (GPa) = 54.00621 54.99011 64.86583
#
# Poissons Ratio (x) = 0.36182 0.31082
# Poissons Ratio (y) = 0.35535 0.33200
# Poissons Ratio (z) = 0.25878 0.28145
#
# Static dielectric constant tensor:
#      x y z
#    x 1.468340 0.000000 0.002830 
#    y 0.000000 1.496230 0.000000 
#    z 0.002830 0.000000 1.470410 
# 
# From -- ./inp_files/47408.got.cif
#   From: 2010.05.17/outbox.cif.g08.bks.cpg/sg10_24_cif.got.tgz:47408.got - 2010.06.03 11:33:40.
