data_PCOD9145710
_publ_section_title
;
Structure prediction by ZEFSAII (Michael W. Deem and Ramdas Pophale) SiO2 
 PCOD9145710
Probable space group: P 2/M
;
_chemical_formula_sum "Si O2"
_cell_formula_units_Z 24
_cell_length_a 19.378323
_cell_length_b 9.245606
_cell_length_c 7.753541
_cell_angle_alpha 90.000000
_cell_angle_beta 66.414957
_cell_angle_gamma 90.000000
_cell_volume 1273.117802
_symmetry_space_group_name_H-M "P 2/M"
_symmetry_group_IT_number 10
_symmetry_cell_setting 'monoclinic'
loop_
_space_group_symop_operation_xyz
x,y,z
-x,y,-z
-x,-y,-z
x,-y,z
loop_
_atom_site_type_symbol
_atom_site_label
_atom_site_fract_x
_atom_site_fract_y
_atom_site_fract_z
Si Si1 0.696805 0.171493 0.499408
Si Si2 0.696806 0.171493 0.106979
Si Si3 0.849451 0.332589 0.859857
Si Si4 0.849450 0.667411 0.441244
Si Si5 0.000001 0.833548 0.710810
Si Si6 0.414191 0.823996 0.085810
O O1 0.670895 0.190062 0.329104
O O2 0.774286 0.255978 0.450517
O O3 0.711184 0.000000 0.513657
O O4 0.633902 0.219107 0.698786
O O5 0.633903 0.219108 0.033404
O O6 0.711186 0.000000 0.063971
O O7 0.774287 0.255978 0.000911
O O8 0.852450 0.500000 0.908943
O O9 0.847377 0.327522 0.652624
O O10 0.924472 0.248625 0.841551
O O11 0.852449 0.500000 0.386160
O O12 0.924470 0.751375 0.309508
O O13 0.000000 0.832516 0.500000
O O14 0.000001 0.000000 0.766411
O O15 0.417158 0.000000 0.082843
O O16 0.500000 0.771494 0.000000
#
# Coordination Sequence:
#
# PCOD9145710 Si02
#       6
#     4   4   4   4   4   4
#     4  10  20  34  55  82 111 145 184 225 272 327
#     4  10  20  34  55  82 111 145 184 225 272 327
#     4  10  19  32  52  78 110 148 188 229 274 324
#     4  10  19  32  52  78 110 148 188 229 274 324
#     4   9  17  29  50  79 110 146 187 231 276 321
#     4   9  18  34  57  84 113 142 175 223 278 329
#
# _framework density 18.85136
#
# number of rings (size 3 to 8) (size 9 to 14) (size 15 to 20)
#    0.000    2.333    1.667    1.500    0.000    4.667 
#    0.000    4.167    0.000    7.000    0.000    2.333 
#    0.000    0.000    0.000    0.000    0.000    0.000 
#
# Total GULP energy -134014.488382 kJ/mol
# GULP energy per Si atom -5583.937016 kJ/mol
# Density = 1.880845 g / cm^3
# Si number density = 18.851360 Si / 1000 Ang^3
#
#
#
# Elastic Constant Matrix: (Units=GPa)
#
#
# Indices 1 2 3 4 5 6 
#
# 1 128.4525 69.6689 106.7346 0.0000 -41.0916 0.0000
# 2 69.6689 92.3560 60.0669 0.0000 -10.8001 0.0000
# 3 106.7346 60.0669 82.1556 0.0000 -10.9754 0.0000
# 4 0.0000 0.0000 0.0000 5.9445 0.0000 9.5257
# 5 -41.0916 -10.8001 -10.9754 0.0000 26.4488 0.0000
# 6 0.0000 0.0000 0.0000 9.5257 0.0000 -2.5277
#
#
#
# Elastic Compliance Matrix: (Units=1/GPa)
#
#
# Indices 1 2 3 4 5 6 
#
# 1 -0.023975 -0.005653 0.031757 0.000000 -0.026378 0.000000
# 2 -0.005653 0.019444 -0.007394 0.000000 -0.003912 0.000000
# 3 0.031757 -0.007394 -0.018519 0.000000 0.038635 0.000000
# 4 0.000000 0.000000 0.000000 0.023899 0.000000 0.090065
# 5 -0.026378 -0.003912 0.038635 0.000000 0.011261 0.000000
# 6 0.000000 0.000000 0.000000 0.090065 0.000000 -0.056205
#
#
# Mechanical properties :
#
#
# Convention : Reuss Voigt Hill
#
# Bulk Modulus (GPa) = 69.59083 86.21164 77.90123
# Shear Modulus (GPa) = -65.16899 10.40604 -27.38147
#
# Velocity S-wave (km/s) = -5.88600 2.35203 -3.81529
# Velocity P-wave (km/s) = 3.03275 7.29436 4.69095
#
# Compressibility (1/GPa) = 0.01436971
#
# Stress axis : x y z
#
# Youngs Moduli (GPa) = -41.71062 51.43063 -53.99968
#
# Poissons Ratio (x) = 0.29076 1.71486
# Poissons Ratio (y) = -0.23581 -0.39926
# Poissons Ratio (z) = 1.32460 0.38026
#
# Static dielectric constant tensor:
#      x y z
#    x 1.627590 0.000000 0.037430 
#    y 0.000000 1.627440 0.000000 
#    z 0.037430 0.000000 1.660890 
# 
# From -- ./inp_files/31208.got.cif
#   From: 2010.05.17/outbox.cif.g08.bks.cpg/sg10_16_cif.got.tgz:31208.got - 2010.06.03 11:33:40.
