data_PCOD9145379
_publ_section_title
;
Structure prediction by ZEFSAII (Michael W. Deem and Ramdas Pophale) SiO2 
 PCOD9145379
Probable space group: P 2/M
;
_chemical_formula_sum "Si O2"
_cell_formula_units_Z 32
_cell_length_a 22.056144
_cell_length_b 14.240227
_cell_length_c 15.648719
_cell_angle_alpha 90.000000
_cell_angle_beta 23.602016
_cell_angle_gamma 90.000000
_cell_volume 1967.881992
_symmetry_space_group_name_H-M "P 2/M"
_symmetry_group_IT_number 10
_symmetry_cell_setting 'monoclinic'
loop_
_space_group_symop_operation_xyz
x,y,z
-x,y,-z
-x,-y,-z
x,-y,z
loop_
_atom_site_type_symbol
_atom_site_label
_atom_site_fract_x
_atom_site_fract_y
_atom_site_fract_z
Si Si1 0.184176 0.611253 0.186694
Si Si2 0.520404 0.612520 0.713812
Si Si3 0.359893 0.385646 0.622818
Si Si4 0.280308 0.105920 0.210131
Si Si5 0.867394 0.298684 0.571379
Si Si6 0.022202 0.388891 0.073487
Si Si7 0.244399 0.704693 0.476275
Si Si8 0.383501 0.895378 0.275599
O O1 0.156400 0.500000 0.208491
O O2 0.193891 0.632426 0.275561
O O3 0.043148 0.672486 0.336093
O O4 0.344243 0.638573 0.939272
O O5 0.525288 0.500000 0.708450
O O6 0.608268 0.644796 0.515376
O O7 0.608098 0.649150 0.682804
O O8 0.500000 0.355575 0.500000
O O9 0.358371 0.500000 0.624258
O O10 0.194446 0.358051 0.869228
O O11 0.164975 0.192593 0.353776
O O12 0.333567 0.102621 0.240436
O O13 0.226581 0.000000 0.257682
O O14 0.436219 0.125411 0.957164
O O15 0.787864 0.308109 0.582519
O O16 0.005234 0.500000 0.115709
O O17 0.898175 0.332609 0.286441
O O18 0.000000 0.380008 0.000000
O O19 0.284789 0.813003 0.442806
O O20 0.359916 0.000000 0.341010
#
# Coordination Sequence:
#
# PCOD9145379 Si02
#       8
#     4   4   4   4   4   4   4   4
#     4  10  22  36  45  60 101 146 171 194 232 289
#     4  10  20  33  48  70  97 129 166 203 242 285
#     4   9  18  32  49  68  93 125 161 200 242 287
#     4   8  14  28  50  72  95 123 156 203 254 289
#     4  10  20  33  48  70  97 128 168 201 236 291
#     4  10  19  32  48  72 103 125 153 206 252 278
#     4  11  20  30  52  77  96 123 163 206 247 286
#     4   8  15  28  47  73 101 125 153 195 249 300
#
# _framework density 16.261137000000002
#
# number of rings (size 3 to 8) (size 9 to 14) (size 15 to 20)
#    0.000    2.500    1.250    2.625    1.750    3.500 
#    0.000    2.500    0.000    1.125    0.000    0.000 
#    0.000    1.000    0.000    0.000    0.000    0.000 
#
# Total GULP energy -178256.877335 kJ/mol
# GULP energy per Si atom -5570.527417 kJ/mol
# Density = 1.622413 g / cm^3
# Si number density = 16.261137 Si / 1000 Ang^3
#
#
#
# Elastic Constant Matrix: (Units=GPa)
#
#
# Indices 1 2 3 4 5 6 
#
# 1 39.6376 16.2562 5.5307 0.0000 -12.7774 0.0000
# 2 16.2562 69.3703 59.2093 0.0000 -8.1813 0.0000
# 3 5.5307 59.2093 90.9178 0.0000 -14.1784 0.0000
# 4 0.0000 0.0000 0.0000 23.0183 0.0000 -3.2068
# 5 -12.7774 -8.1813 -14.1784 0.0000 21.2145 0.0000
# 6 0.0000 0.0000 0.0000 -3.2068 0.0000 10.1593
#
#
#
# Elastic Compliance Matrix: (Units=1/GPa)
#
#
# Indices 1 2 3 4 5 6 
#
# 1 0.038364 -0.016609 0.012377 0.000000 0.024973 0.000000
# 2 -0.016609 0.039709 -0.026816 0.000000 -0.012613 0.000000
# 3 0.012377 -0.026816 0.030431 0.000000 0.017452 0.000000
# 4 0.000000 0.000000 0.000000 0.045442 0.000000 0.014344
# 5 0.024973 -0.012613 0.017452 0.000000 0.068978 0.000000
# 6 0.000000 0.000000 0.000000 0.014344 0.000000 0.102959
#
#
# Mechanical properties :
#
#
# Convention : Reuss Voigt Hill
#
# Bulk Modulus (GPa) = 21.54844 40.21313 30.88078
# Shear Modulus (GPa) = 12.39315 18.80706 15.60010
#
# Velocity S-wave (km/s) = 2.76367 3.40452 3.10070
# Velocity P-wave (km/s) = 4.84398 6.34331 5.64366
#
# Compressibility (1/GPa) = 0.04640707
#
# Stress axis : x y z
#
# Youngs Moduli (GPa) = 26.06639 25.18347 32.86081
#
# Poissons Ratio (x) = 0.41828 -0.40673
# Poissons Ratio (y) = 0.43295 0.88121
# Poissons Ratio (z) = -0.32264 0.67533
#
# Static dielectric constant tensor:
#      x y z
#    x 1.560950 0.000000 -0.010850 
#    y 0.000000 1.551290 0.000000 
#    z -0.010850 0.000000 1.559600 
# 
# From -- ./inp_files/80335.got.cif
#   From: 2010.05.17/outbox.cif.g08.bks.cpg/sg10_41_cif.got.tgz:80335.got - 2010.06.03 11:33:40.
