data_PCOD9145155
_publ_section_title
;
Structure prediction by ZEFSAII (Michael W. Deem and Ramdas Pophale) SiO2 
 PCOD9145155
Probable space group: P 2/M
;
_chemical_formula_sum "Si O2"
_cell_formula_units_Z 28
_cell_length_a 24.843183
_cell_length_b 7.304321
_cell_length_c 18.255091
_cell_angle_alpha 90.000000
_cell_angle_beta 20.543532
_cell_angle_gamma 90.000000
_cell_volume 1162.459691
_symmetry_space_group_name_H-M "P 2/M"
_symmetry_group_IT_number 10
_symmetry_cell_setting 'monoclinic'
loop_
_space_group_symop_operation_xyz
x,y,z
-x,y,-z
-x,-y,-z
x,-y,z
loop_
_atom_site_type_symbol
_atom_site_label
_atom_site_fract_x
_atom_site_fract_y
_atom_site_fract_z
Si Si1 0.790067 0.778937 0.828328
Si Si2 0.028534 0.723194 0.047588
Si Si3 0.396621 0.708003 0.196966
Si Si4 0.553518 0.293563 0.251573
Si Si5 0.132193 0.220717 0.432143
Si Si6 0.332391 0.721842 0.743649
Si Si7 0.296309 0.724673 0.480603
O O1 0.786852 0.724917 0.747423
O O2 0.955634 0.724140 0.649447
O O3 0.782145 0.000000 0.840470
O O4 0.657363 0.702828 0.047263
O O5 0.031979 0.500000 0.041998
O O6 0.880306 0.776467 0.284568
O O7 0.187521 0.786895 0.881377
O O8 0.000000 0.780479 0.000000
O O9 0.452972 0.500000 0.134332
O O10 0.226096 0.705901 0.380362
O O11 0.377163 0.789065 0.302540
O O12 0.500000 0.792859 0.000000
O O13 0.514051 0.500000 0.325903
O O14 0.655580 0.216051 0.187147
O O15 0.393949 0.212667 0.426772
O O16 0.135105 0.000000 0.431849
O O17 0.500000 0.771409 0.500000
O O18 0.319422 0.500000 0.758063
O O19 0.301405 0.500000 0.472492
#
# Coordination Sequence:
#
# PCOD9145155 Si02
#       7
#     4   4   4   4   4   4   4
#     4   9  19  35  52  71  99 133 168 213 262 302
#     4   9  16  27  44  66  99 139 167 199 255 306
#     4  10  20  32  48  71 104 138 169 211 261 304
#     4  10  19  31  51  76 102 132 171 211 250 300
#     4   9  19  35  52  70  96 133 175 214 254 304
#     4   9  17  28  45  73 105 133 168 210 249 300
#     4   9  18  30  44  68 104 137 166 205 257 307
#
# _framework density 24.086857999999999
#
# number of rings (size 3 to 8) (size 9 to 14) (size 15 to 20)
#    0.000    2.714    0.000    2.571    2.000    6.000 
#    0.000    2.143    0.000    0.429    0.000    0.000 
#    0.000    2.857    0.000    0.000    0.000    0.000 
#
# Total GULP energy -156428.623775 kJ/mol
# GULP energy per Si atom -5586.736563 kJ/mol
# Density = 2.403204 g / cm^3
# Si number density = 24.086858 Si / 1000 Ang^3
#
#
#
# Elastic Constant Matrix: (Units=GPa)
#
#
# Indices 1 2 3 4 5 6 
#
# 1 176.0163 4.0706 75.9682 0.0000 -32.7788 0.0000
# 2 4.0706 99.7970 3.2100 0.0000 -4.2166 0.0000
# 3 75.9682 3.2100 125.3544 0.0000 -15.3182 0.0000
# 4 0.0000 0.0000 0.0000 21.1748 0.0000 -13.1732
# 5 -32.7788 -4.2166 -15.3182 0.0000 40.8521 0.0000
# 6 0.0000 0.0000 0.0000 -13.1732 0.0000 7.7340
#
#
#
# Elastic Compliance Matrix: (Units=1/GPa)
#
#
# Indices 1 2 3 4 5 6 
#
# 1 0.008634 0.000016 -0.004597 0.000000 0.005206 0.000000
# 2 0.000016 0.010067 -0.000145 0.000000 0.000997 0.000000
# 3 -0.004597 -0.000145 0.010810 0.000000 0.000350 0.000000
# 4 0.000000 0.000000 0.000000 -0.791869 0.000000 -1.348776
# 5 0.005206 0.000997 0.000350 0.000000 0.028890 0.000000
# 6 0.000000 0.000000 0.000000 -1.348776 0.000000 -2.168047
#
#
# Mechanical properties :
#
#
# Convention : Reuss Voigt Hill
#
# Bulk Modulus (GPa) = 49.85731 63.07393 56.46562
# Shear Modulus (GPa) = -1.73288 35.14676 16.70694
#
# Velocity S-wave (km/s) = -0.84911 3.82405 2.63651
# Velocity P-wave (km/s) = 4.44776 6.76319 5.72378
#
# Compressibility (1/GPa) = 0.02005724
#
# Stress axis : x y z
#
# Youngs Moduli (GPa) = 115.81513 99.33932 92.50925
#
# Poissons Ratio (x) = -0.00155 0.42526
# Poissons Ratio (y) = -0.00181 0.01345
# Poissons Ratio (z) = 0.53240 0.01445
#
# Static dielectric constant tensor:
#      x y z
#    x 1.929490 0.000000 -0.001650 
#    y 0.000000 1.914130 0.000000 
#    z -0.001650 0.000000 1.887990 
# 
# From -- ./inp_files/80208.got.cif
#   From: 2010.05.17/outbox.cif.g08.bks.cpg/sg10_41_cif.got.tgz:80208.got - 2010.06.03 11:33:40.
