data_PCOD9145115
_publ_section_title
;
Structure prediction by ZEFSAII (Michael W. Deem and Ramdas Pophale) SiO2 
 PCOD9145115
Probable space group: P 2/M
;
_chemical_formula_sum "Si O2"
_cell_formula_units_Z 32
_cell_length_a 29.865718
_cell_length_b 7.542840
_cell_length_c 12.897134
_cell_angle_alpha 90.000000
_cell_angle_beta 29.411569
_cell_angle_gamma 90.000000
_cell_volume 1426.766853
_symmetry_space_group_name_H-M "P 2/M"
_symmetry_group_IT_number 10
_symmetry_cell_setting 'monoclinic'
loop_
_space_group_symop_operation_xyz
x,y,z
-x,y,-z
-x,-y,-z
x,-y,z
loop_
_atom_site_type_symbol
_atom_site_label
_atom_site_fract_x
_atom_site_fract_y
_atom_site_fract_z
Si Si1 0.218113 0.786103 0.943826
Si Si2 0.012373 0.217282 0.309765
Si Si3 0.640753 0.707669 0.522824
Si Si4 0.791908 0.289825 0.370266
Si Si5 0.459348 0.204620 0.974999
Si Si6 0.734837 0.786627 0.709599
Si Si7 0.817235 0.216368 0.761441
Si Si8 0.017533 0.799120 0.074370
O O1 0.294215 0.731723 0.707563
O O2 0.216077 0.000000 0.945243
O O3 0.114963 0.723436 0.126051
O O4 0.234535 0.729689 0.029622
O O5 0.924344 0.267316 0.554240
O O6 0.015713 0.000000 0.303336
O O7 0.987509 0.277328 0.243316
O O8 0.625073 0.500000 0.567544
O O9 0.698102 0.772481 0.507282
O O10 0.541251 0.791516 0.726860
O O11 0.799752 0.500000 0.336497
O O12 0.794668 0.254733 0.487064
O O13 0.873052 0.196377 0.145584
O O14 0.437523 0.000000 0.043041
O O15 0.500000 0.284202 0.000000
O O16 0.366097 0.282039 0.117038
O O17 0.773913 0.721737 0.740469
O O18 0.731545 0.000000 0.725338
O O19 0.816915 0.000000 0.759556
O O20 0.980056 0.000000 0.144553
O O21 0.000000 0.707649 0.000000
#
# Coordination Sequence:
#
# PCOD9145115 Si02
#       8
#     4   4   4   4   4   4   4   4
#     4  10  19  34  58  82 108 143 184 226 263 312
#     4   9  16  28  50  81 110 137 175 220 265 312
#     4  11  23  37  55  80 111 145 181 224 271 322
#     4  11  22  34  51  77 111 147 180 218 269 327
#     4  10  20  35  58  85 108 137 178 225 276 328
#     4  10  20  36  58  82 111 140 175 227 278 327
#     4   9  18  33  55  84 110 137 178 227 274 316
#     4  10  19  31  50  77 109 145 182 222 269 320
#
# _framework density 22.428331
#
# number of rings (size 3 to 8) (size 9 to 14) (size 15 to 20)
#    0.000    2.000    2.500    1.875    0.000    5.500 
#    0.000    1.250    0.000    6.000    0.000    0.000 
#    0.000    0.000    0.000    0.000    0.000    0.000 
#
# Total GULP energy -178686.352575 kJ/mol
# GULP energy per Si atom -5583.948518 kJ/mol
# Density = 2.237728 g / cm^3
# Si number density = 22.428331 Si / 1000 Ang^3
#
#
#
# Elastic Constant Matrix: (Units=GPa)
#
#
# Indices 1 2 3 4 5 6 
#
# 1 89.0676 3.0667 44.5247 0.0000 15.9980 0.0000
# 2 3.0667 64.3737 -1.0917 0.0000 -2.4373 0.0000
# 3 44.5247 -1.0917 122.6381 0.0000 12.2972 0.0000
# 4 0.0000 0.0000 0.0000 -299.6572 0.0000 -20.5388
# 5 15.9980 -2.4373 12.2972 0.0000 40.9548 0.0000
# 6 0.0000 0.0000 0.0000 -20.5388 0.0000 -4.3726
#
#
#
# Elastic Compliance Matrix: (Units=1/GPa)
#
#
# Indices 1 2 3 4 5 6 
#
# 1 0.014433 -0.000930 -0.004823 0.000000 -0.004245 0.000000
# 2 -0.000930 0.015630 0.000358 0.000000 0.001186 0.000000
# 3 -0.004823 0.000358 0.010019 0.000000 -0.001103 0.000000
# 4 0.000000 0.000000 0.000000 -0.004922 0.000000 0.023117
# 5 -0.004245 0.001186 -0.001103 0.000000 0.026477 0.000000
# 6 0.000000 0.000000 0.000000 0.023117 0.000000 -0.337280
#
#
# Mechanical properties :
#
#
# Convention : Reuss Voigt Hill
#
# Bulk Modulus (GPa) = 34.13949 41.00875 37.57412
# Shear Modulus (GPa) = -19.60094 -37.30970 -28.45532
#
# Velocity S-wave (km/s) = -2.95945 -4.08304 -3.56578
# Velocity P-wave (km/s) = 1.89126 1.97591 0.40457
#
# Compressibility (1/GPa) = 0.02929159
#
# Stress axis : x y z
#
# Youngs Moduli (GPa) = 69.28701 63.98123 99.81310
#
# Poissons Ratio (x) = 0.05951 0.48135
# Poissons Ratio (y) = 0.06444 -0.03572
# Poissons Ratio (z) = 0.33414 -0.02290
#
# Static dielectric constant tensor:
#      x y z
#    x 1.875100 0.000000 -0.017980 
#    y 0.000000 1.853600 0.000000 
#    z -0.017980 0.000000 1.820230 
# 
# From -- ./inp_files/55329.got.cif
#   From: 2010.05.17/outbox.cif.g08.bks.cpg/sg10_28_cif.got.tgz:55329.got - 2010.06.03 11:33:40.
