data_PCOD9145399
_publ_section_title
;
Structure prediction by ZEFSAII (Michael W. Deem and Ramdas Pophale) SiO2 
 PCOD9145399
Probable space group: P 2/M
;
_chemical_formula_sum "Si O2"
_cell_formula_units_Z 28
_cell_length_a 23.284128
_cell_length_b 12.677879
_cell_length_c 12.763085
_cell_angle_alpha 90.000000
_cell_angle_beta 150.134030
_cell_angle_gamma 90.000000
_cell_volume 1876.151213
_symmetry_space_group_name_H-M "P 2/M"
_symmetry_group_IT_number 10
_symmetry_cell_setting 'monoclinic'
loop_
_space_group_symop_operation_xyz
x,y,z
-x,y,-z
-x,-y,-z
x,-y,z
loop_
_atom_site_type_symbol
_atom_site_label
_atom_site_fract_x
_atom_site_fract_y
_atom_site_fract_z
Si Si1 0.649120 0.307581 0.848746
Si Si2 0.188263 0.500000 0.836789
Si Si3 0.042064 0.874964 0.396645
Si Si4 0.050506 0.692419 0.250132
Si Si5 0.393891 0.626688 0.456134
Si Si6 0.960264 0.500000 0.608790
Si Si7 0.168352 0.626688 0.230596
Si Si8 0.812516 0.874964 0.167097
O O1 0.644256 0.325116 0.715662
O O2 0.518708 0.326519 0.680804
O O3 0.732491 0.397686 0.025864
O O4 0.704500 0.196665 0.967480
O O5 0.120825 0.500000 0.620825
O O6 0.091686 0.500000 0.775058
O O7 0.058480 0.803335 0.321460
O O8 0.136007 0.851681 0.636007
O O9 0.917714 0.851814 0.253142
O O10 0.046490 0.000000 0.382147
O O11 0.060883 0.602314 0.354256
O O12 0.143388 0.673481 0.305485
O O13 0.927149 0.674884 0.998555
O O14 0.405983 0.500000 0.460660
O O15 0.294923 0.645424 0.384768
O O16 0.148695 0.500000 0.203373
O O17 0.789168 0.000000 0.124826
#
# Coordination Sequence:
#
# PCOD9145399 Si02
#       8
#     4   2   4   4   4   2   4   4
#     4  11  18  31  49  72  96 125 159 194 237 285
#     4  11  20  27  43  73  99 117 147 198 246 281
#     4   9  18  32  50  72  98 128 158 192 240 291
#     4  11  18  31  49  72  96 125 159 194 237 285
#     4  10  19  32  49  69  98 132 161 190 233 289
#     4  11  20  27  43  73  99 117 147 198 246 281
#     4  10  19  32  49  69  98 132 161 190 233 289
#     4   9  18  32  50  72  98 128 158 192 240 291
#
# _framework density 14.924170999999999
#
# number of rings (size 3 to 8) (size 9 to 14) (size 15 to 20)
#    0.000    1.857    2.857    5.143    0.000    2.286 
#    0.000    2.857    0.000    6.857    0.000    2.000 
#    0.000    0.000    0.000    0.000    0.000    0.000 
#
# Total GULP energy -156226.495329 kJ/mol
# GULP energy per Si atom -5579.517690 kJ/mol
# Density = 1.489020 g / cm^3
# Si number density = 14.924171 Si / 1000 Ang^3
#
#
#
# Elastic Constant Matrix: (Units=GPa)
#
#
# Indices 1 2 3 4 5 6 
#
# 1 121.4369 52.1637 59.7919 0.0000 7.2051 0.0000
# 2 52.1637 69.1990 50.2678 0.0000 0.9719 0.0000
# 3 59.7919 50.2678 86.4452 0.0000 10.7338 0.0000
# 4 0.0000 0.0000 0.0000 33.7538 0.0000 -4.0562
# 5 7.2051 0.9719 10.7338 0.0000 21.9858 0.0000
# 6 0.0000 0.0000 0.0000 -4.0562 0.0000 25.8424
#
#
#
# Elastic Compliance Matrix: (Units=1/GPa)
#
#
# Indices 1 2 3 4 5 6 
#
# 1 0.013832 -0.006210 -0.005778 0.000000 -0.001438 0.000000
# 2 -0.006210 0.028678 -0.013282 0.000000 0.007252 0.000000
# 3 -0.005778 -0.013282 0.024463 0.000000 -0.009462 0.000000
# 4 0.000000 0.000000 0.000000 0.030196 0.000000 0.004740
# 5 -0.001438 0.007252 -0.009462 0.000000 0.050254 0.000000
# 6 0.000000 0.000000 0.000000 0.004740 0.000000 0.039440
#
#
# Mechanical properties :
#
#
# Convention : Reuss Voigt Hill
#
# Bulk Modulus (GPa) = 60.84744 66.83645 63.84195
# Shear Modulus (GPa) = 20.58620 23.97358 22.27989
#
# Velocity S-wave (km/s) = 3.71804 4.01229 3.86796
# Velocity P-wave (km/s) = 7.70009 8.14530 7.92582
#
# Compressibility (1/GPa) = 0.01643454
#
# Stress axis : x y z
#
# Youngs Moduli (GPa) = 72.29433 34.86936 40.87813
#
# Poissons Ratio (x) = 0.21652 0.23620
# Poissons Ratio (y) = 0.44892 0.54294
# Poissons Ratio (z) = 0.41772 0.46313
#
# Static dielectric constant tensor:
#      x y z
#    x 1.488790 0.000000 0.003800 
#    y 0.000000 1.489620 0.000000 
#    z 0.003800 0.000000 1.481390 
# 
# From -- ./inp_files/46069.got.cif
#   From: 2010.05.17/outbox.cif.g08.bks.cpg/sg10_24_cif.got.tgz:46069.got - 2010.06.03 11:33:40.
