data_PCOD9145992
_publ_section_title
;
Structure prediction by ZEFSAII (Michael W. Deem and Ramdas Pophale) SiO2 
 PCOD9145992
Probable space group: P 2/M
;
_chemical_formula_sum "Si O2"
_cell_formula_units_Z 32
_cell_length_a 14.481858
_cell_length_b 9.234337
_cell_length_c 20.687056
_cell_angle_alpha 90.000000
_cell_angle_beta 43.482240
_cell_angle_gamma 90.000000
_cell_volume 1903.702130
_symmetry_space_group_name_H-M "P 2/M"
_symmetry_group_IT_number 10
_symmetry_cell_setting 'monoclinic'
loop_
_space_group_symop_operation_xyz
x,y,z
-x,y,-z
-x,-y,-z
x,-y,z
loop_
_atom_site_type_symbol
_atom_site_label
_atom_site_fract_x
_atom_site_fract_y
_atom_site_fract_z
Si Si1 0.415389 0.672112 0.365863
Si Si2 0.576463 0.327577 0.785726
Si Si3 0.411184 0.172542 0.981124
Si Si4 0.872701 0.329946 0.677396
Si Si5 0.144803 0.829687 0.541388
Si Si6 0.872497 0.829880 0.294586
Si Si7 0.580230 0.826713 0.393246
Si Si8 0.856128 0.330123 0.841151
O O1 0.404183 0.500000 0.381661
O O2 0.462766 0.697320 0.268463
O O3 0.269740 0.744392 0.448722
O O4 0.514126 0.742346 0.367905
O O5 0.566996 0.500000 0.804630
O O6 0.487231 0.240703 0.881580
O O7 0.733479 0.288014 0.714622
O O8 0.398947 0.000000 0.980641
O O9 0.500000 0.202795 0.000000
O O10 0.266784 0.244578 0.065279
O O11 0.899449 0.500000 0.651075
O O12 0.849923 0.313216 0.766204
O O13 0.002130 0.236740 0.593150
O O14 0.152871 0.812662 0.615491
O O15 0.152644 0.000000 0.522863
O O16 0.736058 0.792614 0.326677
O O17 0.000564 0.734807 0.211453
O O18 0.902018 0.000000 0.269218
O O19 0.500000 0.793201 0.500000
O O20 0.567299 0.000000 0.389334
O O21 0.846612 0.500000 0.860506
#
# Coordination Sequence:
#
# PCOD9145992 Si02
#       8
#     4   4   4   4   4   4   4   4
#     4  11  23  36  53  79 110 145 184 227 269 317
#     4  10  22  39  55  75 109 149 184 220 270 323
#     4  11  22  35  56  84 110 139 180 227 270 316
#     4   9  18  33  52  75 105 144 185 220 259 317
#     4  10  19  33  52  75 108 146 182 222 266 318
#     4   9  18  33  54  79 109 141 177 222 269 320
#     4  10  19  36  58  80 107 144 182 221 273 323
#     4  10  19  32  55  82 109 141 177 220 270 320
#
# _framework density 16.809353000000002
#
# number of rings (size 3 to 8) (size 9 to 14) (size 15 to 20)
#    0.000    2.000    2.500    1.500    0.000    4.250 
#    0.000    2.500    0.000    0.750    0.000    5.250 
#    0.000    0.000    0.000    0.000    0.000    0.000 
#
# Total GULP energy -178674.109737 kJ/mol
# GULP energy per Si atom -5583.565929 kJ/mol
# Density = 1.677109 g / cm^3
# Si number density = 16.809353 Si / 1000 Ang^3
#
#
#
# Elastic Constant Matrix: (Units=GPa)
#
#
# Indices 1 2 3 4 5 6 
#
# 1 102.8714 67.6777 66.3968 0.0000 -8.0453 0.0000
# 2 67.6777 85.6820 77.1359 0.0000 -3.4054 0.0000
# 3 66.3968 77.1359 98.1344 0.0000 -11.4272 0.0000
# 4 0.0000 0.0000 0.0000 29.8448 0.0000 -6.9269
# 5 -8.0453 -3.4054 -11.4272 0.0000 19.0256 0.0000
# 6 0.0000 0.0000 0.0000 -6.9269 0.0000 26.0290
#
#
#
# Elastic Compliance Matrix: (Units=1/GPa)
#
#
# Indices 1 2 3 4 5 6 
#
# 1 0.021047 -0.014084 -0.002610 0.000000 0.004812 0.000000
# 2 -0.014084 0.052354 -0.033573 0.000000 -0.016749 0.000000
# 3 -0.002610 -0.033573 0.040338 0.000000 0.017115 0.000000
# 4 0.000000 0.000000 0.000000 0.035712 0.000000 0.009504
# 5 0.004812 -0.016749 0.017115 0.000000 0.061877 0.000000
# 6 0.000000 0.000000 0.000000 0.009504 0.000000 0.040948
#
#
# Mechanical properties :
#
#
# Convention : Reuss Voigt Hill
#
# Bulk Modulus (GPa) = 75.72257 78.78983 77.25620
# Shear Modulus (GPa) = 13.99734 20.01173 17.00453
#
# Velocity S-wave (km/s) = 2.88880 3.45412 3.18403
# Velocity P-wave (km/s) = 7.50151 7.92984 7.71864
#
# Compressibility (1/GPa) = 0.01320610
#
# Stress axis : x y z
#
# Youngs Moduli (GPa) = 47.51219 19.10082 24.79068
#
# Poissons Ratio (x) = 0.26901 0.06470
# Poissons Ratio (y) = 0.66915 0.83229
# Poissons Ratio (z) = 0.12400 0.64127
#
# Static dielectric constant tensor:
#      x y z
#    x 1.560740 0.000000 0.002990 
#    y 0.000000 1.557920 0.000000 
#    z 0.002990 0.000000 1.540730 
# 
# From -- ./inp_files/58365.got.cif
#   From: 2010.05.17/outbox.cif.g08.bks.cpg/sg10_30_cif.got.tgz:58365.got - 2010.06.03 11:33:40.
