data_PCOD9145798
_publ_section_title
;
Structure prediction by ZEFSAII (Michael W. Deem and Ramdas Pophale) SiO2 
 PCOD9145798
Probable space group: P 2/M
;
_chemical_formula_sum "Si O2"
_cell_formula_units_Z 28
_cell_length_a 28.857631
_cell_length_b 8.850570
_cell_length_c 10.046935
_cell_angle_alpha 90.000000
_cell_angle_beta 142.616143
_cell_angle_gamma 90.000000
_cell_volume 1557.983783
_symmetry_space_group_name_H-M "P 2/M"
_symmetry_group_IT_number 10
_symmetry_cell_setting 'monoclinic'
loop_
_space_group_symop_operation_xyz
x,y,z
-x,y,-z
-x,-y,-z
x,-y,z
loop_
_atom_site_type_symbol
_atom_site_label
_atom_site_fract_x
_atom_site_fract_y
_atom_site_fract_z
Si Si1 0.050748 0.681677 0.742644
Si Si2 0.492366 0.817646 0.137979
Si Si3 0.199387 0.819967 0.975515
Si Si4 0.201966 0.820532 0.671554
Si Si5 0.632699 0.680219 0.954216
Si Si6 0.948597 0.322977 0.752896
Si Si7 0.373460 0.182213 0.350372
O O1 0.055376 0.500000 0.758634
O O2 0.000000 0.725157 0.500000
O O3 0.002859 0.735591 0.759292
O O4 0.135640 0.744087 0.920248
O O5 0.422063 0.743810 0.055962
O O6 0.566443 0.780067 0.397312
O O7 0.483552 0.000000 0.120323
O O8 0.500000 0.772649 0.000000
O O9 0.287419 0.773315 0.196087
O O10 0.195248 0.000000 0.983483
O O11 0.182130 0.785592 0.780942
O O12 0.130606 0.765563 0.423010
O O13 0.213819 0.000000 0.687913
O O14 0.281142 0.737077 0.823228
O O15 0.629610 0.500000 0.943059
O O16 0.609821 0.745099 0.755728
O O17 0.930355 0.500000 0.685070
O O18 0.000000 0.314402 0.000000
O O19 0.373928 0.000000 0.332565
#
# Coordination Sequence:
#
# PCOD9145798 Si02
#       7
#     4   4   4   4   4   4   4
#     4  10  19  32  53  78 105 141 182 220 266 326
#     4  10  21  39  61  83 115 153 187 225 278 336
#     4   9  18  32  53  81 108 136 178 233 277 312
#     4  10  20  36  58  82 109 142 188 233 275 327
#     4  11  22  36  59  87 114 145 186 233 282 333
#     4  10  21  37  54  76 112 149 183 225 279 333
#     4   9  19  37  59  84 113 146 187 232 277 330
#
# _framework density 17.971945999999999
#
# number of rings (size 3 to 8) (size 9 to 14) (size 15 to 20)
#    0.000    2.143    1.429    3.000    0.000    6.000 
#    2.571    0.000    0.000    0.000    0.000    0.000 
#    0.000    0.000    0.000    0.000    0.000    0.000 
#
# Total GULP energy -156235.503931 kJ/mol
# GULP energy per Si atom -5579.839426 kJ/mol
# Density = 1.793104 g / cm^3
# Si number density = 17.971946 Si / 1000 Ang^3
#
#
#
# Elastic Constant Matrix: (Units=GPa)
#
#
# Indices 1 2 3 4 5 6 
#
# 1 127.0554 37.8136 67.2272 0.0000 7.4849 0.0000
# 2 37.8136 34.3138 41.4598 0.0000 2.6247 0.0000
# 3 67.2272 41.4598 94.0155 0.0000 11.7195 0.0000
# 4 0.0000 0.0000 0.0000 11.5015 0.0000 7.1522
# 5 7.4849 2.6247 11.7195 0.0000 20.5775 0.0000
# 6 0.0000 0.0000 0.0000 7.1522 0.0000 46.8979
#
#
#
# Elastic Compliance Matrix: (Units=1/GPa)
#
#
# Indices 1 2 3 4 5 6 
#
# 1 0.013366 -0.006855 -0.006499 0.000000 -0.000286 0.000000
# 2 -0.006855 0.067242 -0.025826 0.000000 0.008626 0.000000
# 3 -0.006499 -0.025826 0.027952 0.000000 -0.010261 0.000000
# 4 0.000000 0.000000 0.000000 0.096055 0.000000 -0.014649
# 5 -0.000286 0.008626 -0.010261 0.000000 0.053445 0.000000
# 6 0.000000 0.000000 0.000000 -0.014649 0.000000 0.023557
#
#
# Mechanical properties :
#
#
# Convention : Reuss Voigt Hill
#
# Bulk Modulus (GPa) = 33.11328 60.93176 47.02252
# Shear Modulus (GPa) = 13.51184 23.05431 18.28307
#
# Velocity S-wave (km/s) = 2.74493 3.58550 3.19299
# Velocity P-wave (km/s) = 5.33958 7.14972 6.30990
#
# Compressibility (1/GPa) = 0.03019936
#
# Stress axis : x y z
#
# Youngs Moduli (GPa) = 74.81412 14.87156 35.77536
#
# Poissons Ratio (x) = 0.10195 0.23251
# Poissons Ratio (y) = 0.51287 0.92395
# Poissons Ratio (z) = 0.48623 0.38408
#
# Static dielectric constant tensor:
#      x y z
#    x 1.599610 0.000000 0.000090 
#    y 0.000000 1.609500 0.000000 
#    z 0.000090 0.000000 1.619150 
# 
# From -- ./inp_files/37254.got.cif
#   From: 2010.05.17/outbox.cif.g08.bks.cpg/sg10_19_cif.got.tgz:37254.got - 2010.06.03 11:33:40.
