data_PCOD9145703
_publ_section_title
;
Structure prediction by ZEFSAII (Michael W. Deem and Ramdas Pophale) SiO2 
 PCOD9145703
Probable space group: P 2/M
;
_chemical_formula_sum "Si O2"
_cell_formula_units_Z 28
_cell_length_a 8.746075
_cell_length_b 14.428625
_cell_length_c 14.016458
_cell_angle_alpha 90.000000
_cell_angle_beta 67.816969
_cell_angle_gamma 90.000000
_cell_volume 1637.869056
_symmetry_space_group_name_H-M "P 2/M"
_symmetry_group_IT_number 10
_symmetry_cell_setting 'monoclinic'
loop_
_space_group_symop_operation_xyz
x,y,z
-x,y,-z
-x,-y,-z
x,-y,z
loop_
_atom_site_type_symbol
_atom_site_label
_atom_site_fract_x
_atom_site_fract_y
_atom_site_fract_z
Si Si1 0.406917 0.104839 0.393240
Si Si2 0.543619 0.607066 0.212271
Si Si3 0.899571 0.197039 0.429948
Si Si4 0.838936 0.393570 0.989139
Si Si5 0.349870 0.273016 0.110588
Si Si6 0.797897 0.894470 0.750675
Si Si7 0.618810 0.285639 0.386990
O O1 0.246423 0.131426 0.494523
O O2 0.337617 0.107712 0.302204
O O3 0.542956 0.184167 0.377425
O O4 0.463144 0.000000 0.399955
O O5 0.487226 0.500000 0.235747
O O6 0.411967 0.674320 0.191387
O O7 0.601586 0.650031 0.298750
O O8 0.694885 0.606133 0.101855
O O9 0.800321 0.270976 0.388960
O O10 0.000000 0.232759 0.500000
O O11 0.031911 0.142199 0.335507
O O12 0.873787 0.500000 0.954114
O O13 0.779467 0.338417 0.912060
O O14 0.000000 0.352180 0.000000
O O15 0.267262 0.176178 0.155554
O O16 0.500000 0.261825 0.000000
O O17 0.816697 0.000000 0.778741
O O18 0.500000 0.320615 0.500000
#
# Coordination Sequence:
#
# PCOD9145703 Si02
#       7
#     4   4   4   4   4   4   4
#     4   9  17  32  52  76 104 135 177 218 254 302
#     4  10  20  36  56  79 104 133 174 218 265 311
#     4   9  19  32  50  75 105 140 174 217 257 301
#     4   9  19  35  57  82 102 128 172 224 269 307
#     4  10  20  35  56  78 104 140 175 215 260 308
#     4  10  19  32  52  78 107 139 173 211 260 310
#     4  10  20  33  53  79 107 140 174 210 260 312
#
# _framework density 17.095383999999999
#
# number of rings (size 3 to 8) (size 9 to 14) (size 15 to 20)
#    0.000    2.429    1.429    0.857    2.000    7.143 
#    0.000    0.000    0.000    0.857    0.000    0.000 
#    0.000    0.000    0.000    0.000    0.000    0.000 
#
# Total GULP energy -156049.502257 kJ/mol
# GULP energy per Si atom -5573.196509 kJ/mol
# Density = 1.705647 g / cm^3
# Si number density = 17.095384 Si / 1000 Ang^3
#
#
#
# Elastic Constant Matrix: (Units=GPa)
#
#
# Indices 1 2 3 4 5 6 
#
# 1 90.3199 41.9882 22.1617 0.0000 15.5667 0.0000
# 2 41.9882 90.9536 49.9654 0.0000 13.1759 0.0000
# 3 22.1617 49.9654 52.6288 0.0000 23.9323 0.0000
# 4 0.0000 0.0000 0.0000 11.1378 0.0000 9.0864
# 5 15.5667 13.1759 23.9323 0.0000 21.2429 0.0000
# 6 0.0000 0.0000 0.0000 9.0864 0.0000 17.1413
#
#
#
# Elastic Compliance Matrix: (Units=1/GPa)
#
#
# Indices 1 2 3 4 5 6 
#
# 1 0.017064 -0.012780 0.014414 0.000000 -0.020816 0.000000
# 2 -0.012780 0.038372 -0.050205 0.000000 0.042126 0.000000
# 3 0.014414 -0.050205 0.105063 0.000000 -0.097788 0.000000
# 4 0.000000 0.000000 0.000000 0.158198 0.000000 -0.083859
# 5 -0.020816 0.042126 -0.097788 0.000000 0.146368 0.000000
# 6 0.000000 0.000000 0.000000 -0.083859 0.000000 0.102792
#
#
# Mechanical properties :
#
#
# Convention : Reuss Voigt Hill
#
# Bulk Modulus (GPa) = 15.78356 51.34810 33.56583
# Shear Modulus (GPa) = 7.28737 17.89020 12.58879
#
# Velocity S-wave (km/s) = 2.06689 3.23846 2.71659
# Velocity P-wave (km/s) = 3.86636 6.63965 5.43294
#
# Compressibility (1/GPa) = 0.06335708
#
# Stress axis : x y z
#
# Youngs Moduli (GPa) = 58.60273 26.06068 9.51807
#
# Poissons Ratio (x) = 0.33306 -0.13719
# Poissons Ratio (y) = 0.74896 0.47785
# Poissons Ratio (z) = -0.84469 1.30837
#
# Static dielectric constant tensor:
#      x y z
#    x 1.592520 0.000000 0.012490 
#    y 0.000000 1.572920 0.000000 
#    z 0.012490 0.000000 1.569700 
# 
# From -- ./inp_files/60928.got.cif
#   From: 2010.05.17/outbox.cif.g08.bks.cpg/sg10_31_cif.got.tgz:60928.got - 2010.06.03 11:33:40.
