data_PCOD9145621
_publ_section_title
;
Structure prediction by ZEFSAII (Michael W. Deem and Ramdas Pophale) SiO2 
 PCOD9145621
Probable space group: P 2/M
;
_chemical_formula_sum "Si O2"
_cell_formula_units_Z 24
_cell_length_a 18.596408
_cell_length_b 12.335113
_cell_length_c 12.301071
_cell_angle_alpha 90.000000
_cell_angle_beta 28.299635
_cell_angle_gamma 90.000000
_cell_volume 1337.732072
_symmetry_space_group_name_H-M "P 2/M"
_symmetry_group_IT_number 10
_symmetry_cell_setting 'monoclinic'
loop_
_space_group_symop_operation_xyz
x,y,z
-x,y,-z
-x,-y,-z
x,-y,z
loop_
_atom_site_type_symbol
_atom_site_label
_atom_site_fract_x
_atom_site_fract_y
_atom_site_fract_z
Si Si1 0.500000 0.807382 0.000000
Si Si2 0.767065 0.373583 0.958286
Si Si3 0.830991 0.309810 0.345107
Si Si4 0.833298 0.876802 0.517463
Si Si5 0.834257 0.623785 0.108209
Si Si6 0.000000 0.763332 0.500000
Si Si7 0.500622 0.619619 0.836676
O O1 0.349560 0.873346 0.226247
O O2 0.548506 0.722409 0.028328
O O3 0.816096 0.500000 0.893188
O O4 0.877400 0.308916 0.729889
O O5 0.773288 0.335821 0.074290
O O6 0.594400 0.370490 0.146953
O O7 0.860006 0.203826 0.379874
O O8 0.803180 0.299599 0.252653
O O9 0.680918 0.368641 0.587918
O O10 0.984054 0.378392 0.148330
O O11 0.913473 0.831485 0.520603
O O12 0.883062 0.000000 0.431646
O O13 0.780820 0.500000 0.201803
O O14 0.460858 0.500000 0.933417
#
# Coordination Sequence:
#
# PCOD9145621 Si02
#       7
#     2   4   4   4   4   2   4
#     4  10  20  36  54  80 112 142 174 226 276 328
#     4  10  21  34  54  82 116 147 176 213 269 334
#     4  10  20  35  55  79 109 140 182 228 268 315
#     4  11  23  38  59  79 103 143 189 234 274 315
#     4  10  19  35  56  82 112 147 177 213 273 333
#     4  12  20  40  54  80 114 138 186 222 280 316
#     4  10  19  32  51  83 114 146 178 213 265 329
#
# _framework density 17.940812999999999
#
# number of rings (size 3 to 8) (size 9 to 14) (size 15 to 20)
#    0.000    1.667    3.333    3.000    0.000    0.667 
#    0.000    4.167    0.000    0.000    0.000    2.333 
#    0.000    0.000    0.000    0.000    0.000    0.000 
#
# Total GULP energy -133670.463614 kJ/mol
# GULP energy per Si atom -5569.602651 kJ/mol
# Density = 1.789998 g / cm^3
# Si number density = 17.940813 Si / 1000 Ang^3
#
#
#
# Elastic Constant Matrix: (Units=GPa)
#
#
# Indices 1 2 3 4 5 6 
#
# 1 144.8072 46.5991 8.3328 0.0000 19.5603 0.0000
# 2 46.5991 97.4417 17.1587 0.0000 15.8796 0.0000
# 3 8.3328 17.1587 20.6053 0.0000 6.3581 0.0000
# 4 0.0000 0.0000 0.0000 17.6091 0.0000 -2.6938
# 5 19.5603 15.8796 6.3581 0.0000 29.8569 0.0000
# 6 0.0000 0.0000 0.0000 -2.6938 0.0000 15.8488
#
#
#
# Elastic Compliance Matrix: (Units=1/GPa)
#
#
# Indices 1 2 3 4 5 6 
#
# 1 0.008536 -0.003583 0.000716 0.000000 -0.003839 0.000000
# 2 -0.003583 0.014140 -0.009344 0.000000 -0.003184 0.000000
# 3 0.000716 -0.009344 0.058476 0.000000 -0.007952 0.000000
# 4 0.000000 0.000000 0.000000 0.058305 0.000000 0.009910
# 5 -0.003839 -0.003184 -0.007952 0.000000 0.039395 0.000000
# 6 0.000000 0.000000 0.000000 0.009910 0.000000 0.064780
#
#
# Mechanical properties :
#
#
# Convention : Reuss Voigt Hill
#
# Bulk Modulus (GPa) = 17.62677 45.22616 31.42646
# Shear Modulus (GPa) = 17.42380 25.38054 21.40217
#
# Velocity S-wave (km/s) = 3.11976 3.76531 3.45763
# Velocity P-wave (km/s) = 4.77739 6.64580 5.78749
#
# Compressibility (1/GPa) = 0.05673189
#
# Stress axis : x y z
#
# Youngs Moduli (GPa) = 117.15080 70.72146 17.10093
#
# Poissons Ratio (x) = 0.25336 -0.01224
# Poissons Ratio (y) = 0.41970 0.15979
# Poissons Ratio (z) = -0.08388 0.66080
#
# Static dielectric constant tensor:
#      x y z
#    x 1.663480 0.000000 0.016430 
#    y 0.000000 1.591320 0.000000 
#    z 0.016430 0.000000 1.623660 
# 
# From -- ./inp_files/53619.got.cif
#   From: 2010.05.17/outbox.cif.g08.bks.cpg/sg10_27_cif.got.tgz:53619.got - 2010.06.03 11:33:40.
