data_PCOD9145255
_publ_section_title
;
Structure prediction by ZEFSAII (Michael W. Deem and Ramdas Pophale) SiO2 
 PCOD9145255
Probable space group: P 2/M
;
_chemical_formula_sum "Si O2"
_cell_formula_units_Z 30
_cell_length_a 21.983683
_cell_length_b 9.068181
_cell_length_c 12.032933
_cell_angle_alpha 90.000000
_cell_angle_beta 45.676889
_cell_angle_gamma 90.000000
_cell_volume 1716.120270
_symmetry_space_group_name_H-M "P 2/M"
_symmetry_group_IT_number 10
_symmetry_cell_setting 'monoclinic'
loop_
_space_group_symop_operation_xyz
x,y,z
-x,y,-z
-x,-y,-z
x,-y,z
loop_
_atom_site_type_symbol
_atom_site_label
_atom_site_fract_x
_atom_site_fract_y
_atom_site_fract_z
Si Si1 0.364886 0.175555 0.039957
Si Si2 0.760807 0.322626 0.635325
Si Si3 0.095391 0.677618 0.371852
Si Si4 0.521607 0.330609 0.727136
Si Si5 0.702500 0.172251 0.503988
Si Si6 0.240047 0.673455 0.027394
Si Si7 0.500000 0.748993 0.500000
Si Si8 0.304482 0.162866 0.743874
O O1 0.323371 0.253993 0.199765
O O2 0.301965 0.225276 0.021313
O O3 0.368018 0.000000 0.049282
O O4 0.454283 0.240609 0.885982
O O5 0.755243 0.500000 0.641406
O O6 0.840629 0.277207 0.610834
O O7 0.765118 0.255217 0.507476
O O8 0.089793 0.500000 0.388509
O O9 0.145532 0.706068 0.192907
O O10 0.000000 0.737856 0.500000
O O11 0.523362 0.500000 0.760390
O O12 0.612170 0.254066 0.626323
O O13 0.499215 0.327749 0.622855
O O14 0.724678 0.179193 0.345668
O O15 0.694599 0.000000 0.544379
O O16 0.257451 0.500000 0.027919
O O17 0.262289 0.713680 0.873794
O O18 0.592082 0.828695 0.384821
O O19 0.280292 0.000000 0.815924
#
# Coordination Sequence:
#
# PCOD9145255 Si02
#       8
#     4   4   4   4   4   4   2   4
#     4  11  21  33  51  73 103 141 176 217 268 315
#     4  10  20  36  57  79 103 133 172 216 262 314
#     4   8  16  33  58  86 110 131 160 209 270 325
#     4  11  21  33  49  73 102 136 183 229 266 301
#     4  10  22  37  51  72 103 143 183 215 259 314
#     4  10  19  31  52  81 109 136 174 221 268 313
#     4  10  20  30  50  72 104 140 182 228 268 302
#     4  10  20  33  51  73 105 144 183 221 262 312
#
# _framework density 17.481292
#
# number of rings (size 3 to 8) (size 9 to 14) (size 15 to 20)
#    0.000    2.000    1.333    4.000    0.000    4.267 
#    0.000    2.667    0.000   15.200    0.000    5.600 
#    0.000    0.000    0.000    0.000    0.000    0.000 
#
# Total GULP energy -167222.314078 kJ/mol
# GULP energy per Si atom -5574.077136 kJ/mol
# Density = 1.744150 g / cm^3
# Si number density = 17.481292 Si / 1000 Ang^3
#
#
#
# Elastic Constant Matrix: (Units=GPa)
#
#
# Indices 1 2 3 4 5 6 
#
# 1 65.0528 26.4972 35.1762 0.0000 7.9281 0.0000
# 2 26.4972 98.5641 23.7405 0.0000 5.8091 0.0000
# 3 35.1762 23.7405 59.6325 0.0000 -1.6533 0.0000
# 4 0.0000 0.0000 0.0000 11.0762 0.0000 4.7771
# 5 7.9281 5.8091 -1.6533 0.0000 21.3391 0.0000
# 6 0.0000 0.0000 0.0000 4.7771 0.0000 22.0136
#
#
#
# Elastic Compliance Matrix: (Units=1/GPa)
#
#
# Indices 1 2 3 4 5 6 
#
# 1 0.025329 -0.002845 -0.014078 0.000000 -0.009727 0.000000
# 2 -0.002845 0.011794 -0.003084 0.000000 -0.002393 0.000000
# 3 -0.014078 -0.003084 0.026527 0.000000 0.008125 0.000000
# 4 0.000000 0.000000 0.000000 0.099607 0.000000 -0.021615
# 5 -0.009727 -0.002393 0.008125 0.000000 0.051757 0.000000
# 6 0.000000 0.000000 0.000000 -0.021615 0.000000 0.050117
#
#
# Mechanical properties :
#
#
# Convention : Reuss Voigt Hill
#
# Bulk Modulus (GPa) = 42.30757 43.78635 43.04696
# Shear Modulus (GPa) = 15.97329 20.07481 18.02405
#
# Velocity S-wave (km/s) = 3.02609 3.39242 3.21448
# Velocity P-wave (km/s) = 6.03852 6.35977 6.20123
#
# Compressibility (1/GPa) = 0.02363643
#
# Stress axis : x y z
#
# Youngs Moduli (GPa) = 39.48065 84.78710 37.69786
#
# Poissons Ratio (x) = 0.24122 0.53071
# Poissons Ratio (y) = 0.11232 0.11624
# Poissons Ratio (z) = 0.55581 0.26145
#
# Static dielectric constant tensor:
#      x y z
#    x 1.611750 0.000000 0.027870 
#    y 0.000000 1.590530 0.000000 
#    z 0.027870 0.000000 1.615050 
# 
# From -- ./inp_files/56611.got.cif
#   From: 2010.05.17/outbox.cif.g08.bks.cpg/sg10_29_cif.got.tgz:56611.got - 2010.06.03 11:33:40.
