data_PCOD9145718
_publ_section_title
;
Structure prediction by ZEFSAII (Michael W. Deem and Ramdas Pophale) SiO2 
 PCOD9145718
Probable space group: P 2/M
;
_chemical_formula_sum "Si O2"
_cell_formula_units_Z 32
_cell_length_a 20.772352
_cell_length_b 8.959591
_cell_length_c 25.133627
_cell_angle_alpha 90.000000
_cell_angle_beta 156.349427
_cell_angle_gamma 90.000000
_cell_volume 1876.481020
_symmetry_space_group_name_H-M "P 2/M"
_symmetry_group_IT_number 10
_symmetry_cell_setting 'monoclinic'
loop_
_space_group_symop_operation_xyz
x,y,z
-x,y,-z
-x,-y,-z
x,-y,z
loop_
_atom_site_type_symbol
_atom_site_label
_atom_site_fract_x
_atom_site_fract_y
_atom_site_fract_z
Si Si1 0.534577 0.321602 0.693786
Si Si2 0.768221 0.677881 0.458622
Si Si3 0.590351 0.319751 0.514708
Si Si4 0.060918 0.821593 0.737098
Si Si5 0.257278 0.178579 0.061750
Si Si6 0.062630 0.179595 0.238399
Si Si7 0.408723 0.320164 0.984220
Si Si8 0.521279 0.320688 0.184819
O O1 0.559453 0.500000 0.714918
O O2 0.370563 0.290664 0.602574
O O3 0.506253 0.275218 0.611669
O O4 0.677610 0.242092 0.833431
O O5 0.799235 0.500000 0.483103
O O6 0.685636 0.717916 0.339886
O O7 0.927585 0.764300 0.594920
O O8 0.500000 0.273737 0.500000
O O9 0.601239 0.500000 0.522330
O O10 0.768235 0.254065 0.645784
O O11 0.233439 0.750695 0.856599
O O12 0.999575 0.777644 0.749763
O O13 0.072888 0.000000 0.744788
O O14 0.376857 0.243143 0.107351
O O15 0.268403 0.000000 0.069899
O O16 0.076962 0.221154 0.908933
O O17 0.080310 0.000000 0.251191
O O18 0.391740 0.500000 0.969714
O O19 0.500000 0.272222 0.000000
O O20 0.507919 0.282849 0.112810
O O21 0.501892 0.500000 0.176062
#
# Coordination Sequence:
#
# PCOD9145718 Si02
#       8
#     4   4   4   4   4   4   4   4
#     4   9  18  33  52  78 108 137 174 218 266 314
#     4   9  17  31  52  78 104 135 173 220 267 309
#     4  10  21  37  57  80 107 141 180 221 266 315
#     4  11  21  34  53  80 109 139 178 221 263 311
#     4  10  19  32  52  79 107 136 175 219 262 312
#     4  10  21  35  52  79 110 139 178 221 263 316
#     4  10  21  37  57  80 107 142 180 217 265 321
#     4   9  18  33  53  78 107 137 173 218 267 312
#
# _framework density 17.053197000000001
#
# number of rings (size 3 to 8) (size 9 to 14) (size 15 to 20)
#    0.000    2.250    2.500    1.500    0.000    4.500 
#    0.000    1.250    0.000    7.500    0.000    0.000 
#    0.000    0.000    0.000    0.000    0.000    0.000 
#
# Total GULP energy -178514.396879 kJ/mol
# GULP energy per Si atom -5578.574902 kJ/mol
# Density = 1.701438 g / cm^3
# Si number density = 17.053197 Si / 1000 Ang^3
#
#
#
# Elastic Constant Matrix: (Units=GPa)
#
#
# Indices 1 2 3 4 5 6 
#
# 1 142.2363 39.1927 96.2043 0.0000 -15.8819 0.0000
# 2 39.1927 18.6511 42.7058 0.0000 -5.9503 0.0000
# 3 96.2043 42.7058 151.2006 0.0000 -21.6490 0.0000
# 4 0.0000 0.0000 0.0000 182.0032 0.0000 -0.3100
# 5 -15.8819 -5.9503 -21.6490 0.0000 30.4534 0.0000
# 6 0.0000 0.0000 0.0000 -0.3100 0.0000 16.2356
#
#
#
# Elastic Compliance Matrix: (Units=1/GPa)
#
#
# Indices 1 2 3 4 5 6 
#
# 1 0.016982 -0.031018 -0.001831 0.000000 0.001495 0.000000
# 2 -0.031018 0.208440 -0.039659 0.000000 -0.003642 0.000000
# 3 -0.001831 -0.039659 0.019743 0.000000 0.005332 0.000000
# 4 0.000000 0.000000 0.000000 0.005495 0.000000 0.000105
# 5 0.001495 -0.003642 0.005332 0.000000 0.036695 0.000000
# 6 0.000000 0.000000 0.000000 0.000105 0.000000 0.061595
#
#
# Mechanical properties :
#
#
# Convention : Reuss Voigt Hill
#
# Bulk Modulus (GPa) = 9.98481 74.25484 42.11983
# Shear Modulus (GPa) = 9.48139 54.67079 32.07609
#
# Velocity S-wave (km/s) = 2.36050 5.66821 4.34169
# Velocity P-wave (km/s) = 3.64652 9.29923 7.06303
#
# Compressibility (1/GPa) = 0.10015208
#
# Stress axis : x y z
#
# Youngs Moduli (GPa) = 58.88427 4.79754 50.65031
#
# Poissons Ratio (x) = 0.14881 0.09272
# Poissons Ratio (y) = 1.82646 2.00872
# Poissons Ratio (z) = 0.10779 0.19026
#
# Static dielectric constant tensor:
#      x y z
#    x 1.573480 0.000000 -0.030980 
#    y 0.000000 1.568080 0.000000 
#    z -0.030980 0.000000 1.560530 
# 
# From -- ./inp_files/93795.got.cif
#   From: 2010.05.17/outbox.cif.g08.bks.cpg/sg10_47_cif.got.tgz:93795.got - 2010.06.03 11:33:40.
