data_PCOD9145289
_publ_section_title
;
Structure prediction by ZEFSAII (Michael W. Deem and Ramdas Pophale) SiO2 
 PCOD9145289
Probable space group: P 2/M
;
_chemical_formula_sum "Si O2"
_cell_formula_units_Z 32
_cell_length_a 14.511470
_cell_length_b 7.686269
_cell_length_c 14.439138
_cell_angle_alpha 90.000000
_cell_angle_beta 119.260210
_cell_angle_gamma 90.000000
_cell_volume 1405.038916
_symmetry_space_group_name_H-M "P 2/M"
_symmetry_group_IT_number 10
_symmetry_cell_setting 'monoclinic'
loop_
_space_group_symop_operation_xyz
x,y,z
-x,y,-z
-x,-y,-z
x,-y,z
loop_
_atom_site_type_symbol
_atom_site_label
_atom_site_fract_x
_atom_site_fract_y
_atom_site_fract_z
Si Si1 0.116222 0.210035 0.527037
Si Si2 0.541724 0.711287 0.310662
Si Si3 0.609622 0.200585 0.009617
Si Si4 0.914355 0.796803 0.888223
Si Si5 0.388032 0.200630 0.463944
Si Si6 0.839571 0.785577 0.660969
Si Si7 0.686023 0.701642 0.845728
Si Si8 0.700441 0.294740 0.236842
O O1 0.135451 0.270936 0.430984
O O2 0.202440 0.262489 0.646032
O O3 0.000000 0.267933 0.500000
O O4 0.117642 0.000000 0.525184
O O5 0.545091 0.500000 0.318336
O O6 0.613735 0.791658 0.425728
O O7 0.420235 0.769697 0.257179
O O8 0.595389 0.762361 0.240839
O O9 0.695918 0.209404 0.134234
O O10 0.589092 0.000000 0.975642
O O11 0.500000 0.274039 0.000000
O O12 0.654493 0.286137 0.938711
O O13 0.910841 0.726286 0.781560
O O14 0.796597 0.787573 0.873532
O O15 0.941947 0.000000 0.891047
O O16 0.000000 0.717560 0.000000
O O17 0.500000 0.289541 0.500000
O O18 0.279500 0.275264 0.374711
O O19 0.393447 0.000000 0.436110
O O20 0.838258 0.000000 0.659660
O O21 0.697338 0.500000 0.827087
O O22 0.693622 0.500000 0.217828
#
# Coordination Sequence:
#
# PCOD9145289 Si02
#       8
#     4   4   4   4   4   4   4   4
#     4  10  21  38  61  88 120 160 206 253 301 360
#     4  10  21  35  54  82 118 156 190 238 301 362
#     4  11  23  38  61  91 122 161 207 251 301 369
#     4  10  22  41  64  88 118 160 210 260 304 354
#     4  10  19  31  53  82 112 149 193 240 291 353
#     4   9  18  35  57  84 117 152 193 245 301 348
#     4  11  23  40  61  88 124 161 200 251 312 372
#     4  11  22  38  59  85 121 159 198 247 305 364
#
# _framework density 22.775171
#
# number of rings (size 3 to 8) (size 9 to 14) (size 15 to 20)
#    0.000    1.750    2.500    1.875    0.000    4.750 
#    0.000    3.750    0.000    0.000    0.000    0.000 
#    0.000    0.000    0.000    0.000    0.000    0.000 
#
# Total GULP energy -178749.270877 kJ/mol
# GULP energy per Si atom -5585.914715 kJ/mol
# Density = 2.272333 g / cm^3
# Si number density = 22.775171 Si / 1000 Ang^3
#
#
#
# Elastic Constant Matrix: (Units=GPa)
#
#
# Indices 1 2 3 4 5 6 
#
# 1 78.1102 -1.6285 37.7293 0.0000 9.1431 0.0000
# 2 -1.6285 51.9728 4.5821 0.0000 0.7287 0.0000
# 3 37.7293 4.5821 166.5486 0.0000 11.0572 0.0000
# 4 0.0000 0.0000 0.0000 -44.4493 0.0000 -9.4766
# 5 9.1431 0.7287 11.0572 0.0000 37.1488 0.0000
# 6 0.0000 0.0000 0.0000 -9.4766 0.0000 11.6442
#
#
#
# Elastic Compliance Matrix: (Units=1/GPa)
#
#
# Indices 1 2 3 4 5 6 
#
# 1 0.014661 0.000776 -0.003165 0.000000 -0.002682 0.000000
# 2 0.000776 0.019331 -0.000683 0.000000 -0.000367 0.000000
# 3 -0.003165 -0.000683 0.006822 0.000000 -0.001238 0.000000
# 4 0.000000 0.000000 0.000000 -0.019171 0.000000 -0.015602
# 5 -0.002682 -0.000367 -0.001238 0.000000 0.027955 0.000000
# 6 0.000000 0.000000 0.000000 -0.015602 0.000000 0.073182
#
#
# Mechanical properties :
#
#
# Convention : Reuss Voigt Hill
#
# Bulk Modulus (GPa) = 28.84331 41.99971 35.42151
# Shear Modulus (GPa) = 35.59245 17.93200 26.76222
#
# Velocity S-wave (km/s) = 3.95748 2.80902 3.43164
# Velocity P-wave (km/s) = 5.79431 5.38533 5.59356
#
# Compressibility (1/GPa) = 0.03467009
#
# Stress axis : x y z
#
# Youngs Moduli (GPa) = 68.20778 51.73161 146.58126
#
# Poissons Ratio (x) = -0.04014 0.46387
# Poissons Ratio (y) = -0.05293 0.10015
# Poissons Ratio (z) = 0.21585 0.03535
#
# Static dielectric constant tensor:
#      x y z
#    x 1.864200 0.000000 -0.023760 
#    y 0.000000 1.828150 0.000000 
#    z -0.023760 0.000000 1.895300 
# 
# From -- ./inp_files/66630.got.cif
#   From: 2010.05.17/outbox.cif.g08.bks.cpg/sg10_34_cif.got.tgz:66630.got - 2010.06.03 11:33:40.
