data_PCOD9145571
_publ_section_title
;
Structure prediction by ZEFSAII (Michael W. Deem and Ramdas Pophale) SiO2 
 PCOD9145571
Probable space group: P 2/M
;
_chemical_formula_sum "Si O2"
_cell_formula_units_Z 28
_cell_length_a 9.778203
_cell_length_b 11.146061
_cell_length_c 16.815150
_cell_angle_alpha 90.000000
_cell_angle_beta 65.942973
_cell_angle_gamma 90.000000
_cell_volume 1673.472816
_symmetry_space_group_name_H-M "P 2/M"
_symmetry_group_IT_number 10
_symmetry_cell_setting 'monoclinic'
loop_
_space_group_symop_operation_xyz
x,y,z
-x,y,-z
-x,-y,-z
x,-y,z
loop_
_atom_site_type_symbol
_atom_site_label
_atom_site_fract_x
_atom_site_fract_y
_atom_site_fract_z
Si Si1 0.823377 0.249302 0.243709
Si Si2 0.685048 0.640206 0.129364
Si Si3 0.870524 0.357036 0.774933
Si Si4 0.546092 0.356109 0.398778
Si Si5 0.146585 0.000000 0.854524
Si Si6 0.208524 0.000000 0.025193
Si Si7 0.322271 0.743231 0.036580
Si Si8 0.378889 0.644724 0.283616
O O1 0.799250 0.336442 0.173590
O O2 0.689523 0.281761 0.335598
O O3 0.816018 0.117722 0.206250
O O4 0.980025 0.281284 0.247001
O O5 0.668948 0.500000 0.118372
O O6 0.523548 0.687645 0.198832
O O7 0.731831 0.700995 0.037112
O O8 0.902821 0.500000 0.763122
O O9 0.761858 0.329484 0.875033
O O10 0.775531 0.317643 0.719948
O O11 0.500000 0.333236 0.500000
O O12 0.578362 0.500000 0.383054
O O13 0.414578 0.327110 0.366641
O O14 0.222632 0.000000 0.924717
O O15 0.968484 0.000000 0.913954
O O16 0.281961 0.116871 0.046998
O O17 0.500000 0.723377 0.000000
O O18 0.380252 0.500000 0.277071
#
# Coordination Sequence:
#
# PCOD9145571 Si02
#       8
#     4   4   4   4   2   2   4   4
#     4  11  21  37  55  78 105 142 184 224 268 322
#     4  10  19  32  51  75 106 141 178 222 270 319
#     4  11  21  32  51  80 112 141 176 225 274 323
#     4   9  18  36  62  88 112 136 166 214 277 342
#     4  11  22  38  57  68 104 152 186 234 269 297
#     4  11  23  40  48  72 104 152 202 233 260 294
#     4  12  22  34  51  73 107 146 191 229 264 312
#     4   8  16  31  50  76 111 142 167 203 266 329
#
# _framework density 16.731673000000001
#
# number of rings (size 3 to 8) (size 9 to 14) (size 15 to 20)
#    0.000    1.714    4.286    2.786    0.000    1.143 
#    0.000    2.500    0.000    3.429    0.000    1.000 
#    0.000    0.000    0.000    0.000    0.000    0.000 
#
# Total GULP energy -156137.152253 kJ/mol
# GULP energy per Si atom -5576.326866 kJ/mol
# Density = 1.669359 g / cm^3
# Si number density = 16.731673 Si / 1000 Ang^3
#
#
#
# Elastic Constant Matrix: (Units=GPa)
#
#
# Indices 1 2 3 4 5 6 
#
# 1 87.9401 -6.0814 28.5716 0.0000 7.9847 0.0000
# 2 -6.0814 50.9979 18.4747 0.0000 -5.5264 0.0000
# 3 28.5716 18.4747 95.6646 0.0000 9.8685 0.0000
# 4 0.0000 0.0000 0.0000 2.2394 0.0000 -3.6100
# 5 7.9847 -5.5264 9.8685 0.0000 18.2705 0.0000
# 6 0.0000 0.0000 0.0000 -3.6100 0.0000 19.0729
#
#
#
# Elastic Compliance Matrix: (Units=1/GPa)
#
#
# Indices 1 2 3 4 5 6 
#
# 1 0.013171 0.002808 -0.004204 0.000000 -0.002636 0.000000
# 2 0.002808 0.023209 -0.006267 0.000000 0.009178 0.000000
# 3 -0.004204 -0.006267 0.013688 0.000000 -0.007452 0.000000
# 4 0.000000 0.000000 0.000000 0.642605 0.000000 0.121627
# 5 -0.002636 0.009178 -0.007452 0.000000 0.062686 0.000000
# 6 0.000000 0.000000 0.000000 0.121627 0.000000 0.075451
#
#
# Mechanical properties :
#
#
# Convention : Reuss Voigt Hill
#
# Bulk Modulus (GPa) = 28.78518 35.17027 31.97773
# Shear Modulus (GPa) = 5.82943 20.82576 13.32759
#
# Velocity S-wave (km/s) = 1.86859 3.53184 2.82538
# Velocity P-wave (km/s) = 4.67941 6.13985 5.45869
#
# Compressibility (1/GPa) = 0.03474010
#
# Stress axis : x y z
#
# Youngs Moduli (GPa) = 75.92576 43.08761 73.05762
#
# Poissons Ratio (x) = -0.12099 0.30713
# Poissons Ratio (y) = -0.21319 0.45788
# Poissons Ratio (z) = 0.31919 0.27005
#
# Static dielectric constant tensor:
#      x y z
#    x 1.585260 0.000000 0.012150 
#    y 0.000000 1.554740 0.000000 
#    z 0.012150 0.000000 1.547140 
# 
# From -- ./inp_files/28254.got.cif
#   From: 2010.05.17/outbox.cif.g08.bks.cpg/sg10_15_cif.got.tgz:28254.got - 2010.06.03 11:33:40.
