data_PCOD9145083
_publ_section_title
;
Structure prediction by ZEFSAII (Michael W. Deem and Ramdas Pophale) SiO2 
 PCOD9145083
Probable space group: P 2/M
;
_chemical_formula_sum "Si O2"
_cell_formula_units_Z 30
_cell_length_a 17.302274
_cell_length_b 9.272914
_cell_length_c 10.370051
_cell_angle_alpha 90.000000
_cell_angle_beta 70.963987
_cell_angle_gamma 90.000000
_cell_volume 1572.810090
_symmetry_space_group_name_H-M "P 2/M"
_symmetry_group_IT_number 10
_symmetry_cell_setting 'monoclinic'
loop_
_space_group_symop_operation_xyz
x,y,z
-x,y,-z
-x,-y,-z
x,-y,z
loop_
_atom_site_type_symbol
_atom_site_label
_atom_site_fract_x
_atom_site_fract_y
_atom_site_fract_z
Si Si1 0.993521 0.164067 0.347287
Si Si2 0.667304 0.344071 0.513291
Si Si3 0.845250 0.327820 0.760362
Si Si4 0.447585 0.160734 0.805971
Si Si5 0.184890 0.828915 0.497909
Si Si6 0.409802 0.663594 0.160455
Si Si7 0.295813 0.830996 0.029560
Si Si8 0.500000 0.757476 0.500000
O O1 0.062755 0.272912 0.262890
O O2 0.000000 0.162275 0.500000
O O3 0.898650 0.201195 0.378079
O O4 0.010281 0.000000 0.293901
O O5 0.705353 0.500000 0.465759
O O6 0.735230 0.221112 0.468566
O O7 0.636263 0.341633 0.677544
O O8 0.584275 0.327204 0.477973
O O9 0.839714 0.500000 0.754818
O O10 0.820250 0.256778 0.635510
O O11 0.783597 0.264327 0.900593
O O12 0.500189 0.278500 0.854320
O O13 0.481524 0.160555 0.642566
O O14 0.460831 0.000000 0.853828
O O15 0.350652 0.189533 0.871217
O O16 0.186678 0.000000 0.469182
O O17 0.408851 0.500000 0.108780
O O18 0.360308 0.776791 0.102026
O O19 0.276137 0.000000 0.054699
#
# Coordination Sequence:
#
# PCOD9145083 Si02
#       8
#     4   4   4   4   4   4   4   2
#     4   8  16  30  46  69 103 140 173 205 249 304
#     4  10  20  34  53  76 104 138 177 217 261 307
#     4  11  20  30  47  74 107 140 173 209 255 307
#     4  10  22  37  54  74  96 132 175 218 263 311
#     4  10  19  31  50  75 104 140 176 211 255 304
#     4  10  20  33  50  74 103 134 168 211 261 310
#     4  11  21  33  50  73 103 136 173 211 257 313
#     4  10  22  40  58  74 102 132 176 228 268 306
#
# _framework density 19.074141000000001
#
# number of rings (size 3 to 8) (size 9 to 14) (size 15 to 20)
#    0.000    2.000    1.333    4.000    0.000    8.800 
#    0.000    0.000    0.000    0.000    0.000    0.933 
#    0.000    6.400    0.000    0.000    0.000    0.000 
#
# Total GULP energy -167235.869518 kJ/mol
# GULP energy per Si atom -5574.528984 kJ/mol
# Density = 1.903073 g / cm^3
# Si number density = 19.074141 Si / 1000 Ang^3
#
#
#
# Elastic Constant Matrix: (Units=GPa)
#
#
# Indices 1 2 3 4 5 6 
#
# 1 88.5535 42.9415 23.7837 0.0000 -32.8851 0.0000
# 2 42.9415 126.0551 38.0897 0.0000 -30.1631 0.0000
# 3 23.7837 38.0897 54.7904 0.0000 -23.8215 0.0000
# 4 0.0000 0.0000 0.0000 9.7132 0.0000 -9.4936
# 5 -32.8851 -30.1631 -23.8215 0.0000 34.7372 0.0000
# 6 0.0000 0.0000 0.0000 -9.4936 0.0000 11.9856
#
#
#
# Elastic Compliance Matrix: (Units=1/GPa)
#
#
# Indices 1 2 3 4 5 6 
#
# 1 0.018082 -0.002718 0.000651 0.000000 0.015204 0.000000
# 2 -0.002718 0.011280 -0.005018 0.000000 0.003780 0.000000
# 3 0.000651 -0.005018 0.028255 0.000000 0.015635 0.000000
# 4 0.000000 0.000000 0.000000 0.455902 0.000000 0.361113
# 5 0.015204 0.003780 0.015635 0.000000 0.057185 0.000000
# 6 0.000000 0.000000 0.000000 0.361113 0.000000 0.369466
#
#
# Mechanical properties :
#
#
# Convention : Reuss Voigt Hill
#
# Bulk Modulus (GPa) = 23.01725 53.22543 38.12134
# Shear Modulus (GPa) = 5.16090 22.25947 13.71018
#
# Velocity S-wave (km/s) = 1.64669 3.41984 2.68392
# Velocity P-wave (km/s) = 3.96344 6.59991 5.44370
#
# Compressibility (1/GPa) = 0.04344567
#
# Stress axis : x y z
#
# Youngs Moduli (GPa) = 55.30336 88.65339 35.39164
#
# Poissons Ratio (x) = 0.24099 -0.02304
# Poissons Ratio (y) = 0.15034 0.17761
# Poissons Ratio (z) = -0.03600 0.44489
#
# Static dielectric constant tensor:
#      x y z
#    x 1.692670 0.000000 -0.028420 
#    y 0.000000 1.673630 0.000000 
#    z -0.028420 0.000000 1.702350 
# 
# From -- ./inp_files/53054.got.cif
#   From: 2010.05.17/outbox.cif.g08.bks.cpg/sg10_27_cif.got.tgz:53054.got - 2010.06.03 11:33:40.
