data_PCOD9145732
_publ_section_title
;
Structure prediction by ZEFSAII (Michael W. Deem and Ramdas Pophale) SiO2 
 PCOD9145732
Probable space group: P 2/M
;
_chemical_formula_sum "Si O2"
_cell_formula_units_Z 28
_cell_length_a 12.025613
_cell_length_b 7.534077
_cell_length_c 15.365531
_cell_angle_alpha 90.000000
_cell_angle_beta 117.238742
_cell_angle_gamma 90.000000
_cell_volume 1237.767073
_symmetry_space_group_name_H-M "P 2/M"
_symmetry_group_IT_number 10
_symmetry_cell_setting 'monoclinic'
loop_
_space_group_symop_operation_xyz
x,y,z
-x,y,-z
-x,-y,-z
x,-y,z
loop_
_atom_site_type_symbol
_atom_site_label
_atom_site_fract_x
_atom_site_fract_y
_atom_site_fract_z
Si Si1 0.751107 0.786189 0.703257
Si Si2 0.612970 0.294294 0.822008
Si Si3 0.130803 0.291986 0.007318
Si Si4 0.939041 0.203026 0.389390
Si Si5 0.025873 0.784966 0.792884
Si Si6 0.376045 0.787125 0.510439
Si Si7 0.656584 0.297634 0.305233
O O1 0.649887 0.712624 0.733310
O O2 0.731780 0.737389 0.595991
O O3 0.889401 0.731989 0.779411
O O4 0.739707 0.000000 0.703268
O O5 0.603469 0.500000 0.845581
O O6 0.472356 0.220038 0.780972
O O7 0.736975 0.214911 0.911707
O O8 0.132591 0.500000 0.032487
O O9 0.122676 0.276774 0.900100
O O10 0.000000 0.216171 0.000000
O O11 0.964183 0.280859 0.302599
O O12 0.788669 0.202453 0.341474
O O13 0.000000 0.280993 0.500000
O O14 0.988087 0.000000 0.403689
O O15 0.031794 0.000000 0.792507
O O16 0.500000 0.746646 0.500000
O O17 0.366046 0.699596 0.599396
O O18 0.373861 0.000000 0.524357
O O19 0.672479 0.500000 0.279680
#
# Coordination Sequence:
#
# PCOD9145732 Si02
#       7
#     4   4   4   4   4   4   4
#     4  10  19  32  53  82 113 145 184 230 284 342
#     4  10  21  36  53  80 117 151 185 228 285 342
#     4  10  20  36  58  83 115 157 194 230 286 349
#     4  10  22  43  66  84 113 154 195 239 287 345
#     4  10  21  36  58  87 113 144 191 245 291 331
#     4  10  19  32  52  79 112 150 189 226 280 351
#     4  11  23  37  56  83 117 152 191 241 289 339
#
# _framework density 22.621379999999998
#
# number of rings (size 3 to 8) (size 9 to 14) (size 15 to 20)
#    0.000    1.857    2.857    1.286    0.000    5.429 
#    0.000    2.143    0.000    4.286    0.000    0.000 
#    0.000    0.000    0.000    0.000    0.000    0.000 
#
# Total GULP energy -156256.161502 kJ/mol
# GULP energy per Si atom -5580.577196 kJ/mol
# Density = 2.256989 g / cm^3
# Si number density = 22.621380 Si / 1000 Ang^3
#
#
#
# Elastic Constant Matrix: (Units=GPa)
#
#
# Indices 1 2 3 4 5 6 
#
# 1 89.0581 -1.7527 39.3477 0.0000 20.2633 0.0000
# 2 -1.7527 55.7425 -1.4533 0.0000 1.8350 0.0000
# 3 39.3477 -1.4533 131.9870 0.0000 19.8371 0.0000
# 4 0.0000 0.0000 0.0000 5.9096 0.0000 -8.9314
# 5 20.2633 1.8350 19.8371 0.0000 40.8928 0.0000
# 6 0.0000 0.0000 0.0000 -8.9314 0.0000 9.2609
#
#
#
# Elastic Compliance Matrix: (Units=1/GPa)
#
#
# Indices 1 2 3 4 5 6 
#
# 1 0.013924 0.000525 -0.003349 0.000000 -0.005299 0.000000
# 2 0.000525 0.018000 0.000218 0.000000 -0.001174 0.000000
# 3 -0.003349 0.000218 0.008984 0.000000 -0.002709 0.000000
# 4 0.000000 0.000000 0.000000 -0.369817 0.000000 -0.356657
# 5 -0.005299 -0.001174 -0.002709 0.000000 0.028446 0.000000
# 6 0.000000 0.000000 0.000000 -0.356657 0.000000 -0.235986
#
#
# Mechanical properties :
#
#
# Convention : Reuss Voigt Hill
#
# Bulk Modulus (GPa) = 28.01330 38.78567 33.39948
# Shear Modulus (GPa) = -9.62767 27.25573 8.81403
#
# Velocity S-wave (km/s) = -2.06525 3.47488 1.97605
# Velocity P-wave (km/s) = 2.59296 5.76910 4.47247
#
# Compressibility (1/GPa) = 0.03569733
#
# Stress axis : x y z
#
# Youngs Moduli (GPa) = 71.81753 55.55412 111.30445
#
# Poissons Ratio (x) = -0.02916 0.37275
# Poissons Ratio (y) = -0.03770 -0.02428
# Poissons Ratio (z) = 0.24051 -0.01212
#
# Static dielectric constant tensor:
#      x y z
#    x 1.842530 0.000000 0.052480 
#    y 0.000000 1.864890 0.000000 
#    z 0.052480 0.000000 1.876910 
# 
# From -- ./inp_files/49094.got.cif
#   From: 2010.05.17/outbox.cif.g08.bks.cpg/sg10_25_cif.got.tgz:49094.got - 2010.06.03 11:33:40.
