data_PCOD9145506
_publ_section_title
;
Structure prediction by ZEFSAII (Michael W. Deem and Ramdas Pophale) SiO2 
 PCOD9145506
Probable space group: P 2/M
;
_chemical_formula_sum "Si O2"
_cell_formula_units_Z 28
_cell_length_a 21.781819
_cell_length_b 7.494971
_cell_length_c 10.338773
_cell_angle_alpha 90.000000
_cell_angle_beta 126.046258
_cell_angle_gamma 90.000000
_cell_volume 1364.695573
_symmetry_space_group_name_H-M "P 2/M"
_symmetry_group_IT_number 10
_symmetry_cell_setting 'monoclinic'
loop_
_space_group_symop_operation_xyz
x,y,z
-x,y,-z
-x,-y,-z
x,-y,z
loop_
_atom_site_type_symbol
_atom_site_label
_atom_site_fract_x
_atom_site_fract_y
_atom_site_fract_z
Si Si1 0.998710 0.781947 0.847737
Si Si2 0.544199 0.713132 0.677318
Si Si3 0.299609 0.213610 0.019137
Si Si4 0.460609 0.288483 0.823779
Si Si5 0.697099 0.785565 0.267268
Si Si6 0.870030 0.217518 0.487757
Si Si7 0.127218 0.217665 0.805148
O O1 0.070196 0.725664 0.847407
O O2 0.925886 0.725860 0.671667
O O3 0.998758 0.000000 0.850878
O O4 0.000000 0.724084 0.000000
O O5 0.500000 0.785959 0.500000
O O6 0.534120 0.500000 0.664288
O O7 0.633973 0.742571 0.799560
O O8 0.502412 0.787067 0.751631
O O9 0.295345 0.000000 0.007061
O O10 0.321671 0.278353 0.902067
O O11 0.213903 0.275222 0.939572
O O12 0.474801 0.500000 0.841159
O O13 0.370410 0.265620 0.721515
O O14 0.500000 0.211739 0.000000
O O15 0.782867 0.726175 0.402905
O O16 0.699114 0.000000 0.267000
O O17 0.892055 0.271507 0.367459
O O18 0.871604 0.000000 0.488560
O O19 0.125300 0.000000 0.801879
#
# Coordination Sequence:
#
# PCOD9145506 Si02
#       7
#     4   4   4   4   4   4   4
#     4   9  15  23  37  59  89 120 148 181 222 264
#     4  10  21  36  50  66  92 124 157 193 232 277
#     4   9  17  30  48  70  96 122 154 193 232 275
#     4  10  19  32  51  71  90 118 158 196 229 271
#     4   9  17  29  47  72  97 121 152 193 236 273
#     4   8  14  25  40  59  86 119 152 181 216 268
#     4   8  14  25  41  60  84 118 152 182 219 266
#
# _framework density 20.517395
#
# number of rings (size 3 to 8) (size 9 to 14) (size 15 to 20)
#    0.000    3.000    1.429    2.143    0.000    2.857 
#    2.571    0.000    0.000    0.000    0.000    1.000 
#    0.000    5.714    0.000    0.000    0.000    0.000 
#
# Total GULP energy -156122.819233 kJ/mol
# GULP energy per Si atom -5575.814973 kJ/mol
# Density = 2.047070 g / cm^3
# Si number density = 20.517395 Si / 1000 Ang^3
#
#
#
# Elastic Constant Matrix: (Units=GPa)
#
#
# Indices 1 2 3 4 5 6 
#
# 1 123.4190 -0.5470 95.6421 0.0000 1.9854 0.0000
# 2 -0.5470 54.2258 5.6987 0.0000 -6.0305 0.0000
# 3 95.6421 5.6987 193.1301 0.0000 2.6041 0.0000
# 4 0.0000 0.0000 0.0000 -8.4285 0.0000 17.6543
# 5 1.9854 -6.0305 2.6041 0.0000 24.0627 0.0000
# 6 0.0000 0.0000 0.0000 17.6543 0.0000 17.1952
#
#
#
# Elastic Compliance Matrix: (Units=1/GPa)
#
#
# Indices 1 2 3 4 5 6 
#
# 1 0.013186 0.000802 -0.006551 0.000000 -0.000178 0.000000
# 2 0.000802 0.019094 -0.001026 0.000000 0.004830 0.000000
# 3 -0.006551 -0.001026 0.008461 0.000000 -0.000632 0.000000
# 4 0.000000 0.000000 0.000000 -0.037659 0.000000 0.038664
# 5 -0.000178 0.004830 -0.000632 0.000000 0.042852 0.000000
# 6 0.000000 0.000000 0.000000 0.038664 0.000000 0.018459
#
#
# Mechanical properties :
#
#
# Convention : Reuss Voigt Hill
#
# Bulk Modulus (GPa) = 36.77684 63.59581 50.18632
# Shear Modulus (GPa) = 57.46712 24.56461 41.01587
#
# Velocity S-wave (km/s) = 5.29809 3.46390 4.47596
# Velocity P-wave (km/s) = 7.44245 6.86013 7.15721
#
# Compressibility (1/GPa) = 0.02719103
#
# Stress axis : x y z
#
# Youngs Moduli (GPa) = 75.84081 52.37127 118.19174
#
# Poissons Ratio (x) = -0.04198 0.77427
# Poissons Ratio (y) = -0.06080 0.12121
# Poissons Ratio (z) = 0.49683 0.05371
#
# Static dielectric constant tensor:
#      x y z
#    x 1.722390 0.000000 0.002650 
#    y 0.000000 1.766700 0.000000 
#    z 0.002650 0.000000 1.738520 
# 
# From -- ./inp_files/34680.got.cif
#   From: 2010.05.17/outbox.cif.g08.bks.cpg/sg10_18_cif.got.tgz:34680.got - 2010.06.03 11:33:40.
