data_PCOD9145599
_publ_section_title
;
Structure prediction by ZEFSAII (Michael W. Deem and Ramdas Pophale) SiO2 
 PCOD9145599
Probable space group: P 2/M
;
_chemical_formula_sum "Si O2"
_cell_formula_units_Z 30
_cell_length_a 14.577009
_cell_length_b 12.547663
_cell_length_c 22.034864
_cell_angle_alpha 90.000000
_cell_angle_beta 23.163601
_cell_angle_gamma 90.000000
_cell_volume 1585.366003
_symmetry_space_group_name_H-M "P 2/M"
_symmetry_group_IT_number 10
_symmetry_cell_setting 'monoclinic'
loop_
_space_group_symop_operation_xyz
x,y,z
-x,y,-z
-x,-y,-z
x,-y,z
loop_
_atom_site_type_symbol
_atom_site_label
_atom_site_fract_x
_atom_site_fract_y
_atom_site_fract_z
Si Si1 0.293008 0.260734 0.084826
Si Si2 0.263197 0.882961 0.898505
Si Si3 0.500000 0.206406 0.500000
Si Si4 0.417436 0.875470 0.186000
Si Si5 0.515766 0.820173 0.356908
Si Si6 0.999849 0.872523 0.641261
Si Si7 0.930292 0.677715 0.107223
Si Si8 0.901084 0.617303 0.258066
O O1 0.157001 0.174651 0.208999
O O2 0.119076 0.349362 0.166226
O O3 0.500000 0.306261 0.000000
O O4 0.411633 0.197558 0.957411
O O5 0.494306 0.864832 0.798906
O O6 0.342088 0.883016 0.780753
O O7 0.168985 0.000000 0.972245
O O8 0.081560 0.787723 0.019480
O O9 0.476340 0.143169 0.577633
O O10 0.281844 0.286168 0.624068
O O11 0.151946 0.851383 0.327385
O O12 0.451260 0.000000 0.148529
O O13 0.656504 0.708550 0.272317
O O14 0.251166 0.818666 0.495078
O O15 0.032702 0.000000 0.626759
O O16 0.973368 0.617579 0.143287
O O17 0.000000 0.629433 0.000000
O O18 0.809324 0.500000 0.329869
#
# Coordination Sequence:
#
# PCOD9145599 Si02
#       8
#     4   4   2   4   4   4   4   4
#     4  10  19  34  54  78 108 137 169 215 271 317
#     4  10  19  33  53  78 108 144 177 211 256 308
#     4  10  21  40  53  74 108 142 173 218 273 316
#     4   9  18  32  53  77 105 141 176 211 258 311
#     4  10  20  33  52  72 108 140 176 213 249 307
#     4  10  19  32  51  77 107 141 179 214 250 308
#     4   9  20  36  54  76 109 138 172 216 262 317
#     4  11  21  36  60  81 100 131 176 226 275 318
#
# _framework density 18.923075999999998
#
# number of rings (size 3 to 8) (size 9 to 14) (size 15 to 20)
#    0.000    2.133    2.667    1.000    0.000    5.600 
#    0.000    3.333    0.000    0.000    0.000    0.000 
#    0.000    6.933    0.000    0.000    0.000    0.000 
#
# Total GULP energy -167165.620200 kJ/mol
# GULP energy per Si atom -5572.187340 kJ/mol
# Density = 1.888001 g / cm^3
# Si number density = 18.923076 Si / 1000 Ang^3
#
#
#
# Elastic Constant Matrix: (Units=GPa)
#
#
# Indices 1 2 3 4 5 6 
#
# 1 118.8600 27.9453 30.5518 0.0000 -14.1035 0.0000
# 2 27.9453 53.3691 14.8414 0.0000 -10.5307 0.0000
# 3 30.5518 14.8414 71.1423 0.0000 -21.9616 0.0000
# 4 0.0000 0.0000 0.0000 1.1280 0.0000 8.8172
# 5 -14.1035 -10.5307 -21.9616 0.0000 37.4514 0.0000
# 6 0.0000 0.0000 0.0000 8.8172 0.0000 -16.8745
#
#
#
# Elastic Compliance Matrix: (Units=1/GPa)
#
#
# Indices 1 2 3 4 5 6 
#
# 1 0.010381 -0.004367 -0.003320 0.000000 0.000734 0.000000
# 2 -0.004367 0.022196 -0.001631 0.000000 0.003640 0.000000
# 3 -0.003320 -0.001631 0.018676 0.000000 0.009242 0.000000
# 4 0.000000 0.000000 0.000000 0.174363 0.000000 0.091108
# 5 0.000734 0.003640 0.009242 0.000000 0.033421 0.000000
# 6 0.000000 0.000000 0.000000 0.091108 0.000000 -0.011656
#
#
# Mechanical properties :
#
#
# Convention : Reuss Voigt Hill
#
# Bulk Modulus (GPa) = 30.66098 43.33871 36.99985
# Shear Modulus (GPa) = 18.05771 15.67650 16.86711
#
# Velocity S-wave (km/s) = 3.09248 2.88137 2.98879
# Velocity P-wave (km/s) = 5.38418 5.83284 5.61299
#
# Compressibility (1/GPa) = 0.03261474
#
# Stress axis : x y z
#
# Youngs Moduli (GPa) = 96.33345 45.05286 53.54573
#
# Poissons Ratio (x) = 0.19676 0.17778
# Poissons Ratio (y) = 0.42072 0.08735
# Poissons Ratio (z) = 0.31984 0.07349
#
# Static dielectric constant tensor:
#      x y z
#    x 1.697910 0.000000 -0.002120 
#    y 0.000000 1.645970 0.000000 
#    z -0.002120 0.000000 1.678570 
# 
# From -- ./inp_files/89802.got.cif
#   From: 2010.05.17/outbox.cif.g08.bks.cpg/sg10_45_cif.got.tgz:89802.got - 2010.06.03 11:33:40.
