data_PCOD9145434
_publ_section_title
;
Structure prediction by ZEFSAII (Michael W. Deem and Ramdas Pophale) SiO2 
 PCOD9145434
Probable space group: P 2/M
;
_chemical_formula_sum "Si O2"
_cell_formula_units_Z 22
_cell_length_a 7.882017
_cell_length_b 28.441808
_cell_length_c 9.378166
_cell_angle_alpha 90.000000
_cell_angle_beta 32.875314
_cell_angle_gamma 90.000000
_cell_volume 1141.201783
_symmetry_space_group_name_H-M "P 2/M"
_symmetry_group_IT_number 10
_symmetry_cell_setting 'monoclinic'
loop_
_space_group_symop_operation_xyz
x,y,z
-x,y,-z
-x,-y,-z
x,-y,z
loop_
_atom_site_type_symbol
_atom_site_label
_atom_site_fract_x
_atom_site_fract_y
_atom_site_fract_z
Si Si1 0.193842 0.151182 0.614869
Si Si2 0.625567 0.399139 0.250240
Si Si3 0.626953 0.296706 0.249788
Si Si4 0.873850 0.948451 0.249023
Si Si5 0.374749 0.500000 0.750315
Si Si6 0.567871 0.797029 0.118513
O O1 0.500000 0.152243 0.500000
O O2 0.061219 0.098017 0.705648
O O3 0.922827 0.183425 0.873560
O O4 0.326280 0.169094 0.371157
O O5 0.500000 0.399312 0.500000
O O6 0.529452 0.348202 0.258278
O O7 0.468377 0.449514 0.750906
O O8 0.000000 0.399086 0.000000
O O9 0.500000 0.291097 0.500000
O O10 0.533176 0.253209 0.218774
O O11 0.000000 0.296469 0.000000
O O12 0.500000 0.951062 0.500000
O O13 0.987283 0.000000 0.218984
O O14 0.000000 0.940728 0.000000
O O15 0.500000 0.500000 0.500000
O O16 0.000000 0.500000 0.000000
O O17 0.500000 0.793843 0.000000
#
# Coordination Sequence:
#
# PCOD9145434 Si02
#       6
#     4   4   4   4   2   4
#     4  11  21  37  59  79 101 134 173 208 246 299
#     4   8  14  23  38  61  87 116 150 194 241 286
#     4  10  19  32  50  70  94 127 169 207 243 293
#     4   9  17  30  52  82 106 124 159 210 251 286
#     4   8  12  20  34  56  87 114 141 186 245 288
#     4  12  24  36  51  75 107 138 169 211 258 299
#
# _framework density 19.277922
#
# number of rings (size 3 to 8) (size 9 to 14) (size 15 to 20)
#    0.000    2.182    0.000    6.000    0.000    0.000 
#    0.000    0.000    0.000    3.273    0.000    0.636 
#    0.000    0.000    0.000   45.818    0.000    2.455 
#
# Total GULP energy -122560.749576 kJ/mol
# GULP energy per Si atom -5570.943163 kJ/mol
# Density = 1.923405 g / cm^3
# Si number density = 19.277922 Si / 1000 Ang^3
#
#
#
# Elastic Constant Matrix: (Units=GPa)
#
#
# Indices 1 2 3 4 5 6 
#
# 1 30.0937 36.3217 14.0671 0.0000 11.2099 0.0000
# 2 36.3217 229.5511 49.8421 0.0000 25.8489 0.0000
# 3 14.0671 49.8421 157.9505 0.0000 6.1216 0.0000
# 4 0.0000 0.0000 0.0000 30.4890 0.0000 -0.6193
# 5 11.2099 25.8489 6.1216 0.0000 23.4388 0.0000
# 6 0.0000 0.0000 0.0000 -0.6193 0.0000 -5.1814
#
#
#
# Elastic Compliance Matrix: (Units=1/GPa)
#
#
# Indices 1 2 3 4 5 6 
#
# 1 0.046228 -0.005105 -0.001887 0.000000 -0.015987 0.000000
# 2 -0.005105 0.005850 -0.001249 0.000000 -0.003684 0.000000
# 3 -0.001887 -0.001249 0.006874 0.000000 0.000484 0.000000
# 4 0.000000 0.000000 0.000000 0.032719 0.000000 -0.003911
# 5 -0.015987 -0.003684 0.000484 0.000000 0.054246 0.000000
# 6 0.000000 0.000000 0.000000 -0.003911 0.000000 -0.192529
#
#
# Mechanical properties :
#
#
# Convention : Reuss Voigt Hill
#
# Bulk Modulus (GPa) = 23.54487 68.67302 46.10894
# Shear Modulus (GPa) = -313.00075 30.90690 -141.04692
#
# Velocity S-wave (km/s) = -12.75597 4.00838 -8.56293
# Velocity P-wave (km/s) = 14.30780 7.55796 8.59041
#
# Compressibility (1/GPa) = 0.04247210
#
# Stress axis : x y z
#
# Youngs Moduli (GPa) = 21.63207 170.94037 145.46791
#
# Poissons Ratio (x) = 0.87261 0.27444
# Poissons Ratio (y) = 0.11043 0.18163
# Poissons Ratio (z) = 0.04081 0.21343
#
# Static dielectric constant tensor:
#      x y z
#    x 1.623050 0.000000 -0.017790 
#    y 0.000000 1.808440 0.000000 
#    z -0.017790 0.000000 1.627710 
# 
# From -- ./inp_files/20889.got.cif
#   From: 2010.05.17/outbox.cif.g08.bks.cpg/sg10_11_cif.got.tgz:20889.got - 2010.06.03 11:33:40.
