data_PCOD9145001
_publ_section_title
;
Structure prediction by ZEFSAII (Michael W. Deem and Ramdas Pophale) SiO2 
 PCOD9145001
Probable space group: P 2/M
;
_chemical_formula_sum "Si O2"
_cell_formula_units_Z 32
_cell_length_a 21.037534
_cell_length_b 7.526351
_cell_length_c 12.595308
_cell_angle_alpha 90.000000
_cell_angle_beta 53.666203
_cell_angle_gamma 90.000000
_cell_volume 1606.557193
_symmetry_space_group_name_H-M "P 2/M"
_symmetry_group_IT_number 10
_symmetry_cell_setting 'monoclinic'
loop_
_space_group_symop_operation_xyz
x,y,z
-x,y,-z
-x,-y,-z
x,-y,z
loop_
_atom_site_type_symbol
_atom_site_label
_atom_site_fract_x
_atom_site_fract_y
_atom_site_fract_z
Si Si1 0.618702 0.205024 0.626799
Si Si2 0.025998 0.285857 0.357461
Si Si3 0.255202 0.783169 0.333843
Si Si4 0.707561 0.785726 0.146902
Si Si5 0.527926 0.782245 0.354942
Si Si6 0.243805 0.710425 0.667258
Si Si7 0.116697 0.707013 0.633949
Si Si8 0.209850 0.212089 0.147755
O O1 0.668124 0.280196 0.676755
O O2 0.536561 0.281582 0.666598
O O3 0.679877 0.209529 0.467263
O O4 0.602867 0.000000 0.669575
O O5 0.017945 0.500000 0.367637
O O6 0.116487 0.244544 0.244962
O O7 0.000000 0.220698 0.500000
O O8 0.965150 0.216735 0.328622
O O9 0.178670 0.721467 0.475329
O O10 0.248051 0.722410 0.219970
O O11 0.221570 0.000000 0.136246
O O12 0.616946 0.724309 0.244724
O O13 0.751523 0.739383 0.212525
O O14 0.705374 0.000000 0.144367
O O15 0.750821 0.718421 0.998697
O O16 0.500000 0.728324 0.500000
O O17 0.526791 0.000000 0.354992
O O18 0.248144 0.500000 0.641686
O O19 0.165315 0.781183 0.686089
O O20 0.101982 0.500000 0.672654
O O21 0.745670 0.000000 0.662154
#
# Coordination Sequence:
#
# PCOD9145001 Si02
#       8
#     4   4   4   4   4   4   4   4
#     4   9  16  29  50  73  97 128 164 200 242 291
#     4  10  19  33  54  76  97 127 167 203 239 292
#     4   9  17  29  47  73 101 127 159 199 245 290
#     4  10  20  35  51  69 100 137 168 198 242 297
#     4   9  15  27  50  74  94 126 171 206 235 282
#     4  10  19  31  49  74 101 126 159 204 250 289
#     4   9  18  32  50  74  99 124 159 203 246 287
#     4  10  21  34  49  73 104 133 161 202 249 290
#
# _framework density 19.918369999999999
#
# number of rings (size 3 to 8) (size 9 to 14) (size 15 to 20)
#    0.000    2.500    2.500    0.375    0.000    1.750 
#    0.000    2.500    0.000    7.500    0.000    0.000 
#    0.000    6.000    0.000    0.000    0.000    0.000 
#
# Total GULP energy -178511.044402 kJ/mol
# GULP energy per Si atom -5578.470138 kJ/mol
# Density = 1.987303 g / cm^3
# Si number density = 19.918370 Si / 1000 Ang^3
#
#
#
# Elastic Constant Matrix: (Units=GPa)
#
#
# Indices 1 2 3 4 5 6 
#
# 1 196.6524 0.1905 96.3402 0.0000 20.4108 0.0000
# 2 0.1905 50.9332 -8.3743 0.0000 -2.6170 0.0000
# 3 96.3402 -8.3743 126.8804 0.0000 8.5210 0.0000
# 4 0.0000 0.0000 0.0000 24.6196 0.0000 -11.0361
# 5 20.4108 -2.6170 8.5210 0.0000 24.0972 0.0000
# 6 0.0000 0.0000 0.0000 -11.0361 0.0000 12.6324
#
#
#
# Elastic Compliance Matrix: (Units=1/GPa)
#
#
# Indices 1 2 3 4 5 6 
#
# 1 0.008769 -0.001357 -0.006391 0.000000 -0.005315 0.000000
# 2 -0.001357 0.020130 0.002187 0.000000 0.002562 0.000000
# 3 -0.006391 0.002187 0.012803 0.000000 0.001123 0.000000
# 4 0.000000 0.000000 0.000000 0.066764 0.000000 0.058327
# 5 -0.005315 0.002562 0.001123 0.000000 0.045882 0.000000
# 6 0.000000 0.000000 0.000000 0.058327 0.000000 0.130119
#
#
# Mechanical properties :
#
#
# Convention : Reuss Voigt Hill
#
# Bulk Modulus (GPa) = 32.70124 61.19767 46.94946
# Shear Modulus (GPa) = 16.35156 31.35713 23.85435
#
# Velocity S-wave (km/s) = 2.86829 3.97203 3.46440
# Velocity P-wave (km/s) = 5.23667 7.19909 6.29483
#
# Compressibility (1/GPa) = 0.03057988
#
# Stress axis : x y z
#
# Youngs Moduli (GPa) = 114.03836 49.67761 78.10724
#
# Poissons Ratio (x) = 0.06740 0.49917
# Poissons Ratio (y) = 0.15471 -0.17079
# Poissons Ratio (z) = 0.72881 -0.10863
#
# Static dielectric constant tensor:
#      x y z
#    x 1.735260 0.000000 0.015340 
#    y 0.000000 1.804690 0.000000 
#    z 0.015340 0.000000 1.651070 
# 
# From -- ./inp_files/55235.got.cif
#   From: 2010.05.17/outbox.cif.g08.bks.cpg/sg10_28_cif.got.tgz:55235.got - 2010.06.03 11:33:40.
