data_PCOD9145138
_publ_section_title
;
Structure prediction by ZEFSAII (Michael W. Deem and Ramdas Pophale) SiO2 
 PCOD9145138
Probable space group: P 2/M
;
_chemical_formula_sum "Si O2"
_cell_formula_units_Z 30
_cell_length_a 23.372647
_cell_length_b 10.815941
_cell_length_c 11.688076
_cell_angle_alpha 90.000000
_cell_angle_beta 150.031249
_cell_angle_gamma 90.000000
_cell_volume 1475.960459
_symmetry_space_group_name_H-M "P 2/M"
_symmetry_group_IT_number 10
_symmetry_cell_setting 'monoclinic'
loop_
_space_group_symop_operation_xyz
x,y,z
-x,y,-z
-x,-y,-z
x,-y,z
loop_
_atom_site_type_symbol
_atom_site_label
_atom_site_fract_x
_atom_site_fract_y
_atom_site_fract_z
Si Si1 0.910479 0.638371 0.603939
Si Si2 0.915276 0.777413 0.951470
Si Si3 0.732193 0.363442 0.496681
Si Si4 0.584062 0.142947 0.538112
Si Si5 0.500000 0.280661 0.000000
Si Si6 0.592557 0.146267 0.948388
Si Si7 0.144431 0.851887 0.668524
Si Si8 0.176625 0.858843 0.976027
O O1 0.918424 0.500000 0.567787
O O2 0.797564 0.644191 0.487806
O O3 0.905711 0.751240 0.506313
O O4 0.014635 0.662237 0.872985
O O5 0.796297 0.737014 0.686617
O O6 0.891730 0.856951 0.023760
O O7 0.000000 0.829885 0.000000
O O8 0.756311 0.500000 0.585965
O O9 0.597356 0.350783 0.240507
O O10 0.500000 0.137342 0.500000
O O11 0.508538 0.199386 0.306525
O O12 0.611245 0.000000 0.551337
O O13 0.702398 0.203802 0.782426
O O14 0.574868 0.200234 0.042462
O O15 0.576035 0.000000 0.925767
O O16 0.718192 0.161704 0.112630
O O17 0.878104 0.815403 0.237961
O O18 0.114158 0.000000 0.595925
O O19 0.203673 0.000000 0.990660
#
# Coordination Sequence:
#
# PCOD9145138 Si02
#       8
#     4   4   4   4   2   4   4   4
#     4  10  21  41  64  85 115 159 206 248 292 352
#     4  10  22  40  60  83 114 153 203 253 295 346
#     4  10  21  38  59  85 115 154 199 246 299 356
#     4   9  15  28  51  78 110 154 198 234 278 349
#     4  12  20  32  56  90 118 148 190 240 302 362
#     4  10  19  31  50  81 121 156 189 234 289 352
#     4  10  20  37  60  87 120 156 194 244 301 352
#     4  10  20  35  58  88 121 157 198 244 300 361
#
# _framework density 20.325747
#
# number of rings (size 3 to 8) (size 9 to 14) (size 15 to 20)
#    0.000    2.000    2.667    1.600    0.000    2.933 
#    0.000    6.000    0.000    0.000    0.000    1.867 
#    0.000    0.000    0.000    0.000    0.000    0.000 
#
# Total GULP energy -167090.133861 kJ/mol
# GULP energy per Si atom -5569.671129 kJ/mol
# Density = 2.027948 g / cm^3
# Si number density = 20.325747 Si / 1000 Ang^3
#
#
#
# Elastic Constant Matrix: (Units=GPa)
#
#
# Indices 1 2 3 4 5 6 
#
# 1 96.6497 26.5878 17.9608 0.0000 -12.3537 0.0000
# 2 26.5878 49.7457 31.2493 0.0000 -8.2111 0.0000
# 3 17.9608 31.2493 106.3165 0.0000 -6.1061 0.0000
# 4 0.0000 0.0000 0.0000 13.0502 0.0000 -3.7960
# 5 -12.3537 -8.2111 -6.1061 0.0000 32.4596 0.0000
# 6 0.0000 0.0000 0.0000 -3.7960 0.0000 11.1858
#
#
#
# Elastic Compliance Matrix: (Units=1/GPa)
#
#
# Indices 1 2 3 4 5 6 
#
# 1 0.012440 -0.006032 -0.000146 0.000000 0.003181 0.000000
# 2 -0.006032 0.028384 -0.007120 0.000000 0.003545 0.000000
# 3 -0.000146 -0.007120 0.011541 0.000000 0.000314 0.000000
# 4 0.000000 0.000000 0.000000 0.085020 0.000000 0.028852
# 5 0.003181 0.003545 0.000314 0.000000 0.032974 0.000000
# 6 0.000000 0.000000 0.000000 0.028852 0.000000 0.099191
#
#
# Mechanical properties :
#
#
# Convention : Reuss Voigt Hill
#
# Bulk Modulus (GPa) = 38.80622 44.92306 41.86464
# Shear Modulus (GPa) = 16.40768 23.13340 19.77054
#
# Velocity S-wave (km/s) = 2.84427 3.37728 3.12217
# Velocity P-wave (km/s) = 5.46993 6.11208 5.79990
#
# Compressibility (1/GPa) = 0.02576907
#
# Stress axis : x y z
#
# Youngs Moduli (GPa) = 80.38764 35.23098 86.64463
#
# Poissons Ratio (x) = 0.21251 0.01264
# Poissons Ratio (y) = 0.48490 0.61693
# Poissons Ratio (z) = 0.01173 0.25085
#
# Static dielectric constant tensor:
#      x y z
#    x 1.731430 0.000000 -0.002220 
#    y 0.000000 1.702790 0.000000 
#    z -0.002220 0.000000 1.812210 
# 
# From -- ./inp_files/72666.got.cif
#   From: 2010.05.17/outbox.cif.g08.bks.cpg/sg10_37_cif.got.tgz:72666.got - 2010.06.03 11:33:40.
