data_PCOD9145374
_publ_section_title
;
Structure prediction by ZEFSAII (Michael W. Deem and Ramdas Pophale) SiO2 
 PCOD9145374
Probable space group: P 2/M
;
_chemical_formula_sum "Si O2"
_cell_formula_units_Z 26
_cell_length_a 24.163931
_cell_length_b 12.492609
_cell_length_c 5.314440
_cell_angle_alpha 90.000000
_cell_angle_beta 86.219513
_cell_angle_gamma 90.000000
_cell_volume 1600.781954
_symmetry_space_group_name_H-M "P 2/M"
_symmetry_group_IT_number 10
_symmetry_cell_setting 'monoclinic'
loop_
_space_group_symop_operation_xyz
x,y,z
-x,y,-z
-x,-y,-z
x,-y,z
loop_
_atom_site_type_symbol
_atom_site_label
_atom_site_fract_x
_atom_site_fract_y
_atom_site_fract_z
Si Si1 0.551634 0.385157 0.301646
Si Si2 0.500000 0.803136 0.000000
Si Si3 0.653822 0.253178 0.368765
Si Si4 0.032835 0.369413 0.240121
Si Si5 0.228545 0.629849 0.685114
Si Si6 0.380755 0.124532 0.127796
Si Si7 0.160125 0.370656 0.205149
O O1 0.500000 0.397887 0.500000
O O2 0.558558 0.500000 0.162682
O O3 0.609241 0.350193 0.407305
O O4 0.533028 0.280498 0.160619
O O5 0.448546 0.867955 0.130743
O O6 0.713917 0.306738 0.337178
O O7 0.644559 0.179464 0.616195
O O8 0.640478 0.186602 0.116706
O O9 0.033672 0.500000 0.239775
O O10 0.096579 0.332435 0.221439
O O11 0.000000 0.336331 0.500000
O O12 0.000000 0.336249 0.000000
O O13 0.237581 0.500000 0.683169
O O14 0.192781 0.657916 0.448786
O O15 0.194033 0.658843 0.945482
O O16 0.365949 0.000000 0.114628
O O17 0.157288 0.500000 0.204394
#
# Coordination Sequence:
#
# PCOD9145374 Si02
#       7
#     4   2   4   4   4   4   4
#     4  10  19  33  50  73 101 127 153 194 244 294
#     4  10  20  36  52  76  96 126 152 194 242 312
#     4  11  22  37  53  75  95 125 163 199 246 302
#     4   9  15  23  37  59  88 125 169 210 235 258
#     4  10  19  32  48  69  96 130 166 204 239 284
#     4  11  23  38  56  73  94 119 156 202 251 299
#     4   9  17  28  43  64  94 130 170 206 237 270
#
# _framework density 16.242059999999999
#
# number of rings (size 3 to 8) (size 9 to 14) (size 15 to 20)
#    0.000    2.000    1.538    3.231    0.000    3.692 
#    0.000    3.846    0.000    0.000    0.000    0.000 
#    0.000    0.000    0.000    0.000    0.000  193.846 
#
# Total GULP energy -144764.103287 kJ/mol
# GULP energy per Si atom -5567.850126 kJ/mol
# Density = 1.620509 g / cm^3
# Si number density = 16.242060 Si / 1000 Ang^3
#
#
#
# Elastic Constant Matrix: (Units=GPa)
#
#
# Indices 1 2 3 4 5 6 
#
# 1 166.0737 42.5151 84.4107 0.0000 -12.3830 0.0000
# 2 42.5151 58.3946 36.6426 0.0000 -3.0026 0.0000
# 3 84.4107 36.6426 142.9696 0.0000 -3.0380 0.0000
# 4 0.0000 0.0000 0.0000 20.2737 0.0000 -1.6939
# 5 -12.3830 -3.0026 -3.0380 0.0000 27.8316 0.0000
# 6 0.0000 0.0000 0.0000 -1.6939 0.0000 14.6366
#
#
#
# Elastic Compliance Matrix: (Units=1/GPa)
#
#
# Indices 1 2 3 4 5 6 
#
# 1 0.009617 -0.003946 -0.004596 0.000000 0.003352 0.000000
# 2 -0.003946 0.022100 -0.003329 0.000000 0.000265 0.000000
# 3 -0.004596 -0.003329 0.010534 0.000000 -0.001254 0.000000
# 4 0.000000 0.000000 0.000000 0.049807 0.000000 0.005764
# 5 0.003352 0.000265 -0.001254 0.000000 0.037313 0.000000
# 6 0.000000 0.000000 0.000000 0.005764 0.000000 0.068989
#
#
# Mechanical properties :
#
#
# Convention : Reuss Voigt Hill
#
# Bulk Modulus (GPa) = 54.02173 77.17496 65.59835
# Shear Modulus (GPa) = 21.90371 26.13968 24.02169
#
# Velocity S-wave (km/s) = 3.67628 4.01606 3.84992
# Velocity P-wave (km/s) = 7.16608 8.31406 7.76133
#
# Compressibility (1/GPa) = 0.01851107
#
# Stress axis : x y z
#
# Youngs Moduli (GPa) = 103.97901 45.24832 94.92785
#
# Poissons Ratio (x) = 0.17855 0.43625
# Poissons Ratio (y) = 0.41030 0.31600
# Poissons Ratio (z) = 0.47785 0.15063
#
# Static dielectric constant tensor:
#      x y z
#    x 1.567280 0.000000 -0.003760 
#    y 0.000000 1.574760 0.000000 
#    z -0.003760 0.000000 1.523150 
# 
# From -- ./inp_files/12223.got.cif
#   From: 2010.05.17/outbox.cif.g08.bks.cpg/sg10_7_cif.got.tgz:12223.got - 2010.06.03 11:33:40.
