data_PCOD9145640
_publ_section_title
;
Structure prediction by ZEFSAII (Michael W. Deem and Ramdas Pophale) SiO2 
 PCOD9145640
Probable space group: P 2/M
;
_chemical_formula_sum "Si O2"
_cell_formula_units_Z 24
_cell_length_a 14.311451
_cell_length_b 14.102150
_cell_length_c 4.974042
_cell_angle_alpha 90.000000
_cell_angle_beta 86.496562
_cell_angle_gamma 90.000000
_cell_volume 1001.996139
_symmetry_space_group_name_H-M "P 2/M"
_symmetry_group_IT_number 10
_symmetry_cell_setting 'monoclinic'
loop_
_space_group_symop_operation_xyz
x,y,z
-x,y,-z
-x,-y,-z
x,-y,z
loop_
_atom_site_type_symbol
_atom_site_label
_atom_site_fract_x
_atom_site_fract_y
_atom_site_fract_z
Si Si1 0.366191 0.898737 0.399662
Si Si2 0.713892 0.351071 0.085434
Si Si3 0.909383 0.600437 0.208386
Si Si4 0.249972 0.134314 0.935551
Si Si5 0.595545 0.679509 0.625592
Si Si6 0.936290 0.813384 0.273164
O O1 0.331239 0.893045 0.712199
O O2 0.411750 0.795280 0.331838
O O3 0.416710 0.000000 0.344572
O O4 0.275700 0.904244 0.221256
O O5 0.629271 0.370097 0.893920
O O6 0.812152 0.403236 0.061094
O O7 0.744357 0.245292 0.009420
O O8 0.675196 0.345307 0.394276
O O9 0.911548 0.500000 0.365198
O O10 0.907158 0.703772 0.353758
O O11 0.000000 0.601546 0.000000
O O12 0.151988 0.123629 0.801031
O O13 0.500000 0.649093 0.500000
O O14 0.000000 0.852122 0.500000
O O15 0.000000 0.805367 0.000000
#
# Coordination Sequence:
#
# PCOD9145640 Si02
#       6
#     4   4   4   4   4   4
#     4  10  19  32  52  76 102 132 169 220 277 323
#     4   9  19  35  55  80 110 146 183 219 266 325
#     4   9  19  35  57  87 118 144 176 224 279 326
#     4   9  18  32  49  71 101 139 177 212 261 324
#     4  10  20  36  58  81 107 143 186 227 268 322
#     4  10  19  32  52  75 101 137 179 220 261 313
#
# _framework density 23.952189000000001
#
# number of rings (size 3 to 8) (size 9 to 14) (size 15 to 20)
#    0.000    2.500    0.000    2.000    0.000    8.667 
#    0.000    4.167    0.000   19.000    0.000    0.000 
#    0.000    0.000    0.000    0.000    0.000    0.000 
#
# Total GULP energy -133728.826875 kJ/mol
# GULP energy per Si atom -5572.034453 kJ/mol
# Density = 2.389767 g / cm^3
# Si number density = 23.952189 Si / 1000 Ang^3
#
#
#
# Elastic Constant Matrix: (Units=GPa)
#
#
# Indices 1 2 3 4 5 6 
#
# 1 93.6332 -2.1220 11.2453 0.0000 40.0076 0.0000
# 2 -2.1220 47.6782 5.2220 0.0000 -2.6133 0.0000
# 3 11.2453 5.2220 88.2557 0.0000 29.7109 0.0000
# 4 0.0000 0.0000 0.0000 -7.0790 0.0000 9.0186
# 5 40.0076 -2.6133 29.7109 0.0000 45.9772 0.0000
# 6 0.0000 0.0000 0.0000 9.0186 0.0000 -5.6826
#
#
#
# Elastic Compliance Matrix: (Units=1/GPa)
#
#
# Indices 1 2 3 4 5 6 
#
# 1 0.017962 -0.000619 0.003861 0.000000 -0.018160 0.000000
# 2 -0.000619 0.021371 -0.002270 0.000000 0.003220 0.000000
# 3 0.003861 -0.002270 0.015525 0.000000 -0.013521 0.000000
# 4 0.000000 0.000000 0.000000 0.138236 0.000000 0.219389
# 5 -0.018160 0.003220 -0.013521 0.000000 0.046473 0.000000
# 6 0.000000 0.000000 0.000000 0.219389 0.000000 0.172206
#
#
# Mechanical properties :
#
#
# Convention : Reuss Voigt Hill
#
# Bulk Modulus (GPa) = 17.60446 28.69531 23.14988
# Shear Modulus (GPa) = 11.66148 20.99123 16.32635
#
# Velocity S-wave (km/s) = 2.20890 2.96358 2.61362
# Velocity P-wave (km/s) = 3.72443 4.86998 4.33521
#
# Compressibility (1/GPa) = 0.05680380
#
# Stress axis : x y z
#
# Youngs Moduli (GPa) = 55.67443 46.79137 64.41252
#
# Poissons Ratio (x) = 0.02896 -0.24873
# Poissons Ratio (y) = 0.03446 0.14619
# Poissons Ratio (z) = -0.21499 0.10620
#
# Static dielectric constant tensor:
#      x y z
#    x 1.947460 0.000000 0.056170 
#    y 0.000000 1.689550 0.000000 
#    z 0.056170 0.000000 1.868600 
# 
# From -- ./inp_files/9255.got.cif
#   From: 2010.05.17/outbox.cif.g08.bks.cpg/sg10_5_cif.got.tgz:9255.got - 2010.06.03 11:33:40.
