data_PCOD9145417
_publ_section_title
;
Structure prediction by ZEFSAII (Michael W. Deem and Ramdas Pophale) SiO2 
 PCOD9145417
Probable space group: P 2/M
;
_chemical_formula_sum "Si O2"
_cell_formula_units_Z 32
_cell_length_a 21.303714
_cell_length_b 13.744747
_cell_length_c 7.861889
_cell_angle_alpha 90.000000
_cell_angle_beta 132.372112
_cell_angle_gamma 90.000000
_cell_volume 1700.733028
_symmetry_space_group_name_H-M "P 2/M"
_symmetry_group_IT_number 10
_symmetry_cell_setting 'monoclinic'
loop_
_space_group_symop_operation_xyz
x,y,z
-x,y,-z
-x,-y,-z
x,-y,z
loop_
_atom_site_type_symbol
_atom_site_label
_atom_site_fract_x
_atom_site_fract_y
_atom_site_fract_z
Si Si1 0.241999 0.748308 0.909230
Si Si2 0.986680 0.213463 0.778225
Si Si3 0.822421 0.788571 0.865761
Si Si4 0.637141 0.387287 0.041397
Si Si5 0.283331 0.385884 0.442581
Si Si6 0.460359 0.383132 0.606845
Si Si7 0.819750 0.887167 0.491232
Si Si8 0.915672 0.611527 0.463321
O O1 0.323736 0.682527 0.027824
O O2 0.234336 0.820115 0.734325
O O3 0.163861 0.669820 0.760863
O O4 0.236231 0.805142 0.076483
O O5 0.916135 0.134585 0.601453
O O6 0.945477 0.318651 0.669984
O O7 0.000000 0.201378 0.000000
O O8 0.081896 0.204453 0.884685
O O9 0.795876 0.680757 0.752981
O O10 0.813576 0.853002 0.678191
O O11 0.643750 0.500000 0.998985
O O12 0.691237 0.377115 0.312597
O O13 0.537370 0.366003 0.879715
O O14 0.267845 0.500000 0.378278
O O15 0.368104 0.349562 0.498967
O O16 0.500000 0.349768 0.500000
O O17 0.450271 0.500000 0.576805
O O18 0.799485 0.000000 0.441888
O O19 0.893074 0.500000 0.463945
O O20 0.000000 0.609677 0.500000
#
# Coordination Sequence:
#
# PCOD9145417 Si02
#       8
#     4   4   4   4   4   4   4   4
#     4  11  21  36  57  80 111 144 186 232 277 330
#     4   9  20  36  53  74 105 141 182 234 272 327
#     4  11  21  36  56  81 110 142 182 230 272 333
#     4  10  19  33  53  80 117 157 189 224 267 318
#     4  10  20  33  51  81 118 156 189 222 269 319
#     4   9  17  30  49  77 113 152 193 226 259 315
#     4  10  23  42  60  80 106 137 182 241 300 344
#     4  10  19  32  49  72 108 149 183 219 263 315
#
# _framework density 18.815418000000001
#
# number of rings (size 3 to 8) (size 9 to 14) (size 15 to 20)
#    0.000    2.000    2.500    1.500    0.000    7.000 
#    0.000    0.625    0.000    0.000    0.000    1.750 
#    0.000    3.000    0.000    0.000    0.000    0.000 
#
# Total GULP energy -178292.316650 kJ/mol
# GULP energy per Si atom -5571.634895 kJ/mol
# Density = 1.877259 g / cm^3
# Si number density = 18.815418 Si / 1000 Ang^3
#
#
#
# Elastic Constant Matrix: (Units=GPa)
#
#
# Indices 1 2 3 4 5 6 
#
# 1 81.8843 25.2486 8.3663 0.0000 -0.1012 0.0000
# 2 25.2486 85.9312 16.5100 0.0000 -1.5890 0.0000
# 3 8.3663 16.5100 47.2928 0.0000 -2.6321 0.0000
# 4 0.0000 0.0000 0.0000 7.8206 0.0000 -1.7135
# 5 -0.1012 -1.5890 -2.6321 0.0000 22.6316 0.0000
# 6 0.0000 0.0000 0.0000 -1.7135 0.0000 14.4735
#
#
#
# Elastic Compliance Matrix: (Units=1/GPa)
#
#
# Indices 1 2 3 4 5 6 
#
# 1 0.013482 -0.003758 -0.001092 0.000000 -0.000331 0.000000
# 2 -0.003758 0.013524 -0.004031 0.000000 0.000464 0.000000
# 3 -0.001092 -0.004031 0.022877 0.000000 0.002373 0.000000
# 4 0.000000 0.000000 0.000000 0.131272 0.000000 0.015542
# 5 -0.000331 0.000464 0.002373 0.000000 0.044493 0.000000
# 6 0.000000 0.000000 0.000000 0.015542 0.000000 0.070932
#
#
# Mechanical properties :
#
#
# Convention : Reuss Voigt Hill
#
# Bulk Modulus (GPa) = 31.12997 35.03979 33.08488
# Shear Modulus (GPa) = 15.38231 19.98404 17.68318
#
# Velocity S-wave (km/s) = 2.86236 3.26254 3.06898
# Velocity P-wave (km/s) = 5.24452 5.73198 5.49366
#
# Compressibility (1/GPa) = 0.03212339
#
# Stress axis : x y z
#
# Youngs Moduli (GPa) = 74.17207 73.94071 43.71167
#
# Poissons Ratio (x) = 0.27785 0.04772
# Poissons Ratio (y) = 0.27872 0.17619
# Poissons Ratio (z) = 0.08097 0.29804
#
# Static dielectric constant tensor:
#      x y z
#    x 1.735120 0.000000 0.008660 
#    y 0.000000 1.622370 0.000000 
#    z 0.008660 0.000000 1.712980 
# 
# From -- ./inp_files/34894.got.cif
#   From: 2010.05.17/outbox.cif.g08.bks.cpg/sg10_18_cif.got.tgz:34894.got - 2010.06.03 11:33:40.
