data_PCOD9145668
_publ_section_title
;
Structure prediction by ZEFSAII (Michael W. Deem and Ramdas Pophale) SiO2 
 PCOD9145668
Probable space group: P 2/M
;
_chemical_formula_sum "Si O2"
_cell_formula_units_Z 30
_cell_length_a 11.636842
_cell_length_b 7.786886
_cell_length_c 18.841707
_cell_angle_alpha 90.000000
_cell_angle_beta 117.310351
_cell_angle_gamma 90.000000
_cell_volume 1517.027406
_symmetry_space_group_name_H-M "P 2/M"
_symmetry_group_IT_number 10
_symmetry_cell_setting 'monoclinic'
loop_
_space_group_symop_operation_xyz
x,y,z
-x,y,-z
-x,-y,-z
x,-y,z
loop_
_atom_site_type_symbol
_atom_site_label
_atom_site_fract_x
_atom_site_fract_y
_atom_site_fract_z
Si Si1 0.020089 0.806878 0.156062
Si Si2 0.443557 0.707211 0.650508
Si Si3 0.252614 0.293543 0.877534
Si Si4 0.731226 0.699998 0.689745
Si Si5 0.000000 0.251912 0.000000
Si Si6 0.643497 0.203305 0.520580
Si Si7 0.281480 0.291112 0.048726
Si Si8 0.554450 0.290250 0.190032
O O1 0.149991 0.785910 0.236909
O O2 0.892969 0.776396 0.166890
O O3 0.013743 0.000000 0.123927
O O4 0.010572 0.684138 0.084854
O O5 0.446989 0.500000 0.650617
O O6 0.589866 0.768182 0.673242
O O7 0.347381 0.761803 0.560348
O O8 0.410944 0.764750 0.720604
O O9 0.246122 0.500000 0.870330
O O10 0.347082 0.230348 0.842676
O O11 0.303135 0.255531 0.971389
O O12 0.735580 0.500000 0.710052
O O13 0.737285 0.718702 0.606125
O O14 0.151150 0.197018 0.036197
O O15 0.500000 0.272152 0.500000
O O16 0.645199 0.000000 0.532407
O O17 0.260664 0.500000 0.050629
O O18 0.407807 0.242437 0.128580
O O19 0.556342 0.500000 0.189347
#
# Coordination Sequence:
#
# PCOD9145668 Si02
#       8
#     4   4   4   4   2   4   4   4
#     4  11  22  35  50  69  98 133 167 204 247 292
#     4   9  17  29  48  75 104 131 159 198 246 293
#     4   9  18  32  50  70  94 129 171 210 246 286
#     4  10  19  32  52  77 102 128 162 200 243 296
#     4  10  20  32  48  70 103 138 165 196 243 296
#     4   9  17  30  48  72 103 134 162 194 238 293
#     4   9  16  27  47  75 102 129 165 208 247 285
#     4   9  16  28  48  73 100 129 165 207 247 287
#
# _framework density 19.775516
#
# number of rings (size 3 to 8) (size 9 to 14) (size 15 to 20)
#    0.000    2.533    0.000    2.800    0.000    6.400 
#    0.000    0.667    0.000    8.800    0.000    5.600 
#    0.000    0.000    0.000    0.000    0.000    0.000 
#
# Total GULP energy -167083.486013 kJ/mol
# GULP energy per Si atom -5569.449534 kJ/mol
# Density = 1.973051 g / cm^3
# Si number density = 19.775516 Si / 1000 Ang^3
#
#
#
# Elastic Constant Matrix: (Units=GPa)
#
#
# Indices 1 2 3 4 5 6 
#
# 1 98.9940 8.3896 52.7838 0.0000 -18.0655 0.0000
# 2 8.3896 48.0378 5.1680 0.0000 -0.8061 0.0000
# 3 52.7838 5.1680 99.2620 0.0000 -5.7360 0.0000
# 4 0.0000 0.0000 0.0000 12.5046 0.0000 8.1873
# 5 -18.0655 -0.8061 -5.7360 0.0000 28.1672 0.0000
# 6 0.0000 0.0000 0.0000 8.1873 0.0000 5.7514
#
#
#
# Elastic Compliance Matrix: (Units=1/GPa)
#
#
# Indices 1 2 3 4 5 6 
#
# 1 0.016071 -0.001806 -0.007953 0.000000 0.008636 0.000000
# 2 -0.001806 0.021141 -0.000174 0.000000 -0.000589 0.000000
# 3 -0.007953 -0.000174 0.014184 0.000000 -0.002217 0.000000
# 4 0.000000 0.000000 0.000000 1.177046 0.000000 -1.675572
# 5 0.008636 -0.000589 -0.002217 0.000000 0.040573 0.000000
# 6 0.000000 0.000000 0.000000 -1.675572 0.000000 2.559116
#
#
# Mechanical properties :
#
#
# Convention : Reuss Voigt Hill
#
# Bulk Modulus (GPa) = 31.71586 42.10850 36.91218
# Shear Modulus (GPa) = 1.29584 21.28146 11.28865
#
# Velocity S-wave (km/s) = 0.81037 3.28403 2.39182
# Velocity P-wave (km/s) = 4.11684 5.97656 5.13165
#
# Compressibility (1/GPa) = 0.03152996
#
# Stress axis : x y z
#
# Youngs Moduli (GPa) = 62.22271 47.30089 70.50003
#
# Poissons Ratio (x) = 0.08544 0.56069
# Poissons Ratio (y) = 0.11239 0.01228
# Poissons Ratio (z) = 0.49486 0.00824
#
# Static dielectric constant tensor:
#      x y z
#    x 1.677200 0.000000 -0.023350 
#    y 0.000000 1.804440 0.000000 
#    z -0.023350 0.000000 1.694880 
# 
# From -- ./inp_files/76222.got.cif
#   From: 2010.05.17/outbox.cif.g08.bks.cpg/sg10_39_cif.got.tgz:76222.got - 2010.06.03 11:33:40.
