data_PCOD9145497
_publ_section_title
;
Structure prediction by ZEFSAII (Michael W. Deem and Ramdas Pophale) SiO2 
 PCOD9145497
Probable space group: P 2/M
;
_chemical_formula_sum "Si O2"
_cell_formula_units_Z 28
_cell_length_a 14.262336
_cell_length_b 9.545740
_cell_length_c 18.371468
_cell_angle_alpha 90.000000
_cell_angle_beta 38.400334
_cell_angle_gamma 90.000000
_cell_volume 1553.610891
_symmetry_space_group_name_H-M "P 2/M"
_symmetry_group_IT_number 10
_symmetry_cell_setting 'monoclinic'
loop_
_space_group_symop_operation_xyz
x,y,z
-x,y,-z
-x,-y,-z
x,-y,z
loop_
_atom_site_type_symbol
_atom_site_label
_atom_site_fract_x
_atom_site_fract_y
_atom_site_fract_z
Si Si1 0.857102 0.838564 0.378946
Si Si2 0.885318 0.661012 0.504176
Si Si3 0.515615 0.748921 0.571991
Si Si4 0.725992 0.840006 0.067877
Si Si5 0.986985 0.666934 0.843783
Si Si6 0.535801 0.652650 0.722663
Si Si7 0.806748 0.152488 0.186819
O O1 0.896148 0.773476 0.433508
O O2 0.675858 0.828331 0.476685
O O3 0.937688 0.738673 0.271986
O O4 0.902651 0.000000 0.344173
O O5 0.910231 0.500000 0.462269
O O6 0.711155 0.666040 0.635179
O O7 0.000000 0.686514 0.500000
O O8 0.500000 0.684722 0.500000
O O9 0.522943 0.659003 0.642026
O O10 0.363007 0.837159 0.678049
O O11 0.562328 0.773937 0.181908
O O12 0.797669 0.841736 0.105492
O O13 0.720700 0.000000 0.044969
O O14 0.826926 0.739396 0.957172
O O15 0.979587 0.500000 0.843657
O O16 0.097341 0.719659 0.841128
O O17 0.478457 0.500000 0.780745
O O18 0.871596 0.000000 0.169310
#
# Coordination Sequence:
#
# PCOD9145497 Si02
#       7
#     4   4   4   4   4   4   4
#     4  11  22  36  55  81 111 144 185 226 269 322
#     4   9  19  38  62  87 116 144 171 212 269 330
#     4  10  19  32  50  77 108 149 181 222 266 320
#     4  10  21  37  54  73 102 143 187 228 270 316
#     4  12  24  35  50  73 105 144 185 230 274 317
#     4   9  19  34  54  82 110 140 180 221 263 316
#     4  10  20  34  51  72 100 142 190 230 269 316
#
# _framework density 18.02253
#
# number of rings (size 3 to 8) (size 9 to 14) (size 15 to 20)
#    0.000    1.857    1.429    3.000    0.000    9.714 
#    0.000    0.000    0.000    0.857    0.000    6.000 
#    0.000    0.000    0.000    0.000    0.000    0.000 
#
# Total GULP energy -156164.791304 kJ/mol
# GULP energy per Si atom -5577.313975 kJ/mol
# Density = 1.798151 g / cm^3
# Si number density = 18.022530 Si / 1000 Ang^3
#
#
#
# Elastic Constant Matrix: (Units=GPa)
#
#
# Indices 1 2 3 4 5 6 
#
# 1 66.5290 28.2847 7.1092 0.0000 -13.8758 0.0000
# 2 28.2847 158.6312 49.3415 0.0000 -8.8317 0.0000
# 3 7.1092 49.3415 81.7523 0.0000 -8.8695 0.0000
# 4 0.0000 0.0000 0.0000 10.5792 0.0000 9.4271
# 5 -13.8758 -8.8317 -8.8695 0.0000 10.7881 0.0000
# 6 0.0000 0.0000 0.0000 9.4271 0.0000 3.3398
#
#
#
# Elastic Compliance Matrix: (Units=1/GPa)
#
#
# Indices 1 2 3 4 5 6 
#
# 1 0.021979 -0.003333 0.003153 0.000000 0.028133 0.000000
# 2 -0.003333 0.008341 -0.004906 0.000000 -0.001493 0.000000
# 3 0.003153 -0.004906 0.016385 0.000000 0.013509 0.000000
# 4 0.000000 0.000000 0.000000 -0.062384 0.000000 0.176086
# 5 0.028133 -0.001493 0.013509 0.000000 0.138764 0.000000
# 6 0.000000 0.000000 0.000000 0.176086 0.000000 -0.197606
#
#
# Mechanical properties :
#
#
# Convention : Reuss Voigt Hill
#
# Bulk Modulus (GPa) = 27.37400 52.93145 40.15273
# Shear Modulus (GPa) = -95.84066 19.75325 -38.04370
#
# Velocity S-wave (km/s) = -7.30025 3.31423 -4.59943
# Velocity P-wave (km/s) = 7.47238 6.63919 2.42463
#
# Compressibility (1/GPa) = 0.03653101
#
# Stress axis : x y z
#
# Youngs Moduli (GPa) = 45.49816 119.88535 61.03197
#
# Poissons Ratio (x) = 0.39961 -0.19242
# Poissons Ratio (y) = 0.15166 0.29945
# Poissons Ratio (z) = -0.14344 0.58821
#
# Static dielectric constant tensor:
#      x y z
#    x 1.599190 0.000000 -0.001510 
#    y 0.000000 1.626520 0.000000 
#    z -0.001510 0.000000 1.637490 
# 
# From -- ./inp_files/77711.got.cif
#   From: 2010.05.17/outbox.cif.g08.bks.cpg/sg10_39_cif.got.tgz:77711.got - 2010.06.03 11:33:40.
