data_PCOD9145865
_publ_section_title
;
Structure prediction by ZEFSAII (Michael W. Deem and Ramdas Pophale) SiO2 
 PCOD9145865
Probable space group: P 2/M
;
_chemical_formula_sum "Si O2"
_cell_formula_units_Z 28
_cell_length_a 8.889295
_cell_length_b 13.897408
_cell_length_c 12.415341
_cell_angle_alpha 90.000000
_cell_angle_beta 115.015463
_cell_angle_gamma 90.000000
_cell_volume 1389.891236
_symmetry_space_group_name_H-M "P 2/M"
_symmetry_group_IT_number 10
_symmetry_cell_setting 'monoclinic'
loop_
_space_group_symop_operation_xyz
x,y,z
-x,y,-z
-x,-y,-z
x,-y,z
loop_
_atom_site_type_symbol
_atom_site_label
_atom_site_fract_x
_atom_site_fract_y
_atom_site_fract_z
Si Si1 0.469875 0.614644 0.327316
Si Si2 0.461425 0.293365 0.868630
Si Si3 0.868307 0.113035 0.718708
Si Si4 0.421277 0.889280 0.208257
Si Si5 0.782413 0.383620 0.562741
Si Si6 0.250440 0.111054 0.559265
Si Si7 0.099263 0.253450 0.688557
O O1 0.473972 0.500000 0.334257
O O2 0.450501 0.649185 0.200739
O O3 0.319471 0.643794 0.359864
O O4 0.649296 0.645748 0.430146
O O5 0.523500 0.184154 0.866798
O O6 0.266174 0.299933 0.784357
O O7 0.500000 0.325538 0.000000
O O8 0.750638 0.133139 0.784188
O O9 0.774878 0.128727 0.575059
O O10 0.022585 0.183723 0.756357
O O11 0.913321 0.000000 0.735596
O O12 0.560047 0.880572 0.344515
O O13 0.419986 0.000000 0.171757
O O14 0.804007 0.500000 0.565205
O O15 0.957771 0.330085 0.613745
O O16 0.150358 0.182530 0.606386
O O17 0.199688 0.000000 0.564703
#
# Coordination Sequence:
#
# PCOD9145865 Si02
#       7
#     4   4   4   4   4   4   4
#     4   9  20  41  65  87 116 151 184 227 283 347
#     4  11  25  41  57  82 115 156 199 236 278 333
#     4  10  19  32  53  83 116 148 188 235 285 342
#     4   9  19  36  56  78 109 156 200 230 273 334
#     4   9  20  39  64  93 119 144 180 228 289 351
#     4   9  18  31  50  82 121 152 181 227 287 346
#     4  11  22  33  56  86 119 150 185 234 294 336
#
# _framework density 20.145462999999999
#
# number of rings (size 3 to 8) (size 9 to 14) (size 15 to 20)
#    0.000    2.286    0.000    3.000    6.000    4.571 
#    0.000    4.286    0.000    3.429    0.000    0.000 
#    0.000    0.000    0.000    0.000    0.000    0.000 
#
# Total GULP energy -156453.544197 kJ/mol
# GULP energy per Si atom -5587.626578 kJ/mol
# Density = 2.009961 g / cm^3
# Si number density = 20.145463 Si / 1000 Ang^3
#
#
#
# Elastic Constant Matrix: (Units=GPa)
#
#
# Indices 1 2 3 4 5 6 
#
# 1 96.7486 39.0663 27.5237 0.0000 -8.3411 0.0000
# 2 39.0663 64.1618 15.4697 0.0000 -4.9979 0.0000
# 3 27.5237 15.4697 88.0212 0.0000 -18.3170 0.0000
# 4 0.0000 0.0000 0.0000 6.3633 0.0000 2.7345
# 5 -8.3411 -4.9979 -18.3170 0.0000 17.1471 0.0000
# 6 0.0000 0.0000 0.0000 2.7345 0.0000 32.5408
#
#
#
# Elastic Compliance Matrix: (Units=1/GPa)
#
#
# Indices 1 2 3 4 5 6 
#
# 1 0.014519 -0.008037 -0.002758 0.000000 0.001773 0.000000
# 2 -0.008037 0.020787 -0.000891 0.000000 0.001198 0.000000
# 3 -0.002758 -0.000891 0.015490 0.000000 0.014945 0.000000
# 4 0.000000 0.000000 0.000000 0.163038 0.000000 -0.013701
# 5 0.001773 0.001198 0.014945 0.000000 0.075496 0.000000
# 6 0.000000 0.000000 0.000000 -0.013701 0.000000 0.031882
#
#
# Mechanical properties :
#
#
# Convention : Reuss Voigt Hill
#
# Bulk Modulus (GPa) = 36.46513 45.89456 41.17984
# Shear Modulus (GPa) = 14.13525 22.33504 18.23514
#
# Velocity S-wave (km/s) = 2.65176 3.33331 3.01187
# Velocity P-wave (km/s) = 5.24557 6.13560 5.70796
#
# Compressibility (1/GPa) = 0.02742346
#
# Stress axis : x y z
#
# Youngs Moduli (GPa) = 68.87537 48.10649 64.55704
#
# Poissons Ratio (x) = 0.38663 0.17808
# Poissons Ratio (y) = 0.55355 0.05752
# Poissons Ratio (z) = 0.18999 0.04286
#
# Static dielectric constant tensor:
#      x y z
#    x 1.732480 0.000000 0.007260 
#    y 0.000000 1.762320 0.000000 
#    z 0.007260 0.000000 1.686230 
# 
# From -- ./inp_files/42763.got.cif
#   From: 2010.05.17/outbox.cif.g08.bks.cpg/sg10_22_cif.got.tgz:42763.got - 2010.06.03 11:33:40.
