data_PCOD9145926
_publ_section_title
;
Structure prediction by ZEFSAII (Michael W. Deem and Ramdas Pophale) SiO2 
 PCOD9145926
Probable space group: P 2/M
;
_chemical_formula_sum "Si O2"
_cell_formula_units_Z 32
_cell_length_a 22.529919
_cell_length_b 8.207001
_cell_length_c 28.999964
_cell_angle_alpha 90.000000
_cell_angle_beta 161.290362
_cell_angle_gamma 90.000000
_cell_volume 1720.039664
_symmetry_space_group_name_H-M "P 2/M"
_symmetry_group_IT_number 10
_symmetry_cell_setting 'monoclinic'
loop_
_space_group_symop_operation_xyz
x,y,z
-x,y,-z
-x,-y,-z
x,-y,z
loop_
_atom_site_type_symbol
_atom_site_label
_atom_site_fract_x
_atom_site_fract_y
_atom_site_fract_z
Si Si1 0.550357 0.196867 0.589564
Si Si2 0.700168 0.308424 0.165300
Si Si3 0.836614 0.197022 0.658886
Si Si4 0.202116 0.191953 0.662318
Si Si5 0.126994 0.807051 0.798047
Si Si6 0.409915 0.693647 0.083053
Si Si7 0.874985 0.695898 0.051955
Si Si8 0.955705 0.695354 0.916581
O O1 0.500000 0.242651 0.500000
O O2 0.375682 0.247715 0.492286
O O3 0.744289 0.269103 0.747746
O O4 0.565338 0.000000 0.601898
O O5 0.681597 0.500000 0.162332
O O6 0.761973 0.220888 0.257157
O O7 0.838282 0.281297 0.224449
O O8 0.500000 0.248842 0.000000
O O9 0.947809 0.249354 0.695171
O O10 0.953725 0.257818 0.788924
O O11 0.842389 0.000000 0.664378
O O12 0.374323 0.269525 0.762037
O O13 0.000000 0.257219 0.500000
O O14 0.205219 0.000000 0.654806
O O15 0.113496 0.000000 0.779714
O O16 0.300288 0.774541 0.959737
O O17 0.381345 0.500000 0.057569
O O18 0.307806 0.750571 0.054753
O O19 0.866652 0.500000 0.043204
O O20 0.916088 0.759442 0.030956
O O21 0.981023 0.500000 0.936623
O O22 0.000000 0.761133 0.000000
#
# Coordination Sequence:
#
# PCOD9145926 Si02
#       8
#     4   4   4   4   4   4   4   4
#     4  10  19  33  54  79 108 138 176 225 271 319
#     4  11  22  36  57  84 112 142 179 222 270 322
#     4   9  18  32  51  79 110 140 176 224 275 320
#     4  11  24  40  58  82 111 145 184 224 271 325
#     4  10  19  32  54  81 111 144 180 225 274 321
#     4  10  19  33  54  80 108 140 181 226 273 325
#     4   9  18  32  52  77 106 140 179 223 268 320
#     4  10  21  36  53  77 110 146 184 224 268 321
#
# _framework density 18.604223999999999
#
# number of rings (size 3 to 8) (size 9 to 14) (size 15 to 20)
#    0.000    2.000    2.500    1.500    0.000    3.500 
#    0.000    1.250    0.000    3.000    0.000    0.000 
#    0.000    0.000    0.000    0.000    0.000    0.000 
#
# Total GULP energy -178576.932315 kJ/mol
# GULP energy per Si atom -5580.529135 kJ/mol
# Density = 1.856188 g / cm^3
# Si number density = 18.604224 Si / 1000 Ang^3
#
#
#
# Elastic Constant Matrix: (Units=GPa)
#
#
# Indices 1 2 3 4 5 6 
#
# 1 140.1921 -1.5913 56.3510 0.0000 14.0804 0.0000
# 2 -1.5913 4.9772 -4.5701 0.0000 0.2656 0.0000
# 3 56.3510 -4.5701 84.8073 0.0000 10.2490 0.0000
# 4 0.0000 0.0000 0.0000 21.2858 0.0000 0.6175
# 5 14.0804 0.2656 10.2490 0.0000 28.9325 0.0000
# 6 0.0000 0.0000 0.0000 0.6175 0.0000 16.9518
#
#
#
# Elastic Compliance Matrix: (Units=1/GPa)
#
#
# Indices 1 2 3 4 5 6 
#
# 1 0.009948 -0.002601 -0.006444 0.000000 -0.002535 0.000000
# 2 -0.002601 0.213142 0.013892 0.000000 -0.005612 0.000000
# 3 -0.006444 0.013892 0.017194 0.000000 -0.003082 0.000000
# 4 0.000000 0.000000 0.000000 0.047029 0.000000 -0.001713
# 5 -0.002535 -0.005612 -0.003082 0.000000 0.036940 0.000000
# 6 0.000000 0.000000 0.000000 -0.001713 0.000000 0.059053
#
#
# Mechanical properties :
#
#
# Convention : Reuss Voigt Hill
#
# Bulk Modulus (GPa) = 4.00034 36.70622 20.35328
# Shear Modulus (GPa) = 10.94236 25.41981 18.18108
#
# Velocity S-wave (km/s) = 2.42784 3.70042 3.12950
# Velocity P-wave (km/s) = 3.16451 6.16688 4.90125
#
# Compressibility (1/GPa) = 0.24997892
#
# Stress axis : x y z
#
# Youngs Moduli (GPa) = 100.51879 4.69171 58.15840
#
# Poissons Ratio (x) = 0.01220 0.37478
# Poissons Ratio (y) = 0.26146 -0.80795
# Poissons Ratio (z) = 0.64776 -0.06518
#
# Static dielectric constant tensor:
#      x y z
#    x 1.669660 0.000000 0.031970 
#    y 0.000000 1.644750 0.000000 
#    z 0.031970 0.000000 1.616210 
# 
# From -- ./inp_files/93793.got.cif
#   From: 2010.05.17/outbox.cif.g08.bks.cpg/sg10_47_cif.got.tgz:93793.got - 2010.06.03 11:33:40.
