data_PCOD9145392
_publ_section_title
;
Structure prediction by ZEFSAII (Michael W. Deem and Ramdas Pophale) SiO2 
 PCOD9145392
Probable space group: P 2/M
;
_chemical_formula_sum "Si O2"
_cell_formula_units_Z 28
_cell_length_a 21.158070
_cell_length_b 17.851744
_cell_length_c 18.617546
_cell_angle_alpha 90.000000
_cell_angle_beta 167.367179
_cell_angle_gamma 90.000000
_cell_volume 1537.915151
_symmetry_space_group_name_H-M "P 2/M"
_symmetry_group_IT_number 10
_symmetry_cell_setting 'monoclinic'
loop_
_space_group_symop_operation_xyz
x,y,z
-x,y,-z
-x,-y,-z
x,-y,z
loop_
_atom_site_type_symbol
_atom_site_label
_atom_site_fract_x
_atom_site_fract_y
_atom_site_fract_z
Si Si1 0.151549 0.287435 0.980304
Si Si2 0.890889 0.176015 0.298425
Si Si3 0.748338 0.130170 0.834432
Si Si4 0.161466 0.585576 0.107266
Si Si5 0.468504 0.240895 0.728243
Si Si6 0.387548 0.918182 0.793516
Si Si7 0.625525 0.083022 0.450270
O O1 0.843776 0.273616 0.601275
O O2 0.206742 0.217556 0.095601
O O3 0.129024 0.361399 0.002923
O O4 0.399927 0.282058 0.195823
O O5 0.000000 0.195344 0.500000
O O6 0.145149 0.146008 0.528841
O O7 0.702303 0.239372 0.050791
O O8 0.670842 0.106774 0.065461
O O9 0.500000 0.122002 0.500000
O O10 0.626610 0.090862 0.770904
O O11 0.062406 0.096497 0.166065
O O12 0.500000 0.583676 0.500000
O O13 0.060369 0.500000 0.982247
O O14 0.000000 0.614163 0.000000
O O15 0.415182 0.153775 0.647023
O O16 0.276695 0.000000 0.649141
O O17 0.500000 0.922987 0.000000
O O18 0.620969 0.000000 0.413083
#
# Coordination Sequence:
#
# PCOD9145392 Si02
#       7
#     4   4   4   4   4   4   4
#     4  10  20  35  52  72 104 134 161 195 239 298
#     4  10  19  32  49  68  92 122 165 217 258 303
#     4  10  20  32  48  66  85 119 162 199 239 283
#     4  10  20  34  56  86 114 138 164 195 232 280
#     4  10  21  35  49  69  96 132 169 204 254 305
#     4   9  17  28  43  65  90 117 154 205 266 320
#     4  10  21  33  44  62  88 119 158 207 254 287
#
# _framework density 18.206465999999999
#
# number of rings (size 3 to 8) (size 9 to 14) (size 15 to 20)
#    0.000    2.143    0.000    3.429    0.000    6.857 
#    0.000    0.000    0.000    0.000    0.000    0.000 
#    0.000    3.429    0.000    0.000    0.000    0.000 
#
# Total GULP energy -156247.110156 kJ/mol
# GULP energy per Si atom -5580.253934 kJ/mol
# Density = 1.816503 g / cm^3
# Si number density = 18.206466 Si / 1000 Ang^3
#
#
#
# Elastic Constant Matrix: (Units=GPa)
#
#
# Indices 1 2 3 4 5 6 
#
# 1 33.6497 18.9330 14.5772 0.0000 -8.2806 0.0000
# 2 18.9330 52.1187 9.8862 0.0000 -8.2353 0.0000
# 3 14.5772 9.8862 73.8723 0.0000 -1.0889 0.0000
# 4 0.0000 0.0000 0.0000 28.0617 0.0000 -7.6292
# 5 -8.2806 -8.2353 -1.0889 0.0000 33.9198 0.0000
# 6 0.0000 0.0000 0.0000 -7.6292 0.0000 -12.4659
#
#
#
# Elastic Compliance Matrix: (Units=1/GPa)
#
#
# Indices 1 2 3 4 5 6 
#
# 1 0.041298 -0.012726 -0.006346 0.000000 0.006788 0.000000
# 2 -0.012726 0.024386 -0.000711 0.000000 0.002791 0.000000
# 3 -0.006346 -0.000711 0.014866 0.000000 -0.001245 0.000000
# 4 0.000000 0.000000 0.000000 0.030552 0.000000 -0.018698
# 5 0.006788 0.002791 -0.001245 0.000000 0.031776 0.000000
# 6 0.000000 0.000000 0.000000 -0.018698 0.000000 -0.068775
#
#
# Mechanical properties :
#
#
# Convention : Reuss Voigt Hill
#
# Bulk Modulus (GPa) = 24.40014 27.38150 25.89082
# Shear Modulus (GPa) = 39.26817 17.65273 28.46045
#
# Velocity S-wave (km/s) = 4.64920 3.11720 3.95803
# Velocity P-wave (km/s) = 6.50008 5.29414 5.92786
#
# Compressibility (1/GPa) = 0.04098337
#
# Stress axis : x y z
#
# Youngs Moduli (GPa) = 24.21444 41.00763 67.26757
#
# Poissons Ratio (x) = 0.52185 0.42689
# Poissons Ratio (y) = 0.30814 0.04784
# Poissons Ratio (z) = 0.15367 0.02916
#
# Static dielectric constant tensor:
#      x y z
#    x 1.704740 0.000000 0.028460 
#    y 0.000000 1.619360 0.000000 
#    z 0.028460 0.000000 1.678000 
# 
# From -- ./inp_files/86635.got.cif
#   From: 2010.05.17/outbox.cif.g08.bks.cpg/sg10_44_cif.got.tgz:86635.got - 2010.06.03 11:33:40.
