data_PCOD9145639
_publ_section_title
;
Structure prediction by ZEFSAII (Michael W. Deem and Ramdas Pophale) SiO2 
 PCOD9145639
Probable space group: P 2/M
;
_chemical_formula_sum "Si O2"
_cell_formula_units_Z 28
_cell_length_a 10.732031
_cell_length_b 7.672664
_cell_length_c 15.405077
_cell_angle_alpha 90.000000
_cell_angle_beta 63.860402
_cell_angle_gamma 90.000000
_cell_volume 1138.765956
_symmetry_space_group_name_H-M "P 2/M"
_symmetry_group_IT_number 10
_symmetry_cell_setting 'monoclinic'
loop_
_space_group_symop_operation_xyz
x,y,z
-x,y,-z
-x,-y,-z
x,-y,z
loop_
_atom_site_type_symbol
_atom_site_label
_atom_site_fract_x
_atom_site_fract_y
_atom_site_fract_z
Si Si1 0.197162 0.797035 0.801350
Si Si2 0.950542 0.285335 0.419328
Si Si3 0.481545 0.204032 0.287360
Si Si4 0.639226 0.301163 0.501964
Si Si5 0.167625 0.300135 0.001279
Si Si6 0.936993 0.303318 0.787623
Si Si7 0.503254 0.302527 0.092219
O O1 0.357091 0.738552 0.751218
O O2 0.097605 0.693262 0.768687
O O3 0.194414 0.000000 0.778515
O O4 0.132914 0.780367 0.918317
O O5 0.948481 0.500000 0.418220
O O6 0.793378 0.223948 0.446130
O O7 0.055121 0.226451 0.310877
O O8 0.000000 0.233602 0.500000
O O9 0.390795 0.300719 0.385923
O O10 0.440503 0.227711 0.199433
O O11 0.476020 0.000000 0.309192
O O12 0.500000 0.222010 0.500000
O O13 0.646823 0.500000 0.466646
O O14 0.116536 0.500000 0.020688
O O15 0.134157 0.218549 0.105774
O O16 0.332949 0.308894 0.943064
O O17 0.881195 0.500000 0.797379
O O18 0.448312 0.500000 0.099174
O O19 0.500000 0.211132 0.000000
#
# Coordination Sequence:
#
# PCOD9145639 Si02
#       7
#     4   4   4   4   4   4   4
#     4  10  20  33  50  75 106 137 170 210 259 315
#     4   9  19  35  55  80 109 140 176 221 270 317
#     4  10  21  35  52  76 106 140 175 217 270 320
#     4  10  20  35  58  85 108 136 180 230 274 317
#     4   9  18  31  49  76 106 134 167 209 258 313
#     4  10  19  32  52  75 101 135 172 211 258 312
#     4   9  18  33  53  77 104 135 173 215 258 311
#
# _framework density 24.58802
#
# number of rings (size 3 to 8) (size 9 to 14) (size 15 to 20)
#    0.000    2.429    0.000    2.143    0.000    6.857 
#    0.000    5.000    0.000    3.429    0.000    0.000 
#    0.000    0.000    0.000    0.000    0.000    0.000 
#
# Total GULP energy -156238.946744 kJ/mol
# GULP energy per Si atom -5579.962384 kJ/mol
# Density = 2.453206 g / cm^3
# Si number density = 24.588020 Si / 1000 Ang^3
#
#
#
# Elastic Constant Matrix: (Units=GPa)
#
#
# Indices 1 2 3 4 5 6 
#
# 1 59.9968 0.8483 23.1286 0.0000 7.1981 0.0000
# 2 0.8483 50.9520 4.6187 0.0000 2.0960 0.0000
# 3 23.1286 4.6187 171.2224 0.0000 12.4912 0.0000
# 4 0.0000 0.0000 0.0000 68.9721 0.0000 28.8215
# 5 7.1981 2.0960 12.4912 0.0000 41.0674 0.0000
# 6 0.0000 0.0000 0.0000 28.8215 0.0000 16.3021
#
#
#
# Elastic Compliance Matrix: (Units=1/GPa)
#
#
# Indices 1 2 3 4 5 6 
#
# 1 0.017820 0.000006 -0.002229 0.000000 -0.002446 0.000000
# 2 0.000006 0.019704 -0.000469 0.000000 -0.000864 0.000000
# 3 -0.002229 -0.000469 0.006263 0.000000 -0.001490 0.000000
# 4 0.000000 0.000000 0.000000 0.055504 0.000000 -0.098129
# 5 -0.002446 -0.000864 -0.001490 0.000000 0.025276 0.000000
# 6 0.000000 0.000000 0.000000 -0.098129 0.000000 0.234831
#
#
# Mechanical properties :
#
#
# Convention : Reuss Voigt Hill
#
# Bulk Modulus (GPa) = 26.03973 37.70694 31.87334
# Shear Modulus (GPa) = 13.24209 42.17335 27.70772
#
# Velocity S-wave (km/s) = 2.32320 4.14599 3.36054
# Velocity P-wave (km/s) = 4.22016 6.18771 5.29611
#
# Compressibility (1/GPa) = 0.03840285
#
# Stress axis : x y z
#
# Youngs Moduli (GPa) = 56.11630 50.75037 159.67265
#
# Poissons Ratio (x) = -0.00030 0.35589
# Poissons Ratio (y) = -0.00034 0.07493
# Poissons Ratio (z) = 0.12508 0.02382
#
# Static dielectric constant tensor:
#      x y z
#    x 1.999840 0.000000 0.015410 
#    y 0.000000 1.916720 0.000000 
#    z 0.015410 0.000000 1.987220 
# 
# From -- ./inp_files/49640.got.cif
#   From: 2010.05.17/outbox.cif.g08.bks.cpg/sg10_25_cif.got.tgz:49640.got - 2010.06.03 11:33:40.
