data_PCOD9145858
_publ_section_title
;
Structure prediction by ZEFSAII (Michael W. Deem and Ramdas Pophale) SiO2 
 PCOD9145858
Probable space group: P 2/M
;
_chemical_formula_sum "Si O2"
_cell_formula_units_Z 28
_cell_length_a 10.533351
_cell_length_b 7.717349
_cell_length_c 31.094715
_cell_angle_alpha 90.000000
_cell_angle_beta 146.080812
_cell_angle_gamma 90.000000
_cell_volume 1410.501042
_symmetry_space_group_name_H-M "P 2/M"
_symmetry_group_IT_number 10
_symmetry_cell_setting 'monoclinic'
loop_
_space_group_symop_operation_xyz
x,y,z
-x,y,-z
-x,-y,-z
x,-y,z
loop_
_atom_site_type_symbol
_atom_site_label
_atom_site_fract_x
_atom_site_fract_y
_atom_site_fract_z
Si Si1 0.401960 0.712205 0.905288
Si Si2 0.852190 0.211642 0.500206
Si Si3 0.339430 0.207652 0.234599
Si Si4 0.843800 0.707684 0.076289
Si Si5 0.112043 0.296177 0.744702
Si Si6 0.652664 0.210072 0.664576
Si Si7 0.182900 0.795142 0.666793
O O1 0.397395 0.500000 0.903282
O O2 0.245734 0.767330 0.901919
O O3 0.293862 0.774783 0.830502
O O4 0.658264 0.767246 0.989173
O O5 0.592005 0.268736 0.422001
O O6 0.000000 0.260976 0.500000
O O7 0.984359 0.273329 0.579788
O O8 0.844821 0.000000 0.498428
O O9 0.321925 0.271474 0.278936
O O10 0.569327 0.275290 0.277123
O O11 0.105538 0.245852 0.144390
O O12 0.356975 0.000000 0.242029
O O13 0.829465 0.500000 0.072921
O O14 0.152819 0.500000 0.752536
O O15 0.133554 0.224854 0.702989
O O16 0.864192 0.267692 0.695475
O O17 0.653708 0.000000 0.665254
O O18 0.191181 0.000000 0.660024
#
# Coordination Sequence:
#
# PCOD9145858 Si02
#       7
#     4   4   4   4   4   4   4
#     4   8  16  31  52  76 102 137 178 218 253 302
#     4   9  16  32  58  82 102 134 181 222 254 302
#     4  10  19  32  53  83 110 132 169 221 271 312
#     4   9  16  31  55  78 101 134 179 221 257 303
#     4  11  22  37  54  77 110 144 176 213 264 318
#     4  10  19  33  57  83 105 134 176 222 263 308
#     4  10  21  37  56  78 108 142 176 217 263 312
#
# _framework density 19.851101
#
# number of rings (size 3 to 8) (size 9 to 14) (size 15 to 20)
#    0.000    2.429    2.857    1.286    0.000    1.143 
#    0.000    7.143    0.000    5.143    0.000    0.000 
#    0.000    0.000    0.000    0.000    0.000    0.000 
#
# Total GULP energy -156231.386928 kJ/mol
# GULP energy per Si atom -5579.692390 kJ/mol
# Density = 1.980592 g / cm^3
# Si number density = 19.851101 Si / 1000 Ang^3
#
#
#
# Elastic Constant Matrix: (Units=GPa)
#
#
# Indices 1 2 3 4 5 6 
#
# 1 95.8064 -12.7572 72.6740 0.0000 0.2567 0.0000
# 2 -12.7572 25.1338 -3.3442 0.0000 -0.7714 0.0000
# 3 72.6740 -3.3442 193.3992 0.0000 4.0364 0.0000
# 4 0.0000 0.0000 0.0000 17.7236 0.0000 13.8511
# 5 0.2567 -0.7714 4.0364 0.0000 30.6977 0.0000
# 6 0.0000 0.0000 0.0000 13.8511 0.0000 5.6190
#
#
#
# Elastic Compliance Matrix: (Units=1/GPa)
#
#
# Indices 1 2 3 4 5 6 
#
# 1 0.015838 0.007286 -0.005842 0.000000 0.000819 0.000000
# 2 0.007286 0.043257 -0.002017 0.000000 0.001291 0.000000
# 3 -0.005842 -0.002017 0.007351 0.000000 -0.000968 0.000000
# 4 0.000000 0.000000 0.000000 -0.060902 0.000000 0.150126
# 5 0.000819 0.001291 -0.000968 0.000000 0.032729 0.000000
# 6 0.000000 0.000000 0.000000 0.150126 0.000000 -0.192099
#
#
# Mechanical properties :
#
#
# Convention : Reuss Voigt Hill
#
# Bulk Modulus (GPa) = 15.31400 47.49829 31.40615
# Shear Modulus (GPa) = -38.19302 27.99250 -5.10026
#
# Velocity S-wave (km/s) = -4.39107 3.75923 -1.60463
# Velocity P-wave (km/s) = 4.23999 6.54383 3.52450
#
# Compressibility (1/GPa) = 0.06529973
#
# Stress axis : x y z
#
# Youngs Moduli (GPa) = 63.14123 23.11779 136.02862
#
# Poissons Ratio (x) = -0.16845 0.79473
# Poissons Ratio (y) = -0.46007 0.27437
# Poissons Ratio (z) = 0.36890 0.04663
#
# Static dielectric constant tensor:
#      x y z
#    x 1.656330 0.000000 0.001710 
#    y 0.000000 1.745460 0.000000 
#    z 0.001710 0.000000 1.722160 
# 
# From -- ./inp_files/37313.got.cif
#   From: 2010.05.17/outbox.cif.g08.bks.cpg/sg10_19_cif.got.tgz:37313.got - 2010.06.03 11:33:40.
