data_PCOD9145968
_publ_section_title
;
Structure prediction by ZEFSAII (Michael W. Deem and Ramdas Pophale) SiO2 
 PCOD9145968
Probable space group: P 2/M
;
_chemical_formula_sum "Si O2"
_cell_formula_units_Z 28
_cell_length_a 9.260937
_cell_length_b 13.338780
_cell_length_c 13.398585
_cell_angle_alpha 90.000000
_cell_angle_beta 61.071690
_cell_angle_gamma 90.000000
_cell_volume 1448.605073
_symmetry_space_group_name_H-M "P 2/M"
_symmetry_group_IT_number 10
_symmetry_cell_setting 'monoclinic'
loop_
_space_group_symop_operation_xyz
x,y,z
-x,y,-z
-x,-y,-z
x,-y,z
loop_
_atom_site_type_symbol
_atom_site_label
_atom_site_fract_x
_atom_site_fract_y
_atom_site_fract_z
Si Si1 0.185785 0.178734 0.469919
Si Si2 0.503299 0.886357 0.255849
Si Si3 0.668422 0.228358 0.383375
Si Si4 0.224908 0.384794 0.348118
Si Si5 0.489910 0.705204 0.884126
Si Si6 0.954210 0.382484 0.273314
Si Si7 0.845406 0.613475 0.978765
O O1 0.319480 0.116965 0.363350
O O2 0.223394 0.164312 0.573939
O O3 0.225081 0.295877 0.428688
O O4 0.000000 0.157404 0.500000
O O5 0.615338 0.830532 0.301927
O O6 0.496048 0.818250 0.159968
O O7 0.556586 0.000000 0.221790
O O8 0.500000 0.253107 0.500000
O O9 0.783986 0.323414 0.324127
O O10 0.239440 0.500000 0.379258
O O11 0.373702 0.359409 0.221274
O O12 0.053523 0.375671 0.343996
O O13 0.500000 0.694941 0.000000
O O14 0.306201 0.668820 0.921012
O O15 0.926747 0.500000 0.261068
O O16 0.083271 0.342030 0.147588
O O17 0.788641 0.500000 0.975492
O O18 0.000000 0.610223 0.000000
#
# Coordination Sequence:
#
# PCOD9145968 Si02
#       7
#     4   4   4   4   4   4   4
#     4  10  20  36  60  88 114 147 194 239 281 341
#     4  10  24  43  60  82 110 147 193 247 310 356
#     4  10  21  38  60  81 116 156 191 237 288 347
#     4  10  20  33  55  89 126 158 189 226 270 334
#     4  11  21  37  62  87 115 154 194 244 286 342
#     4  10  19  32  54  85 121 157 191 227 271 331
#     4  10  20  33  54  86 122 159 194 228 273 336
#
# _framework density 19.328938999999998
#
# number of rings (size 3 to 8) (size 9 to 14) (size 15 to 20)
#    0.000    1.857    2.857    1.286    0.000    4.857 
#    0.000    7.143    0.000    3.857    0.000    0.000 
#    0.000    0.000    0.000    0.000    0.000    0.000 
#
# Total GULP energy -156280.102970 kJ/mol
# GULP energy per Si atom -5581.432249 kJ/mol
# Density = 1.928495 g / cm^3
# Si number density = 19.328939 Si / 1000 Ang^3
#
#
#
# Elastic Constant Matrix: (Units=GPa)
#
#
# Indices 1 2 3 4 5 6 
#
# 1 89.0519 8.0988 6.5704 0.0000 -18.7689 0.0000
# 2 8.0988 74.2313 1.2398 0.0000 -16.1164 0.0000
# 3 6.5704 1.2398 42.3261 0.0000 -11.8776 0.0000
# 4 0.0000 0.0000 0.0000 -1.9604 0.0000 -11.9792
# 5 -18.7689 -16.1164 -11.8776 0.0000 30.4831 0.0000
# 6 0.0000 0.0000 0.0000 -11.9792 0.0000 1.1637
#
#
#
# Elastic Compliance Matrix: (Units=1/GPa)
#
#
# Indices 1 2 3 4 5 6 
#
# 1 0.012916 0.000382 0.000306 0.000000 0.008274 0.000000
# 2 0.000382 0.015387 0.002065 0.000000 0.009175 0.000000
# 3 0.000306 0.002065 0.026809 0.000000 0.011726 0.000000
# 4 0.000000 0.000000 0.000000 -0.007982 0.000000 -0.082172
# 5 0.008274 0.009175 0.011726 0.000000 0.047319 0.000000
# 6 0.000000 0.000000 0.000000 -0.082172 0.000000 0.013447
#
#
# Mechanical properties :
#
#
# Convention : Reuss Voigt Hill
#
# Bulk Modulus (GPa) = 16.49722 26.38081 21.43901
# Shear Modulus (GPa) = 40.78430 18.58398 29.68414
#
# Velocity S-wave (km/s) = 4.59847 3.10410 3.92310
# Velocity P-wave (km/s) = 6.06202 5.15027 5.62465
#
# Compressibility (1/GPa) = 0.06061628
#
# Stress axis : x y z
#
# Youngs Moduli (GPa) = 77.42404 64.98895 37.30145
#
# Poissons Ratio (x) = -0.02483 -0.01140
# Poissons Ratio (y) = -0.02958 -0.07702
# Poissons Ratio (z) = -0.02366 -0.13418
#
# Static dielectric constant tensor:
#      x y z
#    x 1.690710 0.000000 0.017840 
#    y 0.000000 1.659240 0.000000 
#    z 0.017840 0.000000 1.713560 
# 
# From -- ./inp_files/28495.got.cif
#   From: 2010.05.17/outbox.cif.g08.bks.cpg/sg10_15_cif.got.tgz:28495.got - 2010.06.03 11:33:40.
