data_PCOD9145995
_publ_section_title
;
Structure prediction by ZEFSAII (Michael W. Deem and Ramdas Pophale) SiO2 
 PCOD9145995
Probable space group: P 2/M
;
_chemical_formula_sum "Si O2"
_cell_formula_units_Z 20
_cell_length_a 8.856893
_cell_length_b 21.789775
_cell_length_c 5.357333
_cell_angle_alpha 90.000000
_cell_angle_beta 96.191030
_cell_angle_gamma 90.000000
_cell_volume 1027.880210
_symmetry_space_group_name_H-M "P 2/M"
_symmetry_group_IT_number 10
_symmetry_cell_setting 'monoclinic'
loop_
_space_group_symop_operation_xyz
x,y,z
-x,y,-z
-x,-y,-z
x,-y,z
loop_
_atom_site_type_symbol
_atom_site_label
_atom_site_fract_x
_atom_site_fract_y
_atom_site_fract_z
Si Si1 0.780011 0.565955 0.837383
Si Si2 0.728647 0.674903 0.209820
Si Si3 0.500000 0.612589 0.500000
Si Si4 0.894608 0.201934 0.229200
Si Si5 0.000000 0.390454 0.500000
Si Si6 0.896981 0.934025 0.231930
O O1 0.766447 0.500000 0.968424
O O2 0.637563 0.571270 0.623087
O O3 0.938283 0.569533 0.716609
O O4 0.762322 0.627618 0.993219
O O5 0.568246 0.656538 0.298246
O O6 0.767218 0.745629 0.178306
O O7 0.858737 0.653215 0.424307
O O8 0.823281 0.133372 0.222718
O O9 0.000000 0.208842 0.500000
O O10 0.000000 0.207073 0.000000
O O11 0.000000 0.934714 0.500000
O O12 0.812085 0.000000 0.215148
O O13 0.000000 0.933960 0.000000
#
# Coordination Sequence:
#
# PCOD9145995 Si02
#       6
#     4   4   2   4   2   4
#     4  11  23  39  57  77 101 134 177 228 283 335
#     4  11  22  37  55  77 106 140 181 225 273 333
#     4  10  25  40  54  72 101 138 182 232 279 330
#     4  10  19  32  55  82 112 147 181 224 275 324
#     4  10  21  36  56  80 105 130 168 222 277 338
#     4   8  14  25  43  73 111 145 175 211 262 321
#
# _framework density 19.457519999999999
#
# number of rings (size 3 to 8) (size 9 to 14) (size 15 to 20)
#    0.000    2.000    1.000    3.000    2.800    6.400 
#    0.000    0.000    0.000    0.000    0.000    0.700 
#    0.000    3.200    0.000    0.200    0.000    0.000 
#
# Total GULP energy -111338.350865 kJ/mol
# GULP energy per Si atom -5566.917543 kJ/mol
# Density = 1.941323 g / cm^3
# Si number density = 19.457520 Si / 1000 Ang^3
#
#
#
# Elastic Constant Matrix: (Units=GPa)
#
#
# Indices 1 2 3 4 5 6 
#
# 1 63.8531 31.0435 9.0921 0.0000 -19.6224 0.0000
# 2 31.0435 215.4666 21.8449 0.0000 -11.7789 0.0000
# 3 9.0921 21.8449 86.3553 0.0000 -21.8305 0.0000
# 4 0.0000 0.0000 0.0000 23.5228 0.0000 -0.4123
# 5 -19.6224 -11.7789 -21.8305 0.0000 25.7268 0.0000
# 6 0.0000 0.0000 0.0000 -0.4123 0.0000 14.0653
#
#
#
# Elastic Compliance Matrix: (Units=1/GPa)
#
#
# Indices 1 2 3 4 5 6 
#
# 1 0.022018 -0.002475 0.002886 0.000000 0.018110 0.000000
# 2 -0.002475 0.005086 -0.001164 0.000000 -0.000547 0.000000
# 3 0.002886 -0.001164 0.015267 0.000000 0.014623 0.000000
# 4 0.000000 0.000000 0.000000 0.042534 0.000000 0.001247
# 5 0.018110 -0.000547 0.014623 0.000000 0.064841 0.000000
# 6 0.000000 0.000000 0.000000 0.001247 0.000000 0.071133
#
#
# Mechanical properties :
#
#
# Convention : Reuss Voigt Hill
#
# Bulk Modulus (GPa) = 24.47068 54.40401 39.43734
# Shear Modulus (GPa) = 21.18573 32.90929 27.04751
#
# Velocity S-wave (km/s) = 3.30331 4.11705 3.73242
# Velocity P-wave (km/s) = 5.21084 7.11486 6.23595
#
# Compressibility (1/GPa) = 0.04086524
#
# Stress axis : x y z
#
# Youngs Moduli (GPa) = 45.41641 196.62614 65.49871
#
# Poissons Ratio (x) = 0.48663 -0.18902
# Poissons Ratio (y) = 0.11240 0.07626
# Poissons Ratio (z) = -0.13107 0.22892
#
# Static dielectric constant tensor:
#      x y z
#    x 1.655590 0.000000 0.017120 
#    y 0.000000 1.753360 0.000000 
#    z 0.017120 0.000000 1.799460 
# 
# From -- ./inp_files/4801.got.cif
#   From: 2010.05.17/outbox.cif.g08.bks.cpg/sg10_3_cif.got.tgz:4801.got - 2010.06.03 11:33:40.
