data_PCOD9145342
_publ_section_title
;
Structure prediction by ZEFSAII (Michael W. Deem and Ramdas Pophale) SiO2 
 PCOD9145342
Probable space group: P 2/M
;
_chemical_formula_sum "Si O2"
_cell_formula_units_Z 30
_cell_length_a 27.014717
_cell_length_b 16.745021
_cell_length_c 26.570058
_cell_angle_alpha 90.000000
_cell_angle_beta 168.965940
_cell_angle_gamma 90.000000
_cell_volume 2300.400928
_symmetry_space_group_name_H-M "P 2/M"
_symmetry_group_IT_number 10
_symmetry_cell_setting 'monoclinic'
loop_
_space_group_symop_operation_xyz
x,y,z
-x,y,-z
-x,-y,-z
x,-y,z
loop_
_atom_site_type_symbol
_atom_site_label
_atom_site_fract_x
_atom_site_fract_y
_atom_site_fract_z
Si Si1 0.097647 0.257103 0.155595
Si Si2 0.938661 0.596635 0.668355
Si Si3 0.061587 0.597361 0.678244
Si Si4 0.746877 0.500000 0.782097
Si Si5 0.392204 0.657983 0.296770
Si Si6 0.249027 0.912325 0.284597
Si Si7 0.559951 0.596662 0.766888
Si Si8 0.565150 0.597241 0.121509
O O1 0.345579 0.313330 0.413635
O O2 0.198395 0.167109 0.265898
O O3 0.000000 0.263658 0.000000
O O4 0.843351 0.279398 0.933538
O O5 0.930757 0.500000 0.657230
O O6 0.669847 0.621240 0.424998
O O7 0.993647 0.625168 0.666610
O O8 0.170923 0.616604 0.937684
O O9 0.061967 0.500000 0.679815
O O10 0.841575 0.621840 0.419060
O O11 0.340641 0.621626 0.936109
O O12 0.500000 0.500000 0.500000
O O13 0.724085 0.578592 0.793378
O O14 0.000000 0.500000 0.000000
O O15 0.460397 0.637217 0.307562
O O16 0.500000 0.899420 0.500000
O O17 0.277294 0.000000 0.337548
O O18 0.000000 0.916710 0.000000
O O19 0.547334 0.500000 0.747545
O O20 0.566491 0.500000 0.121548
O O21 0.500000 0.623912 0.000000
#
# Coordination Sequence:
#
# PCOD9145342 Si02
#       8
#     4   4   4   2   4   4   4   4
#     4  11  21  33  48  63  82  99 121 146 180 221
#     4   9  17  27  42  52  63  83 114 157 188 216
#     4   9  15  23  33  48  62  79 108 137 172 211
#     4  12  24  34  44  56  74 100 128 152 179 220
#     4  12  22  34  45  59  78 101 126 156 186 224
#     4   9  17  30  48  67  84 100 117 139 170 212
#     4  10  19  32  42  53  68  90 122 155 193 219
#     4   9  15  21  30  44  66  87 102 124 163 218
#
# _framework density 13.041205
#
# number of rings (size 3 to 8) (size 9 to 14) (size 15 to 20)
#    0.000    2.000    0.667    6.000    0.000    4.800 
#    0.000    0.000    0.000    0.000    0.000    0.000 
#    0.000    0.000    0.000    0.000    0.000    0.000 
#
# Total GULP energy -167199.632573 kJ/mol
# GULP energy per Si atom -5573.321086 kJ/mol
# Density = 1.301152 g / cm^3
# Si number density = 13.041205 Si / 1000 Ang^3
#
#
#
# Elastic Constant Matrix: (Units=GPa)
#
#
# Indices 1 2 3 4 5 6 
#
# 1 31.1630 5.3775 -17.0312 0.0000 0.6777 0.0000
# 2 5.3775 35.5192 2.6927 0.0000 -1.8065 0.0000
# 3 -17.0312 2.6927 49.2284 0.0000 5.9857 0.0000
# 4 0.0000 0.0000 0.0000 10.5589 0.0000 3.2285
# 5 0.6777 -1.8065 5.9857 0.0000 18.3877 0.0000
# 6 0.0000 0.0000 0.0000 3.2285 0.0000 3.1726
#
#
#
# Elastic Compliance Matrix: (Units=1/GPa)
#
#
# Indices 1 2 3 4 5 6 
#
# 1 0.042396 -0.008018 0.016026 0.000000 -0.007567 0.000000
# 2 -0.008018 0.029995 -0.005007 0.000000 0.004872 0.000000
# 3 0.016026 -0.005007 0.027346 0.000000 -0.009984 0.000000
# 4 0.000000 0.000000 0.000000 0.137486 0.000000 -0.139908
# 5 -0.007567 0.004872 -0.009984 0.000000 0.058392 0.000000
# 6 0.000000 0.000000 0.000000 -0.139908 0.000000 0.457576
#
#
# Mechanical properties :
#
#
# Convention : Reuss Voigt Hill
#
# Bulk Modulus (GPa) = 9.45730 10.88762 10.17246
# Shear Modulus (GPa) = 6.39030 14.74861 10.56945
#
# Velocity S-wave (km/s) = 2.21602 3.36657 2.84996
# Velocity P-wave (km/s) = 3.71689 4.84546 4.31820
#
# Compressibility (1/GPa) = 0.10573845
#
# Stress axis : x y z
#
# Youngs Moduli (GPa) = 23.58696 33.33872 36.56861
#
# Poissons Ratio (x) = 0.26733 -0.58606
# Poissons Ratio (y) = 0.18913 0.18311
# Poissons Ratio (z) = -0.37801 0.16693
#
# Static dielectric constant tensor:
#      x y z
#    x 1.421840 0.000000 0.004150 
#    y 0.000000 1.431410 0.000000 
#    z 0.004150 0.000000 1.437270 
# 
# From -- ./inp_files/91620.got.cif
#   From: 2010.05.17/outbox.cif.g08.bks.cpg/sg10_46_cif.got.tgz:91620.got - 2010.06.03 11:33:40.
