data_PCOD9145332
_publ_section_title
;
Structure prediction by ZEFSAII (Michael W. Deem and Ramdas Pophale) SiO2 
 PCOD9145332
Probable space group: P 2/M
;
_chemical_formula_sum "Si O2"
_cell_formula_units_Z 28
_cell_length_a 10.541932
_cell_length_b 8.672612
_cell_length_c 31.970001
_cell_angle_alpha 90.000000
_cell_angle_beta 32.473208
_cell_angle_gamma 90.000000
_cell_volume 1569.315866
_symmetry_space_group_name_H-M "P 2/M"
_symmetry_group_IT_number 10
_symmetry_cell_setting 'monoclinic'
loop_
_space_group_symop_operation_xyz
x,y,z
-x,y,-z
-x,-y,-z
x,-y,z
loop_
_atom_site_type_symbol
_atom_site_label
_atom_site_fract_x
_atom_site_fract_y
_atom_site_fract_z
Si Si1 0.384220 0.314158 0.741483
Si Si2 0.334716 0.684791 0.658921
Si Si3 0.654893 0.813822 0.497646
Si Si4 0.465774 0.815089 0.073725
Si Si5 0.817280 0.813894 0.673673
Si Si6 0.140629 0.314955 0.089960
Si Si7 0.161963 0.813776 0.236136
O O1 0.397180 0.500000 0.738545
O O2 0.378898 0.264735 0.694393
O O3 0.605121 0.247830 0.704807
O O4 0.133094 0.269536 0.831832
O O5 0.325432 0.500000 0.660919
O O6 0.536279 0.743174 0.571550
O O7 0.084906 0.748808 0.712152
O O8 0.500000 0.770494 0.500000
O O9 0.925381 0.766299 0.415054
O O10 0.646157 0.000000 0.503219
O O11 0.275803 0.755377 0.092491
O O12 0.368623 0.770701 0.146275
O O13 0.479082 0.000000 0.067267
O O14 0.714445 0.744005 0.990375
O O15 0.796316 0.763410 0.727872
O O16 0.812004 0.000000 0.674719
O O17 0.157493 0.500000 0.087831
O O18 0.143600 0.000000 0.241149
#
# Coordination Sequence:
#
# PCOD9145332 Si02
#       7
#     4   4   4   4   4   4   4
#     4  10  23  40  55  80 117 153 186 228 278 333
#     4  11  22  36  58  85 113 147 189 230 276 331
#     4  10  20  38  60  83 114 145 184 235 281 329
#     4  10  19  31  55  87 112 139 185 236 277 322
#     4  10  22  39  60  82 109 150 188 228 283 336
#     4  10  19  34  54  78 115 151 182 225 278 331
#     4  10  20  37  58  84 114 145 186 234 280 329
#
# _framework density 17.842169999999999
#
# number of rings (size 3 to 8) (size 9 to 14) (size 15 to 20)
#    0.000    1.857    2.857    2.143    0.000    4.857 
#    0.000    3.571    0.000    4.286    0.000    0.000 
#    0.000    0.000    0.000    0.000    0.000    0.000 
#
# Total GULP energy -156334.755174 kJ/mol
# GULP energy per Si atom -5583.384113 kJ/mol
# Density = 1.780156 g / cm^3
# Si number density = 17.842170 Si / 1000 Ang^3
#
#
#
# Elastic Constant Matrix: (Units=GPa)
#
#
# Indices 1 2 3 4 5 6 
#
# 1 144.5036 25.6996 98.6821 0.0000 -2.3422 0.0000
# 2 25.6996 20.3340 37.6012 0.0000 1.3355 0.0000
# 3 98.6821 37.6012 196.6965 0.0000 3.9129 0.0000
# 4 0.0000 0.0000 0.0000 27.1961 0.0000 -3.6475
# 5 -2.3422 1.3355 3.9129 0.0000 30.2471 0.0000
# 6 0.0000 0.0000 0.0000 -3.6475 0.0000 33.5025
#
#
#
# Elastic Compliance Matrix: (Units=1/GPa)
#
#
# Indices 1 2 3 4 5 6 
#
# 1 0.011021 -0.005806 -0.004453 0.000000 0.001686 0.000000
# 2 -0.005806 0.079193 -0.012179 0.000000 -0.002371 0.000000
# 3 -0.004453 -0.012179 0.009667 0.000000 -0.001058 0.000000
# 4 0.000000 0.000000 0.000000 0.037315 0.000000 0.004063
# 5 0.001686 -0.002371 -0.001058 0.000000 0.033433 0.000000
# 6 0.000000 0.000000 0.000000 0.004063 0.000000 0.030291
#
#
# Mechanical properties :
#
#
# Convention : Reuss Voigt Hill
#
# Bulk Modulus (GPa) = 18.17971 76.16666 47.17318
# Shear Modulus (GPa) = 18.93000 31.49256 25.21128
#
# Velocity S-wave (km/s) = 3.26079 4.20582 3.76309
# Velocity P-wave (km/s) = 4.93845 8.14660 6.73629
#
# Compressibility (1/GPa) = 0.05500639
#
# Stress axis : x y z
#
# Youngs Moduli (GPa) = 90.73596 12.62731 103.44233
#
# Poissons Ratio (x) = 0.07331 0.46062
# Poissons Ratio (y) = 0.52678 1.25983
# Poissons Ratio (z) = 0.40404 0.15379
#
# Static dielectric constant tensor:
#      x y z
#    x 1.572950 0.000000 0.013270 
#    y 0.000000 1.606820 0.000000 
#    z 0.013270 0.000000 1.619370 
# 
# From -- ./inp_files/37933.got.cif
#   From: 2010.05.17/outbox.cif.g08.bks.cpg/sg10_19_cif.got.tgz:37933.got - 2010.06.03 11:33:40.
