data_PCOD9145871
_publ_section_title
;
Structure prediction by ZEFSAII (Michael W. Deem and Ramdas Pophale) SiO2 
 PCOD9145871
Probable space group: P 2/M
;
_chemical_formula_sum "Si O2"
_cell_formula_units_Z 32
_cell_length_a 11.198653
_cell_length_b 8.011995
_cell_length_c 22.239486
_cell_angle_alpha 90.000000
_cell_angle_beta 49.214813
_cell_angle_gamma 90.000000
_cell_volume 1510.849268
_symmetry_space_group_name_H-M "P 2/M"
_symmetry_group_IT_number 10
_symmetry_cell_setting 'monoclinic'
loop_
_space_group_symop_operation_xyz
x,y,z
-x,y,-z
-x,-y,-z
x,-y,z
loop_
_atom_site_type_symbol
_atom_site_label
_atom_site_fract_x
_atom_site_fract_y
_atom_site_fract_z
Si Si1 0.361470 0.200221 0.000203
Si Si2 0.178105 0.807706 0.448305
Si Si3 0.943501 0.807702 0.837906
Si Si4 0.260958 0.804827 0.678069
Si Si5 0.168343 0.305130 0.580306
Si Si6 0.516456 0.701221 0.169246
Si Si7 0.494762 0.305172 0.696867
Si Si8 0.163233 0.700865 0.254207
O O1 0.401501 0.235189 0.917952
O O2 0.355583 0.000000 0.010980
O O3 0.500000 0.263354 0.000000
O O4 0.188068 0.267960 0.074840
O O5 0.219415 0.795950 0.505412
O O6 0.316553 0.714466 0.367962
O O7 0.000000 0.739384 0.500000
O O8 0.176457 0.000000 0.429021
O O9 0.859726 0.796344 0.800600
O O10 0.115464 0.733478 0.766322
O O11 0.969829 0.000000 0.847669
O O12 0.260130 0.723554 0.612581
O O13 0.416178 0.783949 0.666204
O O14 0.227881 0.000000 0.678610
O O15 0.177477 0.500000 0.561582
O O16 0.986558 0.260353 0.655196
O O17 0.527904 0.500000 0.165349
O O18 0.568976 0.759842 0.218003
O O19 0.332019 0.744840 0.224530
O O20 0.456536 0.500000 0.704320
O O21 0.158612 0.500000 0.244400
#
# Coordination Sequence:
#
# PCOD9145871 Si02
#       8
#     4   4   4   4   4   4   4   4
#     4  10  19  32  53  84 117 148 186 232 284 344
#     4  11  24  41  62  91 123 152 187 232 286 343
#     4   9  18  33  53  80 113 147 183 230 283 335
#     4  10  21  39  61  84 114 152 198 244 288 339
#     4  10  20  36  60  88 117 153 194 237 287 339
#     4  10  21  35  53  80 113 149 188 233 287 342
#     4  11  24  42  61  82 113 153 197 241 287 343
#     4   9  17  30  51  80 112 145 182 225 279 340
#
# _framework density 21.180140999999999
#
# number of rings (size 3 to 8) (size 9 to 14) (size 15 to 20)
#    0.000    2.000    1.250    2.250    0.000    5.250 
#    0.000    3.125    0.000    3.750    0.000    0.000 
#    0.000    0.000    0.000    0.000    0.000    0.000 
#
# Total GULP energy -178619.525644 kJ/mol
# GULP energy per Si atom -5581.860176 kJ/mol
# Density = 2.113193 g / cm^3
# Si number density = 21.180141 Si / 1000 Ang^3
#
#
#
# Elastic Constant Matrix: (Units=GPa)
#
#
# Indices 1 2 3 4 5 6 
#
# 1 63.7129 -3.7394 23.5799 0.0000 0.4242 0.0000
# 2 -3.7394 21.3301 -2.0088 0.0000 -0.2197 0.0000
# 3 23.5799 -2.0088 98.5937 0.0000 14.0796 0.0000
# 4 0.0000 0.0000 0.0000 17.0824 0.0000 -1.1327
# 5 0.4242 -0.2197 14.0796 0.0000 16.7895 0.0000
# 6 0.0000 0.0000 0.0000 -1.1327 0.0000 18.6973
#
#
#
# Elastic Compliance Matrix: (Units=1/GPa)
#
#
# Indices 1 2 3 4 5 6 
#
# 1 0.017546 0.002675 -0.004639 0.000000 0.003482 0.000000
# 2 0.002675 0.047381 0.000280 0.000000 0.000317 0.000000
# 3 -0.004639 0.000280 0.012770 0.000000 -0.010588 0.000000
# 4 0.000000 0.000000 0.000000 0.058776 0.000000 0.003561
# 5 0.003482 0.000317 -0.010588 0.000000 0.068356 0.000000
# 6 0.000000 0.000000 0.000000 0.003561 0.000000 0.053699
#
#
# Mechanical properties :
#
#
# Convention : Reuss Voigt Hill
#
# Bulk Modulus (GPa) = 13.45369 24.36668 18.91019
# Shear Modulus (GPa) = 17.44150 21.56750 19.50450
#
# Velocity S-wave (km/s) = 2.87275 3.19453 3.03790
# Velocity P-wave (km/s) = 4.16767 5.01359 4.61007
#
# Compressibility (1/GPa) = 0.07432905
#
# Stress axis : x y z
#
# Youngs Moduli (GPa) = 56.99261 21.10562 78.30948
#
# Poissons Ratio (x) = -0.05646 0.36329
# Poissons Ratio (y) = -0.15246 -0.02195
# Poissons Ratio (z) = 0.26440 -0.00592
#
# Static dielectric constant tensor:
#      x y z
#    x 1.764870 0.000000 -0.020920 
#    y 0.000000 1.748190 0.000000 
#    z -0.020920 0.000000 1.787770 
# 
# From -- ./inp_files/83567.got.cif
#   From: 2010.05.17/outbox.cif.g08.bks.cpg/sg10_42_cif.got.tgz:83567.got - 2010.06.03 11:33:40.
