data_PCOD9145159
_publ_section_title
;
Structure prediction by ZEFSAII (Michael W. Deem and Ramdas Pophale) SiO2 
 PCOD9145159
Probable space group: P 2/M
;
_chemical_formula_sum "Si O2"
_cell_formula_units_Z 30
_cell_length_a 12.029610
_cell_length_b 7.599803
_cell_length_c 27.445902
_cell_angle_alpha 90.000000
_cell_angle_beta 31.283898
_cell_angle_gamma 90.000000
_cell_volume 1302.963102
_symmetry_space_group_name_H-M "P 2/M"
_symmetry_group_IT_number 10
_symmetry_cell_setting 'monoclinic'
loop_
_space_group_symop_operation_xyz
x,y,z
-x,y,-z
-x,-y,-z
x,-y,z
loop_
_atom_site_type_symbol
_atom_site_label
_atom_site_fract_x
_atom_site_fract_y
_atom_site_fract_z
Si Si1 0.094279 0.784749 0.541423
Si Si2 0.778159 0.303949 0.184831
Si Si3 0.598480 0.714297 0.090445
Si Si4 0.743402 0.212821 0.415857
Si Si5 0.000000 0.752323 0.000000
Si Si6 0.820515 0.291047 0.797837
Si Si7 0.165253 0.714264 0.098752
Si Si8 0.304983 0.204578 0.363771
O O1 0.176098 0.720834 0.562113
O O2 0.241369 0.726542 0.440938
O O3 0.855500 0.723766 0.616807
O O4 0.101764 0.000000 0.542010
O O5 0.726886 0.500000 0.220854
O O6 0.909856 0.316451 0.085260
O O7 0.552575 0.217552 0.260344
O O8 0.933701 0.220783 0.166667
O O9 0.616294 0.500000 0.093790
O O10 0.349755 0.771418 0.179484
O O11 0.678938 0.749137 0.004924
O O12 0.764832 0.806988 0.065145
O O13 0.500000 0.274549 0.500000
O O14 0.931843 0.262398 0.307972
O O15 0.736504 0.000000 0.418018
O O16 0.780180 0.500000 0.814927
O O17 0.779833 0.221893 0.867943
O O18 0.155319 0.500000 0.104728
O O19 0.249914 0.000000 0.387160
#
# Coordination Sequence:
#
# PCOD9145159 Si02
#       8
#     4   4   4   4   2   4   4   4
#     4   8  17  36  55  73  98 132 171 207 255 314
#     4  10  19  31  51  76 105 138 168 207 255 302
#     4   9  16  29  51  76 104 140 174 207 250 309
#     4  10  22  38  55  75 103 140 175 210 259 316
#     4  10  19  32  49  76 113 142 169 206 255 312
#     4  10  20  33  54  81 104 133 176 220 258 297
#     4   8  16  31  49  74 106 138 171 207 250 301
#     4   9  18  34  57  76  96 131 172 213 252 303
#
# _framework density 23.024445
#
# number of rings (size 3 to 8) (size 9 to 14) (size 15 to 20)
#    0.000    2.800    0.000    3.200    3.733    1.867 
#    0.000    2.333    0.000    4.800    0.000    0.000 
#    0.000    0.000    0.000    0.000    0.000    0.000 
#
# Total GULP energy -167017.526122 kJ/mol
# GULP energy per Si atom -5567.250871 kJ/mol
# Density = 2.297204 g / cm^3
# Si number density = 23.024445 Si / 1000 Ang^3
#
#
#
# Elastic Constant Matrix: (Units=GPa)
#
#
# Indices 1 2 3 4 5 6 
#
# 1 144.0403 8.0576 33.5996 0.0000 -18.1440 0.0000
# 2 8.0576 49.1864 -3.9040 0.0000 -3.8108 0.0000
# 3 33.5996 -3.9040 78.8806 0.0000 -31.5342 0.0000
# 4 0.0000 0.0000 0.0000 3.7713 0.0000 -1.6520
# 5 -18.1440 -3.8108 -31.5342 0.0000 32.7562 0.0000
# 6 0.0000 0.0000 0.0000 -1.6520 0.0000 -1.3993
#
#
#
# Elastic Compliance Matrix: (Units=1/GPa)
#
#
# Indices 1 2 3 4 5 6 
#
# 1 0.007867 -0.001400 -0.002834 0.000000 0.001466 0.000000
# 2 -0.001400 0.021275 0.003786 0.000000 0.005344 0.000000
# 3 -0.002834 0.003786 0.022142 0.000000 0.020186 0.000000
# 4 0.000000 0.000000 0.000000 0.174771 0.000000 -0.206344
# 5 0.001466 0.005344 0.020186 0.000000 0.051396 0.000000
# 6 0.000000 0.000000 0.000000 -0.206344 0.000000 -0.471045
#
#
# Mechanical properties :
#
#
# Convention : Reuss Voigt Hill
#
# Bulk Modulus (GPa) = 19.84653 38.62373 29.23513
# Shear Modulus (GPa) = -28.42469 22.64926 -2.88771
#
# Velocity S-wave (km/s) = -3.51742 3.13981 -1.12112
# Velocity P-wave (km/s) = 2.80318 5.47321 3.32402
#
# Compressibility (1/GPa) = 0.05038664
#
# Stress axis : x y z
#
# Youngs Moduli (GPa) = 127.12011 47.00419 45.16336
#
# Poissons Ratio (x) = 0.06581 0.12799
# Poissons Ratio (y) = 0.17797 -0.17097
# Poissons Ratio (z) = 0.36025 -0.17794
#
# Static dielectric constant tensor:
#      x y z
#    x 1.864390 0.000000 -0.036800 
#    y 0.000000 1.993380 0.000000 
#    z -0.036800 0.000000 1.872270 
# 
# From -- ./inp_files/94864.got.cif
#   From: 2010.05.17/outbox.cif.g08.bks.cpg/sg10_48_cif.got.tgz:94864.got - 2010.06.03 11:33:40.
