data_PCOD9145654
_publ_section_title
;
Structure prediction by ZEFSAII (Michael W. Deem and Ramdas Pophale) SiO2 
 PCOD9145654
Probable space group: P 2/M
;
_chemical_formula_sum "Si O2"
_cell_formula_units_Z 28
_cell_length_a 31.301434
_cell_length_b 9.014368
_cell_length_c 10.111811
_cell_angle_alpha 90.000000
_cell_angle_beta 35.614484
_cell_angle_gamma 90.000000
_cell_volume 1661.485309
_symmetry_space_group_name_H-M "P 2/M"
_symmetry_group_IT_number 10
_symmetry_cell_setting 'monoclinic'
loop_
_space_group_symop_operation_xyz
x,y,z
-x,y,-z
-x,-y,-z
x,-y,z
loop_
_atom_site_type_symbol
_atom_site_label
_atom_site_fract_x
_atom_site_fract_y
_atom_site_fract_z
Si Si1 0.351898 0.821926 0.711499
Si Si2 0.496476 0.329876 0.669231
Si Si3 0.941588 0.678079 0.037627
Si Si4 0.228079 0.322466 0.528063
Si Si5 0.058909 0.178399 0.243821
Si Si6 0.227366 0.178521 0.815066
Si Si7 0.655561 0.177495 0.959700
O O1 0.427619 0.744747 0.478176
O O2 0.285320 0.780947 0.782523
O O3 0.336297 0.784104 0.904618
O O4 0.361755 0.000000 0.681572
O O5 0.500000 0.329579 0.500000
O O6 0.490829 0.500000 0.727904
O O7 0.423620 0.238756 0.886907
O O8 0.946486 0.500000 0.011575
O O9 0.857357 0.713236 0.286756
O O10 0.957038 0.752092 0.858236
O O11 0.000000 0.726375 0.000000
O O12 0.236513 0.500000 0.507595
O O13 0.243441 0.257462 0.635432
O O14 0.281491 0.250416 0.286638
O O15 0.000000 0.228762 0.500000
O O16 0.054453 0.000000 0.245534
O O17 0.143442 0.215858 0.065379
O O18 0.230977 0.000000 0.787096
O O19 0.657496 0.000000 0.943036
#
# Coordination Sequence:
#
# PCOD9145654 Si02
#       7
#     4   4   4   4   4   4   4
#     4   9  18  32  51  74  99 129 165 203 244 293
#     4   9  17  30  49  73 101 130 161 201 246 288
#     4   9  19  35  52  71  98 132 167 203 245 292
#     4  10  20  34  51  72 100 132 166 204 245 290
#     4   9  18  32  51  75 101 129 163 204 247 291
#     4   9  18  34  52  71 100 134 164 199 247 297
#     4  10  19  32  52  76 101 130 164 201 244 294
#
# _framework density 16.85239
#
# number of rings (size 3 to 8) (size 9 to 14) (size 15 to 20)
#    0.000    2.714    0.000    1.286    0.000    5.143 
#    0.000    2.143    0.000    4.286    0.000    0.000 
#    0.000    0.000    0.000    0.000    0.000    0.000 
#
# Total GULP energy -156106.817444 kJ/mol
# GULP energy per Si atom -5575.243480 kJ/mol
# Density = 1.681403 g / cm^3
# Si number density = 16.852390 Si / 1000 Ang^3
#
#
#
# Elastic Constant Matrix: (Units=GPa)
#
#
# Indices 1 2 3 4 5 6 
#
# 1 159.1826 52.2989 89.0254 0.0000 -19.4299 0.0000
# 2 52.2989 44.5713 59.7179 0.0000 -5.3196 0.0000
# 3 89.0254 59.7179 152.7746 0.0000 -9.8356 0.0000
# 4 0.0000 0.0000 0.0000 22.3508 0.0000 -2.0903
# 5 -19.4299 -5.3196 -9.8356 0.0000 9.7984 0.0000
# 6 0.0000 0.0000 0.0000 -2.0903 0.0000 23.4915
#
#
#
# Elastic Compliance Matrix: (Units=1/GPa)
#
#
# Indices 1 2 3 4 5 6 
#
# 1 0.013212 -0.009627 -0.002764 0.000000 0.018198 0.000000
# 2 -0.009627 0.054655 -0.016114 0.000000 -0.005593 0.000000
# 3 -0.002764 -0.016114 0.014475 0.000000 0.000299 0.000000
# 4 0.000000 0.000000 0.000000 0.045116 0.000000 0.004014
# 5 0.018198 -0.005593 0.000299 0.000000 0.135408 0.000000
# 6 0.000000 0.000000 0.000000 0.004014 0.000000 0.042926
#
#
# Mechanical properties :
#
#
# Convention : Reuss Voigt Hill
#
# Bulk Modulus (GPa) = 39.47832 84.29034 61.88433
# Shear Modulus (GPa) = 13.46812 21.49390 17.48101
#
# Velocity S-wave (km/s) = 2.83005 3.57518 3.22421
# Velocity P-wave (km/s) = 5.84429 8.19561 7.11771
#
# Compressibility (1/GPa) = 0.02533036
#
# Stress axis : x y z
#
# Youngs Moduli (GPa) = 75.68620 18.29658 69.08698
#
# Poissons Ratio (x) = 0.17615 0.19098
# Poissons Ratio (y) = 0.72867 1.11327
# Poissons Ratio (z) = 0.20922 0.29483
#
# Static dielectric constant tensor:
#      x y z
#    x 1.554000 0.000000 -0.013360 
#    y 0.000000 1.564280 0.000000 
#    z -0.013360 0.000000 1.547680 
# 
# From -- ./inp_files/36988.got.cif
#   From: 2010.05.17/outbox.cif.g08.bks.cpg/sg10_19_cif.got.tgz:36988.got - 2010.06.03 11:33:40.
