data_PCOD9145856
_publ_section_title
;
Structure prediction by ZEFSAII (Michael W. Deem and Ramdas Pophale) SiO2 
 PCOD9145856
Probable space group: P 2/M
;
_chemical_formula_sum "Si O2"
_cell_formula_units_Z 28
_cell_length_a 9.725717
_cell_length_b 7.942283
_cell_length_c 28.182816
_cell_angle_alpha 90.000000
_cell_angle_beta 39.652751
_cell_angle_gamma 90.000000
_cell_volume 1389.193214
_symmetry_space_group_name_H-M "P 2/M"
_symmetry_group_IT_number 10
_symmetry_cell_setting 'monoclinic'
loop_
_space_group_symop_operation_xyz
x,y,z
-x,y,-z
-x,-y,-z
x,-y,z
loop_
_atom_site_type_symbol
_atom_site_label
_atom_site_fract_x
_atom_site_fract_y
_atom_site_fract_z
Si Si1 0.450941 0.296407 0.915808
Si Si2 0.107356 0.500000 0.396624
Si Si3 0.166262 0.190870 0.074966
Si Si4 0.919238 0.693264 0.799509
Si Si5 0.605108 0.812502 0.339659
Si Si6 0.339116 0.500000 0.438765
Si Si7 0.386247 0.805371 0.293814
Si Si8 0.239596 0.297958 0.876649
O O1 0.455683 0.500000 0.915989
O O2 0.693091 0.239127 0.839571
O O3 0.286937 0.246445 0.917994
O O4 0.368975 0.234761 0.988294
O O5 0.219306 0.500000 0.419142
O O6 0.196341 0.668604 0.348061
O O7 0.852223 0.500000 0.472370
O O8 0.121585 0.302278 0.132903
O O9 0.962304 0.212651 0.094541
O O10 0.180880 0.000000 0.088186
O O11 0.948569 0.500000 0.776585
O O12 0.137975 0.788731 0.729626
O O13 0.487189 0.665600 0.399826
O O14 0.519914 0.796490 0.307937
O O15 0.548696 0.000000 0.371186
O O16 0.550038 0.749025 0.209506
O O17 0.318524 0.000000 0.305759
O O18 0.205849 0.500000 0.884456
#
# Coordination Sequence:
#
# PCOD9145856 Si02
#       8
#     4   2   4   4   4   2   4   4
#     4  10  24  40  54  78 108 143 190 241 287 330
#     4   9  18  32  52  81 114 148 179 218 277 329
#     4  12  24  36  54  80 108 145 190 236 285 338
#     4  11  21  37  58  78 107 147 191 234 281 334
#     4  10  19  32  53  82 111 145 187 225 270 332
#     4   9  18  32  52  81 114 148 179 218 277 329
#     4  10  19  32  53  82 111 145 187 225 270 332
#     4  11  21  37  58  78 107 147 191 234 281 334
#
# _framework density 20.155583
#
# number of rings (size 3 to 8) (size 9 to 14) (size 15 to 20)
#    0.000    1.571    2.857    3.000    0.000    6.286 
#    0.000    2.857    0.000    0.000    0.000    2.000 
#    0.000    2.286    0.000    0.000    0.000    0.000 
#
# Total GULP energy -156452.631044 kJ/mol
# GULP energy per Si atom -5587.593966 kJ/mol
# Density = 2.010971 g / cm^3
# Si number density = 20.155583 Si / 1000 Ang^3
#
#
#
# Elastic Constant Matrix: (Units=GPa)
#
#
# Indices 1 2 3 4 5 6 
#
# 1 39.7900 -8.4498 -8.6021 0.0000 -11.6991 0.0000
# 2 -8.4498 68.6255 17.6813 0.0000 -10.7618 0.0000
# 3 -8.6021 17.6813 89.3421 0.0000 -22.9390 0.0000
# 4 0.0000 0.0000 0.0000 -8.8580 0.0000 13.3032
# 5 -11.6991 -10.7618 -22.9390 0.0000 20.9860 0.0000
# 6 0.0000 0.0000 0.0000 13.3032 0.0000 -11.0827
#
#
#
# Elastic Compliance Matrix: (Units=1/GPa)
#
#
# Indices 1 2 3 4 5 6 
#
# 1 0.042266 0.008431 0.013291 0.000000 0.042413 0.000000
# 2 0.008431 0.017666 0.001179 0.000000 0.015048 0.000000
# 3 0.013291 0.001179 0.019875 0.000000 0.029738 0.000000
# 4 0.000000 0.000000 0.000000 0.140637 0.000000 0.168814
# 5 0.042413 0.015048 0.029738 0.000000 0.111517 0.000000
# 6 0.000000 0.000000 0.000000 0.168814 0.000000 0.112406
#
#
# Mechanical properties :
#
#
# Convention : Reuss Voigt Hill
#
# Bulk Modulus (GPa) = 7.96124 22.11293 15.03709
# Shear Modulus (GPa) = 11.35243 13.35093 12.35168
#
# Velocity S-wave (km/s) = 2.37584 2.57649 2.47820
# Velocity P-wave (km/s) = 3.38890 4.45489 3.95795
#
# Compressibility (1/GPa) = 0.12560856
#
# Stress axis : x y z
#
# Youngs Moduli (GPa) = 23.65969 56.60598 50.31556
#
# Poissons Ratio (x) = -0.47725 -0.66873
# Poissons Ratio (y) = -0.19948 -0.05934
# Poissons Ratio (z) = -0.31445 -0.06676
#
# Static dielectric constant tensor:
#      x y z
#    x 1.724610 0.000000 -0.014530 
#    y 0.000000 1.706700 0.000000 
#    z -0.014530 0.000000 1.683270 
# 
# From -- ./inp_files/92028.got.cif
#   From: 2010.05.17/outbox.cif.g08.bks.cpg/sg10_47_cif.got.tgz:92028.got - 2010.06.03 11:33:40.
