data_PCOD9145553
_publ_section_title
;
Structure prediction by ZEFSAII (Michael W. Deem and Ramdas Pophale) SiO2 
 PCOD9145553
Probable space group: P 2/M
;
_chemical_formula_sum "Si O2"
_cell_formula_units_Z 32
_cell_length_a 20.073765
_cell_length_b 13.804816
_cell_length_c 18.015366
_cell_angle_alpha 90.000000
_cell_angle_beta 158.353504
_cell_angle_gamma 90.000000
_cell_volume 1841.562335
_symmetry_space_group_name_H-M "P 2/M"
_symmetry_group_IT_number 10
_symmetry_cell_setting 'monoclinic'
loop_
_space_group_symop_operation_xyz
x,y,z
-x,y,-z
-x,-y,-z
x,-y,z
loop_
_atom_site_type_symbol
_atom_site_label
_atom_site_fract_x
_atom_site_fract_y
_atom_site_fract_z
Si Si1 0.934108 0.605923 0.346458
Si Si2 0.495016 0.390687 0.083967
Si Si3 0.646796 0.189052 0.301235
Si Si4 0.611300 0.116331 0.421595
Si Si5 0.940604 0.882672 0.857853
Si Si6 0.974587 0.188273 0.345843
Si Si7 0.809536 0.116332 0.020344
Si Si8 0.350888 0.888375 0.904441
O O1 0.992089 0.500000 0.380437
O O2 0.005133 0.696966 0.376047
O O3 0.000000 0.614684 0.500000
O O4 0.717623 0.611953 0.117927
O O5 0.562425 0.500000 0.171833
O O6 0.590838 0.298393 0.220495
O O7 0.500000 0.380994 0.000000
O O8 0.686751 0.174207 0.428902
O O9 0.821372 0.149297 0.437348
O O10 0.472504 0.122881 0.104120
O O11 0.735834 0.139230 0.621226
O O12 0.628739 0.000000 0.425938
O O13 0.400356 0.139923 0.210380
O O14 0.070815 0.850537 0.925625
O O15 0.954887 0.000000 0.874961
O O16 0.000000 0.846097 0.000000
O O17 0.884166 0.155297 0.175715
O O18 0.836417 0.163822 0.269611
O O19 0.824438 0.000000 0.040273
O O20 0.314801 0.000000 0.849799
O O21 0.500000 0.848757 0.000000
#
# Coordination Sequence:
#
# PCOD9145553 Si02
#       8
#     4   4   4   4   4   4   4   4
#     4  10  21  36  55  78 103 134 175 224 276 327
#     4  10  20  36  55  76 105 136 172 222 278 326
#     4  12  22  34  56  77 102 140 178 223 270 316
#     4  10  19  32  51  74 104 141 176 214 260 312
#     4   9  18  32  50  76 106 135 174 218 261 314
#     4  12  23  34  57  76 101 139 181 221 268 322
#     4  10  19  33  52  74 103 141 179 212 258 315
#     4  11  25  40  51  71 103 138 184 230 264 307
#
# _framework density 17.376550000000002
#
# number of rings (size 3 to 8) (size 9 to 14) (size 15 to 20)
#    0.000    1.500    3.750    1.875    1.750    3.500 
#    0.000    3.750    0.000    0.000    0.000    0.000 
#    0.000    2.000    0.000    5.250    0.000    0.250 
#
# Total GULP energy -178502.974155 kJ/mol
# GULP energy per Si atom -5578.217942 kJ/mol
# Density = 1.733700 g / cm^3
# Si number density = 17.376550 Si / 1000 Ang^3
#
#
#
# Elastic Constant Matrix: (Units=GPa)
#
#
# Indices 1 2 3 4 5 6 
#
# 1 58.6079 14.0634 37.4885 0.0000 2.0473 0.0000
# 2 14.0634 64.4053 25.5161 0.0000 1.5720 0.0000
# 3 37.4885 25.5161 116.2438 0.0000 10.7520 0.0000
# 4 0.0000 0.0000 0.0000 -33.2292 0.0000 -2.0119
# 5 2.0473 1.5720 10.7520 0.0000 33.0750 0.0000
# 6 0.0000 0.0000 0.0000 -2.0119 0.0000 7.3458
#
#
#
# Elastic Compliance Matrix: (Units=1/GPa)
#
#
# Indices 1 2 3 4 5 6 
#
# 1 0.021795 -0.002150 -0.006641 0.000000 0.000912 0.000000
# 2 -0.002150 0.017223 -0.003117 0.000000 0.000328 0.000000
# 3 -0.006641 -0.003117 0.011730 0.000000 -0.003254 0.000000
# 4 0.000000 0.000000 0.000000 -0.029603 0.000000 -0.008108
# 5 0.000912 0.000328 -0.003254 0.000000 0.031220 0.000000
# 6 0.000000 0.000000 0.000000 -0.008108 0.000000 0.133911
#
#
# Mechanical properties :
#
#
# Convention : Reuss Voigt Hill
#
# Bulk Modulus (GPa) = 37.13345 43.71032 40.42189
# Shear Modulus (GPa) = 22.82378 12.25093 17.53735
#
# Velocity S-wave (km/s) = 3.62813 2.65811 3.18032
# Velocity P-wave (km/s) = 6.24238 5.88474 6.06620
#
# Compressibility (1/GPa) = 0.02692990
#
# Stress axis : x y z
#
# Youngs Moduli (GPa) = 45.88284 58.06098 85.25423
#
# Poissons Ratio (x) = 0.12484 0.56618
# Poissons Ratio (y) = 0.09866 0.26578
# Poissons Ratio (z) = 0.30471 0.18100
#
# Static dielectric constant tensor:
#      x y z
#    x 1.560480 0.000000 0.033990 
#    y 0.000000 1.590650 0.000000 
#    z 0.033990 0.000000 1.633990 
# 
# From -- ./inp_files/79729.got.cif
#   From: 2010.05.17/outbox.cif.g08.bks.cpg/sg10_40_cif.got.tgz:79729.got - 2010.06.03 11:33:40.
