data_PCOD9145503
_publ_section_title
;
Structure prediction by ZEFSAII (Michael W. Deem and Ramdas Pophale) SiO2 
 PCOD9145503
Probable space group: P 2/M
;
_chemical_formula_sum "Si O2"
_cell_formula_units_Z 24
_cell_length_a 8.449349
_cell_length_b 8.231948
_cell_length_c 19.230444
_cell_angle_alpha 90.000000
_cell_angle_beta 125.771758
_cell_angle_gamma 90.000000
_cell_volume 1085.236819
_symmetry_space_group_name_H-M "P 2/M"
_symmetry_group_IT_number 10
_symmetry_cell_setting 'monoclinic'
loop_
_space_group_symop_operation_xyz
x,y,z
-x,y,-z
-x,-y,-z
x,-y,z
loop_
_atom_site_type_symbol
_atom_site_label
_atom_site_fract_x
_atom_site_fract_y
_atom_site_fract_z
Si Si1 0.725547 0.187146 0.210982
Si Si2 0.021755 0.817167 0.922018
Si Si3 0.017068 0.696022 0.391211
Si Si4 0.592096 0.500000 0.101315
Si Si5 0.811395 0.500000 0.000406
Si Si6 0.395056 0.808739 0.244811
Si Si7 0.688411 0.307945 0.425854
O O1 0.932448 0.213216 0.302781
O O2 0.698912 0.335175 0.151094
O O3 0.554589 0.214837 0.224636
O O4 0.706297 0.000000 0.181698
O O5 0.819240 0.758808 0.835465
O O6 0.170194 0.668890 0.953567
O O7 0.072607 0.000000 0.909875
O O8 0.000000 0.834556 0.000000
O O9 0.022092 0.500000 0.379823
O O10 0.852403 0.724196 0.408672
O O11 0.219466 0.754292 0.478100
O O12 0.500000 0.500000 0.000000
O O13 0.388339 0.500000 0.092499
O O14 0.000000 0.500000 0.000000
O O15 0.485218 0.742517 0.339458
O O16 0.379611 0.000000 0.250051
O O17 0.681503 0.500000 0.433086
#
# Coordination Sequence:
#
# PCOD9145503 Si02
#       7
#     4   4   4   2   2   4   4
#     4  10  19  32  51  70  95 135 175 209 253 310
#     4   9  17  29  44  67  97 125 164 210 245 285
#     4   8  13  25  40  62  94 132 172 206 243 300
#     4  12  26  40  54  76 106 134 168 222 265 301
#     4  10  20  34  56  75  92 130 170 203 252 307
#     4   9  17  26  42  71 103 134 169 213 254 301
#     4   8  14  21  37  62  97 136 165 201 251 300
#
# _framework density 22.114989000000001
#
# number of rings (size 3 to 8) (size 9 to 14) (size 15 to 20)
#    0.000    2.833    0.833    3.000    2.333    3.000 
#    0.000    3.333    0.000    0.000    0.000    0.000 
#    0.000    2.667    0.000    5.167    0.000    2.333 
#
# Total GULP energy -133651.225128 kJ/mol
# GULP energy per Si atom -5568.801047 kJ/mol
# Density = 2.206465 g / cm^3
# Si number density = 22.114989 Si / 1000 Ang^3
#
#
#
# Elastic Constant Matrix: (Units=GPa)
#
#
# Indices 1 2 3 4 5 6 
#
# 1 15.7878 11.2879 16.0254 0.0000 0.8559 0.0000
# 2 11.2879 117.8230 70.7936 0.0000 -4.4418 0.0000
# 3 16.0254 70.7936 165.9068 0.0000 23.7911 0.0000
# 4 0.0000 0.0000 0.0000 -40.5051 0.0000 38.0152
# 5 0.8559 -4.4418 23.7911 0.0000 20.4291 0.0000
# 6 0.0000 0.0000 0.0000 38.0152 0.0000 -15.8695
#
#
#
# Elastic Compliance Matrix: (Units=1/GPa)
#
#
# Indices 1 2 3 4 5 6 
#
# 1 0.071530 -0.003060 -0.006096 0.000000 0.003437 0.000000
# 2 -0.003060 0.013447 -0.007059 0.000000 0.011272 0.000000
# 3 -0.006096 -0.007059 0.011779 0.000000 -0.014996 0.000000
# 4 0.000000 0.000000 0.000000 0.019779 0.000000 0.047379
# 5 0.003437 0.011272 -0.014996 0.000000 0.068721 0.000000
# 6 0.000000 0.000000 0.000000 0.047379 0.000000 0.050483
#
#
# Mechanical properties :
#
#
# Convention : Reuss Voigt Hill
#
# Bulk Modulus (GPa) = 15.54607 55.08128 35.31367
# Shear Modulus (GPa) = 17.26462 6.23829 11.75145
#
# Velocity S-wave (km/s) = 2.79709 1.68136 2.30767
# Velocity P-wave (km/s) = 4.18049 5.36005 4.80659
#
# Compressibility (1/GPa) = 0.06432495
#
# Stress axis : x y z
#
# Youngs Moduli (GPa) = 13.98014 74.36852 84.89848
#
# Poissons Ratio (x) = 0.22759 0.51757
# Poissons Ratio (y) = 0.04278 0.59926
# Poissons Ratio (z) = 0.08523 0.52493
#
# Static dielectric constant tensor:
#      x y z
#    x 1.777870 0.000000 -0.175870 
#    y 0.000000 1.769820 0.000000 
#    z -0.175870 0.000000 1.728920 
# 
# From -- ./inp_files/66719.got.cif
#   From: 2010.05.17/outbox.cif.g08.bks.cpg/sg10_34_cif.got.tgz:66719.got - 2010.06.03 11:33:40.
