data_PCOD9145823
_publ_section_title
;
Structure prediction by ZEFSAII (Michael W. Deem and Ramdas Pophale) SiO2 
 PCOD9145823
Probable space group: P 2/M
;
_chemical_formula_sum "Si O2"
_cell_formula_units_Z 32
_cell_length_a 14.849566
_cell_length_b 21.992639
_cell_length_c 9.401796
_cell_angle_alpha 90.000000
_cell_angle_beta 150.985786
_cell_angle_gamma 90.000000
_cell_volume 1489.249527
_symmetry_space_group_name_H-M "P 2/M"
_symmetry_group_IT_number 10
_symmetry_cell_setting 'monoclinic'
loop_
_space_group_symop_operation_xyz
x,y,z
-x,y,-z
-x,-y,-z
x,-y,z
loop_
_atom_site_type_symbol
_atom_site_label
_atom_site_fract_x
_atom_site_fract_y
_atom_site_fract_z
Si Si1 0.633189 0.430187 0.302741
Si Si2 0.827032 0.134997 0.862968
Si Si3 0.400121 0.255216 0.493440
Si Si4 0.612889 0.811584 0.018260
Si Si5 0.197534 0.628529 0.206184
Si Si6 0.377896 0.933020 0.647481
Si Si7 0.961699 0.570927 0.283910
Si Si8 0.922587 0.892861 0.535905
O O1 0.573227 0.500000 0.236639
O O2 0.647925 0.403548 0.481541
O O3 0.836720 0.428435 0.512970
O O4 0.500000 0.400334 0.000000
O O5 0.688867 0.191279 0.675314
O O6 0.731895 0.078725 0.650652
O O7 0.000000 0.152098 0.000000
O O8 0.904338 0.119853 0.123254
O O9 0.500000 0.286440 0.500000
O O10 0.556863 0.236894 0.823105
O O11 0.234487 0.301038 0.296865
O O12 0.521290 0.877492 0.854006
O O13 0.500000 0.790828 0.000000
O O14 0.820700 0.830153 0.346308
O O15 0.174095 0.609514 0.008213
O O16 0.000000 0.610043 0.000000
O O17 0.229476 0.925103 0.571735
O O18 0.460328 0.000000 0.767281
O O19 0.898681 0.500000 0.201945
O O20 0.000000 0.591379 0.500000
O O21 0.000000 0.923344 0.500000
#
# Coordination Sequence:
#
# PCOD9145823 Si02
#       8
#     4   4   4   4   4   4   4   4
#     4   9  18  34  56  81 110 145 182 219 262 317
#     4   9  19  36  57  75 100 139 178 209 255 320
#     4  11  22  37  55  76 105 138 175 221 267 312
#     4   9  20  37  57  76 100 139 178 213 261 320
#     4  10  21  36  55  80 110 145 184 221 265 322
#     4   9  19  36  55  75 104 141 173 204 254 323
#     4   9  18  35  58  82 111 146 182 223 270 317
#     4  10  19  32  53  80 104 128 167 218 264 306
#
# _framework density 21.487331999999999
#
# number of rings (size 3 to 8) (size 9 to 14) (size 15 to 20)
#    0.000    2.500    0.000    2.250    0.000    7.750 
#    0.000    4.375    0.000   16.500    0.000    0.000 
#    0.000    0.000    0.000    0.000    0.000    0.000 
#
# Total GULP energy -178299.894328 kJ/mol
# GULP energy per Si atom -5571.871698 kJ/mol
# Density = 2.143843 g / cm^3
# Si number density = 21.487332 Si / 1000 Ang^3
#
#
#
# Elastic Constant Matrix: (Units=GPa)
#
#
# Indices 1 2 3 4 5 6 
#
# 1 56.3616 8.0001 26.9442 0.0000 -32.0225 0.0000
# 2 8.0001 59.3604 32.6735 0.0000 -26.5898 0.0000
# 3 26.9442 32.6735 123.9454 0.0000 -52.8898 0.0000
# 4 0.0000 0.0000 0.0000 -5.8553 0.0000 -3.6530
# 5 -32.0225 -26.5898 -52.8898 0.0000 43.7401 0.0000
# 6 0.0000 0.0000 0.0000 -3.6530 0.0000 -8.4293
#
#
#
# Elastic Compliance Matrix: (Units=1/GPa)
#
#
# Indices 1 2 3 4 5 6 
#
# 1 0.036211 0.009527 0.007026 0.000000 0.040798 0.000000
# 2 0.009527 0.025659 0.001647 0.000000 0.024565 0.000000
# 3 0.007026 0.001647 0.018034 0.000000 0.027951 0.000000
# 4 0.000000 0.000000 0.000000 -0.234074 0.000000 0.101441
# 5 0.040798 0.024565 0.027951 0.000000 0.101462 0.000000
# 6 0.000000 0.000000 0.000000 0.101441 0.000000 -0.162595
#
#
# Mechanical properties :
#
#
# Convention : Reuss Voigt Hill
#
# Bulk Modulus (GPa) = 8.59809 41.65591 25.12700
# Shear Modulus (GPa) = -23.48134 17.36107 -3.06014
#
# Velocity S-wave (km/s) = -3.30934 2.84556 -1.19468
# Velocity P-wave (km/s) = 3.25456 5.49769 3.13309
#
# Compressibility (1/GPa) = 0.11630494
#
# Stress axis : x y z
#
# Youngs Moduli (GPa) = 27.61583 38.97220 55.45152
#
# Poissons Ratio (x) = -0.37131 -0.38958
# Poissons Ratio (y) = -0.26311 -0.09134
# Poissons Ratio (z) = -0.19402 -0.06420
#
# Static dielectric constant tensor:
#      x y z
#    x 1.831370 0.000000 -0.000710 
#    y 0.000000 1.757100 0.000000 
#    z -0.000710 0.000000 1.841990 
# 
# From -- ./inp_files/30620.got.cif
#   From: 2010.05.17/outbox.cif.g08.bks.cpg/sg10_16_cif.got.tgz:30620.got - 2010.06.03 11:33:40.
