data_PCOD9145725
_publ_section_title
;
Structure prediction by ZEFSAII (Michael W. Deem and Ramdas Pophale) SiO2 
 PCOD9145725
Probable space group: P 2/M
;
_chemical_formula_sum "Si O2"
_cell_formula_units_Z 32
_cell_length_a 13.579574
_cell_length_b 13.494305
_cell_length_c 13.097494
_cell_angle_alpha 90.000000
_cell_angle_beta 42.396798
_cell_angle_gamma 90.000000
_cell_volume 1618.277486
_symmetry_space_group_name_H-M "P 2/M"
_symmetry_group_IT_number 10
_symmetry_cell_setting 'monoclinic'
loop_
_space_group_symop_operation_xyz
x,y,z
-x,y,-z
-x,-y,-z
x,-y,z
loop_
_atom_site_type_symbol
_atom_site_label
_atom_site_fract_x
_atom_site_fract_y
_atom_site_fract_z
Si Si1 0.554157 0.231521 0.069593
Si Si2 0.823007 0.115136 0.929767
Si Si3 0.851785 0.112554 0.296976
Si Si4 0.591763 0.387617 0.221032
Si Si5 0.271043 0.387663 0.521374
Si Si6 0.643032 0.116323 0.276713
Si Si7 0.354372 0.183107 0.387942
Si Si8 0.851193 0.379467 0.164087
O O1 0.568427 0.322388 0.138268
O O2 0.430991 0.164059 0.220964
O O3 0.500000 0.260313 0.000000
O O4 0.709483 0.176474 0.948412
O O5 0.987106 0.156702 0.813187
O O6 0.829778 0.000000 0.890940
O O7 0.748904 0.117130 0.097998
O O8 0.738843 0.153334 0.298959
O O9 0.766245 0.114038 0.469271
O O10 0.878674 0.000000 0.240907
O O11 0.626579 0.500000 0.162823
O O12 0.446239 0.393775 0.401451
O O13 0.720870 0.346407 0.190780
O O14 0.227868 0.500000 0.520081
O O15 0.272432 0.290382 0.449073
O O16 0.184037 0.361485 0.690502
O O17 0.495037 0.173383 0.357634
O O18 0.601718 0.000000 0.326293
O O19 0.853273 0.500000 0.156763
O O20 0.000000 0.341673 0.000000
#
# Coordination Sequence:
#
# PCOD9145725 Si02
#       8
#     4   4   4   4   4   4   4   4
#     4  10  22  39  55  71  94 129 175 224 265 297
#     4   9  19  35  54  77 104 134 166 201 249 306
#     4  10  19  32  52  79 109 135 160 197 246 304
#     4   9  18  33  53  77 103 132 167 206 249 297
#     4   9  18  32  48  70 105 141 168 197 235 287
#     4   9  17  31  52  79 111 140 163 192 238 303
#     4  10  20  32  51  77 102 134 174 209 248 298
#     4   9  17  29  47  74 107 138 164 193 236 295
#
# _framework density 19.774111999999999
#
# number of rings (size 3 to 8) (size 9 to 14) (size 15 to 20)
#    0.000    2.625    0.000    1.500    0.000   11.000 
#    0.000    0.625    0.000    1.500    0.000    0.000 
#    0.000   14.000    0.000    0.000    0.000    0.000 
#
# Total GULP energy -178224.980732 kJ/mol
# GULP energy per Si atom -5569.530648 kJ/mol
# Density = 1.972911 g / cm^3
# Si number density = 19.774112 Si / 1000 Ang^3
#
#
#
# Elastic Constant Matrix: (Units=GPa)
#
#
# Indices 1 2 3 4 5 6 
#
# 1 28.1063 5.0852 32.7428 0.0000 -2.7205 0.0000
# 2 5.0852 74.4545 -3.0587 0.0000 -2.8114 0.0000
# 3 32.7428 -3.0587 83.7894 0.0000 -22.2468 0.0000
# 4 0.0000 0.0000 0.0000 22.3781 0.0000 -2.1663
# 5 -2.7205 -2.8114 -22.2468 0.0000 20.3386 0.0000
# 6 0.0000 0.0000 0.0000 -2.1663 0.0000 16.2911
#
#
#
# Elastic Compliance Matrix: (Units=1/GPa)
#
#
# Indices 1 2 3 4 5 6 
#
# 1 0.083230 -0.008818 -0.042580 0.000000 -0.036661 0.000000
# 2 -0.008818 0.014552 0.005916 0.000000 0.007303 0.000000
# 3 -0.042580 0.005916 0.038748 0.000000 0.037505 0.000000
# 4 0.000000 0.000000 0.000000 0.045269 0.000000 0.006020
# 5 -0.036661 0.007303 0.037505 0.000000 0.086297 0.000000
# 6 0.000000 0.000000 0.000000 0.006020 0.000000 0.062184
#
#
# Mechanical properties :
#
#
# Convention : Reuss Voigt Hill
#
# Bulk Modulus (GPa) = 21.94599 28.43208 25.18904
# Shear Modulus (GPa) = 11.45654 21.90695 16.68174
#
# Velocity S-wave (km/s) = 2.40962 3.33206 2.90766
# Velocity P-wave (km/s) = 4.34329 5.40492 4.90292
#
# Compressibility (1/GPa) = 0.04556640
#
# Stress axis : x y z
#
# Youngs Moduli (GPa) = 12.01493 68.71855 25.80798
#
# Poissons Ratio (x) = 0.60597 1.09890
# Poissons Ratio (y) = 0.10595 -0.15268
# Poissons Ratio (z) = 0.51159 -0.40655
#
# Static dielectric constant tensor:
#      x y z
#    x 1.676360 0.000000 -0.024360 
#    y 0.000000 1.822520 0.000000 
#    z -0.024360 0.000000 1.700700 
# 
# From -- ./inp_files/51599.got.cif
#   From: 2010.05.17/outbox.cif.g08.bks.cpg/sg10_26_cif.got.tgz:51599.got - 2010.06.03 11:33:40.
