data_PCOD9145857
_publ_section_title
;
Structure prediction by ZEFSAII (Michael W. Deem and Ramdas Pophale) SiO2 
 PCOD9145857
Probable space group: P 2/M
;
_chemical_formula_sum "Si O2"
_cell_formula_units_Z 32
_cell_length_a 14.140064
_cell_length_b 13.479377
_cell_length_c 8.103314
_cell_angle_alpha 90.000000
_cell_angle_beta 110.932694
_cell_angle_gamma 90.000000
_cell_volume 1442.550725
_symmetry_space_group_name_H-M "P 2/M"
_symmetry_group_IT_number 10
_symmetry_cell_setting 'monoclinic'
loop_
_space_group_symop_operation_xyz
x,y,z
-x,y,-z
-x,-y,-z
x,-y,z
loop_
_atom_site_type_symbol
_atom_site_label
_atom_site_fract_x
_atom_site_fract_y
_atom_site_fract_z
Si Si1 0.373555 0.746767 0.613898
Si Si2 0.963164 0.893077 0.287883
Si Si3 0.772007 0.383325 0.336012
Si Si4 0.277942 0.117633 0.821426
Si Si5 0.301052 0.619284 0.263383
Si Si6 0.052267 0.308241 0.348113
Si Si7 0.573966 0.261353 0.892617
Si Si8 0.872367 0.384489 0.061303
O O1 0.340764 0.653020 0.708918
O O2 0.306573 0.833259 0.660677
O O3 0.345074 0.698512 0.421312
O O4 0.490463 0.774277 0.706198
O O5 0.842517 0.873709 0.217421
O O6 0.000000 0.899971 0.500000
O O7 0.028750 0.801250 0.265494
O O8 0.981410 0.000000 0.219072
O O9 0.783472 0.500000 0.347273
O O10 0.836886 0.340647 0.529374
O O11 0.817282 0.345321 0.192572
O O12 0.301309 0.000000 0.836099
O O13 0.345584 0.178122 0.996667
O O14 0.305012 0.500000 0.311031
O O15 0.370054 0.642399 0.145499
O O16 0.188328 0.653572 0.134315
O O17 0.000000 0.316715 0.500000
O O18 0.989807 0.374375 0.180449
O O19 0.500000 0.278406 0.000000
O O20 0.849961 0.500000 0.039276
#
# Coordination Sequence:
#
# PCOD9145857 Si02
#       8
#     4   4   4   4   4   4   4   4
#     4  11  22  36  55  80 114 153 196 241 292 355
#     4   9  16  27  50  85 117 143 177 228 291 347
#     4  10  19  32  53  82 116 157 203 248 295 347
#     4  10  21  40  65  90 117 150 195 253 306 352
#     4  11  23  38  56  82 120 160 195 238 297 365
#     4   9  15  27  49  77 112 145 189 244 292 339
#     4  10  22  39  61  85 109 145 199 251 297 348
#     4   9  17  30  50  75 104 143 191 238 283 336
#
# _framework density 22.182929000000001
#
# number of rings (size 3 to 8) (size 9 to 14) (size 15 to 20)
#    0.000    2.125    0.000    5.625    0.000    5.500 
#    0.000    3.125    0.000    6.750    0.000    0.000 
#    0.000   31.000    0.000    0.000    0.000    0.000 
#
# Total GULP energy -178222.628113 kJ/mol
# GULP energy per Si atom -5569.457129 kJ/mol
# Density = 2.213244 g / cm^3
# Si number density = 22.182929 Si / 1000 Ang^3
#
#
#
# Elastic Constant Matrix: (Units=GPa)
#
#
# Indices 1 2 3 4 5 6 
#
# 1 47.4159 22.4108 21.8177 0.0000 19.5637 0.0000
# 2 22.4108 113.6881 60.4564 0.0000 14.0951 0.0000
# 3 21.8177 60.4564 153.1744 0.0000 33.2611 0.0000
# 4 0.0000 0.0000 0.0000 -13.9305 0.0000 12.6868
# 5 19.5637 14.0951 33.2611 0.0000 40.7121 0.0000
# 6 0.0000 0.0000 0.0000 12.6868 0.0000 21.2623
#
#
#
# Elastic Compliance Matrix: (Units=1/GPa)
#
#
# Indices 1 2 3 4 5 6 
#
# 1 0.027969 -0.004165 0.000323 0.000000 -0.012262 0.000000
# 2 -0.004165 0.011756 -0.004373 0.000000 0.001504 0.000000
# 3 0.000323 -0.004373 0.009620 0.000000 -0.006500 0.000000
# 4 0.000000 0.000000 0.000000 -0.046511 0.000000 0.027752
# 5 -0.012262 0.001504 -0.006500 0.000000 0.035245 0.000000
# 6 0.000000 0.000000 0.000000 0.027752 0.000000 0.030472
#
#
# Mechanical properties :
#
#
# Convention : Reuss Voigt Hill
#
# Bulk Modulus (GPa) = 30.38191 58.18315 44.28253
# Shear Modulus (GPa) = 52.10758 23.58168 37.84463
#
# Velocity S-wave (km/s) = 4.85190 3.26399 4.13489
# Velocity P-wave (km/s) = 6.71668 6.36322 6.54234
#
# Compressibility (1/GPa) = 0.03291432
#
# Stress axis : x y z
#
# Youngs Moduli (GPa) = 35.75361 85.06171 103.94722
#
# Poissons Ratio (x) = 0.35426 -0.03353
# Poissons Ratio (y) = 0.14890 0.45461
# Poissons Ratio (z) = -0.01153 0.37201
#
# Static dielectric constant tensor:
#      x y z
#    x 1.932140 0.000000 -0.062990 
#    y 0.000000 1.834020 0.000000 
#    z -0.062990 0.000000 1.974270 
# 
# From -- ./inp_files/29534.got.cif
#   From: 2010.05.17/outbox.cif.g08.bks.cpg/sg10_15_cif.got.tgz:29534.got - 2010.06.03 11:33:40.
