data_PCOD9145882
_publ_section_title
;
Structure prediction by ZEFSAII (Michael W. Deem and Ramdas Pophale) SiO2 
 PCOD9145882
Probable space group: P 2/M
;
_chemical_formula_sum "Si O2"
_cell_formula_units_Z 24
_cell_length_a 18.856178
_cell_length_b 7.765165
_cell_length_c 9.919870
_cell_angle_alpha 90.000000
_cell_angle_beta 114.547977
_cell_angle_gamma 90.000000
_cell_volume 1321.196255
_symmetry_space_group_name_H-M "P 2/M"
_symmetry_group_IT_number 10
_symmetry_cell_setting 'monoclinic'
loop_
_space_group_symop_operation_xyz
x,y,z
-x,y,-z
-x,-y,-z
x,-y,z
loop_
_atom_site_type_symbol
_atom_site_label
_atom_site_fract_x
_atom_site_fract_y
_atom_site_fract_z
Si Si1 0.736878 0.306058 0.132358
Si Si2 0.114365 0.500000 0.686507
Si Si3 0.694592 0.202734 0.388632
Si Si4 0.842268 0.200621 0.677467
Si Si5 0.052514 0.500000 0.330606
Si Si6 0.266543 0.705485 0.169565
Si Si7 0.586060 0.791062 0.532661
O O1 0.703676 0.500000 0.093494
O O2 0.828037 0.339011 0.239966
O O3 0.696365 0.228521 0.230985
O O4 0.730923 0.224707 0.980788
O O5 0.085287 0.500000 0.510214
O O6 0.040389 0.500000 0.725803
O O7 0.774524 0.267440 0.520770
O O8 0.621133 0.269108 0.416267
O O9 0.696937 0.000000 0.416638
O O10 0.913683 0.330485 0.715484
O O11 0.800473 0.214354 0.789553
O O12 0.861000 0.000000 0.664249
O O13 0.251333 0.500000 0.152242
O O14 0.348725 0.737875 0.307700
O O15 0.500000 0.726956 0.500000
O O16 0.582592 0.000000 0.529639
#
# Coordination Sequence:
#
# PCOD9145882 Si02
#       7
#     4   2   4   4   2   4   4
#     4   9  18  34  50  75 104 139 175 215 263 326
#     4   9  20  33  55  81 106 142 176 220 282 317
#     4   9  17  30  52  76 100 136 181 221 261 315
#     4  10  19  33  54  81 105 140 188 226 262 318
#     4  11  18  35  59  81 106 143 180 226 278 318
#     4  10  19  32  54  78 104 142 180 216 266 321
#     4   9  19  35  53  77 107 137 176 226 270 314
#
# _framework density 18.165358000000001
#
# number of rings (size 3 to 8) (size 9 to 14) (size 15 to 20)
#    0.500    2.000    2.500    1.500    0.000    2.333 
#    0.000    5.000    0.000    6.000    0.000    0.000 
#    0.000    0.000    0.000    0.000    0.000    0.000 
#
# Total GULP energy -133612.670177 kJ/mol
# GULP energy per Si atom -5567.194591 kJ/mol
# Density = 1.812401 g / cm^3
# Si number density = 18.165358 Si / 1000 Ang^3
#
#
#
# Elastic Constant Matrix: (Units=GPa)
#
#
# Indices 1 2 3 4 5 6 
#
# 1 123.2506 24.5121 44.9623 0.0000 -26.8331 0.0000
# 2 24.5121 50.6894 -3.9424 0.0000 -7.5728 0.0000
# 3 44.9623 -3.9424 112.6522 0.0000 -27.9150 0.0000
# 4 0.0000 0.0000 0.0000 39.7043 0.0000 -3.0162
# 5 -26.8331 -7.5728 -27.9150 0.0000 21.4107 0.0000
# 6 0.0000 0.0000 0.0000 -3.0162 0.0000 12.5483
#
#
#
# Elastic Compliance Matrix: (Units=1/GPa)
#
#
# Indices 1 2 3 4 5 6 
#
# 1 0.012181 -0.004505 -0.002410 0.000000 0.010531 0.000000
# 2 -0.004505 0.023640 0.004872 0.000000 0.009068 0.000000
# 3 -0.002410 0.004872 0.014312 0.000000 0.017362 0.000000
# 4 0.000000 0.000000 0.000000 0.025655 0.000000 0.006167
# 5 0.010531 0.009068 0.017362 0.000000 0.085748 0.000000
# 6 0.000000 0.000000 0.000000 0.006167 0.000000 0.081175
#
#
# Mechanical properties :
#
#
# Convention : Reuss Voigt Hill
#
# Bulk Modulus (GPa) = 21.71628 46.40623 34.06126
# Shear Modulus (GPa) = 19.07348 29.47000 24.27174
#
# Velocity S-wave (km/s) = 3.24387 4.03217 3.65931
# Velocity P-wave (km/s) = 5.10010 6.87604 6.05355
#
# Compressibility (1/GPa) = 0.04604841
#
# Stress axis : x y z
#
# Youngs Moduli (GPa) = 82.09280 42.30098 69.87338
#
# Poissons Ratio (x) = 0.19055 0.16839
# Poissons Ratio (y) = 0.36981 -0.34045
# Poissons Ratio (z) = 0.19784 -0.20611
#
# Static dielectric constant tensor:
#      x y z
#    x 1.619070 0.000000 -0.015410 
#    y 0.000000 1.650220 0.000000 
#    z -0.015410 0.000000 1.649220 
# 
# From -- ./inp_files/31254.got.cif
#   From: 2010.05.17/outbox.cif.g08.bks.cpg/sg10_16_cif.got.tgz:31254.got - 2010.06.03 11:33:40.
