data_PCOD9145200
_publ_section_title
;
Structure prediction by ZEFSAII (Michael W. Deem and Ramdas Pophale) SiO2 
 PCOD9145200
Probable space group: P 2/M
;
_chemical_formula_sum "Si O2"
_cell_formula_units_Z 32
_cell_length_a 28.745179
_cell_length_b 9.094381
_cell_length_c 22.336897
_cell_angle_alpha 90.000000
_cell_angle_beta 18.828870
_cell_angle_gamma 90.000000
_cell_volume 1884.592083
_symmetry_space_group_name_H-M "P 2/M"
_symmetry_group_IT_number 10
_symmetry_cell_setting 'monoclinic'
loop_
_space_group_symop_operation_xyz
x,y,z
-x,y,-z
-x,-y,-z
x,-y,z
loop_
_atom_site_type_symbol
_atom_site_label
_atom_site_fract_x
_atom_site_fract_y
_atom_site_fract_z
Si Si1 0.049749 0.324690 0.620844
Si Si2 0.912043 0.676941 0.911445
Si Si3 0.830308 0.175901 0.208972
Si Si4 0.665331 0.322899 0.300571
Si Si5 0.095346 0.824099 0.441528
Si Si6 0.594261 0.324036 0.943994
Si Si7 0.808859 0.824274 0.370711
Si Si8 0.659132 0.675128 0.659751
O O1 0.041458 0.500000 0.620390
O O2 0.032691 0.240783 0.579624
O O3 0.208764 0.294144 0.455133
O O4 0.938911 0.284742 0.809158
O O5 0.931343 0.500000 0.892165
O O6 0.039381 0.753089 0.793986
O O7 0.760058 0.716091 0.126567
O O8 0.745214 0.257128 0.260678
O O9 0.777568 0.213401 0.339990
O O10 0.817923 0.000000 0.215498
O O11 0.000000 0.212723 0.000000
O O12 0.500000 0.272822 0.500000
O O13 0.665973 0.500000 0.304142
O O14 0.255629 0.759518 0.239050
O O15 0.000000 0.782790 0.500000
O O16 0.100902 0.000000 0.438612
O O17 0.621193 0.500000 0.909986
O O18 0.500000 0.289106 0.000000
O O19 0.491472 0.289842 0.125355
O O20 0.692597 0.762288 0.558766
O O21 0.820504 0.000000 0.361180
O O22 0.664872 0.500000 0.641109
#
# Coordination Sequence:
#
# PCOD9145200 Si02
#       8
#     4   4   4   4   4   4   4   4
#     4   9  17  33  55  77 103 138 179 222 265 321
#     4   9  18  33  53  77 106 138 175 221 271 319
#     4  10  20  35  53  77 109 142 179 220 263 318
#     4  10  21  36  55  81 110 141 180 227 274 319
#     4  11  24  38  52  78 114 146 179 222 267 315
#     4  10  19  36  59  81 106 137 176 221 268 319
#     4  10  19  31  51  79 110 141 177 221 265 316
#     4   9  18  33  54  81 110 136 171 223 273 318
#
# _framework density 16.979800999999998
#
# number of rings (size 3 to 8) (size 9 to 14) (size 15 to 20)
#    0.000    2.250    2.500    1.500    0.000    5.250 
#    0.000    1.250    0.000    4.500    0.000    0.000 
#    0.000    0.000    0.000    0.000    0.000    0.000 
#
# Total GULP energy -178506.889942 kJ/mol
# GULP energy per Si atom -5578.340311 kJ/mol
# Density = 1.694115 g / cm^3
# Si number density = 16.979801 Si / 1000 Ang^3
#
#
#
# Elastic Constant Matrix: (Units=GPa)
#
#
# Indices 1 2 3 4 5 6 
#
# 1 132.1214 48.7591 85.1237 0.0000 17.3608 0.0000
# 2 48.7591 27.3073 43.9014 0.0000 8.5119 0.0000
# 3 85.1237 43.9014 134.1337 0.0000 16.6342 0.0000
# 4 0.0000 0.0000 0.0000 21.3298 0.0000 3.3048
# 5 17.3608 8.5119 16.6342 0.0000 27.6964 0.0000
# 6 0.0000 0.0000 0.0000 3.3048 0.0000 29.8441
#
#
#
# Elastic Compliance Matrix: (Units=1/GPa)
#
#
# Indices 1 2 3 4 5 6 
#
# 1 0.022621 -0.036139 -0.002319 0.000000 -0.001680 0.000000
# 2 -0.036139 0.137281 -0.021149 0.000000 -0.006836 0.000000
# 3 -0.002319 -0.021149 0.016059 0.000000 -0.001691 0.000000
# 4 0.000000 0.000000 0.000000 0.047701 0.000000 -0.005282
# 5 -0.001680 -0.006836 -0.001691 0.000000 0.040275 0.000000
# 6 0.000000 0.000000 0.000000 -0.005282 0.000000 0.034092
#
#
# Mechanical properties :
#
#
# Convention : Reuss Voigt Hill
#
# Bulk Modulus (GPa) = 17.62247 72.12564 44.87406
# Shear Modulus (GPa) = 11.46373 23.49261 17.47817
#
# Velocity S-wave (km/s) = 2.60116 3.72366 3.21183
# Velocity P-wave (km/s) = 4.40709 7.81390 6.34348
#
# Compressibility (1/GPa) = 0.05674575
#
# Stress axis : x y z
#
# Youngs Moduli (GPa) = 44.20751 7.28435 62.27115
#
# Poissons Ratio (x) = 0.26325 0.14441
# Poissons Ratio (y) = 1.59760 1.31699
# Poissons Ratio (z) = 0.10252 0.15406
#
# Static dielectric constant tensor:
#      x y z
#    x 1.554280 0.000000 0.029280 
#    y 0.000000 1.562590 0.000000 
#    z 0.029280 0.000000 1.581290 
# 
# From -- ./inp_files/86869.got.cif
#   From: 2010.05.17/outbox.cif.g08.bks.cpg/sg10_44_cif.got.tgz:86869.got - 2010.06.03 11:33:40.
