data_PCOD9145308
_publ_section_title
;
Structure prediction by ZEFSAII (Michael W. Deem and Ramdas Pophale) SiO2 
 PCOD9145308
Probable space group: P 2/M
;
_chemical_formula_sum "Si O2"
_cell_formula_units_Z 32
_cell_length_a 12.192652
_cell_length_b 7.470345
_cell_length_c 15.244336
_cell_angle_alpha 90.000000
_cell_angle_beta 93.017547
_cell_angle_gamma 90.000000
_cell_volume 1386.579469
_symmetry_space_group_name_H-M "P 2/M"
_symmetry_group_IT_number 10
_symmetry_cell_setting 'monoclinic'
loop_
_space_group_symop_operation_xyz
x,y,z
-x,y,-z
-x,-y,-z
x,-y,z
loop_
_atom_site_type_symbol
_atom_site_label
_atom_site_fract_x
_atom_site_fract_y
_atom_site_fract_z
Si Si1 0.961773 0.795126 0.590739
Si Si2 0.621215 0.295377 0.015434
Si Si3 0.428107 0.716268 0.318768
Si Si4 0.720764 0.717031 0.531703
Si Si5 0.261745 0.792264 0.156059
Si Si6 0.677636 0.718428 0.332399
Si Si7 0.031104 0.788731 0.217038
Si Si8 0.204329 0.283741 0.836858
O O1 0.830196 0.791173 0.580601
O O2 0.000000 0.710920 0.500000
O O3 0.991703 0.712725 0.686057
O O4 0.003889 0.000000 0.591509
O O5 0.601412 0.500000 0.045479
O O6 0.680757 0.297295 0.924390
O O7 0.500000 0.212594 0.000000
O O8 0.707134 0.217170 0.088767
O O9 0.428005 0.500000 0.314836
O O10 0.382641 0.767087 0.412638
O O11 0.343425 0.780105 0.241944
O O12 0.552528 0.775547 0.309509
O O13 0.728066 0.500000 0.532685
O O14 0.712501 0.776087 0.430895
O O15 0.142767 0.717188 0.178829
O O16 0.247622 0.000000 0.131041
O O17 0.678482 0.500000 0.333044
O O18 0.755938 0.777412 0.257424
O O19 0.921821 0.769111 0.155476
O O20 0.052160 0.000000 0.231809
O O21 0.205814 0.500000 0.838907
#
# Coordination Sequence:
#
# PCOD9145308 Si02
#       8
#     4   4   4   4   4   4   4   4
#     4  10  20  35  54  75 109 158 201 237 282 336
#     4  10  22  42  66  91 118 148 184 231 291 351
#     4  10  19  34  57  83 115 154 191 233 289 346
#     4  10  19  31  53  84 113 146 190 238 285 338
#     4  11  23  39  60  85 116 154 194 240 287 338
#     4   9  18  34  55  83 117 149 186 235 292 346
#     4  10  22  39  56  79 116 155 191 236 289 339
#     4  10  21  37  60  86 112 146 189 237 283 338
#
# _framework density 23.078375999999999
#
# number of rings (size 3 to 8) (size 9 to 14) (size 15 to 20)
#    0.000    2.000    1.250    2.250    0.000    6.500 
#    0.000    5.000    0.000    1.500    0.000    0.000 
#    0.000    0.000    0.000    0.000    0.000    0.000 
#
# Total GULP energy -178866.582389 kJ/mol
# GULP energy per Si atom -5589.580700 kJ/mol
# Density = 2.302585 g / cm^3
# Si number density = 23.078376 Si / 1000 Ang^3
#
#
#
# Elastic Constant Matrix: (Units=GPa)
#
#
# Indices 1 2 3 4 5 6 
#
# 1 126.0270 0.8427 61.3683 0.0000 26.4906 0.0000
# 2 0.8427 66.6255 -5.2511 0.0000 -5.3136 0.0000
# 3 61.3683 -5.2511 112.5892 0.0000 5.4071 0.0000
# 4 0.0000 0.0000 0.0000 -6.6188 0.0000 12.9644
# 5 26.4906 -5.3136 5.4071 0.0000 35.3603 0.0000
# 6 0.0000 0.0000 0.0000 12.9644 0.0000 9.5041
#
#
#
# Elastic Compliance Matrix: (Units=1/GPa)
#
#
# Indices 1 2 3 4 5 6 
#
# 1 0.013155 -0.001423 -0.006803 0.000000 -0.009029 0.000000
# 2 -0.001423 0.015386 0.001341 0.000000 0.003173 0.000000
# 3 -0.006803 0.001341 0.012490 0.000000 0.003388 0.000000
# 4 0.000000 0.000000 0.000000 -0.041147 0.000000 0.056127
# 5 -0.009029 0.003173 0.003388 0.000000 0.035003 0.000000
# 6 0.000000 0.000000 0.000000 0.056127 0.000000 0.028655
#
#
# Mechanical properties :
#
#
# Convention : Reuss Voigt Hill
#
# Bulk Modulus (GPa) = 36.68298 46.57349 41.62824
# Shear Modulus (GPa) = 57.87148 24.20125 41.03637
#
# Velocity S-wave (km/s) = 5.01303 3.24181 4.22136
# Velocity P-wave (km/s) = 7.03113 5.85122 6.46814
#
# Compressibility (1/GPa) = 0.02726060
#
# Stress axis : x y z
#
# Youngs Moduli (GPa) = 76.01816 64.99429 80.06604
#
# Poissons Ratio (x) = 0.09246 0.54468
# Poissons Ratio (y) = 0.10814 -0.10734
# Poissons Ratio (z) = 0.51715 -0.08713
#
# Static dielectric constant tensor:
#      x y z
#    x 1.835330 0.000000 -0.010320 
#    y 0.000000 1.892790 0.000000 
#    z -0.010320 0.000000 1.838400 
# 
# From -- ./inp_files/49844.got.cif
#   From: 2010.05.17/outbox.cif.g08.bks.cpg/sg10_25_cif.got.tgz:49844.got - 2010.06.03 11:33:40.
