data_PCOD9145852
_publ_section_title
;
Structure prediction by ZEFSAII (Michael W. Deem and Ramdas Pophale) SiO2 
 PCOD9145852
Probable space group: P 2/M
;
_chemical_formula_sum "Si O2"
_cell_formula_units_Z 28
_cell_length_a 8.068077
_cell_length_b 13.375705
_cell_length_c 11.642247
_cell_angle_alpha 90.000000
_cell_angle_beta 62.529050
_cell_angle_gamma 90.000000
_cell_volume 1114.723109
_symmetry_space_group_name_H-M "P 2/M"
_symmetry_group_IT_number 10
_symmetry_cell_setting 'monoclinic'
loop_
_space_group_symop_operation_xyz
x,y,z
-x,y,-z
-x,-y,-z
x,-y,z
loop_
_atom_site_type_symbol
_atom_site_label
_atom_site_fract_x
_atom_site_fract_y
_atom_site_fract_z
Si Si1 0.572116 0.183286 0.692800
Si Si2 0.821561 0.825380 0.828818
Si Si3 0.448202 0.609724 0.775814
Si Si4 0.866367 0.819748 0.431688
Si Si5 0.149375 0.385012 0.057547
Si Si6 0.277091 0.390791 0.596483
Si Si7 0.792811 0.885358 0.082675
O O1 0.684505 0.149087 0.768099
O O2 0.587776 0.303215 0.697641
O O3 0.667092 0.144117 0.546165
O O4 0.354807 0.163153 0.784654
O O5 0.849124 0.707423 0.853627
O O6 0.023438 0.861551 0.714134
O O7 0.734079 0.875331 0.969077
O O8 0.534128 0.500000 0.743816
O O9 0.283566 0.611540 0.732855
O O10 0.349784 0.624912 0.928741
O O11 0.830903 0.703506 0.415479
O O12 0.000000 0.829764 0.500000
O O13 0.135945 0.500000 0.107041
O O14 0.000000 0.377184 0.000000
O O15 0.500000 0.383710 0.500000
O O16 0.211853 0.500000 0.578911
O O17 0.811575 0.000000 0.110163
O O18 0.000000 0.840367 0.000000
#
# Coordination Sequence:
#
# PCOD9145852 Si02
#       7
#     4   4   4   4   4   4   4
#     4  11  23  41  63  93 129 168 206 255 315 364
#     4  11  23  39  64  94 127 168 209 251 309 376
#     4  10  20  33  54  86 124 167 218 261 300 353
#     4  10  23  38  57  91 129 166 209 254 307 369
#     4  10  20  34  55  87 128 170 216 265 308 356
#     4  10  19  32  53  81 118 173 224 257 299 352
#     4  11  26  47  72  98 120 151 202 260 318 384
#
# _framework density 25.118347
#
# number of rings (size 3 to 8) (size 9 to 14) (size 15 to 20)
#    0.000    1.571    2.857    1.714    2.000    3.714 
#    0.000    5.000    0.000    4.286    0.000    0.000 
#    0.000    0.000    0.000    0.000    0.000    0.000 
#
# Total GULP energy -156341.796716 kJ/mol
# GULP energy per Si atom -5583.635597 kJ/mol
# Density = 2.506118 g / cm^3
# Si number density = 25.118347 Si / 1000 Ang^3
#
#
#
# Elastic Constant Matrix: (Units=GPa)
#
#
# Indices 1 2 3 4 5 6 
#
# 1 52.5291 -4.8442 12.1054 0.0000 -7.5951 0.0000
# 2 -4.8442 56.2114 8.4132 0.0000 -10.7456 0.0000
# 3 12.1054 8.4132 155.1648 0.0000 -42.3681 0.0000
# 4 0.0000 0.0000 0.0000 -0.3272 0.0000 7.9979
# 5 -7.5951 -10.7456 -42.3681 0.0000 39.2780 0.0000
# 6 0.0000 0.0000 0.0000 7.9979 0.0000 -44.8180
#
#
#
# Elastic Compliance Matrix: (Units=1/GPa)
#
#
# Indices 1 2 3 4 5 6 
#
# 1 0.019980 0.002558 -0.000640 0.000000 0.003873 0.000000
# 2 0.002558 0.019132 0.000464 0.000000 0.006229 0.000000
# 3 -0.000640 0.000464 0.009172 0.000000 0.009897 0.000000
# 4 0.000000 0.000000 0.000000 0.909016 0.000000 0.162217
# 5 0.003873 0.006229 0.009897 0.000000 0.038588 0.000000
# 6 0.000000 0.000000 0.000000 0.162217 0.000000 0.006636
#
#
# Mechanical properties :
#
#
# Convention : Reuss Voigt Hill
#
# Bulk Modulus (GPa) = 18.85079 32.80602 25.82840
# Shear Modulus (GPa) = 4.92396 15.37531 10.14964
#
# Velocity S-wave (km/s) = 1.40163 2.47678 2.01234
# Velocity P-wave (km/s) = 3.18441 4.61174 3.96287
#
# Compressibility (1/GPa) = 0.05304818
#
# Stress axis : x y z
#
# Youngs Moduli (GPa) = 50.04898 52.26904 109.02976
#
# Poissons Ratio (x) = -0.13371 0.06977
# Poissons Ratio (y) = -0.12803 -0.05059
# Poissons Ratio (z) = 0.03203 -0.02425
#
# Static dielectric constant tensor:
#      x y z
#    x 2.100250 0.000000 0.013680 
#    y 0.000000 1.973960 0.000000 
#    z 0.013680 0.000000 2.096140 
# 
# From -- ./inp_files/42860.got.cif
#   From: 2010.05.17/outbox.cif.g08.bks.cpg/sg10_22_cif.got.tgz:42860.got - 2010.06.03 11:33:40.
