data_PCOD9145515
_publ_section_title
;
Structure prediction by ZEFSAII (Michael W. Deem and Ramdas Pophale) SiO2 
 PCOD9145515
Probable space group: P 2/M
;
_chemical_formula_sum "Si O2"
_cell_formula_units_Z 20
_cell_length_a 9.326111
_cell_length_b 23.282536
_cell_length_c 7.678031
_cell_angle_alpha 90.000000
_cell_angle_beta 147.089589
_cell_angle_gamma 90.000000
_cell_volume 905.820231
_symmetry_space_group_name_H-M "P 2/M"
_symmetry_group_IT_number 10
_symmetry_cell_setting 'monoclinic'
loop_
_space_group_symop_operation_xyz
x,y,z
-x,y,-z
-x,-y,-z
x,-y,z
loop_
_atom_site_type_symbol
_atom_site_label
_atom_site_fract_x
_atom_site_fract_y
_atom_site_fract_z
Si Si1 0.535528 0.240601 0.245539
Si Si2 0.376964 0.370041 0.565164
Si Si3 0.038101 0.822858 0.750990
Si Si4 0.741809 0.063633 0.116821
Si Si5 0.122181 0.565338 0.816961
O O1 0.632903 0.303659 0.391018
O O2 0.749965 0.193448 0.523765
O O3 0.500000 0.237767 0.000000
O O4 0.247001 0.225159 0.021479
O O5 0.500000 0.373892 0.500000
O O6 0.093283 0.399258 0.293622
O O7 0.596425 0.403712 0.900884
O O8 0.000000 0.820752 0.500000
O O9 0.174579 0.884411 0.923785
O O10 0.000000 0.057626 0.500000
O O11 0.682708 0.000000 0.982071
O O12 0.500000 0.079637 0.000000
O O13 0.152213 0.500000 0.912238
O O14 0.000000 0.563696 0.500000
#
# Coordination Sequence:
#
# PCOD9145515 Si02
#       5
#     4   4   4   4   4
#     4  10  19  32  51  72 101 140 182 223 265 323
#     4  12  25  40  60  88 120 150 187 236 288 336
#     4   9  16  27  44  68  96 133 179 220 265 322
#     4   9  15  23  37  61  97 135 169 214 275 332
#     4  11  24  43  66  89 115 150 190 229 276 340
#
# _framework density 22.079433999999999
#
# number of rings (size 3 to 8) (size 9 to 14) (size 15 to 20)
#    0.000    1.800    0.000    7.200    0.000    5.600 
#    0.000    0.000    0.000    0.000    0.000    0.000 
#    0.000    4.800    0.000    0.000    0.000    2.400 
#
# Total GULP energy -111668.357673 kJ/mol
# GULP energy per Si atom -5583.417884 kJ/mol
# Density = 2.202918 g / cm^3
# Si number density = 22.079434 Si / 1000 Ang^3
#
#
#
# Elastic Constant Matrix: (Units=GPa)
#
#
# Indices 1 2 3 4 5 6 
#
# 1 48.2895 10.6158 20.3024 0.0000 12.4755 0.0000
# 2 10.6158 152.6473 28.6568 0.0000 9.8375 0.0000
# 3 20.3024 28.6568 82.6090 0.0000 26.4235 0.0000
# 4 0.0000 0.0000 0.0000 15.0762 0.0000 30.0121
# 5 12.4755 9.8375 26.4235 0.0000 22.1510 0.0000
# 6 0.0000 0.0000 0.0000 30.0121 0.0000 1.6012
#
#
#
# Elastic Compliance Matrix: (Units=1/GPa)
#
#
# Indices 1 2 3 4 5 6 
#
# 1 0.024623 -0.000566 -0.002425 0.000000 -0.010724 0.000000
# 2 -0.000566 0.007022 -0.002266 0.000000 -0.000097 0.000000
# 3 -0.002425 -0.002266 0.020581 0.000000 -0.022179 0.000000
# 4 0.000000 0.000000 0.000000 -0.001827 0.000000 0.034237
# 5 -0.010724 -0.000097 -0.022179 0.000000 0.077685 0.000000
# 6 0.000000 0.000000 0.000000 0.034237 0.000000 -0.017199
#
#
# Mechanical properties :
#
#
# Convention : Reuss Voigt Hill
#
# Bulk Modulus (GPa) = 23.97354 44.74398 34.35876
# Shear Modulus (GPa) = 36.95393 22.69705 29.82549
#
# Velocity S-wave (km/s) = 4.09550 3.20968 3.67935
# Velocity P-wave (km/s) = 5.76590 5.83481 5.80046
#
# Compressibility (1/GPa) = 0.04171265
#
# Stress axis : x y z
#
# Youngs Moduli (GPa) = 40.61265 142.40909 48.58733
#
# Poissons Ratio (x) = 0.08061 0.11783
# Poissons Ratio (y) = 0.02299 0.11009
# Poissons Ratio (z) = 0.09849 0.32267
#
# Static dielectric constant tensor:
#      x y z
#    x 1.831560 0.000000 -0.031850 
#    y 0.000000 1.857560 0.000000 
#    z -0.031850 0.000000 1.795890 
# 
# From -- ./inp_files/20662.got.cif
#   From: 2010.05.17/outbox.cif.g08.bks.cpg/sg10_11_cif.got.tgz:20662.got - 2010.06.03 11:33:40.
