data_PCOD9145778
_publ_section_title
;
Structure prediction by ZEFSAII (Michael W. Deem and Ramdas Pophale) SiO2 
 PCOD9145778
Probable space group: P 2/M
;
_chemical_formula_sum "Si O2"
_cell_formula_units_Z 32
_cell_length_a 12.456942
_cell_length_b 7.436516
_cell_length_c 15.209175
_cell_angle_alpha 90.000000
_cell_angle_beta 86.385198
_cell_angle_gamma 90.000000
_cell_volume 1406.117829
_symmetry_space_group_name_H-M "P 2/M"
_symmetry_group_IT_number 10
_symmetry_cell_setting 'monoclinic'
loop_
_space_group_symop_operation_xyz
x,y,z
-x,y,-z
-x,-y,-z
x,-y,z
loop_
_atom_site_type_symbol
_atom_site_label
_atom_site_fract_x
_atom_site_fract_y
_atom_site_fract_z
Si Si1 0.248438 0.789307 0.838780
Si Si2 0.661235 0.718007 0.679546
Si Si3 0.695924 0.280654 0.477914
Si Si4 0.980267 0.785301 0.214536
Si Si5 0.790268 0.792258 0.842423
Si Si6 0.934264 0.283673 0.418241
Si Si7 0.375760 0.220505 0.003606
Si Si8 0.576940 0.716873 0.316583
O O1 0.131417 0.713208 0.819944
O O2 0.313137 0.718092 0.919371
O O3 0.327282 0.772663 0.751816
O O4 0.231807 0.000000 0.857852
O O5 0.665794 0.500000 0.681170
O O6 0.683743 0.776750 0.578807
O O7 0.745333 0.785228 0.746003
O O8 0.540027 0.777184 0.708705
O O9 0.693994 0.500000 0.479596
O O10 0.810996 0.223298 0.433725
O O11 0.604317 0.224287 0.414274
O O12 0.979900 0.760314 0.320040
O O13 0.089951 0.712434 0.166069
O O14 0.980467 0.000000 0.201049
O O15 0.802210 0.000000 0.868974
O O16 0.697464 0.718243 0.910653
O O17 0.933571 0.500000 0.423451
O O18 0.000000 0.218225 0.500000
O O19 0.379907 0.000000 0.003514
O O20 0.500000 0.280031 0.000000
O O21 0.574641 0.500000 0.317283
#
# Coordination Sequence:
#
# PCOD9145778 Si02
#       8
#     4   4   4   4   4   4   4   4
#     4  10  20  35  56  80 107 141 181 221 264 319
#     4  10  20  34  54  79 106 138 179 223 266 316
#     4   9  17  31  50  75 105 138 176 214 260 314
#     4  10  21  35  52  78 109 140 176 221 268 312
#     4  10  21  37  55  77 107 140 175 217 269 319
#     4  10  19  32  53  77 103 142 187 222 255 309
#     4   9  18  34  57  81 104 136 177 219 266 322
#     4  10  19  33  54  79 107 140 176 219 269 317
#
# _framework density 22.757694999999998
#
# number of rings (size 3 to 8) (size 9 to 14) (size 15 to 20)
#    0.000    2.250    1.250    1.875    0.000    5.250 
#    0.000    4.375    0.000    3.750    0.000    2.625 
#    0.000    0.000    0.000    0.000    0.000    0.000 
#
# Total GULP energy -178798.792533 kJ/mol
# GULP energy per Si atom -5587.462267 kJ/mol
# Density = 2.270590 g / cm^3
# Si number density = 22.757695 Si / 1000 Ang^3
#
#
#
# Elastic Constant Matrix: (Units=GPa)
#
#
# Indices 1 2 3 4 5 6 
#
# 1 181.5681 6.0362 73.4806 0.0000 -17.7627 0.0000
# 2 6.0362 70.7299 -6.4967 0.0000 2.0821 0.0000
# 3 73.4806 -6.4967 118.6202 0.0000 5.1852 0.0000
# 4 0.0000 0.0000 0.0000 10.5323 0.0000 -3.9576
# 5 -17.7627 2.0821 5.1852 0.0000 28.5397 0.0000
# 6 0.0000 0.0000 0.0000 -3.9576 0.0000 7.4495
#
#
#
# Elastic Compliance Matrix: (Units=1/GPa)
#
#
# Indices 1 2 3 4 5 6 
#
# 1 0.008437 -0.001420 -0.005583 0.000000 0.006369 0.000000
# 2 -0.001420 0.014489 0.001772 0.000000 -0.002263 0.000000
# 3 -0.005583 0.001772 0.012240 0.000000 -0.005828 0.000000
# 4 0.000000 0.000000 0.000000 0.118627 0.000000 0.063021
# 5 0.006369 -0.002263 -0.005828 0.000000 0.040227 0.000000
# 6 0.000000 0.000000 0.000000 0.063021 0.000000 0.167717
#
#
# Mechanical properties :
#
#
# Convention : Reuss Voigt Hill
#
# Bulk Modulus (GPa) = 40.47764 57.43982 48.95873
# Shear Modulus (GPa) = 13.14289 29.16418 21.15354
#
# Velocity S-wave (km/s) = 2.40576 3.58370 3.05210
# Velocity P-wave (km/s) = 5.05390 6.51294 5.82925
#
# Compressibility (1/GPa) = 0.02470500
#
# Stress axis : x y z
#
# Youngs Moduli (GPa) = 118.52258 69.01829 81.69688
#
# Poissons Ratio (x) = 0.09803 0.45609
# Poissons Ratio (y) = 0.16834 -0.14479
# Poissons Ratio (z) = 0.66168 -0.12232
#
# Static dielectric constant tensor:
#      x y z
#    x 1.837220 0.000000 0.001600 
#    y 0.000000 1.887120 0.000000 
#    z 0.001600 0.000000 1.804490 
# 
# From -- ./inp_files/49911.got.cif
#   From: 2010.05.17/outbox.cif.g08.bks.cpg/sg10_25_cif.got.tgz:49911.got - 2010.06.03 11:33:40.
