data_PCOD9145658
_publ_section_title
;
Structure prediction by ZEFSAII (Michael W. Deem and Ramdas Pophale) SiO2 
 PCOD9145658
Probable space group: P 2/M
;
_chemical_formula_sum "Si O2"
_cell_formula_units_Z 32
_cell_length_a 15.152314
_cell_length_b 8.818860
_cell_length_c 26.622806
_cell_angle_alpha 90.000000
_cell_angle_beta 148.804287
_cell_angle_gamma 90.000000
_cell_volume 1842.654794
_symmetry_space_group_name_H-M "P 2/M"
_symmetry_group_IT_number 10
_symmetry_cell_setting 'monoclinic'
loop_
_space_group_symop_operation_xyz
x,y,z
-x,y,-z
-x,-y,-z
x,-y,z
loop_
_atom_site_type_symbol
_atom_site_label
_atom_site_fract_x
_atom_site_fract_y
_atom_site_fract_z
Si Si1 0.094809 0.319070 0.666623
Si Si2 0.645850 0.180741 0.278514
Si Si3 0.108881 0.817861 0.344159
Si Si4 0.052890 0.681135 0.101478
Si Si5 0.767250 0.680710 0.440070
Si Si6 0.173813 0.182752 0.262521
Si Si7 0.255810 0.182399 0.111716
Si Si8 0.435068 0.181357 0.569948
O O1 0.104050 0.500000 0.672646
O O2 0.266838 0.251027 0.727949
O O3 0.034567 0.256181 0.690871
O O4 0.942424 0.276322 0.553562
O O5 0.743566 0.242079 0.375082
O O6 0.447528 0.220977 0.189252
O O7 0.659421 0.000000 0.283213
O O8 0.109696 0.772219 0.286477
O O9 0.291893 0.780599 0.458668
O O10 0.091831 0.000000 0.338120
O O11 0.051307 0.500000 0.096758
O O12 0.079403 0.735801 0.171007
O O13 0.204380 0.748818 0.140602
O O14 0.881316 0.749827 0.993794
O O15 0.764871 0.500000 0.432698
O O16 0.618418 0.733963 0.405320
O O17 0.375312 0.216972 0.355742
O O18 0.155348 0.000000 0.248529
O O19 0.238823 0.000000 0.105693
O O20 0.425906 0.000000 0.574580
#
# Coordination Sequence:
#
# PCOD9145658 Si02
#       8
#     4   4   4   4   4   4   4   4
#     4  10  21  35  50  71 103 139 171 208 253 297
#     4  11  22  34  53  77  98 129 172 212 251 298
#     4   9  18  33  52  73 100 136 177 215 247 288
#     4  11  22  35  54  80 107 134 164 200 248 305
#     4  10  20  32  47  72 106 140 170 203 249 300
#     4  10  19  32  52  76 103 136 172 210 252 295
#     4  10  21  38  57  77 103 132 164 205 253 302
#     4   9  17  30  49  74 103 136 174 211 247 291
#
# _framework density 17.366247999999999
#
# number of rings (size 3 to 8) (size 9 to 14) (size 15 to 20)
#    0.000    2.000    0.000    4.875    0.000   10.500 
#    0.000    0.000    0.000    4.500    0.000    5.250 
#    0.000    0.000    0.000    0.000    0.000    0.000 
#
# Total GULP energy -178729.964860 kJ/mol
# GULP energy per Si atom -5585.311402 kJ/mol
# Density = 1.732672 g / cm^3
# Si number density = 17.366248 Si / 1000 Ang^3
#
#
#
# Elastic Constant Matrix: (Units=GPa)
#
#
# Indices 1 2 3 4 5 6 
#
# 1 140.8024 44.2525 51.4051 0.0000 -0.0985 0.0000
# 2 44.2525 42.9565 26.4560 0.0000 2.4077 0.0000
# 3 51.4051 26.4560 45.5891 0.0000 -1.7544 0.0000
# 4 0.0000 0.0000 0.0000 2.6698 0.0000 -34.6473
# 5 -0.0985 2.4077 -1.7544 0.0000 27.0695 0.0000
# 6 0.0000 0.0000 0.0000 -34.6473 0.0000 -56.2302
#
#
#
# Elastic Compliance Matrix: (Units=1/GPa)
#
#
# Indices 1 2 3 4 5 6 
#
# 1 0.013279 -0.006932 -0.010952 0.000000 -0.000045 0.000000
# 2 -0.006932 0.040425 -0.015822 0.000000 -0.004646 0.000000
# 3 -0.010952 -0.015822 0.043628 0.000000 0.004195 0.000000
# 4 0.000000 0.000000 0.000000 0.041635 0.000000 -0.025654
# 5 -0.000045 -0.004646 0.004195 0.000000 0.037627 0.000000
# 6 0.000000 0.000000 0.000000 -0.025654 0.000000 -0.001977
#
#
# Mechanical properties :
#
#
# Convention : Reuss Voigt Hill
#
# Bulk Modulus (GPa) = 33.42250 52.61949 43.02099
# Shear Modulus (GPa) = 19.84105 1.85078 10.84592
#
# Velocity S-wave (km/s) = 3.38377 1.03346 2.50179
# Velocity P-wave (km/s) = 5.87826 5.63824 5.75950
#
# Compressibility (1/GPa) = 0.02991997
#
# Stress axis : x y z
#
# Youngs Moduli (GPa) = 75.30458 24.73705 22.92127
#
# Poissons Ratio (x) = 0.17148 0.25104
# Poissons Ratio (y) = 0.52202 0.36265
# Poissons Ratio (z) = 0.82477 0.39138
#
# Static dielectric constant tensor:
#      x y z
#    x 1.583310 0.000000 0.006290 
#    y 0.000000 1.577230 0.000000 
#    z 0.006290 0.000000 1.581840 
# 
# From -- ./inp_files/66543.got.cif
#   From: 2010.05.17/outbox.cif.g08.bks.cpg/sg10_34_cif.got.tgz:66543.got - 2010.06.03 11:33:40.
