data_PCOD9145954
_publ_section_title
;
Structure prediction by ZEFSAII (Michael W. Deem and Ramdas Pophale) SiO2 
 PCOD9145954
Probable space group: P 2/M
;
_chemical_formula_sum "Si O2"
_cell_formula_units_Z 28
_cell_length_a 10.537762
_cell_length_b 8.651137
_cell_length_c 30.888470
_cell_angle_alpha 90.000000
_cell_angle_beta 146.228901
_cell_angle_gamma 90.000000
_cell_volume 1565.294985
_symmetry_space_group_name_H-M "P 2/M"
_symmetry_group_IT_number 10
_symmetry_cell_setting 'monoclinic'
loop_
_space_group_symop_operation_xyz
x,y,z
-x,y,-z
-x,-y,-z
x,-y,z
loop_
_atom_site_type_symbol
_atom_site_label
_atom_site_fract_x
_atom_site_fract_y
_atom_site_fract_z
Si Si1 0.595886 0.686406 0.241304
Si Si2 0.687383 0.185017 0.172413
Si Si3 0.137262 0.686780 0.160446
Si Si4 0.094303 0.314799 0.590767
Si Si5 0.370531 0.313488 0.007619
Si Si6 0.837999 0.186579 0.735281
Si Si7 0.665837 0.185282 0.427078
O O1 0.593050 0.500000 0.237212
O O2 0.638020 0.755139 0.206312
O O3 0.353485 0.735571 0.193131
O O4 0.791590 0.729119 0.331462
O O5 0.500297 0.244378 0.085298
O O6 0.936252 0.238610 0.226015
O O7 0.686576 0.000000 0.172161
O O8 0.140446 0.500000 0.163909
O O9 0.156712 0.750452 0.214448
O O10 0.893784 0.733328 0.071418
O O11 0.106573 0.500000 0.589593
O O12 0.239253 0.240114 0.592719
O O13 0.835944 0.259274 0.510230
O O14 0.380153 0.500000 0.013247
O O15 0.500000 0.267931 0.000000
O O16 0.598607 0.232170 0.645382
O O17 0.840791 0.000000 0.738112
O O18 0.683183 0.000000 0.434419
#
# Coordination Sequence:
#
# PCOD9145954 Si02
#       7
#     4   4   4   4   4   4   4
#     4  10  22  39  57  81 114 149 186 228 278 332
#     4  11  24  39  57  81 114 152 187 228 280 332
#     4  10  20  36  60  85 109 144 187 232 277 328
#     4  10  19  33  55  83 113 143 182 230 276 323
#     4  10  20  36  60  86 111 143 186 231 281 332
#     4  10  21  36  55  83 113 146 187 229 274 330
#     4  10  19  32  54  83 113 144 182 226 276 329
#
# _framework density 17.888000999999999
#
# number of rings (size 3 to 8) (size 9 to 14) (size 15 to 20)
#    0.000    1.857    2.857    2.143    0.000    4.286 
#    0.000    3.571    0.000    4.286    0.000    0.000 
#    0.000    0.000    0.000    0.000    0.000    0.000 
#
# Total GULP energy -156333.378898 kJ/mol
# GULP energy per Si atom -5583.334961 kJ/mol
# Density = 1.784729 g / cm^3
# Si number density = 17.888001 Si / 1000 Ang^3
#
#
#
# Elastic Constant Matrix: (Units=GPa)
#
#
# Indices 1 2 3 4 5 6 
#
# 1 142.2183 25.0542 100.6806 0.0000 0.6948 0.0000
# 2 25.0542 19.7010 36.6285 0.0000 -0.2444 0.0000
# 3 100.6806 36.6285 197.0641 0.0000 7.7544 0.0000
# 4 0.0000 0.0000 0.0000 57.7845 0.0000 -23.7814
# 5 0.6948 -0.2444 7.7544 0.0000 32.2585 0.0000
# 6 0.0000 0.0000 0.0000 -23.7814 0.0000 37.4694
#
#
#
# Elastic Compliance Matrix: (Units=1/GPa)
#
#
# Indices 1 2 3 4 5 6 
#
# 1 0.011432 -0.005507 -0.004851 0.000000 0.000878 0.000000
# 2 -0.005507 0.080754 -0.012342 0.000000 0.003697 0.000000
# 3 -0.004851 -0.012342 0.009941 0.000000 -0.002379 0.000000
# 4 0.000000 0.000000 0.000000 0.023424 0.000000 0.014867
# 5 0.000878 0.003697 -0.002379 0.000000 0.031580 0.000000
# 6 0.000000 0.000000 0.000000 0.014867 0.000000 0.036124
#
#
# Mechanical properties :
#
#
# Convention : Reuss Voigt Hill
#
# Bulk Modulus (GPa) = 17.62859 75.96777 46.79818
# Shear Modulus (GPa) = 19.41252 38.61049 29.01151
#
# Velocity S-wave (km/s) = 3.29785 4.65096 4.03158
# Velocity P-wave (km/s) = 4.93735 8.45001 6.92026
#
# Compressibility (1/GPa) = 0.05672604
#
# Stress axis : x y z
#
# Youngs Moduli (GPa) = 87.47481 12.38323 100.59656
#
# Poissons Ratio (x) = 0.06820 0.48804
# Poissons Ratio (y) = 0.48174 1.24153
# Poissons Ratio (z) = 0.42438 0.15283
#
# Static dielectric constant tensor:
#      x y z
#    x 1.581990 0.000000 0.030330 
#    y 0.000000 1.607580 0.000000 
#    z 0.030330 0.000000 1.614210 
# 
# From -- ./inp_files/92102.got.cif
#   From: 2010.05.17/outbox.cif.g08.bks.cpg/sg10_47_cif.got.tgz:92102.got - 2010.06.03 11:33:40.
