data_PCOD9145919
_publ_section_title
;
Structure prediction by ZEFSAII (Michael W. Deem and Ramdas Pophale) SiO2 
 PCOD9145919
Probable space group: P 2/M
;
_chemical_formula_sum "Si O2"
_cell_formula_units_Z 28
_cell_length_a 9.234119
_cell_length_b 33.366169
_cell_length_c 5.157172
_cell_angle_alpha 90.000000
_cell_angle_beta 60.582578
_cell_angle_gamma 90.000000
_cell_volume 1384.088127
_symmetry_space_group_name_H-M "P 2/M"
_symmetry_group_IT_number 10
_symmetry_cell_setting 'monoclinic'
loop_
_space_group_symop_operation_xyz
x,y,z
-x,y,-z
-x,-y,-z
x,-y,z
loop_
_atom_site_type_symbol
_atom_site_label
_atom_site_fract_x
_atom_site_fract_y
_atom_site_fract_z
Si Si1 0.689397 0.547060 0.234787
Si Si2 0.808452 0.592275 0.616917
Si Si3 0.883367 0.740657 0.355472
Si Si4 0.296902 0.045462 0.160424
Si Si5 0.884538 0.168624 0.353214
Si Si6 0.699511 0.090998 0.345260
Si Si7 0.388582 0.327147 0.346444
O O1 0.500000 0.552423 0.500000
O O2 0.717090 0.500000 0.163058
O O3 0.798186 0.563249 0.377317
O O4 0.727400 0.571279 0.939681
O O5 0.710559 0.632673 0.637506
O O6 0.000000 0.601683 0.500000
O O7 0.815971 0.786219 0.443507
O O8 0.738243 0.708408 0.476375
O O9 0.000000 0.732857 0.500000
O O10 0.000000 0.738163 0.000000
O O11 0.240611 0.059232 0.492885
O O12 0.248892 0.000000 0.139050
O O13 0.500000 0.046204 0.000000
O O14 0.240356 0.076681 0.989862
O O15 0.754258 0.133974 0.404512
O O16 0.000000 0.159819 0.500000
O O17 0.000000 0.169813 0.000000
O O18 0.500000 0.090170 0.500000
O O19 0.500000 0.335108 0.500000
O O20 0.500000 0.316126 0.000000
#
# Coordination Sequence:
#
# PCOD9145919 Si02
#       7
#     4   4   4   4   4   4   4
#     4  11  24  43  66  92 125 164 206 255 307 353
#     4  12  25  41  64  92 126 165 205 249 296 358
#     4  10  22  42  65  89 119 157 200 239 290 359
#     4   9  17  30  50  77 107 141 184 234 284 331
#     4  10  21  38  59  82 114 153 185 226 287 352
#     4  10  19  32  54  81 107 140 187 237 278 331
#     4  12  25  42  65  93 125 158 198 249 303 352
#
# _framework density 20.229925000000001
#
# number of rings (size 3 to 8) (size 9 to 14) (size 15 to 20)
#    0.000    1.429    0.000    6.000    0.000    6.286 
#    0.000    2.143    0.000    8.571    0.000    0.000 
#    0.000    0.000    0.000    0.000    0.000    0.000 
#
# Total GULP energy -156549.199673 kJ/mol
# GULP energy per Si atom -5591.042845 kJ/mol
# Density = 2.018388 g / cm^3
# Si number density = 20.229925 Si / 1000 Ang^3
#
#
#
# Elastic Constant Matrix: (Units=GPa)
#
#
# Indices 1 2 3 4 5 6 
#
# 1 113.4578 76.3551 55.8629 0.0000 29.0257 0.0000
# 2 76.3551 142.5915 53.1356 0.0000 6.4570 0.0000
# 3 55.8629 53.1356 93.3266 0.0000 31.1953 0.0000
# 4 0.0000 0.0000 0.0000 32.8065 0.0000 8.1083
# 5 29.0257 6.4570 31.1953 0.0000 33.8726 0.0000
# 6 0.0000 0.0000 0.0000 8.1083 0.0000 30.8512
#
#
#
# Elastic Compliance Matrix: (Units=1/GPa)
#
#
# Indices 1 2 3 4 5 6 
#
# 1 0.019053 -0.008831 -0.002141 0.000000 -0.012671 0.000000
# 2 -0.008831 0.013448 -0.005842 0.000000 0.010384 0.000000
# 3 -0.002141 -0.005842 0.020714 0.000000 -0.016128 0.000000
# 4 0.000000 0.000000 0.000000 0.032599 0.000000 -0.008568
# 5 -0.012671 0.010384 -0.016128 0.000000 0.053254 0.000000
# 6 0.000000 0.000000 0.000000 -0.008568 0.000000 0.034665
#
#
# Mechanical properties :
#
#
# Convention : Reuss Voigt Hill
#
# Bulk Modulus (GPa) = 51.05356 80.00922 65.53139
# Shear Modulus (GPa) = 23.37645 30.44088 26.90867
#
# Velocity S-wave (km/s) = 3.40301 3.88331 3.65107
# Velocity P-wave (km/s) = 6.38217 7.72933 7.08783
#
# Compressibility (1/GPa) = 0.01958727
#
# Stress axis : x y z
#
# Youngs Moduli (GPa) = 52.48634 74.35826 48.27683
#
# Poissons Ratio (x) = 0.65663 0.10337
# Poissons Ratio (y) = 0.46349 0.28203
# Poissons Ratio (z) = 0.11239 0.43439
#
# Static dielectric constant tensor:
#      x y z
#    x 1.705150 0.000000 -0.007980 
#    y 0.000000 1.713530 0.000000 
#    z -0.007980 0.000000 1.699060 
# 
# From -- ./inp_files/5491.got.cif
#   From: 2010.05.17/outbox.cif.g08.bks.cpg/sg10_3_cif.got.tgz:5491.got - 2010.06.03 11:33:40.
