data_PCOD9145650
_publ_section_title
;
Structure prediction by ZEFSAII (Michael W. Deem and Ramdas Pophale) SiO2 
 PCOD9145650
Probable space group: P 2/M
;
_chemical_formula_sum "Si O2"
_cell_formula_units_Z 28
_cell_length_a 9.700866
_cell_length_b 7.536340
_cell_length_c 33.693247
_cell_angle_alpha 90.000000
_cell_angle_beta 28.990568
_cell_angle_gamma 90.000000
_cell_volume 1193.867367
_symmetry_space_group_name_H-M "P 2/M"
_symmetry_group_IT_number 10
_symmetry_cell_setting 'monoclinic'
loop_
_space_group_symop_operation_xyz
x,y,z
-x,y,-z
-x,-y,-z
x,-y,z
loop_
_atom_site_type_symbol
_atom_site_label
_atom_site_fract_x
_atom_site_fract_y
_atom_site_fract_z
Si Si1 0.395551 0.205554 0.734018
Si Si2 0.312979 0.783313 0.174041
Si Si3 0.305009 0.291316 0.584818
Si Si4 0.821323 0.294719 0.916094
Si Si5 0.661609 0.785222 0.336545
Si Si6 0.652305 0.796375 0.748665
Si Si7 0.148690 0.214204 0.003725
O O1 0.468036 0.279577 0.672323
O O2 0.541645 0.288083 0.735983
O O3 0.056159 0.209870 0.828197
O O4 0.486603 0.000000 0.709826
O O5 0.426688 0.721120 0.188383
O O6 0.523189 0.731453 0.086221
O O7 0.990347 0.724439 0.251857
O O8 0.312163 0.000000 0.175302
O O9 0.500000 0.224476 0.500000
O O10 0.255052 0.500000 0.591183
O O11 0.443570 0.268143 0.593466
O O12 0.995291 0.202733 0.662506
O O13 0.797875 0.500000 0.910651
O O14 0.500000 0.218111 0.000000
O O15 0.943135 0.282180 0.930398
O O16 0.659492 0.000000 0.336300
O O17 0.545606 0.000000 0.775945
O O18 0.127074 0.000000 0.010917
O O19 0.000000 0.268569 0.000000
#
# Coordination Sequence:
#
# PCOD9145650 Si02
#       7
#     4   4   4   4   4   4   4
#     4  10  20  36  58  82 106 136 179 225 269 320
#     4   8  14  27  47  71  98 129 169 214 259 307
#     4  10  21  37  57  82 111 143 177 208 248 313
#     4  11  24  37  49  73 110 148 184 223 269 319
#     4   9  18  33  55  80 104 134 174 219 263 308
#     4   9  18  34  57  83 108 135 173 222 269 314
#     4  10  19  32  52  75  99 133 179 229 276 317
#
# _framework density 23.453191
#
# number of rings (size 3 to 8) (size 9 to 14) (size 15 to 20)
#    0.000    2.429    0.000    3.429    0.000    7.143 
#    0.000    5.000    0.000    4.286    0.000    0.000 
#    0.000    0.000    0.000    0.000    0.000    0.000 
#
# Total GULP energy -156339.333550 kJ/mol
# GULP energy per Si atom -5583.547627 kJ/mol
# Density = 2.339981 g / cm^3
# Si number density = 23.453191 Si / 1000 Ang^3
#
#
#
# Elastic Constant Matrix: (Units=GPa)
#
#
# Indices 1 2 3 4 5 6 
#
# 1 113.7133 -1.3160 22.8489 0.0002 41.1383 -0.0002
# 2 -1.3160 65.4038 -9.4253 0.0001 0.6075 -0.0001
# 3 22.8489 -9.4253 95.9081 0.0012 43.3551 -0.0009
# 4 0.0002 0.0001 0.0012 -72.8782 0.0001 52.8421
# 5 41.1383 0.6075 43.3551 0.0001 41.6161 0.0000
# 6 -0.0002 -0.0001 -0.0009 52.8421 0.0000 0.9151
#
#
#
# Elastic Compliance Matrix: (Units=1/GPa)
#
#
# Indices 1 2 3 4 5 6 
#
# 1 0.015477 0.001436 0.006388 0.000000 -0.021975 0.000000
# 2 0.001436 0.015906 0.003719 0.000000 -0.005526 0.000000
# 3 0.006388 0.003719 0.022964 0.000000 -0.030292 0.000000
# 4 0.000000 0.000000 0.000000 -0.000320 -0.000001 0.018483
# 5 -0.021975 -0.005526 -0.030292 -0.000001 0.077390 0.000000
# 6 0.000000 0.000000 0.000000 0.018483 0.000000 0.025491
#
#
# Mechanical properties :
#
#
# Convention : Reuss Voigt Hill
#
# Bulk Modulus (GPa) = 12.91451 33.24893 23.08172
# Shear Modulus (GPa) = 31.32192 11.45844 21.39018
#
# Velocity S-wave (km/s) = 3.65842 2.21275 3.02327
# Velocity P-wave (km/s) = 4.83362 4.55366 4.69573
#
# Compressibility (1/GPa) = 0.07743231
#
# Stress axis : x y z
#
# Youngs Moduli (GPa) = 64.61177 62.87003 43.54688
#
# Poissons Ratio (x) = -0.09028 -0.27816
# Poissons Ratio (y) = -0.09279 -0.16196
# Poissons Ratio (z) = -0.41271 -0.23383
#
# Static dielectric constant tensor:
#      x y z
#    x 1.969900 0.000000 0.002590 
#    y 0.000000 1.880820 0.000000 
#    z 0.002590 0.000000 1.865040 
# 
# From -- ./inp_files/94500.got.cif
#   From: 2010.05.17/outbox.cif.g08.bks.cpg/sg10_48_cif.got.tgz:94500.got - 2010.06.03 11:33:40.
