data_PCOD9145258
_publ_section_title
;
Structure prediction by ZEFSAII (Michael W. Deem and Ramdas Pophale) SiO2 
 PCOD9145258
Probable space group: P 2/M
;
_chemical_formula_sum "Si O2"
_cell_formula_units_Z 28
_cell_length_a 12.097882
_cell_length_b 8.801695
_cell_length_c 15.386554
_cell_angle_alpha 90.000000
_cell_angle_beta 60.991822
_cell_angle_gamma 90.000000
_cell_volume 1432.853923
_symmetry_space_group_name_H-M "P 2/M"
_symmetry_group_IT_number 10
_symmetry_cell_setting 'monoclinic'
loop_
_space_group_symop_operation_xyz
x,y,z
-x,y,-z
-x,-y,-z
x,-y,z
loop_
_atom_site_type_symbol
_atom_site_label
_atom_site_fract_x
_atom_site_fract_y
_atom_site_fract_z
Si Si1 0.126961 0.818942 0.505805
Si Si2 0.255501 0.325486 0.188179
Si Si3 0.373107 0.317551 0.321599
Si Si4 0.620013 0.818454 0.007947
Si Si5 0.967764 0.674583 0.288869
Si Si6 0.633568 0.182801 0.199736
Si Si7 0.927991 0.182730 0.117755
O O1 0.254991 0.742918 0.421710
O O2 0.110066 0.773487 0.612964
O O3 0.000000 0.771908 0.500000
O O4 0.137743 0.000000 0.492276
O O5 0.290815 0.500000 0.155794
O O6 0.340651 0.266298 0.234775
O O7 0.110454 0.323925 0.271029
O O8 0.266527 0.228724 0.096995
O O9 0.373073 0.500000 0.322705
O O10 0.512009 0.255797 0.292621
O O11 0.627917 0.761049 0.102044
O O12 0.612688 0.000000 0.015658
O O13 0.500000 0.759835 0.000000
O O14 0.923291 0.500000 0.305132
O O15 0.972257 0.737238 0.189191
O O16 0.777185 0.214711 0.172504
O O17 0.617859 0.000000 0.208263
O O18 0.945283 0.000000 0.118285
O O19 0.000000 0.227883 0.000000
#
# Coordination Sequence:
#
# PCOD9145258 Si02
#       7
#     4   4   4   4   4   4   4
#     4  11  23  39  63  93 123 159 203 251 305 367
#     4  10  21  34  52  82 119 157 191 238 299 358
#     4  11  22  37  58  86 123 160 195 241 303 367
#     4  10  19  31  52  81 113 151 195 242 293 355
#     4  11  23  40  62  89 123 159 203 254 305 362
#     4  10  21  38  58  85 121 159 202 254 305 355
#     4  10  22  42  66  90 122 164 210 256 302 358
#
# _framework density 19.541421
#
# number of rings (size 3 to 8) (size 9 to 14) (size 15 to 20)
#    0.000    1.571    2.857    2.143    0.000    5.143 
#    0.000    0.714    0.000    4.286    0.000    0.000 
#    0.000    0.000    0.000    0.000    0.000    0.000 
#
# Total GULP energy -156190.607505 kJ/mol
# GULP energy per Si atom -5578.235982 kJ/mol
# Density = 1.949694 g / cm^3
# Si number density = 19.541421 Si / 1000 Ang^3
#
#
#
# Elastic Constant Matrix: (Units=GPa)
#
#
# Indices 1 2 3 4 5 6 
#
# 1 81.0547 33.4318 29.7840 0.0000 -15.1537 0.0000
# 2 33.4318 23.3090 20.5559 0.0000 -9.8397 0.0000
# 3 29.7840 20.5559 97.8978 0.0000 -14.2649 0.0000
# 4 0.0000 0.0000 0.0000 40.6882 0.0000 -9.0036
# 5 -15.1537 -9.8397 -14.2649 0.0000 33.6195 0.0000
# 6 0.0000 0.0000 0.0000 -9.0036 0.0000 24.1084
#
#
#
# Elastic Compliance Matrix: (Units=1/GPa)
#
#
# Indices 1 2 3 4 5 6 
#
# 1 0.030242 -0.042893 -0.000040 0.000000 0.001061 0.000000
# 2 -0.042893 0.117954 -0.010131 0.000000 0.010891 0.000000
# 3 -0.000040 -0.010131 0.012705 0.000000 0.002408 0.000000
# 4 0.000000 0.000000 0.000000 0.026791 0.000000 0.010005
# 5 0.001061 0.010891 0.002408 0.000000 0.034432 0.000000
# 6 0.000000 0.000000 0.000000 0.010005 0.000000 0.045216
#
#
# Mechanical properties :
#
#
# Convention : Reuss Voigt Hill
#
# Bulk Modulus (GPa) = 18.25677 41.08943 29.67310
# Shear Modulus (GPa) = 12.76408 27.58253 20.17330
#
# Velocity S-wave (km/s) = 2.55851 3.76106 3.21648
# Velocity P-wave (km/s) = 4.25334 6.31927 5.38628
#
# Compressibility (1/GPa) = 0.05477421
#
# Stress axis : x y z
#
# Youngs Moduli (GPa) = 33.06688 8.47787 78.70997
#
# Poissons Ratio (x) = 0.36364 0.00313
# Poissons Ratio (y) = 1.41833 0.79740
# Poissons Ratio (z) = 0.00131 0.08589
#
# Static dielectric constant tensor:
#      x y z
#    x 1.718780 0.000000 -0.030440 
#    y 0.000000 1.673090 0.000000 
#    z -0.030440 0.000000 1.702850 
# 
# From -- ./inp_files/49617.got.cif
#   From: 2010.05.17/outbox.cif.g08.bks.cpg/sg10_25_cif.got.tgz:49617.got - 2010.06.03 11:33:40.
