data_PCOD9145241
_publ_section_title
;
Structure prediction by ZEFSAII (Michael W. Deem and Ramdas Pophale) SiO2 
 PCOD9145241
Probable space group: P 2/M
;
_chemical_formula_sum "Si O2"
_cell_formula_units_Z 26
_cell_length_a 11.752216
_cell_length_b 14.360054
_cell_length_c 8.467688
_cell_angle_alpha 90.000000
_cell_angle_beta 81.249986
_cell_angle_gamma 90.000000
_cell_volume 1412.396048
_symmetry_space_group_name_H-M "P 2/M"
_symmetry_group_IT_number 10
_symmetry_cell_setting 'monoclinic'
loop_
_space_group_symop_operation_xyz
x,y,z
-x,y,-z
-x,-y,-z
x,-y,z
loop_
_atom_site_type_symbol
_atom_site_label
_atom_site_fract_x
_atom_site_fract_y
_atom_site_fract_z
Si Si1 0.121461 0.258245 0.239164
Si Si2 0.951688 0.893257 0.328558
Si Si3 0.801289 0.397995 0.032512
Si Si4 0.246591 0.233186 0.524373
Si Si5 0.464038 0.392780 0.832887
Si Si6 0.084307 0.392878 0.665075
Si Si7 0.500000 0.714875 0.500000
O O1 0.213687 0.223842 0.347450
O O2 0.039889 0.171422 0.213699
O O3 0.032658 0.334302 0.333423
O O4 0.181199 0.312527 0.086457
O O5 0.829244 0.841624 0.363797
O O6 0.000000 0.890448 0.500000
O O7 0.945814 0.000000 0.279858
O O8 0.810567 0.500000 0.949895
O O9 0.674673 0.393290 0.135186
O O10 0.894512 0.394325 0.151111
O O11 0.192321 0.334038 0.578217
O O12 0.380711 0.229124 0.529829
O O13 0.505695 0.500000 0.818884
O O14 0.504777 0.343217 0.663754
O O15 0.500000 0.355384 0.000000
O O16 0.082729 0.500000 0.612946
#
# Coordination Sequence:
#
# PCOD9145241 Si02
#       7
#     4   4   4   4   4   4   2
#     4  10  19  31  52  79 102 135 173 217 269 328
#     4   8  16  34  57  80 106 132 166 217 276 337
#     4  10  19  32  47  72 107 143 178 212 262 315
#     4  10  21  33  51  78 103 134 180 221 267 319
#     4  10  21  35  51  73 106 152 197 229 263 309
#     4  10  19  32  48  71 105 142 174 211 263 316
#     4  12  21  36  55  76 108 144 186 236 270 312
#
# _framework density 18.408432999999999
#
# number of rings (size 3 to 8) (size 9 to 14) (size 15 to 20)
#    0.000    2.154    1.538    3.462    0.000    3.692 
#    0.000    0.385    0.000    7.385    0.000    0.000 
#    0.000    6.769    0.000    0.000    0.000    0.000 
#
# Total GULP energy -144986.174524 kJ/mol
# GULP energy per Si atom -5576.391328 kJ/mol
# Density = 1.836653 g / cm^3
# Si number density = 18.408433 Si / 1000 Ang^3
#
#
#
# Elastic Constant Matrix: (Units=GPa)
#
#
# Indices 1 2 3 4 5 6 
#
# 1 92.3099 22.6839 6.0642 0.0000 4.5600 0.0000
# 2 22.6839 111.1075 17.4579 0.0000 -9.6200 0.0000
# 3 6.0642 17.4579 64.2081 0.0000 2.2230 0.0000
# 4 0.0000 0.0000 0.0000 324.4843 0.0000 117.1635
# 5 4.5600 -9.6200 2.2230 0.0000 25.3307 0.0000
# 6 0.0000 0.0000 0.0000 117.1635 0.0000 58.5949
#
#
#
# Elastic Compliance Matrix: (Units=1/GPa)
#
#
# Indices 1 2 3 4 5 6 
#
# 1 0.011641 -0.002596 -0.000288 0.000000 -0.003056 0.000000
# 2 -0.002596 0.010362 -0.002733 0.000000 0.004642 0.000000
# 3 -0.000288 -0.002733 0.016429 0.000000 -0.002428 0.000000
# 4 0.000000 0.000000 0.000000 0.011085 0.000000 -0.022165
# 5 -0.003056 0.004642 -0.002428 0.000000 0.042004 0.000000
# 6 0.000000 0.000000 0.000000 -0.022165 0.000000 0.061387
#
#
# Mechanical properties :
#
#
# Convention : Reuss Voigt Hill
#
# Bulk Modulus (GPa) = 36.76752 40.00418 38.38585
# Shear Modulus (GPa) = 28.86720 96.44330 62.65525
#
# Velocity S-wave (km/s) = 3.96428 7.24600 5.84038
# Velocity P-wave (km/s) = 6.40083 9.58043 8.14725
#
# Compressibility (1/GPa) = 0.02719792
#
# Stress axis : x y z
#
# Youngs Moduli (GPa) = 85.90409 96.50984 60.86937
#
# Poissons Ratio (x) = 0.25054 0.01752
# Poissons Ratio (y) = 0.22301 0.16635
# Poissons Ratio (z) = 0.02472 0.26374
#
# Static dielectric constant tensor:
#      x y z
#    x 1.649100 0.000000 0.029450 
#    y 0.000000 1.623960 0.000000 
#    z 0.029450 0.000000 1.687880 
# 
# From -- ./inp_files/24618.got.cif
#   From: 2010.05.17/outbox.cif.g08.bks.cpg/sg10_13_cif.got.tgz:24618.got - 2010.06.03 11:33:40.
