data_PCOD9145271
_publ_section_title
;
Structure prediction by ZEFSAII (Michael W. Deem and Ramdas Pophale) SiO2 
 PCOD9145271
Probable space group: P 2/M
;
_chemical_formula_sum "Si O2"
_cell_formula_units_Z 32
_cell_length_a 18.059815
_cell_length_b 13.259529
_cell_length_c 15.408776
_cell_angle_alpha 90.000000
_cell_angle_beta 29.455216
_cell_angle_gamma 90.000000
_cell_volume 1814.461780
_symmetry_space_group_name_H-M "P 2/M"
_symmetry_group_IT_number 10
_symmetry_cell_setting 'monoclinic'
loop_
_space_group_symop_operation_xyz
x,y,z
-x,y,-z
-x,-y,-z
x,-y,z
loop_
_atom_site_type_symbol
_atom_site_label
_atom_site_fract_x
_atom_site_fract_y
_atom_site_fract_z
Si Si1 0.805259 0.617754 0.001988
Si Si2 0.163047 0.822600 0.800194
Si Si3 0.681964 0.300942 0.619547
Si Si4 0.834863 0.378342 0.631778
Si Si5 0.643009 0.379755 0.991842
Si Si6 0.146089 0.382921 0.719792
Si Si7 0.355695 0.115066 0.449993
Si Si8 0.598151 0.231300 0.319643
O O1 0.772809 0.500000 0.050522
O O2 0.766822 0.638547 0.940615
O O3 0.693840 0.685821 0.171790
O O4 0.979014 0.634073 0.850353
O O5 0.165846 0.702268 0.773198
O O6 0.215963 0.877310 0.659268
O O7 0.284182 0.841173 0.751675
O O8 0.000000 0.849700 0.000000
O O9 0.794937 0.329105 0.581167
O O10 0.514674 0.331685 0.819745
O O11 0.734110 0.359769 0.478926
O O12 0.681793 0.183938 0.593895
O O13 0.828088 0.500000 0.627933
O O14 0.000000 0.354218 0.500000
O O15 0.710932 0.348434 0.830214
O O16 0.618193 0.500000 0.012753
O O17 0.157314 0.500000 0.736612
O O18 0.490139 0.171511 0.364611
O O19 0.391794 0.000000 0.393999
O O20 0.500000 0.274288 0.500000
#
# Coordination Sequence:
#
# PCOD9145271 Si02
#       8
#     4   4   4   4   4   4   4   4
#     4  10  19  32  50  77 114 151 180 211 258 321
#     4  10  20  34  56  80 108 138 185 231 268 329
#     4  11  20  35  57  80 108 143 181 227 266 320
#     4  10  20  34  55  86 120 151 178 204 251 318
#     4  10  19  31  52  83 114 146 184 217 251 311
#     4  10  20  32  50  77 116 155 177 208 266 330
#     4  10  23  41  59  77 101 138 182 238 294 325
#     4  10  20  36  53  75 105 141 181 228 275 325
#
# _framework density 17.636084
#
# number of rings (size 3 to 8) (size 9 to 14) (size 15 to 20)
#    0.000    1.875    2.500    2.250    0.000    6.500 
#    0.000    0.000    0.000    1.875    0.000    0.000 
#    0.000    0.000    0.000    0.000    0.000    0.000 
#
# Total GULP energy -178631.187925 kJ/mol
# GULP energy per Si atom -5582.224623 kJ/mol
# Density = 1.759594 g / cm^3
# Si number density = 17.636084 Si / 1000 Ang^3
#
#
#
# Elastic Constant Matrix: (Units=GPa)
#
#
# Indices 1 2 3 4 5 6 
#
# 1 70.4695 22.2308 18.1789 0.0000 -4.7813 0.0000
# 2 22.2308 63.1071 14.5858 0.0000 -0.6017 0.0000
# 3 18.1789 14.5858 95.2648 0.0000 -5.1062 0.0000
# 4 0.0000 0.0000 0.0000 6.6673 0.0000 1.6362
# 5 -4.7813 -0.6017 -5.1062 0.0000 24.9435 0.0000
# 6 0.0000 0.0000 0.0000 1.6362 0.0000 -1.3407
#
#
#
# Elastic Compliance Matrix: (Units=1/GPa)
#
#
# Indices 1 2 3 4 5 6 
#
# 1 0.016616 -0.005316 -0.002217 0.000000 0.002603 0.000000
# 2 -0.005316 0.018129 -0.001812 0.000000 -0.000953 0.000000
# 3 -0.002217 -0.001812 0.011296 0.000000 0.001844 0.000000
# 4 0.000000 0.000000 0.000000 0.115420 0.000000 0.140853
# 5 0.002603 -0.000953 0.001844 0.000000 0.040944 0.000000
# 6 0.000000 0.000000 0.000000 0.140853 0.000000 -0.573961
#
#
# Mechanical properties :
#
#
# Convention : Reuss Voigt Hill
#
# Bulk Modulus (GPa) = 36.56323 37.64804 37.10564
# Shear Modulus (GPa) = -14.54554 17.64373 1.54909
#
# Velocity S-wave (km/s) = -2.87498 3.16639 0.93823
# Velocity P-wave (km/s) = 3.12352 5.89590 4.71794
#
# Compressibility (1/GPa) = 0.02734988
#
# Stress axis : x y z
#
# Youngs Moduli (GPa) = 60.18228 55.16152 88.52316
#
# Poissons Ratio (x) = 0.29324 0.19628
# Poissons Ratio (y) = 0.31994 0.16043
# Poissons Ratio (z) = 0.13344 0.09997
#
# Static dielectric constant tensor:
#      x y z
#    x 1.616170 0.000000 -0.009790 
#    y 0.000000 1.581020 0.000000 
#    z -0.009790 0.000000 1.615740 
# 
# From -- ./inp_files/28613.got.cif
#   From: 2010.05.17/outbox.cif.g08.bks.cpg/sg10_15_cif.got.tgz:28613.got - 2010.06.03 11:33:40.
