data_PCOD9145041
_publ_section_title
;
Structure prediction by ZEFSAII (Michael W. Deem and Ramdas Pophale) SiO2 
 PCOD9145041
Probable space group: P 2/M
;
_chemical_formula_sum "Si O2"
_cell_formula_units_Z 30
_cell_length_a 17.628604
_cell_length_b 16.381012
_cell_length_c 14.870615
_cell_angle_alpha 90.000000
_cell_angle_beta 15.542805
_cell_angle_gamma 90.000000
_cell_volume 1150.680258
_symmetry_space_group_name_H-M "P 2/M"
_symmetry_group_IT_number 10
_symmetry_cell_setting 'monoclinic'
loop_
_space_group_symop_operation_xyz
x,y,z
-x,y,-z
-x,-y,-z
x,-y,z
loop_
_atom_site_type_symbol
_atom_site_label
_atom_site_fract_x
_atom_site_fract_y
_atom_site_fract_z
Si Si1 0.734219 0.500000 0.924519
Si Si2 0.527199 0.910102 0.595496
Si Si3 0.766197 0.196286 0.588684
Si Si4 0.740237 0.094780 0.897724
Si Si5 0.297994 0.390132 0.315835
Si Si6 0.204064 0.589542 0.677460
Si Si7 0.686888 0.347781 0.209032
Si Si8 0.031966 0.179983 0.085569
O O1 0.989130 0.430133 0.650202
O O2 0.491758 0.429209 0.173977
O O3 0.774543 0.843305 0.315219
O O4 0.643727 0.000000 0.447512
O O5 0.397982 0.908764 0.843943
O O6 0.266949 0.889825 0.827898
O O7 0.732421 0.292104 0.644335
O O8 0.901100 0.190424 0.334554
O O9 0.977451 0.147334 0.412306
O O10 0.477004 0.145735 0.914012
O O11 0.777611 0.000000 0.828199
O O12 0.500000 0.408479 0.000000
O O13 0.341101 0.500000 0.518217
O O14 0.454143 0.655238 0.397418
O O15 0.000000 0.593537 0.000000
O O16 0.970096 0.602218 0.868077
O O17 0.500000 0.390315 0.500000
O O18 0.801370 0.263975 0.117955
#
# Coordination Sequence:
#
# PCOD9145041 Si02
#       8
#     2   4   4   4   4   4   4   4
#     4  10  21  36  58  80 100 136 177 218 249 288
#     4   9  17  30  50  73  94 126 167 204 238 284
#     4  10  20  32  53  77 103 135 163 213 256 296
#     4   9  17  31  51  77 103 133 173 206 245 298
#     4  11  20  35  57  80 104 133 176 213 250 297
#     4   9  17  30  49  70  88 116 159 201 234 275
#     4  10  19  31  50  70  93 125 160 199 241 291
#     4  10  19  32  50  72 101 126 158 203 247 294
#
# _framework density 26.071534
#
# number of rings (size 3 to 8) (size 9 to 14) (size 15 to 20)
#    0.000    2.267    0.000    4.400    0.000    4.800 
#    0.000    0.000    8.800    4.800    0.000    0.000 
#    0.000    0.000    0.000    0.000    0.000    0.000 
#
# Total GULP energy -167399.743169 kJ/mol
# GULP energy per Si atom -5579.991439 kJ/mol
# Density = 2.601219 g / cm^3
# Si number density = 26.071534 Si / 1000 Ang^3
#
#
#
# Elastic Constant Matrix: (Units=GPa)
#
#
# Indices 1 2 3 4 5 6 
#
# 1 60.7360 35.5949 66.5159 0.0000 -10.3643 0.0000
# 2 35.5949 246.0886 101.1932 0.0000 -47.6819 0.0000
# 3 66.5159 101.1932 212.8615 0.0000 -65.0769 0.0000
# 4 0.0000 0.0000 0.0000 237.4957 0.0000 338.3925
# 5 -10.3643 -47.6819 -65.0769 0.0000 62.0692 0.0000
# 6 0.0000 0.0000 0.0000 338.3925 0.0000 670.8261
#
#
#
# Elastic Compliance Matrix: (Units=1/GPa)
#
#
# Indices 1 2 3 4 5 6 
#
# 1 0.026835 -0.001113 -0.009931 0.000000 -0.006786 0.000000
# 2 -0.001113 0.005273 -0.001438 0.000000 0.002356 0.000000
# 3 -0.009931 -0.001438 0.011245 0.000000 0.009026 0.000000
# 4 0.000000 0.000000 0.000000 0.014971 0.000000 -0.007552
# 5 -0.006786 0.002356 0.009026 0.000000 0.026252 0.000000
# 6 0.000000 0.000000 0.000000 -0.007552 0.000000 0.005300
#
#
# Mechanical properties :
#
#
# Convention : Reuss Voigt Hill
#
# Bulk Modulus (GPa) = 54.38478 102.92157 78.65317
# Shear Modulus (GPa) = 41.33271 215.17032 128.25151
#
# Velocity S-wave (km/s) = 3.98597 9.09450 7.02132
# Velocity P-wave (km/s) = 6.48761 12.24100 9.79621
#
# Compressibility (1/GPa) = 0.01838750
#
# Stress axis : x y z
#
# Youngs Moduli (GPa) = 37.26437 189.65965 88.93092
#
# Poissons Ratio (x) = 0.21101 0.88322
# Poissons Ratio (y) = 0.04146 0.12792
# Poissons Ratio (z) = 0.37009 0.27282
#
# Static dielectric constant tensor:
#      x y z
#    x 2.250840 0.000000 0.060200 
#    y 0.000000 1.978490 0.000000 
#    z 0.060200 0.000000 2.057900 
# 
# From -- ./inp_files/91297.got.cif
#   From: 2010.05.17/outbox.cif.g08.bks.cpg/sg10_46_cif.got.tgz:91297.got - 2010.06.03 11:33:40.
