data_PCOD9145184
_publ_section_title
;
Structure prediction by ZEFSAII (Michael W. Deem and Ramdas Pophale) SiO2 
 PCOD9145184
Probable space group: P 2/M
;
_chemical_formula_sum "Si O2"
_cell_formula_units_Z 28
_cell_length_a 15.206497
_cell_length_b 9.616128
_cell_length_c 12.054831
_cell_angle_alpha 90.000000
_cell_angle_beta 120.073949
_cell_angle_gamma 90.000000
_cell_volume 1525.446824
_symmetry_space_group_name_H-M "P 2/M"
_symmetry_group_IT_number 10
_symmetry_cell_setting 'monoclinic'
loop_
_space_group_symop_operation_xyz
x,y,z
-x,y,-z
-x,-y,-z
x,-y,z
loop_
_atom_site_type_symbol
_atom_site_label
_atom_site_fract_x
_atom_site_fract_y
_atom_site_fract_z
Si Si1 0.382254 0.168971 0.415731
Si Si2 0.819599 0.336155 0.125507
Si Si3 0.219169 0.164254 0.498124
Si Si4 0.008970 0.163721 0.638469
Si Si5 0.506247 0.848362 0.136334
Si Si6 0.291502 0.837504 0.122805
Si Si7 0.308100 0.339267 0.740489
O O1 0.500000 0.216596 0.500000
O O2 0.308686 0.207125 0.470829
O O3 0.325652 0.210802 0.266531
O O4 0.386562 0.000000 0.415576
O O5 0.839458 0.500000 0.120851
O O6 0.725294 0.325324 0.152747
O O7 0.911802 0.259992 0.247054
O O8 0.788389 0.256676 0.993628
O O9 0.104287 0.184229 0.383858
O O10 0.232311 0.249945 0.618396
O O11 0.229236 0.000000 0.526931
O O12 0.000000 0.191355 0.500000
O O13 0.037411 0.000000 0.667409
O O14 0.396309 0.834154 0.119602
O O15 0.582198 0.725756 0.213094
O O16 0.547582 0.000000 0.200179
O O17 0.500000 0.851423 0.000000
O O18 0.258427 0.000000 0.106800
O O19 0.303306 0.500000 0.707637
#
# Coordination Sequence:
#
# PCOD9145184 Si02
#       7
#     4   4   4   4   4   4   4
#     4   9  18  35  60  87 112 141 182 230 276 325
#     4  11  23  36  53  80 115 150 182 225 281 337
#     4  10  20  36  59  83 109 142 185 232 277 326
#     4  10  20  35  57  84 111 143 185 234 281 327
#     4  10  19  31  51  78 106 140 181 223 271 326
#     4  10  20  36  58  82 111 147 186 231 278 328
#     4  11  22  33  50  79 114 148 180 222 278 335
#
# _framework density 18.355277999999998
#
# number of rings (size 3 to 8) (size 9 to 14) (size 15 to 20)
#    0.000    1.857    2.857    1.714    0.000    5.143 
#    0.000    1.429    0.000    6.000    0.000    0.000 
#    0.000    0.000    0.000    0.000    0.000    0.000 
#
# Total GULP energy -156176.470636 kJ/mol
# GULP energy per Si atom -5577.731094 kJ/mol
# Density = 1.831350 g / cm^3
# Si number density = 18.355278 Si / 1000 Ang^3
#
#
#
# Elastic Constant Matrix: (Units=GPa)
#
#
# Indices 1 2 3 4 5 6 
#
# 1 60.9781 28.5307 21.8160 0.0000 8.3958 0.0000
# 2 28.5307 80.6307 60.5959 0.0000 14.1165 0.0000
# 3 21.8160 60.5959 115.4749 0.0000 8.2358 0.0000
# 4 0.0000 0.0000 0.0000 -108.4661 0.0000 -61.4567
# 5 8.3958 14.1165 8.2358 0.0000 27.8208 0.0000
# 6 0.0000 0.0000 0.0000 -61.4567 0.0000 -19.6800
#
#
#
# Elastic Compliance Matrix: (Units=1/GPa)
#
#
# Indices 1 2 3 4 5 6 
#
# 1 0.019834 -0.006401 -0.000197 0.000000 -0.002679 0.000000
# 2 -0.006401 0.024136 -0.010952 0.000000 -0.007073 0.000000
# 3 -0.000197 -0.010952 0.014346 0.000000 0.001369 0.000000
# 4 0.000000 0.000000 0.000000 0.011983 0.000000 -0.037421
# 5 -0.002679 -0.007073 0.001369 0.000000 0.039936 0.000000
# 6 0.000000 0.000000 0.000000 -0.037421 0.000000 0.066045
#
#
# Mechanical properties :
#
#
# Convention : Reuss Voigt Hill
#
# Bulk Modulus (GPa) = 43.07249 53.21879 48.14564
# Shear Modulus (GPa) = 22.81875 -10.32231 6.24822
#
# Velocity S-wave (km/s) = 3.52969 -2.37399 1.84701
# Velocity P-wave (km/s) = 6.33471 4.64136 5.55296
#
# Compressibility (1/GPa) = 0.02321667
#
# Stress axis : x y z
#
# Youngs Moduli (GPa) = 50.41952 41.43210 69.70399
#
# Poissons Ratio (x) = 0.26520 0.01374
# Poissons Ratio (y) = 0.32273 0.76337
# Poissons Ratio (z) = 0.00994 0.45375
#
# Static dielectric constant tensor:
#      x y z
#    x 1.645180 0.000000 0.000270 
#    y 0.000000 1.613880 0.000000 
#    z 0.000270 0.000000 1.645990 
# 
# From -- ./inp_files/49384.got.cif
#   From: 2010.05.17/outbox.cif.g08.bks.cpg/sg10_25_cif.got.tgz:49384.got - 2010.06.03 11:33:40.
