data_PCOD9145688
_publ_section_title
;
Structure prediction by ZEFSAII (Michael W. Deem and Ramdas Pophale) SiO2 
 PCOD9145688
Probable space group: P 2/M
;
_chemical_formula_sum "Si O2"
_cell_formula_units_Z 24
_cell_length_a 12.977293
_cell_length_b 7.707176
_cell_length_c 16.131800
_cell_angle_alpha 90.000000
_cell_angle_beta 123.711469
_cell_angle_gamma 90.000000
_cell_volume 1342.157874
_symmetry_space_group_name_H-M "P 2/M"
_symmetry_group_IT_number 10
_symmetry_cell_setting 'monoclinic'
loop_
_space_group_symop_operation_xyz
x,y,z
-x,y,-z
-x,-y,-z
x,-y,z
loop_
_atom_site_type_symbol
_atom_site_label
_atom_site_fract_x
_atom_site_fract_y
_atom_site_fract_z
Si Si1 0.649786 0.302177 0.374593
Si Si2 0.805287 0.500000 0.868479
Si Si3 0.027390 0.202121 0.758015
Si Si4 0.608027 0.301438 0.687641
Si Si5 0.924891 0.500000 0.096904
Si Si6 0.749371 0.199317 0.591874
Si Si7 0.110779 0.288471 0.611931
O O1 0.631209 0.500000 0.336843
O O2 0.513035 0.222850 0.323390
O O3 0.705078 0.301660 0.492076
O O4 0.757400 0.226516 0.365062
O O5 0.722429 0.336308 0.801007
O O6 0.936148 0.500000 0.879601
O O7 0.833061 0.500000 0.977925
O O8 0.087602 0.330760 0.851099
O O9 0.883531 0.258412 0.683378
O O10 0.085360 0.223609 0.692818
O O11 0.030644 0.000000 0.784386
O O12 0.573954 0.500000 0.646171
O O13 0.654798 0.210699 0.625870
O O14 0.762390 0.000000 0.571018
O O15 0.110596 0.500000 0.612924
O O16 0.000000 0.235783 0.500000
#
# Coordination Sequence:
#
# PCOD9145688 Si02
#       7
#     4   2   4   4   2   4   4
#     4  10  20  31  52  76 108 147 181 215 254 319
#     4   9  20  36  61  80 102 138 176 235 281 327
#     4  11  22  35  56  83 114 145 179 224 271 320
#     4   9  18  35  52  75 105 137 182 218 269 319
#     4  11  20  40  61  81 108 137 184 227 286 327
#     4  11  21  31  47  78 115 149 178 212 263 324
#     4  10  19  32  52  77 110 147 183 218 256 311
#
# _framework density 17.881653
#
# number of rings (size 3 to 8) (size 9 to 14) (size 15 to 20)
#    0.500    1.333    4.167    1.000    1.167    3.667 
#    0.000    2.500    0.000    2.000    0.000    1.167 
#    0.000    0.000    0.000    0.000    0.000    0.000 
#
# Total GULP energy -133802.313743 kJ/mol
# GULP energy per Si atom -5575.096406 kJ/mol
# Density = 1.784095 g / cm^3
# Si number density = 17.881653 Si / 1000 Ang^3
#
#
#
# Elastic Constant Matrix: (Units=GPa)
#
#
# Indices 1 2 3 4 5 6 
#
# 1 119.9460 -1.5442 20.0697 0.0000 -15.0136 0.0000
# 2 -1.5442 43.6858 19.7840 0.0000 -3.6452 0.0000
# 3 20.0697 19.7840 77.1404 0.0000 -19.0022 0.0000
# 4 0.0000 0.0000 0.0000 -11.6055 0.0000 7.1923
# 5 -15.0136 -3.6452 -19.0022 0.0000 18.9800 0.0000
# 6 0.0000 0.0000 0.0000 7.1923 0.0000 4.5417
#
#
#
# Elastic Compliance Matrix: (Units=1/GPa)
#
#
# Indices 1 2 3 4 5 6 
#
# 1 0.009368 0.001417 -0.001206 0.000000 0.006475 0.000000
# 2 0.001417 0.026184 -0.007392 0.000000 -0.001251 0.000000
# 3 -0.001206 -0.007392 0.019364 0.000000 0.017013 0.000000
# 4 0.000000 0.000000 0.000000 -0.043487 0.000000 0.068867
# 5 0.006475 -0.001251 0.017013 0.000000 0.074601 0.000000
# 6 0.000000 0.000000 0.000000 0.068867 0.000000 0.111124
#
#
# Mechanical properties :
#
#
# Convention : Reuss Voigt Hill
#
# Bulk Modulus (GPa) = 24.65821 35.26569 29.96195
# Shear Modulus (GPa) = 22.21893 15.88075 19.04984
#
# Velocity S-wave (km/s) = 3.52881 2.98334 3.26748
# Velocity P-wave (km/s) = 5.51570 5.62420 5.57021
#
# Compressibility (1/GPa) = 0.04055445
#
# Stress axis : x y z
#
# Youngs Moduli (GPa) = 106.75156 38.19089 51.64281
#
# Poissons Ratio (x) = -0.05413 0.06226
# Poissons Ratio (y) = -0.15131 0.38176
# Poissons Ratio (z) = 0.12871 0.28232
#
# Static dielectric constant tensor:
#      x y z
#    x 1.653050 0.000000 0.019650 
#    y 0.000000 1.654130 0.000000 
#    z 0.019650 0.000000 1.569180 
# 
# From -- ./inp_files/63120.got.cif
#   From: 2010.05.17/outbox.cif.g08.bks.cpg/sg10_32_cif.got.tgz:63120.got - 2010.06.03 11:33:40.
