data_PCOD9145187
_publ_section_title
;
Structure prediction by ZEFSAII (Michael W. Deem and Ramdas Pophale) SiO2 
 PCOD9145187
Probable space group: P 2/M
;
_chemical_formula_sum "Si O2"
_cell_formula_units_Z 32
_cell_length_a 31.796675
_cell_length_b 7.540110
_cell_length_c 12.457747
_cell_angle_alpha 90.000000
_cell_angle_beta 151.434941
_cell_angle_gamma 90.000000
_cell_volume 1428.133538
_symmetry_space_group_name_H-M "P 2/M"
_symmetry_group_IT_number 10
_symmetry_cell_setting 'monoclinic'
loop_
_space_group_symop_operation_xyz
x,y,z
-x,y,-z
-x,-y,-z
x,-y,z
loop_
_atom_site_type_symbol
_atom_site_label
_atom_site_fract_x
_atom_site_fract_y
_atom_site_fract_z
Si Si1 0.896444 0.210246 0.954625
Si Si2 0.913137 0.287128 0.242334
Si Si3 0.449042 0.711790 0.990320
Si Si4 0.365854 0.715978 0.184915
Si Si5 0.085487 0.204861 0.331159
Si Si6 0.477498 0.716192 0.622589
Si Si7 0.240449 0.213735 0.522732
Si Si8 0.175423 0.285702 0.745471
O O1 0.898498 0.233419 0.087330
O O2 0.986956 0.283569 0.104351
O O3 0.100576 0.000000 0.057125
O O4 0.808640 0.273118 0.697213
O O5 0.920057 0.500000 0.253515
O O6 0.839150 0.239256 0.163018
O O7 0.000000 0.221855 0.500000
O O8 0.461323 0.500000 0.018392
O O9 0.343183 0.735858 0.758989
O O10 0.500000 0.781438 0.000000
O O11 0.499264 0.782042 0.208026
O O12 0.363184 0.500000 0.180134
O O13 0.392045 0.772656 0.363841
O O14 0.441568 0.766548 0.272688
O O15 0.272396 0.776517 0.934144
O O16 0.170702 0.277616 0.458297
O O17 0.107874 0.211940 0.507872
O O18 0.078957 0.000000 0.281952
O O19 0.474941 0.500000 0.620453
O O20 0.242251 0.000000 0.531890
O O21 0.168137 0.500000 0.721271
#
# Coordination Sequence:
#
# PCOD9145187 Si02
#       8
#     4   4   4   4   4   4   4   4
#     4  10  21  37  57  78 105 146 191 229 268 321
#     4  10  20  34  50  74 109 142 174 218 269 318
#     4  10  21  36  56  81 107 137 176 222 270 326
#     4   8  14  25  45  71  96 128 165 205 252 304
#     4  10  20  35  56  79 107 143 184 230 274 319
#     4   8  14  27  46  70  99 125 161 209 254 304
#     4  10  22  39  57  80 108 141 184 231 278 325
#     4  10  19  31  51  78 108 141 176 215 267 324
#
# _framework density 22.406869
#
# number of rings (size 3 to 8) (size 9 to 14) (size 15 to 20)
#    0.000    2.500    1.250    1.875    0.000    5.500 
#    0.000    2.500    0.000    3.000    0.000    3.500 
#    0.000    0.000    0.000    0.000    0.000    0.000 
#
# Total GULP energy -178438.309214 kJ/mol
# GULP energy per Si atom -5576.197163 kJ/mol
# Density = 2.235587 g / cm^3
# Si number density = 22.406869 Si / 1000 Ang^3
#
#
#
# Elastic Constant Matrix: (Units=GPa)
#
#
# Indices 1 2 3 4 5 6 
#
# 1 79.8902 2.5754 3.0877 0.0000 -31.9548 0.0000
# 2 2.5754 52.9987 -3.2761 0.0000 -0.5834 0.0000
# 3 3.0877 -3.2761 64.9831 0.0000 -21.5821 0.0000
# 4 0.0000 0.0000 0.0000 23.3379 0.0000 -22.5273
# 5 -31.9548 -0.5834 -21.5821 0.0000 38.9369 0.0000
# 6 0.0000 0.0000 0.0000 -22.5273 0.0000 80.7335
#
#
#
# Elastic Compliance Matrix: (Units=1/GPa)
#
#
# Indices 1 2 3 4 5 6 
#
# 1 0.020158 -0.000422 0.005531 0.000000 0.019603 0.000000
# 2 -0.000422 0.018968 0.001171 0.000000 0.000587 0.000000
# 3 0.005531 0.001171 0.020466 0.000000 0.015901 0.000000
# 4 0.000000 0.000000 0.000000 0.058644 0.000000 0.016364
# 5 0.019603 0.000587 0.015901 0.000000 0.050593 0.000000
# 6 0.000000 0.000000 0.000000 0.016364 0.000000 0.016952
#
#
# Mechanical properties :
#
#
# Convention : Reuss Voigt Hill
#
# Bulk Modulus (GPa) = 13.85942 22.51625 18.18783
# Shear Modulus (GPa) = 25.34600 41.63400 33.49000
#
# Velocity S-wave (km/s) = 3.36694 4.31523 3.87024
# Velocity P-wave (km/s) = 4.61669 5.90753 5.30154
#
# Compressibility (1/GPa) = 0.07215308
#
# Stress axis : x y z
#
# Youngs Moduli (GPa) = 49.60866 52.72107 48.86193
#
# Poissons Ratio (x) = 0.02224 -0.27027
# Poissons Ratio (y) = 0.02093 -0.05723
# Poissons Ratio (z) = -0.27440 -0.06175
#
# Static dielectric constant tensor:
#      x y z
#    x 1.849240 0.000000 0.000650 
#    y 0.000000 1.861690 0.000000 
#    z 0.000650 0.000000 1.840410 
# 
# From -- ./inp_files/58273.got.cif
#   From: 2010.05.17/outbox.cif.g08.bks.cpg/sg10_30_cif.got.tgz:58273.got - 2010.06.03 11:33:40.
