data_PCOD9145878
_publ_section_title
;
Structure prediction by ZEFSAII (Michael W. Deem and Ramdas Pophale) SiO2 
 PCOD9145878
Probable space group: P 2/M
;
_chemical_formula_sum "Si O2"
_cell_formula_units_Z 24
_cell_length_a 11.067372
_cell_length_b 7.318549
_cell_length_c 23.631046
_cell_angle_alpha 90.000000
_cell_angle_beta 147.429317
_cell_angle_gamma 90.000000
_cell_volume 1030.407014
_symmetry_space_group_name_H-M "P 2/M"
_symmetry_group_IT_number 10
_symmetry_cell_setting 'monoclinic'
loop_
_space_group_symop_operation_xyz
x,y,z
-x,y,-z
-x,-y,-z
x,-y,z
loop_
_atom_site_type_symbol
_atom_site_label
_atom_site_fract_x
_atom_site_fract_y
_atom_site_fract_z
Si Si1 0.594043 0.210442 0.195380
Si Si2 0.430859 0.223276 0.536359
Si Si3 0.725632 0.280074 0.123206
Si Si4 0.166323 0.207694 0.227779
Si Si5 0.107424 0.212513 0.981416
Si Si6 0.015969 0.223214 0.572142
O O1 0.721221 0.215770 0.185935
O O2 0.353733 0.295309 0.085126
O O3 0.753447 0.285600 0.307088
O O4 0.547206 0.000000 0.193506
O O5 0.500000 0.281269 0.500000
O O6 0.625005 0.286144 0.656039
O O7 0.192794 0.277944 0.469930
O O8 0.430773 0.000000 0.534746
O O9 0.731471 0.500000 0.124375
O O10 0.949329 0.208286 0.182354
O O11 0.500000 0.223278 0.000000
O O12 0.236731 0.000000 0.241251
O O13 0.066919 0.294367 0.131785
O O14 0.140109 0.000000 0.975482
O O15 0.000000 0.212833 0.000000
O O16 0.000000 0.278650 0.500000
O O17 0.016634 0.000000 0.572739
#
# Coordination Sequence:
#
# PCOD9145878 Si02
#       6
#     4   4   4   4   4   4
#     4  10  19  33  55  78 106 139 174 213 257 315
#     4   9  17  29  46  72 105 136 169 211 258 304
#     4  11  22  35  52  76 107 136 170 218 269 314
#     4  10  19  32  54  77 103 136 172 213 257 313
#     4   9  18  29  46  77 107 133 168 213 260 303
#     4   9  18  30  49  80 111 138 172 217 264 309
#
# _framework density 23.291765000000002
#
# number of rings (size 3 to 8) (size 9 to 14) (size 15 to 20)
#    0.000    2.333    1.667    1.500    2.333    3.333 
#    0.000    0.000    0.000    7.000    0.000    0.000 
#    0.000    0.000    0.000    0.000    0.000    0.000 
#
# Total GULP energy -134032.079942 kJ/mol
# GULP energy per Si atom -5584.669998 kJ/mol
# Density = 2.323875 g / cm^3
# Si number density = 23.291765 Si / 1000 Ang^3
#
#
#
# Elastic Constant Matrix: (Units=GPa)
#
#
# Indices 1 2 3 4 5 6 
#
# 1 83.8065 -2.8752 44.9100 0.0000 -22.4527 0.0000
# 2 -2.8752 100.9042 12.9836 0.0000 -0.4082 0.0000
# 3 44.9100 12.9836 200.8804 0.0000 -34.7314 0.0000
# 4 0.0000 0.0000 0.0000 -17.8719 0.0000 30.1188
# 5 -22.4527 -0.4082 -34.7314 0.0000 36.6782 0.0000
# 6 0.0000 0.0000 0.0000 30.1188 0.0000 -634.0128
#
#
#
# Elastic Compliance Matrix: (Units=1/GPa)
#
#
# Indices 1 2 3 4 5 6 
#
# 1 0.015039 0.000737 -0.002172 0.000000 0.007157 0.000000
# 2 0.000737 0.010041 -0.000857 0.000000 -0.000248 0.000000
# 3 -0.002172 -0.000857 0.006323 0.000000 0.004648 0.000000
# 4 0.000000 0.000000 0.000000 -0.060823 0.000000 -0.002889
# 5 0.007157 -0.000248 0.004648 0.000000 0.036044 0.000000
# 6 0.000000 0.000000 0.000000 -0.002889 0.000000 -0.001715
#
#
# Mechanical properties :
#
#
# Convention : Reuss Voigt Hill
#
# Bulk Modulus (GPa) = 37.28776 55.06978 46.17877
# Shear Modulus (GPa) = 271.26583 -101.00310 85.13137
#
# Velocity S-wave (km/s) = 10.80357 -6.59230 6.05222
# Velocity P-wave (km/s) = 13.10216 5.85233 8.28905
#
# Compressibility (1/GPa) = 0.02681845
#
# Stress axis : x y z
#
# Youngs Moduli (GPa) = 66.49278 99.59550 158.16013
#
# Poissons Ratio (x) = -0.07340 0.34359
# Poissons Ratio (y) = -0.04901 0.13549
# Poissons Ratio (z) = 0.14445 0.08532
#
# Static dielectric constant tensor:
#      x y z
#    x 1.880090 0.000000 0.006830 
#    y 0.000000 1.882200 0.000000 
#    z 0.006830 0.000000 1.884910 
# 
# From -- ./inp_files/45314.got.cif
#   From: 2010.05.17/outbox.cif.g08.bks.cpg/sg10_23_cif.got.tgz:45314.got - 2010.06.03 11:33:40.
