data_PCOD9145205
_publ_section_title
;
Structure prediction by ZEFSAII (Michael W. Deem and Ramdas Pophale) SiO2 
 PCOD9145205
Probable space group: P 2/M
;
_chemical_formula_sum "Si O2"
_cell_formula_units_Z 32
_cell_length_a 23.161246
_cell_length_b 9.031995
_cell_length_c 28.113037
_cell_angle_alpha 90.000000
_cell_angle_beta 162.538798
_cell_angle_gamma 90.000000
_cell_volume 1764.661290
_symmetry_space_group_name_H-M "P 2/M"
_symmetry_group_IT_number 10
_symmetry_cell_setting 'monoclinic'
loop_
_space_group_symop_operation_xyz
x,y,z
-x,y,-z
-x,-y,-z
x,-y,z
loop_
_atom_site_type_symbol
_atom_site_label
_atom_site_fract_x
_atom_site_fract_y
_atom_site_fract_z
Si Si1 0.336352 0.178206 0.089823
Si Si2 0.174249 0.177639 0.172047
Si Si3 0.400958 0.176882 0.031486
Si Si4 0.904476 0.822238 0.779526
Si Si5 0.425239 0.322570 0.543284
Si Si6 0.356076 0.678030 0.598837
Si Si7 0.671119 0.329727 0.174055
Si Si8 0.074132 0.320839 0.709353
O O1 0.481193 0.249519 0.240992
O O2 0.347274 0.000000 0.102364
O O3 0.391041 0.219691 0.078910
O O4 0.116602 0.221270 0.928489
O O5 0.119798 0.211209 0.183717
O O6 0.369641 0.258179 0.311113
O O7 0.202784 0.000000 0.190673
O O8 0.000000 0.218594 0.000000
O O9 0.220971 0.248691 0.862170
O O10 0.388101 0.000000 0.017712
O O11 0.592798 0.233540 0.155778
O O12 0.740236 0.743141 0.620220
O O13 0.885054 0.000000 0.758478
O O14 0.426378 0.500000 0.540710
O O15 0.383073 0.280895 0.564897
O O16 0.370333 0.500000 0.613436
O O17 0.143532 0.720714 0.449864
O O18 0.696870 0.500000 0.209547
O O19 0.855342 0.279203 0.288397
O O20 0.500000 0.328098 0.000000
O O21 0.093461 0.500000 0.727749
#
# Coordination Sequence:
#
# PCOD9145205 Si02
#       8
#     4   4   4   4   4   4   4   4
#     4  10  22  38  55  78 107 139 177 220 265 314
#     4  10  21  38  60  83 109 145 183 216 255 308
#     4  10  19  31  51  80 108 134 170 217 268 317
#     4  10  21  38  59  81 106 141 184 220 254 308
#     4  11  23  37  56  84 113 139 173 221 271 313
#     4  10  22  38  55  77 105 139 178 218 264 317
#     4   8  15  29  50  74 101 136 176 216 257 306
#     4   9  18  34  54  76 103 137 179 219 256 310
#
# _framework density 18.133790999999999
#
# number of rings (size 3 to 8) (size 9 to 14) (size 15 to 20)
#    0.000    2.250    0.000    3.375    0.000    8.500 
#    0.000    0.625    0.000    3.750    0.000    0.000 
#    0.000    0.000    0.000    0.000    0.000    0.000 
#
# Total GULP energy -178647.449100 kJ/mol
# GULP energy per Si atom -5582.732784 kJ/mol
# Density = 1.809252 g / cm^3
# Si number density = 18.133791 Si / 1000 Ang^3
#
#
#
# Elastic Constant Matrix: (Units=GPa)
#
#
# Indices 1 2 3 4 5 6 
#
# 1 185.1016 61.3446 109.9051 0.0000 10.5745 0.0000
# 2 61.3446 29.2195 40.5601 0.0000 -3.6266 0.0000
# 3 109.9051 40.5601 66.6769 0.0000 -30.4491 0.0000
# 4 0.0000 0.0000 0.0000 17.1520 0.0000 1.4622
# 5 10.5745 -3.6266 -30.4491 0.0000 19.1087 0.0000
# 6 0.0000 0.0000 0.0000 1.4622 0.0000 30.3724
#
#
#
# Elastic Compliance Matrix: (Units=1/GPa)
#
#
# Indices 1 2 3 4 5 6 
#
# 1 0.007155 -0.033707 0.014617 0.000000 0.012935 0.000000
# 2 -0.033707 0.132538 -0.018575 0.000000 0.014208 0.000000
# 3 0.014617 -0.018575 -0.011387 0.000000 -0.029760 0.000000
# 4 0.000000 0.000000 0.000000 0.058542 0.000000 -0.002818
# 5 0.012935 0.014208 -0.029760 0.000000 0.000449 0.000000
# 6 0.000000 0.000000 0.000000 -0.002818 0.000000 0.033060
#
#
# Mechanical properties :
#
#
# Convention : Reuss Voigt Hill
#
# Bulk Modulus (GPa) = 18.87641 78.29084 48.58362
# Shear Modulus (GPa) = 15.95680 17.93917 16.94798
#
# Velocity S-wave (km/s) = 2.96961 3.14867 3.06045
# Velocity P-wave (km/s) = 4.71065 7.51576 6.27203
#
# Compressibility (1/GPa) = 0.05297619
#
# Stress axis : x y z
#
# Youngs Moduli (GPa) = 139.75668 7.54502 -87.81712
#
# Poissons Ratio (x) = 0.25432 1.28365
# Poissons Ratio (y) = 4.71081 -1.63119
# Poissons Ratio (z) = -2.04286 0.14015
#
# Static dielectric constant tensor:
#      x y z
#    x 1.620410 0.000000 0.021240 
#    y 0.000000 1.607980 0.000000 
#    z 0.021240 0.000000 1.589060 
# 
# From -- ./inp_files/93697.got.cif
#   From: 2010.05.17/outbox.cif.g08.bks.cpg/sg10_47_cif.got.tgz:93697.got - 2010.06.03 11:33:40.
