data_PCOD9145372
_publ_section_title
;
Structure prediction by ZEFSAII (Michael W. Deem and Ramdas Pophale) SiO2 
 PCOD9145372
Probable space group: P 2/M
;
_chemical_formula_sum "Si O2"
_cell_formula_units_Z 30
_cell_length_a 33.422460
_cell_length_b 12.481085
_cell_length_c 31.050925
_cell_angle_alpha 90.000000
_cell_angle_beta 8.480865
_cell_angle_gamma 90.000000
_cell_volume 1910.274513
_symmetry_space_group_name_H-M "P 2/M"
_symmetry_group_IT_number 10
_symmetry_cell_setting 'monoclinic'
loop_
_space_group_symop_operation_xyz
x,y,z
-x,y,-z
-x,-y,-z
x,-y,z
loop_
_atom_site_type_symbol
_atom_site_label
_atom_site_fract_x
_atom_site_fract_y
_atom_site_fract_z
Si Si1 0.763398 0.869225 0.845053
Si Si2 0.523219 0.870553 0.191979
Si Si3 0.872123 0.624587 0.227912
Si Si4 0.897070 0.870030 0.875310
Si Si5 0.587963 0.114913 0.455260
Si Si6 0.301705 0.753146 0.827239
Si Si7 0.383820 0.130543 0.169876
Si Si8 0.000000 0.303370 0.000000
O O1 0.073906 0.835895 0.507353
O O2 0.762191 0.000000 0.846823
O O3 0.643716 0.832417 0.018190
O O4 0.575129 0.835911 0.005632
O O5 0.209819 0.841784 0.532641
O O6 0.529680 0.000000 0.183194
O O7 0.710319 0.841000 0.033240
O O8 0.827165 0.500000 0.285387
O O9 0.582261 0.686652 0.535547
O O10 0.019965 0.631892 0.023225
O O11 0.074168 0.679560 0.046974
O O12 0.879928 0.000000 0.899977
O O13 0.795926 0.806679 0.024730
O O14 0.500000 0.102164 0.500000
O O15 0.359175 0.149746 0.732388
O O16 0.712248 0.000000 0.336729
O O17 0.768529 0.219685 0.259073
O O18 0.384664 0.000000 0.168655
O O19 0.500000 0.165091 0.000000
#
# Coordination Sequence:
#
# PCOD9145372 Si02
#       8
#     4   4   4   4   4   4   4   2
#     4   9  15  23  34  49  71 103 141 183 227 272
#     4   9  17  28  43  61  84 113 148 184 229 278
#     4  11  23  38  56  73  94 119 151 187 224 263
#     4  10  19  32  48  69  92 117 145 184 232 284
#     4  10  19  33  50  73 101 127 149 177 215 272
#     4  11  22  37  53  75  95 121 150 184 229 276
#     4   9  15  21  30  46  70 101 140 186 234 271
#     4  10  20  36  52  76  96 126 152 184 212 268
#
# _framework density 15.704548000000001
#
# number of rings (size 3 to 8) (size 9 to 14) (size 15 to 20)
#    0.000    2.133    1.333    3.200    0.000    4.800 
#    0.000    3.333    0.000    0.000    0.000    0.000 
#    0.000    0.000    0.000    0.000    0.000    0.000 
#
# Total GULP energy -167023.475023 kJ/mol
# GULP energy per Si atom -5567.449167 kJ/mol
# Density = 1.566880 g / cm^3
# Si number density = 15.704548 Si / 1000 Ang^3
#
#
#
# Elastic Constant Matrix: (Units=GPa)
#
#
# Indices 1 2 3 4 5 6 
#
# 1 157.0634 34.5409 93.2216 0.0000 8.4733 0.0000
# 2 34.5409 47.1824 31.1816 0.0000 2.2771 0.0000
# 3 93.2216 31.1816 136.9062 0.0000 3.6899 0.0000
# 4 0.0000 0.0000 0.0000 13.3253 0.0000 -2.5445
# 5 8.4733 2.2771 3.6899 0.0000 35.4364 0.0000
# 6 0.0000 0.0000 0.0000 -2.5445 0.0000 14.7925
#
#
#
# Elastic Compliance Matrix: (Units=1/GPa)
#
#
# Indices 1 2 3 4 5 6 
#
# 1 0.011323 -0.003697 -0.006821 0.000000 -0.001760 0.000000
# 2 -0.003697 0.026193 -0.003437 0.000000 -0.000441 0.000000
# 3 -0.006821 -0.003437 0.012717 0.000000 0.000528 0.000000
# 4 0.000000 0.000000 0.000000 0.077594 0.000000 0.013347
# 5 -0.001760 -0.000441 0.000528 0.000000 0.028614 0.000000
# 6 0.000000 0.000000 0.000000 0.013347 0.000000 0.069898
#
#
# Mechanical properties :
#
#
# Convention : Reuss Voigt Hill
#
# Bulk Modulus (GPa) = 44.79257 73.22671 59.00964
# Shear Modulus (GPa) = 19.10669 24.85803 21.98236
#
# Velocity S-wave (km/s) = 3.49181 3.98283 3.74538
# Velocity P-wave (km/s) = 6.69634 8.23890 7.50734
#
# Compressibility (1/GPa) = 0.02232513
#
# Stress axis : x y z
#
# Youngs Moduli (GPa) = 88.31582 38.17797 78.63465
#
# Poissons Ratio (x) = 0.14113 0.53634
# Poissons Ratio (y) = 0.32648 0.27024
# Poissons Ratio (z) = 0.60237 0.13120
#
# Static dielectric constant tensor:
#      x y z
#    x 1.525270 0.000000 0.018870 
#    y 0.000000 1.538530 0.000000 
#    z 0.018870 0.000000 1.526150 
# 
# From -- ./inp_files/13726.got.cif
#   From: 2010.05.17/outbox.cif.g08.bks.cpg/sg10_7_cif.got.tgz:13726.got - 2010.06.03 11:33:40.
