data_PCOD9145127
_publ_section_title
;
Structure prediction by ZEFSAII (Michael W. Deem and Ramdas Pophale) SiO2 
 PCOD9145127
Probable space group: P 2/M
;
_chemical_formula_sum "Si O2"
_cell_formula_units_Z 21
_cell_length_a 6.984655
_cell_length_b 14.925476
_cell_length_c 7.525674
_cell_angle_alpha 90.000000
_cell_angle_beta 99.503233
_cell_angle_gamma 90.000000
_cell_volume 773.779363
_symmetry_space_group_name_H-M "P 2/M"
_symmetry_group_IT_number 10
_symmetry_cell_setting 'monoclinic'
loop_
_space_group_symop_operation_xyz
x,y,z
-x,y,-z
-x,-y,-z
x,-y,z
loop_
_atom_site_type_symbol
_atom_site_label
_atom_site_fract_x
_atom_site_fract_y
_atom_site_fract_z
Si Si1 0.084621 0.000000 0.709513
Si Si2 0.486696 0.399408 0.282289
Si Si3 0.479135 0.199095 0.278114
Si Si4 0.465968 0.000000 0.282122
Si Si5 0.062302 0.373793 0.697773
Si Si6 0.909539 0.192104 0.174317
Si Si7 0.000000 0.500000 0.000000
O O1 0.316158 0.000000 0.757762
O O2 0.021304 0.907562 0.781266
O O3 0.000000 0.000000 0.500000
O O4 0.500000 0.402106 0.500000
O O5 0.420586 0.500000 0.211484
O O6 0.400810 0.300025 0.223394
O O7 0.708024 0.391088 0.245881
O O8 0.500000 0.199103 0.500000
O O9 0.681409 0.194840 0.196297
O O10 0.386801 0.100126 0.222853
O O11 0.500000 0.000000 0.500000
O O12 0.009524 0.269770 0.689422
O O13 0.000000 0.409473 0.500000
O O14 0.964720 0.423124 0.843484
O O15 0.000000 0.216691 0.000000
#
# Coordination Sequence:
#
# PCOD9145127 Si02
#       7
#     2   4   4   2   4   4   1
#     4  10  19  31  50  79 111 140 173 221 276 326
#     4   9  17  30  50  75 101 139 178 212 265 325
#     4   8  15  27  46  72  96 132 178 213 257 325
#     4   8  14  27  46  69  92 128 179 216 248 322
#     4  11  22  37  58  82 108 143 185 227 271 326
#     4  10  19  33  52  82 109 140 178 226 273 324
#     4  12  22  36  54  82 110 142 180 230 276 316
#
# _framework density 27.139520999999998
#
# number of rings (size 3 to 8) (size 9 to 14) (size 15 to 20)
#    0.000    2.476    1.905    1.143    0.000    0.000 
#    0.000    0.000    0.000    2.286    0.000   69.333 
#    0.000    0.000    0.000    0.000    0.000    0.000 
#
# Total GULP energy -116966.053158 kJ/mol
# GULP energy per Si atom -5569.812055 kJ/mol
# Density = 2.707775 g / cm^3
# Si number density = 27.139521 Si / 1000 Ang^3
#
#
#
# Elastic Constant Matrix: (Units=GPa)
#
#
# Indices 1 2 3 4 5 6 
#
# 1 143.7809 45.6021 10.8735 0.0000 -35.5467 0.0000
# 2 45.6021 362.8974 61.8457 0.0000 -2.5008 0.0000
# 3 10.8735 61.8457 152.5838 0.0000 -17.1473 0.0000
# 4 0.0000 0.0000 0.0000 39.9263 0.0000 -9.2570
# 5 -35.5467 -2.5008 -17.1473 0.0000 20.4068 0.0000
# 6 0.0000 0.0000 0.0000 -9.2570 0.0000 12.7025
#
#
#
# Elastic Compliance Matrix: (Units=1/GPa)
#
#
# Indices 1 2 3 4 5 6 
#
# 1 0.013892 -0.002040 0.002792 0.000000 0.026294 0.000000
# 2 -0.002040 0.003269 -0.001694 0.000000 -0.004577 0.000000
# 3 0.002792 -0.001694 0.008353 0.000000 0.011675 0.000000
# 4 0.000000 0.000000 0.000000 0.030138 0.000000 0.021964
# 5 0.026294 -0.004577 0.011675 0.000000 0.104053 0.000000
# 6 0.000000 0.000000 0.000000 0.021964 0.000000 0.094731
#
#
# Mechanical properties :
#
#
# Convention : Reuss Voigt Hill
#
# Bulk Modulus (GPa) = 42.32017 99.54497 70.93257
# Shear Modulus (GPa) = 18.92521 50.66983 34.79752
#
# Velocity S-wave (km/s) = 2.64357 4.32558 3.58463
# Velocity P-wave (km/s) = 4.99453 7.85533 6.58223
#
# Compressibility (1/GPa) = 0.02362939
#
# Stress axis : x y z
#
# Youngs Moduli (GPa) = 71.98646 305.89175 119.71120
#
# Poissons Ratio (x) = 0.62409 -0.33422
# Poissons Ratio (y) = 0.14687 0.20279
# Poissons Ratio (z) = -0.20098 0.51818
#
# Static dielectric constant tensor:
#      x y z
#    x 2.283990 0.000000 -0.185380 
#    y 0.000000 1.609480 0.000000 
#    z -0.185380 0.000000 2.249300 
# 
# From -- ./inp_files/6763.got.cif
#   From: 2010.05.17/outbox.cif.g08.bks.cpg/sg10_4_cif.got.tgz:6763.got - 2010.06.03 11:33:40.
