data_PCOD9145128
_publ_section_title
;
Structure prediction by ZEFSAII (Michael W. Deem and Ramdas Pophale) SiO2 
 PCOD9145128
Probable space group: P 2/M
;
_chemical_formula_sum "Si O2"
_cell_formula_units_Z 32
_cell_length_a 30.861205
_cell_length_b 8.200146
_cell_length_c 11.373365
_cell_angle_alpha 90.000000
_cell_angle_beta 33.348159
_cell_angle_gamma 90.000000
_cell_volume 1582.227928
_symmetry_space_group_name_H-M "P 2/M"
_symmetry_group_IT_number 10
_symmetry_cell_setting 'monoclinic'
loop_
_space_group_symop_operation_xyz
x,y,z
-x,y,-z
-x,-y,-z
x,-y,z
loop_
_atom_site_type_symbol
_atom_site_label
_atom_site_fract_x
_atom_site_fract_y
_atom_site_fract_z
Si Si1 0.658346 0.310264 0.903906
Si Si2 0.188844 0.307092 0.838498
Si Si3 0.190356 0.300381 0.571345
Si Si4 0.963619 0.807326 0.705032
Si Si5 0.248239 0.808581 0.088489
Si Si6 0.098966 0.693279 0.547617
Si Si7 0.672239 0.805476 0.335814
Si Si8 0.503414 0.697344 0.629405
O O1 0.647553 0.500000 0.897454
O O2 0.722579 0.241902 0.667004
O O3 0.703838 0.294914 0.924727
O O4 0.572143 0.239877 0.125853
O O5 0.175521 0.500000 0.872979
O O6 0.172238 0.246622 0.743926
O O7 0.279058 0.270928 0.667979
O O8 0.128195 0.226706 0.066958
O O9 0.192033 0.500000 0.568191
O O10 0.128161 0.252642 0.610829
O O11 0.000000 0.742317 0.500000
O O12 0.011086 0.731432 0.706910
O O13 0.976931 0.000000 0.676625
O O14 0.156995 0.778307 0.322462
O O15 0.265947 0.000000 0.066092
O O16 0.277348 0.761497 0.894512
O O17 0.111969 0.500000 0.511698
O O18 0.584235 0.746891 0.508516
O O19 0.672240 0.000000 0.348564
O O20 0.500000 0.753497 0.500000
O O21 0.498909 0.500000 0.635897
#
# Coordination Sequence:
#
# PCOD9145128 Si02
#       8
#     4   4   4   4   4   4   4   4
#     4   9  17  33  56  81 112 144 181 230 278 328
#     4  11  23  40  61  81 107 147 194 234 273 328
#     4   8  18  37  59  83 110 145 188 235 280 321
#     4  11  24  41  59  84 120 150 178 223 282 338
#     4  10  19  31  50  79 114 148 181 222 279 338
#     4  10  20  36  60  86 112 145 188 232 275 326
#     4  11  23  36  52  78 116 153 185 227 287 341
#     4  10  19  32  55  87 115 143 187 235 277 330
#
# _framework density 20.224644000000001
#
# number of rings (size 3 to 8) (size 9 to 14) (size 15 to 20)
#    0.000    2.000    1.250    3.375    0.000    6.750 
#    0.000    9.375    0.000    3.750    0.000    0.000 
#    0.000    0.000    0.000    0.000    0.000    0.000 
#
# Total GULP energy -178590.348295 kJ/mol
# GULP energy per Si atom -5580.948384 kJ/mol
# Density = 2.017861 g / cm^3
# Si number density = 20.224644 Si / 1000 Ang^3
#
#
#
# Elastic Constant Matrix: (Units=GPa)
#
#
# Indices 1 2 3 4 5 6 
#
# 1 82.2415 4.0033 46.0090 0.0000 -5.7478 0.0000
# 2 4.0033 16.2226 -0.4805 0.0000 8.9215 0.0000
# 3 46.0090 -0.4805 79.0915 0.0000 -8.8267 0.0000
# 4 0.0000 0.0000 0.0000 22.2647 0.0000 -2.2464
# 5 -5.7478 8.9215 -8.8267 0.0000 33.3290 0.0000
# 6 0.0000 0.0000 0.0000 -2.2464 0.0000 10.4576
#
#
#
# Elastic Compliance Matrix: (Units=1/GPa)
#
#
# Indices 1 2 3 4 5 6 
#
# 1 0.018509 -0.005975 -0.010581 0.000000 0.001989 0.000000
# 2 -0.005975 0.074454 0.001637 0.000000 -0.020526 0.000000
# 3 -0.010581 0.001637 0.019121 0.000000 0.002801 0.000000
# 4 0.000000 0.000000 0.000000 0.045909 0.000000 0.009862
# 5 0.001989 -0.020526 0.002801 0.000000 0.036583 0.000000
# 6 0.000000 0.000000 0.000000 0.009862 0.000000 0.097743
#
#
# Mechanical properties :
#
#
# Convention : Reuss Voigt Hill
#
# Bulk Modulus (GPa) = 12.15859 30.73546 21.44703
# Shear Modulus (GPa) = 14.30321 21.74518 18.02420
#
# Velocity S-wave (km/s) = 2.66224 3.28255 2.98854
# Velocity P-wave (km/s) = 3.93381 5.44030 4.74720
#
# Compressibility (1/GPa) = 0.08224637
#
# Stress axis : x y z
#
# Youngs Moduli (GPa) = 54.02884 13.43116 52.29747
#
# Poissons Ratio (x) = 0.08025 0.55337
# Poissons Ratio (y) = 0.32281 -0.08562
# Poissons Ratio (z) = 0.57169 -0.02199
#
# Static dielectric constant tensor:
#      x y z
#    x 1.715000 0.000000 -0.000020 
#    y 0.000000 1.707930 0.000000 
#    z -0.000020 0.000000 1.738610 
# 
# From -- ./inp_files/58107.got.cif
#   From: 2010.05.17/outbox.cif.g08.bks.cpg/sg10_30_cif.got.tgz:58107.got - 2010.06.03 11:33:40.
