data_PCOD9145727
_publ_section_title
;
Structure prediction by ZEFSAII (Michael W. Deem and Ramdas Pophale) SiO2 
 PCOD9145727
Probable space group: P 2/M
;
_chemical_formula_sum "Si O2"
_cell_formula_units_Z 32
_cell_length_a 22.718213
_cell_length_b 7.785066
_cell_length_c 29.256375
_cell_angle_alpha 90.000000
_cell_angle_beta 161.618887
_cell_angle_gamma 90.000000
_cell_volume 1631.664459
_symmetry_space_group_name_H-M "P 2/M"
_symmetry_group_IT_number 10
_symmetry_cell_setting 'monoclinic'
loop_
_space_group_symop_operation_xyz
x,y,z
-x,y,-z
-x,-y,-z
x,-y,z
loop_
_atom_site_type_symbol
_atom_site_label
_atom_site_fract_x
_atom_site_fract_y
_atom_site_fract_z
Si Si1 0.884221 0.710435 0.059376
Si Si2 0.199601 0.704722 0.662499
Si Si3 0.195728 0.700465 0.361727
Si Si4 0.970769 0.300279 0.928394
Si Si5 0.710347 0.208216 0.167369
Si Si6 0.589861 0.291802 0.914531
Si Si7 0.903724 0.203404 0.219588
Si Si8 0.428276 0.198625 0.398151
O O1 0.888725 0.500000 0.062468
O O2 0.056361 0.764975 0.218925
O O3 0.916455 0.773028 0.031807
O O4 0.695352 0.763088 0.946038
O O5 0.196155 0.500000 0.651527
O O6 0.233371 0.733217 0.740984
O O7 0.381293 0.772778 0.769561
O O8 0.000000 0.776306 0.500000
O O9 0.229361 0.500000 0.378197
O O10 0.394720 0.789715 0.504868
O O11 0.080768 0.719660 0.323809
O O12 0.028685 0.500000 0.974305
O O13 0.753797 0.291608 0.754655
O O14 0.000000 0.221532 0.000000
O O15 0.850411 0.267635 0.230646
O O16 0.709589 0.000000 0.166349
O O17 0.500000 0.265001 0.000000
O O18 0.587829 0.500000 0.913223
O O19 0.723861 0.237141 0.054937
O O20 0.933678 0.000000 0.243946
O O21 0.500000 0.267305 0.500000
O O22 0.375302 0.000000 0.365895
#
# Coordination Sequence:
#
# PCOD9145727 Si02
#       8
#     4   4   4   4   4   4   4   4
#     4   8  15  29  50  75 101 133 174 223 268 318
#     4  10  21  35  52  78 110 144 185 232 275 317
#     4  10  19  33  55  80 108 141 179 223 276 323
#     4  10  20  35  55  79 108 144 187 228 274 328
#     4  10  20  35  54  78 107 141 178 218 271 327
#     4   9  17  31  51  74 102 139 181 221 270 323
#     4  10  19  32  52  79 111 137 173 226 273 323
#     4  11  22  35  54  81 111 143 181 224 274 322
#
# _framework density 19.611877
#
# number of rings (size 3 to 8) (size 9 to 14) (size 15 to 20)
#    0.000    2.250    2.500    1.875    0.000    2.250 
#    0.000    1.250    0.000    3.000    0.000    0.000 
#    0.000    0.000    0.000    0.000    0.000    0.000 
#
# Total GULP energy -178555.695916 kJ/mol
# GULP energy per Si atom -5579.865497 kJ/mol
# Density = 1.956724 g / cm^3
# Si number density = 19.611877 Si / 1000 Ang^3
#
#
#
# Elastic Constant Matrix: (Units=GPa)
#
#
# Indices 1 2 3 4 5 6 
#
# 1 159.0032 -4.9918 62.4298 0.0000 16.2968 0.0000
# 2 -4.9918 28.9363 -9.2961 0.0000 0.0815 0.0000
# 3 62.4298 -9.2961 87.7225 0.0000 8.2184 0.0000
# 4 0.0000 0.0000 0.0000 -4.9436 0.0000 -20.1537
# 5 16.2968 0.0815 8.2184 0.0000 28.7203 0.0000
# 6 0.0000 0.0000 0.0000 -20.1537 0.0000 4.6861
#
#
#
# Elastic Compliance Matrix: (Units=1/GPa)
#
#
# Indices 1 2 3 4 5 6 
#
# 1 0.009041 -0.000411 -0.006162 0.000000 -0.003365 0.000000
# 2 -0.000411 0.035837 0.004190 0.000000 -0.001068 0.000000
# 3 -0.006162 0.004190 0.016341 0.000000 -0.001191 0.000000
# 4 0.000000 0.000000 0.000000 -0.010915 0.000000 -0.046941
# 5 -0.003365 -0.001068 -0.001191 0.000000 0.037072 0.000000
# 6 0.000000 0.000000 0.000000 -0.046941 0.000000 0.011515
#
#
# Mechanical properties :
#
#
# Convention : Reuss Voigt Hill
#
# Bulk Modulus (GPa) = 17.71403 41.32732 29.52068
# Shear Modulus (GPa) = 40.82506 20.86055 30.84281
#
# Velocity S-wave (km/s) = 4.56746 3.26493 3.96998
# Velocity P-wave (km/s) = 6.07186 5.94402 6.00828
#
# Compressibility (1/GPa) = 0.05645243
#
# Stress axis : x y z
#
# Youngs Moduli (GPa) = 110.61048 27.90422 61.19683
#
# Poissons Ratio (x) = 0.01146 0.37711
# Poissons Ratio (y) = 0.04542 -0.25641
# Poissons Ratio (z) = 0.68161 -0.11692
#
# Static dielectric constant tensor:
#      x y z
#    x 1.714960 0.000000 0.023440 
#    y 0.000000 1.710710 0.000000 
#    z 0.023440 0.000000 1.658290 
# 
# From -- ./inp_files/86920.got.cif
#   From: 2010.05.17/outbox.cif.g08.bks.cpg/sg10_44_cif.got.tgz:86920.got - 2010.06.03 11:33:40.
