data_PCOD9145077
_publ_section_title
;
Structure prediction by ZEFSAII (Michael W. Deem and Ramdas Pophale) SiO2 
 PCOD9145077
Probable space group: P 2/M
;
_chemical_formula_sum "Si O2"
_cell_formula_units_Z 32
_cell_length_a 23.234845
_cell_length_b 9.236516
_cell_length_c 29.096780
_cell_angle_alpha 90.000000
_cell_angle_beta 163.322551
_cell_angle_gamma 90.000000
_cell_volume 1792.048827
_symmetry_space_group_name_H-M "P 2/M"
_symmetry_group_IT_number 10
_symmetry_cell_setting 'monoclinic'
loop_
_space_group_symop_operation_xyz
x,y,z
-x,y,-z
-x,-y,-z
x,-y,z
loop_
_atom_site_type_symbol
_atom_site_label
_atom_site_fract_x
_atom_site_fract_y
_atom_site_fract_z
Si Si1 0.605211 0.172914 0.476577
Si Si2 0.815393 0.673446 0.824721
Si Si3 0.839050 0.170418 0.298860
Si Si4 0.267360 0.665266 0.338909
Si Si5 0.249955 0.332011 0.503602
Si Si6 0.469574 0.173531 0.859902
Si Si7 0.308806 0.827712 0.641037
Si Si8 0.773435 0.666691 0.157057
O O1 0.381143 0.237062 0.311711
O O2 0.735388 0.230457 0.619542
O O3 0.689278 0.240137 0.494095
O O4 0.602284 0.000000 0.473433
O O5 0.771341 0.500000 0.793434
O O6 0.854876 0.704454 0.800738
O O7 0.000000 0.703177 0.000000
O O8 0.730892 0.206262 0.263820
O O9 0.747846 0.260632 0.187223
O O10 0.077743 0.192888 0.480535
O O11 0.804099 0.000000 0.263175
O O12 0.500000 0.665540 0.500000
O O13 0.218688 0.500000 0.315395
O O14 0.309191 0.500000 0.543595
O O15 0.340370 0.262131 0.618982
O O16 0.009697 0.326048 0.326303
O O17 0.443763 0.217444 0.787366
O O18 0.494297 0.000000 0.879556
O O19 0.649131 0.248545 0.023890
O O20 0.333823 0.000000 0.651506
O O21 0.711239 0.500000 0.110812
#
# Coordination Sequence:
#
# PCOD9145077 Si02
#       8
#     4   4   4   4   4   4   4   4
#     4  11  21  33  54  80 104 134 172 211 250 292
#     4   9  18  34  56  82 112 143 170 199 242 293
#     4   9  17  31  51  73  98 130 165 201 250 311
#     4   8  15  30  52  77 105 136 169 202 237 283
#     4  10  21  38  55  70  94 132 176 212 249 300
#     4  10  19  31  50  75 101 129 160 201 257 314
#     4   9  18  33  52  74 100 129 166 210 252 300
#     4  10  21  34  49  71  98 129 167 213 255 294
#
# _framework density 17.856656999999998
#
# number of rings (size 3 to 8) (size 9 to 14) (size 15 to 20)
#    0.000    2.500    0.000    3.375    0.000    8.000 
#    0.000    1.250    0.000    5.250    0.000    0.000 
#    0.000    0.000    0.000    0.000    0.000    0.000 
#
# Total GULP energy -178493.328728 kJ/mol
# GULP energy per Si atom -5577.916523 kJ/mol
# Density = 1.781601 g / cm^3
# Si number density = 17.856657 Si / 1000 Ang^3
#
#
#
# Elastic Constant Matrix: (Units=GPa)
#
#
# Indices 1 2 3 4 5 6 
#
# 1 124.5342 67.0443 31.6778 0.0000 -34.5868 0.0000
# 2 67.0443 75.8463 25.6486 0.0000 -18.1755 0.0000
# 3 31.6778 25.6486 40.5000 0.0000 -32.9312 0.0000
# 4 0.0000 0.0000 0.0000 21.1389 0.0000 1.0558
# 5 -34.5868 -18.1755 -32.9312 0.0000 33.7050 0.0000
# 6 0.0000 0.0000 0.0000 1.0558 0.0000 17.8812
#
#
#
# Elastic Compliance Matrix: (Units=1/GPa)
#
#
# Indices 1 2 3 4 5 6 
#
# 1 0.022155 -0.019065 0.023698 0.000000 0.035608 0.000000
# 2 -0.019065 0.033480 -0.036576 0.000000 -0.037245 0.000000
# 3 0.023698 -0.036576 0.160809 0.000000 0.161711 0.000000
# 4 0.000000 0.000000 0.000000 0.047446 0.000000 -0.002802
# 5 0.035608 -0.037245 0.161711 0.000000 0.204122 0.000000
# 6 0.000000 0.000000 0.000000 -0.002802 0.000000 0.056090
#
#
# Mechanical properties :
#
#
# Convention : Reuss Voigt Hill
#
# Bulk Modulus (GPa) = 6.55487 54.40242 30.47865
# Shear Modulus (GPa) = 7.82669 22.31234 15.06952
#
# Velocity S-wave (km/s) = 2.09585 3.53870 2.90817
# Velocity P-wave (km/s) = 3.08797 6.87232 5.32749
#
# Compressibility (1/GPa) = 0.15255826
#
# Stress axis : x y z
#
# Youngs Moduli (GPa) = 45.13692 29.86845 6.21857
#
# Poissons Ratio (x) = 0.56943 -0.14737
# Poissons Ratio (y) = 0.86052 0.22745
# Poissons Ratio (z) = -1.06965 1.09247
#
# Static dielectric constant tensor:
#      x y z
#    x 1.608190 0.000000 -0.005910 
#    y 0.000000 1.595340 0.000000 
#    z -0.005910 0.000000 1.611240 
# 
# From -- ./inp_files/93709.got.cif
#   From: 2010.05.17/outbox.cif.g08.bks.cpg/sg10_47_cif.got.tgz:93709.got - 2010.06.03 11:33:40.
