data_PCOD9145498
_publ_section_title
;
Structure prediction by ZEFSAII (Michael W. Deem and Ramdas Pophale) SiO2 
 PCOD9145498
Probable space group: P 2/M
;
_chemical_formula_sum "Si O2"
_cell_formula_units_Z 26
_cell_length_a 23.494614
_cell_length_b 7.393286
_cell_length_c 9.939209
_cell_angle_alpha 90.000000
_cell_angle_beta 142.433286
_cell_angle_gamma 90.000000
_cell_volume 1052.599108
_symmetry_space_group_name_H-M "P 2/M"
_symmetry_group_IT_number 10
_symmetry_cell_setting 'monoclinic'
loop_
_space_group_symop_operation_xyz
x,y,z
-x,y,-z
-x,-y,-z
x,-y,z
loop_
_atom_site_type_symbol
_atom_site_label
_atom_site_fract_x
_atom_site_fract_y
_atom_site_fract_z
Si Si1 0.812344 0.500000 0.230588
Si Si2 0.794760 0.292395 0.497438
Si Si3 0.357703 0.781048 0.128024
Si Si4 0.563335 0.783553 0.429726
Si Si5 0.399059 0.708634 0.791381
Si Si6 0.053467 0.796091 0.428984
Si Si7 0.079177 0.781682 0.041418
O O1 0.895537 0.657891 0.379682
O O2 0.730297 0.660871 0.074721
O O3 0.798303 0.500000 0.447110
O O4 0.691123 0.215241 0.303300
O O5 0.871473 0.193486 0.554385
O O6 0.828082 0.292427 0.715015
O O7 0.453629 0.732620 0.228741
O O8 0.386105 0.738435 0.336271
O O9 0.342475 0.000000 0.088279
O O10 0.613222 0.709967 0.391802
O O11 0.564761 0.000000 0.424080
O O12 0.403227 0.500000 0.844161
O O13 0.500000 0.794929 0.000000
O O14 0.959032 0.730258 0.176416
O O15 0.041737 0.000000 0.454435
O O16 0.085308 0.000000 0.053805
O O17 0.000000 0.722744 0.000000
#
# Coordination Sequence:
#
# PCOD9145498 Si02
#       7
#     2   4   4   4   4   4   4
#     4  12  22  31  57  83 108 146 171 227 300 321
#     4  10  19  32  50  78 110 152 192 220 266 329
#     4   9  21  38  57  83 107 140 192 235 264 323
#     4   9  20  39  57  76 107 145 190 231 269 317
#     4  10  23  35  51  80 117 148 184 225 264 329
#     4  10  21  34  51  81 115 144 183 227 272 333
#     4   8  16  31  50  71 103 145 184 227 266 319
#
# _framework density 24.700762000000001
#
# number of rings (size 3 to 8) (size 9 to 14) (size 15 to 20)
#    0.000    2.462    0.769    2.769    5.385    3.077 
#    0.000    0.000    0.000    0.000    0.000    2.154 
#    0.000    4.923    0.000    0.000    0.000    0.000 
#
# Total GULP energy -144816.398827 kJ/mol
# GULP energy per Si atom -5569.861493 kJ/mol
# Density = 2.464454 g / cm^3
# Si number density = 24.700762 Si / 1000 Ang^3
#
#
#
# Elastic Constant Matrix: (Units=GPa)
#
#
# Indices 1 2 3 4 5 6 
#
# 1 75.0691 -8.6696 14.6009 0.0000 -10.1193 0.0000
# 2 -8.6696 117.1766 23.8678 0.0000 -20.4954 0.0000
# 3 14.6009 23.8678 73.2546 0.0000 -6.9179 0.0000
# 4 0.0000 0.0000 0.0000 33.8062 0.0000 -13.8341
# 5 -10.1193 -20.4954 -6.9179 0.0000 12.3328 0.0000
# 6 0.0000 0.0000 0.0000 -13.8341 0.0000 -2.2735
#
#
#
# Elastic Compliance Matrix: (Units=1/GPa)
#
#
# Indices 1 2 3 4 5 6 
#
# 1 0.017682 0.005918 -0.003330 0.000000 0.022474 0.000000
# 2 0.005918 0.014340 -0.003318 0.000000 0.026825 0.000000
# 3 -0.003330 -0.003318 0.015435 0.000000 0.000411 0.000000
# 4 0.000000 0.000000 0.000000 0.008476 0.000000 -0.051573
# 5 0.022474 0.026825 0.000411 0.000000 0.144335 0.000000
# 6 0.000000 0.000000 0.000000 -0.051573 0.000000 -0.126029
#
#
# Mechanical properties :
#
#
# Convention : Reuss Voigt Hill
#
# Bulk Modulus (GPa) = 21.74168 36.12207 28.93187
# Shear Modulus (GPa) = 54.92632 24.48650 39.70641
#
# Velocity S-wave (km/s) = 4.72070 3.15195 4.01371
# Velocity P-wave (km/s) = 6.20761 5.28223 5.76352
#
# Compressibility (1/GPa) = 0.04599461
#
# Stress axis : x y z
#
# Youngs Moduli (GPa) = 56.55566 69.73588 64.78887
#
# Poissons Ratio (x) = -0.41266 0.21574
# Poissons Ratio (y) = -0.33467 0.21500
# Poissons Ratio (z) = 0.18833 0.23141
#
# Static dielectric constant tensor:
#      x y z
#    x 2.221570 0.000000 -0.118050 
#    y 0.000000 1.919870 0.000000 
#    z -0.118050 0.000000 2.028540 
# 
# From -- ./inp_files/57507.got.cif
#   From: 2010.05.17/outbox.cif.g08.bks.cpg/sg10_29_cif.got.tgz:57507.got - 2010.06.03 11:33:40.
