data_PCOD9145192
_publ_section_title
;
Structure prediction by ZEFSAII (Michael W. Deem and Ramdas Pophale) SiO2 
 PCOD9145192
Probable space group: P 2/M
;
_chemical_formula_sum "Si O2"
_cell_formula_units_Z 32
_cell_length_a 30.244426
_cell_length_b 8.777232
_cell_length_c 24.113877
_cell_angle_alpha 90.000000
_cell_angle_beta 16.624993
_cell_angle_gamma 90.000000
_cell_volume 1831.460234
_symmetry_space_group_name_H-M "P 2/M"
_symmetry_group_IT_number 10
_symmetry_cell_setting 'monoclinic'
loop_
_space_group_symop_operation_xyz
x,y,z
-x,y,-z
-x,-y,-z
x,-y,z
loop_
_atom_site_type_symbol
_atom_site_label
_atom_site_fract_x
_atom_site_fract_y
_atom_site_fract_z
Si Si1 0.368371 0.680579 0.283149
Si Si2 0.256918 0.182804 0.532426
Si Si3 0.066141 0.682271 0.104964
Si Si4 0.858525 0.184342 0.537637
Si Si5 0.589560 0.683623 0.337557
Si Si6 0.852208 0.183451 0.874298
Si Si7 0.617184 0.176422 0.912109
Si Si8 0.488070 0.183558 0.687389
O O1 0.353130 0.500000 0.305644
O O2 0.332975 0.757029 0.384318
O O3 0.243952 0.744292 0.388366
O O4 0.535287 0.726805 0.057942
O O5 0.364604 0.231861 0.454090
O O6 0.084103 0.247117 0.742512
O O7 0.252038 0.000000 0.536467
O O8 0.052666 0.500000 0.122510
O O9 0.079021 0.743966 0.152342
O O10 0.228567 0.724313 0.880947
O O11 0.035809 0.223886 0.311326
O O12 0.841963 0.000000 0.554417
O O13 0.779704 0.229168 0.690564
O O14 0.500000 0.735651 0.500000
O O15 0.580249 0.500000 0.346142
O O16 0.519950 0.749590 0.364543
O O17 0.858518 0.000000 0.872639
O O18 0.672365 0.227937 0.088893
O O19 0.628360 0.000000 0.916576
O O20 0.500000 0.180121 0.000000
O O21 0.489318 0.000000 0.682169
#
# Coordination Sequence:
#
# PCOD9145192 Si02
#       8
#     4   4   4   4   4   4   4   4
#     4  11  20  28  43  68  97 129 169 210 253 302
#     4  11  21  34  50  71 104 138 168 208 255 296
#     4  10  19  31  51  79 103 129 169 205 240 294
#     4   9  16  27  46  69  95 127 162 206 259 310
#     4   9  19  37  59  81 107 136 163 197 244 296
#     4   9  16  30  51  73  98 128 164 209 258 299
#     4   8  15  27  41  62  93 128 164 202 254 309
#     4   9  20  35  53  78 103 132 171 209 246 294
#
# _framework density 17.472396
#
# number of rings (size 3 to 8) (size 9 to 14) (size 15 to 20)
#    0.000    2.500    1.250    2.625    0.000    4.000 
#    0.000    0.625    0.000    4.500    0.000    5.250 
#    0.000    0.000    0.000    0.000    0.000    0.000 
#
# Total GULP energy -178382.704255 kJ/mol
# GULP energy per Si atom -5574.459508 kJ/mol
# Density = 1.743263 g / cm^3
# Si number density = 17.472396 Si / 1000 Ang^3
#
#
#
# Elastic Constant Matrix: (Units=GPa)
#
#
# Indices 1 2 3 4 5 6 
#
# 1 70.8999 21.8916 60.9775 0.0000 -10.4133 0.0000
# 2 21.8916 24.8270 30.3674 0.0000 -2.4827 0.0000
# 3 60.9775 30.3674 134.6257 0.0000 5.3120 0.0000
# 4 0.0000 0.0000 0.0000 23.6722 0.0000 5.3189
# 5 -10.4133 -2.4827 5.3120 0.0000 27.2271 0.0000
# 6 0.0000 0.0000 0.0000 5.3189 0.0000 38.3693
#
#
#
# Elastic Compliance Matrix: (Units=1/GPa)
#
#
# Indices 1 2 3 4 5 6 
#
# 1 0.028685 -0.010489 -0.011107 0.000000 0.012181 0.000000
# 2 -0.010489 0.061058 -0.009154 0.000000 0.003342 0.000000
# 3 -0.011107 -0.009154 0.014838 0.000000 -0.007978 0.000000
# 4 0.000000 0.000000 0.000000 0.043602 0.000000 -0.006044
# 5 0.012181 0.003342 -0.007978 0.000000 0.043248 0.000000
# 6 0.000000 0.000000 0.000000 -0.006044 0.000000 0.026900
#
#
# Mechanical properties :
#
#
# Convention : Reuss Voigt Hill
#
# Bulk Modulus (GPa) = 23.21190 50.75838 36.98514
# Shear Modulus (GPa) = 16.99564 25.66149 21.32857
#
# Velocity S-wave (km/s) = 3.12222 3.83650 3.49764
# Velocity P-wave (km/s) = 5.12947 6.98131 6.12577
#
# Compressibility (1/GPa) = 0.04308134
#
# Stress axis : x y z
#
# Youngs Moduli (GPa) = 34.86134 16.37777 67.39248
#
# Poissons Ratio (x) = 0.17179 0.74854
# Poissons Ratio (y) = 0.36568 0.61688
# Poissons Ratio (z) = 0.38721 0.14992
#
# Static dielectric constant tensor:
#      x y z
#    x 1.554820 0.000000 -0.001200 
#    y 0.000000 1.585110 0.000000 
#    z -0.001200 0.000000 1.643710 
# 
# From -- ./inp_files/86757.got.cif
#   From: 2010.05.17/outbox.cif.g08.bks.cpg/sg10_44_cif.got.tgz:86757.got - 2010.06.03 11:33:40.
