data_PCOD9145787
_publ_section_title
;
Structure prediction by ZEFSAII (Michael W. Deem and Ramdas Pophale) SiO2 
 PCOD9145787
Probable space group: P 2/M
;
_chemical_formula_sum "Si O2"
_cell_formula_units_Z 28
_cell_length_a 14.718783
_cell_length_b 7.540135
_cell_length_c 17.203429
_cell_angle_alpha 90.000000
_cell_angle_beta 40.292031
_cell_angle_gamma 90.000000
_cell_volume 1234.690073
_symmetry_space_group_name_H-M "P 2/M"
_symmetry_group_IT_number 10
_symmetry_cell_setting 'monoclinic'
loop_
_space_group_symop_operation_xyz
x,y,z
-x,y,-z
-x,-y,-z
x,-y,z
loop_
_atom_site_type_symbol
_atom_site_label
_atom_site_fract_x
_atom_site_fract_y
_atom_site_fract_z
Si Si1 0.041809 0.287798 0.263573
Si Si2 0.716842 0.292579 0.485922
Si Si3 0.038724 0.204616 0.095053
Si Si4 0.314081 0.781621 0.835462
Si Si5 0.281182 0.214509 0.687178
Si Si6 0.141561 0.789879 0.366703
Si Si7 0.584934 0.200434 0.729876
O O1 0.041288 0.500000 0.258088
O O2 0.093514 0.213745 0.147797
O O3 0.125551 0.233905 0.285371
O O4 0.879267 0.229023 0.379609
O O5 0.715463 0.500000 0.506640
O O6 0.662529 0.271130 0.433390
O O7 0.637992 0.194436 0.606023
O O8 0.881434 0.279796 0.200857
O O9 0.019744 0.000000 0.084253
O O10 0.158405 0.278578 0.961120
O O11 0.348339 0.728304 0.724671
O O12 0.430920 0.718176 0.820162
O O13 0.314318 0.000000 0.837374
O O14 0.282545 0.000000 0.684450
O O15 0.287145 0.715600 0.305670
O O16 0.000000 0.716831 0.500000
O O17 0.144160 0.000000 0.383500
O O18 0.565520 0.000000 0.772703
#
# Coordination Sequence:
#
# PCOD9145787 Si02
#       7
#     4   4   4   4   4   4   4
#     4  10  20  33  52  77 103 131 166 208 251 295
#     4  10  20  33  49  74 105 134 167 205 249 298
#     4   9  17  32  55  78 101 129 167 210 247 289
#     4   9  18  33  53  77 101 131 169 208 249 293
#     4   9  17  31  54  78 100 129 168 209 248 291
#     4  10  19  32  53  78 100 127 167 209 250 296
#     4  10  20  34  52  74 103 133 165 206 252 300
#
# _framework density 22.677757
#
# number of rings (size 3 to 8) (size 9 to 14) (size 15 to 20)
#    0.000    2.429    1.429    1.286    0.000    4.286 
#    0.000    5.714    0.000    7.714    0.000    0.000 
#    0.000    0.000    0.000    0.000    0.000    0.000 
#
# Total GULP energy -156333.366837 kJ/mol
# GULP energy per Si atom -5583.334530 kJ/mol
# Density = 2.262614 g / cm^3
# Si number density = 22.677757 Si / 1000 Ang^3
#
#
#
# Elastic Constant Matrix: (Units=GPa)
#
#
# Indices 1 2 3 4 5 6 
#
# 1 130.1629 -10.3651 -0.8079 0.0000 4.1187 0.0000
# 2 -10.3651 62.0511 -8.0871 0.0000 -5.9465 0.0000
# 3 -0.8079 -8.0871 35.2104 0.0000 7.8284 0.0000
# 4 0.0000 0.0000 0.0000 27.1221 0.0000 40.6752
# 5 4.1187 -5.9465 7.8284 0.0000 29.1508 0.0000
# 6 0.0000 0.0000 0.0000 40.6752 0.0000 50.5526
#
#
#
# Elastic Compliance Matrix: (Units=1/GPa)
#
#
# Indices 1 2 3 4 5 6 
#
# 1 0.007823 0.001300 0.000707 0.000000 -0.001030 0.000000
# 2 0.001300 0.017004 0.003409 0.000000 0.002370 0.000000
# 3 0.000707 0.003409 0.030913 0.000000 -0.007706 0.000000
# 4 0.000000 0.000000 0.000000 -0.178389 0.000000 0.143534
# 5 -0.001030 0.002370 -0.007706 0.000000 0.037003 0.000000
# 6 0.000000 0.000000 0.000000 0.143534 0.000000 -0.095708
#
#
# Mechanical properties :
#
#
# Convention : Reuss Voigt Hill
#
# Bulk Modulus (GPa) = 15.02121 20.98934 18.00527
# Shear Modulus (GPa) = -29.41268 37.81073 4.19902
#
# Velocity S-wave (km/s) = -3.60527 4.08769 1.36221
# Velocity P-wave (km/s) = 3.26994 5.61734 3.22971
#
# Compressibility (1/GPa) = 0.06657254
#
# Stress axis : x y z
#
# Youngs Moduli (GPa) = 127.82487 58.80873 32.34868
#
# Poissons Ratio (x) = -0.07647 -0.02288
# Poissons Ratio (y) = -0.16620 -0.11026
# Poissons Ratio (z) = -0.09039 -0.20045
#
# Static dielectric constant tensor:
#      x y z
#    x 1.858850 0.000000 -0.040330 
#    y 0.000000 1.876590 0.000000 
#    z -0.040330 0.000000 1.834400 
# 
# From -- ./inp_files/49078.got.cif
#   From: 2010.05.17/outbox.cif.g08.bks.cpg/sg10_25_cif.got.tgz:49078.got - 2010.06.03 11:33:40.
