data_PCOD9145818
_publ_section_title
;
Structure prediction by ZEFSAII (Michael W. Deem and Ramdas Pophale) SiO2 
 PCOD9145818
Probable space group: P 2/M
;
_chemical_formula_sum "Si O2"
_cell_formula_units_Z 21
_cell_length_a 5.140107
_cell_length_b 7.451932
_cell_length_c 27.323837
_cell_angle_alpha 90.000000
_cell_angle_beta 124.465617
_cell_angle_gamma 90.000000
_cell_volume 862.890022
_symmetry_space_group_name_H-M "P 2/M"
_symmetry_group_IT_number 10
_symmetry_cell_setting 'monoclinic'
loop_
_space_group_symop_operation_xyz
x,y,z
-x,y,-z
-x,-y,-z
x,-y,z
loop_
_atom_site_type_symbol
_atom_site_label
_atom_site_fract_x
_atom_site_fract_y
_atom_site_fract_z
Si Si1 0.888453 0.713649 0.260853
Si Si2 0.589635 0.219429 0.064222
Si Si3 0.419660 0.717274 0.675240
Si Si4 0.500000 0.500000 0.500000
Si Si5 0.350806 0.206204 0.554404
Si Si6 0.285521 0.214553 0.129805
O O1 0.922059 0.500000 0.268420
O O2 0.814338 0.783830 0.307524
O O3 0.584670 0.747248 0.195393
O O4 0.221057 0.778190 0.275074
O O5 0.361010 0.280606 0.083105
O O6 0.948148 0.278983 0.112981
O O7 0.578345 0.000000 0.063431
O O8 0.500000 0.275181 0.000000
O O9 0.406435 0.500000 0.674402
O O10 0.359511 0.775494 0.613515
O O11 0.571238 0.342789 0.548975
O O12 0.000000 0.265612 0.500000
O O13 0.402434 0.000000 0.546451
O O14 0.257585 0.000000 0.123939
#
# Coordination Sequence:
#
# PCOD9145818 Si02
#       6
#     4   4   4   1   4   4
#     4  10  22  38  59  84 116 160 201 243 305 375
#     4   9  17  30  51  79 109 144 188 238 295 357
#     4  10  22  40  62  86 118 161 206 252 312 377
#     4  12  24  44  72  92 136 176 212 268 328 408
#     4  11  26  43  67 100 130 170 219 272 332 391
#     4  10  19  32  53  79 109 144 188 243 296 349
#
# _framework density 24.336821
#
# number of rings (size 3 to 8) (size 9 to 14) (size 15 to 20)
#    0.000    1.905    0.952    2.286    2.667    3.810 
#    0.000    0.000    0.000    3.429    0.000    0.000 
#    0.000    0.000    0.000    0.000    0.000    0.000 
#
# Total GULP energy -117275.762104 kJ/mol
# GULP energy per Si atom -5584.560100 kJ/mol
# Density = 2.428143 g / cm^3
# Si number density = 24.336821 Si / 1000 Ang^3
#
#
#
# Elastic Constant Matrix: (Units=GPa)
#
#
# Indices 1 2 3 4 5 6 
#
# 1 67.6302 12.1781 -23.0265 0.0000 -7.0336 0.0000
# 2 12.1781 84.3800 -13.5947 0.0000 -4.2195 0.0000
# 3 -23.0265 -13.5947 62.5219 0.0000 -5.5349 0.0000
# 4 0.0000 0.0000 0.0000 -114.3386 0.0000 31.7587
# 5 -7.0336 -4.2195 -5.5349 0.0000 45.5352 0.0000
# 6 0.0000 0.0000 0.0000 31.7587 0.0000 -13.9718
#
#
#
# Elastic Compliance Matrix: (Units=1/GPa)
#
#
# Indices 1 2 3 4 5 6 
#
# 1 0.017586 -0.001324 0.006488 0.000000 0.003382 0.000000
# 2 -0.001324 0.012480 0.002336 0.000000 0.001236 0.000000
# 3 0.006488 0.002336 0.019206 0.000000 0.003553 0.000000
# 4 0.000000 0.000000 0.000000 -0.023725 0.000000 -0.053929
# 5 0.003382 0.001236 0.003553 0.000000 0.023030 0.000000
# 6 0.000000 0.000000 0.000000 -0.053929 0.000000 -0.194158
#
#
# Mechanical properties :
#
#
# Convention : Reuss Voigt Hill
#
# Bulk Modulus (GPa) = 15.55861 18.40510 16.98186
# Shear Modulus (GPa) = -35.93057 -0.62335 -18.27696
#
# Velocity S-wave (km/s) = -3.84655 -0.50665 -2.74341
# Velocity P-wave (km/s) = 3.64979 2.69013 1.74416
#
# Compressibility (1/GPa) = 0.06427308
#
# Stress axis : x y z
#
# Youngs Moduli (GPa) = 56.86497 80.12643 52.06588
#
# Poissons Ratio (x) = 0.10605 -0.33782
# Poissons Ratio (y) = 0.07526 -0.12161
# Poissons Ratio (z) = -0.36896 -0.18715
#
# Static dielectric constant tensor:
#      x y z
#    x 2.026680 0.000000 0.058760 
#    y 0.000000 1.922280 0.000000 
#    z 0.058760 0.000000 1.921960 
# 
# From -- ./inp_files/80898.got.cif
#   From: 2010.05.17/outbox.cif.g08.bks.cpg/sg10_41_cif.got.tgz:80898.got - 2010.06.03 11:33:40.
