data_PCOD9145558
_publ_section_title
;
Structure prediction by ZEFSAII (Michael W. Deem and Ramdas Pophale) SiO2 
 PCOD9145558
Probable space group: P 2/M
;
_chemical_formula_sum "Si O2"
_cell_formula_units_Z 32
_cell_length_a 21.644435
_cell_length_b 7.691108
_cell_length_c 12.597755
_cell_angle_alpha 90.000000
_cell_angle_beta 51.606807
_cell_angle_gamma 90.000000
_cell_volume 1643.673041
_symmetry_space_group_name_H-M "P 2/M"
_symmetry_group_IT_number 10
_symmetry_cell_setting 'monoclinic'
loop_
_space_group_symop_operation_xyz
x,y,z
-x,y,-z
-x,-y,-z
x,-y,z
loop_
_atom_site_type_symbol
_atom_site_label
_atom_site_fract_x
_atom_site_fract_y
_atom_site_fract_z
Si Si1 0.793808 0.713435 0.065306
Si Si2 0.379386 0.205651 0.344585
Si Si3 0.972980 0.287528 0.910622
Si Si4 0.296038 0.296421 0.045617
Si Si5 0.262955 0.709350 0.646847
Si Si6 0.465474 0.703295 0.927388
Si Si7 0.243512 0.794409 0.328208
Si Si8 0.873231 0.709616 0.369357
O O1 0.795366 0.500000 0.062687
O O2 0.748147 0.767725 0.220854
O O3 0.884748 0.769584 0.978136
O O4 0.751030 0.776100 0.004538
O O5 0.340918 0.238527 0.500000
O O6 0.464583 0.284270 0.232052
O O7 0.315747 0.273495 0.325214
O O8 0.386281 0.000000 0.322032
O O9 0.972198 0.500000 0.911953
O O10 0.039854 0.231056 0.755950
O O11 0.000000 0.234861 0.000000
O O12 0.307683 0.500000 0.008169
O O13 0.248336 0.282962 0.206287
O O14 0.382769 0.219831 0.976812
O O15 0.259951 0.500000 0.650467
O O16 0.188990 0.770746 0.654083
O O17 0.449230 0.500000 0.967465
O O18 0.500000 0.780792 0.000000
O O19 0.163901 0.761897 0.478912
O O20 0.254160 0.000000 0.306307
O O21 0.873446 0.500000 0.365822
#
# Coordination Sequence:
#
# PCOD9145558 Si02
#       8
#     4   4   4   4   4   4   4   4
#     4   9  17  30  50  77 105 131 161 202 249 296
#     4  10  20  32  50  75 100 127 164 209 249 290
#     4   9  14  25  48  80 107 125 157 205 250 289
#     4  10  20  34  52  74 101 131 165 204 248 297
#     4   9  16  29  50  75 102 130 160 197 246 297
#     4  10  19  32  51  74  98 127 166 209 249 291
#     4  10  20  33  49  71 101 133 166 204 248 294
#     4   9  16  27  50  78 101 127 161 202 246 291
#
# _framework density 19.468591
#
# number of rings (size 3 to 8) (size 9 to 14) (size 15 to 20)
#    0.000    2.500    2.500    0.750    0.000    1.750 
#    0.000    1.875    0.000    9.375    0.000    0.000 
#    0.000    0.000    0.000    0.000    0.000    0.000 
#
# Total GULP energy -178512.308425 kJ/mol
# GULP energy per Si atom -5578.509638 kJ/mol
# Density = 1.942428 g / cm^3
# Si number density = 19.468591 Si / 1000 Ang^3
#
#
#
# Elastic Constant Matrix: (Units=GPa)
#
#
# Indices 1 2 3 4 5 6 
#
# 1 141.2681 6.6942 90.0832 0.0000 3.9764 0.0000
# 2 6.6942 30.1360 -10.1854 0.0000 -0.8869 0.0000
# 3 90.0832 -10.1854 152.0734 0.0000 -1.0370 0.0000
# 4 0.0000 0.0000 0.0000 -97.7387 0.0000 2.8777
# 5 3.9764 -0.8869 -1.0370 0.0000 25.4850 0.0000
# 6 0.0000 0.0000 0.0000 2.8777 0.0000 1.2461
#
#
#
# Elastic Compliance Matrix: (Units=1/GPa)
#
#
# Indices 1 2 3 4 5 6 
#
# 1 0.012282 -0.005386 -0.007652 0.000000 -0.002415 0.000000
# 2 -0.005386 0.036355 0.005641 0.000000 0.002335 0.000000
# 3 -0.007652 0.005641 0.011499 0.000000 0.001858 0.000000
# 4 0.000000 0.000000 0.000000 -0.009580 0.000000 0.022124
# 5 -0.002415 0.002335 0.001858 0.000000 0.039772 0.000000
# 6 0.000000 0.000000 0.000000 0.022124 0.000000 0.751409
#
#
# Mechanical properties :
#
#
# Convention : Reuss Voigt Hill
#
# Bulk Modulus (GPa) = 22.05481 55.18461 38.61971
# Shear Modulus (GPa) = 5.73628 1.59086 3.66357
#
# Velocity S-wave (km/s) = 1.71838 0.90494 1.37327
# Velocity P-wave (km/s) = 3.91026 5.43129 4.73228
#
# Compressibility (1/GPa) = 0.04534159
#
# Stress axis : x y z
#
# Youngs Moduli (GPa) = 81.42187 27.50689 86.96159
#
# Poissons Ratio (x) = 0.14814 0.66547
# Poissons Ratio (y) = 0.43851 -0.49056
# Poissons Ratio (z) = 0.62308 -0.15517
#
# Static dielectric constant tensor:
#      x y z
#    x 1.673990 0.000000 -0.005490 
#    y 0.000000 1.708430 0.000000 
#    z -0.005490 0.000000 1.676670 
# 
# From -- ./inp_files/55183.got.cif
#   From: 2010.05.17/outbox.cif.g08.bks.cpg/sg10_28_cif.got.tgz:55183.got - 2010.06.03 11:33:40.
