data_PCOD9145010
_publ_section_title
;
Structure prediction by ZEFSAII (Michael W. Deem and Ramdas Pophale) SiO2 
 PCOD9145010
Probable space group: P 2/M
;
_chemical_formula_sum "Si O2"
_cell_formula_units_Z 28
_cell_length_a 7.770720
_cell_length_b 15.877413
_cell_length_c 19.285756
_cell_angle_alpha 90.000000
_cell_angle_beta 31.663572
_cell_angle_gamma 90.000000
_cell_volume 1249.049263
_symmetry_space_group_name_H-M "P 2/M"
_symmetry_group_IT_number 10
_symmetry_cell_setting 'monoclinic'
loop_
_space_group_symop_operation_xyz
x,y,z
-x,y,-z
-x,-y,-z
x,-y,z
loop_
_atom_site_type_symbol
_atom_site_label
_atom_site_fract_x
_atom_site_fract_y
_atom_site_fract_z
Si Si1 0.222086 0.908816 0.535807
Si Si2 0.654473 0.407128 0.022835
Si Si3 0.203633 0.691353 0.261711
Si Si4 0.739615 0.870255 0.818088
Si Si5 0.727585 0.273925 0.537032
Si Si6 0.988938 0.907785 0.883217
Si Si7 0.239615 0.723712 0.815142
O O1 0.500000 0.903025 0.500000
O O2 0.259285 0.827558 0.475540
O O3 0.889770 0.902489 0.694712
O O4 0.247573 0.000000 0.492449
O O5 0.799047 0.500000 0.984436
O O6 0.926346 0.334258 0.938184
O O7 0.500000 0.401782 0.000000
O O8 0.343181 0.391278 0.178740
O O9 0.228019 0.769131 0.199525
O O10 0.473274 0.709610 0.228420
O O11 0.854281 0.691734 0.419933
O O12 0.938971 0.901403 0.816982
O O13 0.370965 0.898780 0.959032
O O14 0.382694 0.297350 0.689480
O O15 0.000000 0.299471 0.500000
O O16 0.168411 0.822978 0.843277
O O17 0.126090 0.000000 0.853438
#
# Coordination Sequence:
#
# PCOD9145010 Si02
#       7
#     4   4   4   4   4   4   4
#     4  10  19  31  49  74 108 153 210 252 285 337
#     4  11  24  43  68  94 119 149 188 237 296 359
#     4  10  21  40  63  87 119 157 196 244 298 346
#     4  10  19  34  52  77 114 157 203 251 293 341
#     4   9  21  38  56  81 117 158 191 236 293 344
#     4  11  21  33  53  81 120 163 204 248 294 342
#     4  11  22  39  62  89 123 156 199 244 291 347
#
# _framework density 22.417051000000001
#
# number of rings (size 3 to 8) (size 9 to 14) (size 15 to 20)
#    0.000    1.714    1.429    3.857    0.000    4.286 
#    0.000    8.571    0.000    4.286    0.000    0.000 
#    0.000    0.000    0.000    0.000    0.000    0.000 
#
# Total GULP energy -156517.074498 kJ/mol
# GULP energy per Si atom -5589.895518 kJ/mol
# Density = 2.236603 g / cm^3
# Si number density = 22.417051 Si / 1000 Ang^3
#
#
#
# Elastic Constant Matrix: (Units=GPa)
#
#
# Indices 1 2 3 4 5 6 
#
# 1 39.2820 17.4744 8.0594 0.0000 -2.3853 0.0000
# 2 17.4744 90.0478 33.5684 0.0000 5.5204 0.0000
# 3 8.0594 33.5684 110.5045 0.0000 13.6190 0.0000
# 4 0.0000 0.0000 0.0000 -1.2578 0.0000 -0.0948
# 5 -2.3853 5.5204 13.6190 0.0000 20.3446 0.0000
# 6 0.0000 0.0000 0.0000 -0.0948 0.0000 -12.0372
#
#
#
# Elastic Compliance Matrix: (Units=1/GPa)
#
#
# Indices 1 2 3 4 5 6 
#
# 1 0.028444 -0.005449 -0.001104 0.000000 0.005552 0.000000
# 2 -0.005449 0.013583 -0.003483 0.000000 -0.001993 0.000000
# 3 -0.001104 -0.003483 0.010995 0.000000 -0.006544 0.000000
# 4 0.000000 0.000000 0.000000 -0.795506 0.000000 0.006265
# 5 0.005552 -0.001993 -0.006544 0.000000 0.054726 0.000000
# 6 0.000000 0.000000 0.000000 0.006265 0.000000 -0.083125
#
#
# Mechanical properties :
#
#
# Convention : Reuss Voigt Hill
#
# Bulk Modulus (GPa) = 30.34816 39.78207 35.06511
# Shear Modulus (GPa) = -6.75832 13.45872 3.35020
#
# Velocity S-wave (km/s) = -1.73821 2.45292 1.22382
# Velocity P-wave (km/s) = 3.08851 5.08009 4.20394
#
# Compressibility (1/GPa) = 0.03295093
#
# Stress axis : x y z
#
# Youngs Moduli (GPa) = 35.15628 73.61999 90.95423
#
# Poissons Ratio (x) = 0.40114 0.10038
# Poissons Ratio (y) = 0.19156 0.31682
# Poissons Ratio (z) = 0.03880 0.25644
#
# Static dielectric constant tensor:
#      x y z
#    x 1.829680 0.000000 0.013510 
#    y 0.000000 1.822210 0.000000 
#    z 0.013510 0.000000 1.887570 
# 
# From -- ./inp_files/82887.got.cif
#   From: 2010.05.17/outbox.cif.g08.bks.cpg/sg10_42_cif.got.tgz:82887.got - 2010.06.03 11:33:40.
