data_PCOD9145700
_publ_section_title
;
Structure prediction by ZEFSAII (Michael W. Deem and Ramdas Pophale) SiO2 
 PCOD9145700
Probable space group: P 2/M
;
_chemical_formula_sum "Si O2"
_cell_formula_units_Z 32
_cell_length_a 21.665750
_cell_length_b 7.539107
_cell_length_c 14.066905
_cell_angle_alpha 90.000000
_cell_angle_beta 36.205095
_cell_angle_gamma 90.000000
_cell_volume 1357.195970
_symmetry_space_group_name_H-M "P 2/M"
_symmetry_group_IT_number 10
_symmetry_cell_setting 'monoclinic'
loop_
_space_group_symop_operation_xyz
x,y,z
-x,y,-z
-x,-y,-z
x,-y,z
loop_
_atom_site_type_symbol
_atom_site_label
_atom_site_fract_x
_atom_site_fract_y
_atom_site_fract_z
Si Si1 0.116516 0.202003 0.752714
Si Si2 0.676644 0.210855 0.419236
Si Si3 0.975956 0.785385 0.422764
Si Si4 0.607573 0.702992 0.922160
Si Si5 0.909064 0.215307 0.910749
Si Si6 0.227650 0.299418 0.424667
Si Si7 0.472966 0.704436 0.781749
Si Si8 0.667479 0.214855 0.224758
O O1 0.206288 0.284956 0.708035
O O2 0.181684 0.200345 0.572896
O O3 0.002302 0.278475 0.866435
O O4 0.097706 0.000000 0.808356
O O5 0.589167 0.234305 0.608656
O O6 0.630272 0.271875 0.375922
O O7 0.692280 0.000000 0.391333
O O8 0.869969 0.695151 0.523856
O O9 0.000000 0.736102 0.500000
O O10 0.057653 0.738964 0.238305
O O11 0.963670 0.000000 0.434491
O O12 0.648947 0.500000 0.884957
O O13 0.683972 0.787684 0.749649
O O14 0.500000 0.691791 0.000000
O O15 0.583608 0.785070 0.055056
O O16 0.911504 0.000000 0.915757
O O17 0.789463 0.268937 0.071830
O O18 0.258085 0.500000 0.417272
O O19 0.486804 0.500000 0.790336
O O20 0.399335 0.720334 0.781149
O O21 0.661786 0.000000 0.226036
#
# Coordination Sequence:
#
# PCOD9145700 Si02
#       8
#     4   4   4   4   4   4   4   4
#     4   9  18  35  57  81 111 142 179 224 270 323
#     4  10  21  37  58  82 107 140 182 230 276 319
#     4   9  18  32  51  75 106 142 176 214 262 315
#     4   9  19  35  53  75 105 140 177 218 265 317
#     4   8  16  32  53  79 109 142 177 216 266 320
#     4  10  19  32  52  78 106 139 177 217 263 315
#     4  11  23  38  57  80 108 144 183 224 273 327
#     4  10  21  37  57  81 111 144 181 224 270 321
#
# _framework density 23.578025
#
# number of rings (size 3 to 8) (size 9 to 14) (size 15 to 20)
#    0.000    2.500    0.000    2.625    1.750    4.250 
#    0.000    6.875    0.000    4.500    0.000    5.250 
#    0.000    0.000    0.000    0.000    0.000    0.000 
#
# Total GULP energy -178527.369803 kJ/mol
# GULP energy per Si atom -5578.980306 kJ/mol
# Density = 2.352436 g / cm^3
# Si number density = 23.578025 Si / 1000 Ang^3
#
#
#
# Elastic Constant Matrix: (Units=GPa)
#
#
# Indices 1 2 3 4 5 6 
#
# 1 99.7965 -2.8052 4.3814 0.0000 -1.6644 0.0000
# 2 -2.8052 56.1929 -0.2905 0.0000 2.0496 0.0000
# 3 4.3814 -0.2905 96.8806 0.0000 -9.3774 0.0000
# 4 0.0000 0.0000 0.0000 21.5117 0.0000 18.3919
# 5 -1.6644 2.0496 -9.3774 0.0000 27.7535 0.0000
# 6 0.0000 0.0000 0.0000 18.3919 0.0000 1.5982
#
#
#
# Elastic Compliance Matrix: (Units=1/GPa)
#
#
# Indices 1 2 3 4 5 6 
#
# 1 0.010059 0.000484 -0.000412 0.000000 0.000428 0.000000
# 2 0.000484 0.017868 -0.000096 0.000000 -0.001323 0.000000
# 3 -0.000412 -0.000096 0.010688 0.000000 0.003594 0.000000
# 4 0.000000 0.000000 0.000000 -0.005259 0.000000 0.060523
# 5 0.000428 -0.001323 0.003594 0.000000 0.037369 0.000000
# 6 0.000000 0.000000 0.000000 0.060523 0.000000 -0.070790
#
#
# Mechanical properties :
#
#
# Convention : Reuss Voigt Hill
#
# Bulk Modulus (GPa) = 25.92876 28.38237 27.15556
# Shear Modulus (GPa) = 389.43620 26.94498 208.19059
#
# Velocity S-wave (km/s) = 12.86576 3.38420 9.40693
# Velocity P-wave (km/s) = 15.22250 5.22821 11.38110
#
# Compressibility (1/GPa) = 0.03856722
#
# Stress axis : x y z
#
# Youngs Moduli (GPa) = 99.41113 55.96665 93.56127
#
# Poissons Ratio (x) = -0.02711 0.03855
# Poissons Ratio (y) = -0.04816 0.00902
# Poissons Ratio (z) = 0.04096 0.00539
#
# Static dielectric constant tensor:
#      x y z
#    x 1.913420 0.000000 0.041290 
#    y 0.000000 1.912810 0.000000 
#    z 0.041290 0.000000 1.948930 
# 
# From -- ./inp_files/71469.got.cif
#   From: 2010.05.17/outbox.cif.g08.bks.cpg/sg10_36_cif.got.tgz:71469.got - 2010.06.03 11:33:40.
