data_PCOD9145617
_publ_section_title
;
Structure prediction by ZEFSAII (Michael W. Deem and Ramdas Pophale) SiO2 
 PCOD9145617
Probable space group: P 2/M
;
_chemical_formula_sum "Si O2"
_cell_formula_units_Z 32
_cell_length_a 26.835263
_cell_length_b 8.460225
_cell_length_c 17.366996
_cell_angle_alpha 90.000000
_cell_angle_beta 156.835701
_cell_angle_gamma 90.000000
_cell_volume 1551.003356
_symmetry_space_group_name_H-M "P 2/M"
_symmetry_group_IT_number 10
_symmetry_cell_setting 'monoclinic'
loop_
_space_group_symop_operation_xyz
x,y,z
-x,y,-z
-x,-y,-z
x,-y,z
loop_
_atom_site_type_symbol
_atom_site_label
_atom_site_fract_x
_atom_site_fract_y
_atom_site_fract_z
Si Si1 0.122249 0.685426 0.535440
Si Si2 0.729823 0.812506 0.618601
Si Si3 0.490913 0.808003 0.812975
Si Si4 0.304477 0.814076 0.674246
Si Si5 0.189519 0.687406 0.113643
Si Si6 0.145096 0.812214 0.887713
Si Si7 0.769937 0.191521 0.160695
Si Si8 0.101143 0.312869 0.266253
O O1 0.101094 0.500000 0.500951
O O2 0.251249 0.729897 0.673941
O O3 0.134067 0.742830 0.639618
O O4 0.003729 0.769925 0.326708
O O5 0.606628 0.765593 0.393904
O O6 0.847033 0.722059 0.745296
O O7 0.748116 0.000000 0.635274
O O8 0.723857 0.769976 0.699553
O O9 0.430253 0.756245 0.808304
O O10 0.493063 0.000000 0.819649
O O11 0.630636 0.755312 0.989726
O O12 0.193985 0.784909 0.453960
O O13 0.317952 0.000000 0.710321
O O14 0.201009 0.500000 0.138375
O O15 0.208455 0.735359 0.052253
O O16 0.043886 0.732674 0.926846
O O17 0.200519 0.758471 0.884278
O O18 0.159436 0.000000 0.913590
O O19 0.775605 0.000000 0.171151
O O20 0.114087 0.500000 0.302107
#
# Coordination Sequence:
#
# PCOD9145617 Si02
#       8
#     4   4   4   4   4   4   4   4
#     4  12  24  38  58  87 121 151 183 233 294 349
#     4  10  20  34  56  84 114 152 194 234 277 336
#     4   8  18  38  61  85 114 149 192 240 285 327
#     4  10  19  34  59  87 116 152 191 233 281 339
#     4  11  22  35  54  82 118 154 187 233 289 340
#     4  11  23  39  62  87 112 147 194 242 285 338
#     4  10  22  42  64  84 109 148 197 243 285 336
#     4  10  19  32  51  80 118 155 186 227 287 341
#
# _framework density 20.631806999999998
#
# number of rings (size 3 to 8) (size 9 to 14) (size 15 to 20)
#    0.000    1.750    1.250    4.500    0.000    6.000 
#    0.000    6.875    0.000    3.750    0.000    0.000 
#    0.000    0.000    0.000    0.000    0.000    0.000 
#
# Total GULP energy -178838.282984 kJ/mol
# GULP energy per Si atom -5588.696343 kJ/mol
# Density = 2.058485 g / cm^3
# Si number density = 20.631807 Si / 1000 Ang^3
#
#
#
# Elastic Constant Matrix: (Units=GPa)
#
#
# Indices 1 2 3 4 5 6 
#
# 1 112.2945 -2.1326 26.2080 0.0000 -15.4600 0.0000
# 2 -2.1326 17.9781 -0.4172 0.0000 -0.8845 0.0000
# 3 26.2080 -0.4172 41.2343 0.0000 -9.4759 0.0000
# 4 0.0000 0.0000 0.0000 89.7096 0.0000 -49.4772
# 5 -15.4600 -0.8845 -9.4759 0.0000 35.6432 0.0000
# 6 0.0000 0.0000 0.0000 -49.4772 0.0000 31.2872
#
#
#
# Elastic Compliance Matrix: (Units=1/GPa)
#
#
# Indices 1 2 3 4 5 6 
#
# 1 0.010785 0.001289 -0.006134 0.000000 0.003079 0.000000
# 2 0.001289 0.055879 0.000206 0.000000 0.002000 0.000000
# 3 -0.006134 0.000206 0.029335 0.000000 0.005143 0.000000
# 4 0.000000 0.000000 0.000000 0.087207 0.000000 0.137908
# 5 0.003079 0.002000 0.005143 0.000000 0.030808 0.000000
# 6 0.000000 0.000000 0.000000 0.137908 0.000000 0.250048
#
#
# Mechanical properties :
#
#
# Convention : Reuss Voigt Hill
#
# Bulk Modulus (GPa) = 11.53139 24.31369 17.92254
# Shear Modulus (GPa) = 9.95523 41.18458 25.56990
#
# Velocity S-wave (km/s) = 2.19901 4.47270 3.52425
# Velocity P-wave (km/s) = 3.47114 6.20351 5.02655
#
# Compressibility (1/GPa) = 0.08671979
#
# Stress axis : x y z
#
# Youngs Moduli (GPa) = 92.71959 17.89573 34.08951
#
# Poissons Ratio (x) = -0.02306 0.20911
# Poissons Ratio (y) = -0.11947 -0.00703
# Poissons Ratio (z) = 0.56877 -0.00369
#
# Static dielectric constant tensor:
#      x y z
#    x 1.771610 0.000000 -0.006000 
#    y 0.000000 1.690980 0.000000 
#    z -0.006000 0.000000 1.727500 
# 
# From -- ./inp_files/71673.got.cif
#   From: 2010.05.17/outbox.cif.g08.bks.cpg/sg10_36_cif.got.tgz:71673.got - 2010.06.03 11:33:40.
