data_PCOD9145253
_publ_section_title
;
Structure prediction by ZEFSAII (Michael W. Deem and Ramdas Pophale) SiO2 
 PCOD9145253
Probable space group: P 2/M
;
_chemical_formula_sum "Si O2"
_cell_formula_units_Z 24
_cell_length_a 15.466684
_cell_length_b 7.428096
_cell_length_c 15.055584
_cell_angle_alpha 90.000000
_cell_angle_beta 138.877062
_cell_angle_gamma 90.000000
_cell_volume 1137.587732
_symmetry_space_group_name_H-M "P 2/M"
_symmetry_group_IT_number 10
_symmetry_cell_setting 'monoclinic'
loop_
_space_group_symop_operation_xyz
x,y,z
-x,y,-z
-x,-y,-z
x,-y,z
loop_
_atom_site_type_symbol
_atom_site_label
_atom_site_fract_x
_atom_site_fract_y
_atom_site_fract_z
Si Si1 0.387307 0.717989 0.152728
Si Si2 0.113400 0.716151 0.853453
Si Si3 0.621812 0.210394 0.648086
Si Si4 0.912517 0.213737 0.851126
Si Si5 0.416985 0.280530 0.848769
Si Si6 0.119840 0.720110 0.655283
O O1 0.385823 0.500000 0.151759
O O2 0.400874 0.777799 0.264253
O O3 0.504322 0.775996 0.178020
O O4 0.248017 0.780177 0.004078
O O5 0.123217 0.500000 0.857250
O O6 0.101783 0.778873 0.743285
O O7 0.990882 0.761114 0.820845
O O8 0.500000 0.290384 0.500000
O O9 0.765407 0.288892 0.738234
O O10 0.628599 0.000000 0.627672
O O11 0.900543 0.000000 0.858072
O O12 0.000000 0.287819 0.000000
O O13 0.416628 0.500000 0.849578
O O14 0.265415 0.223446 0.736654
O O15 0.500000 0.224874 0.000000
O O16 0.119415 0.500000 0.654170
O O17 0.000000 0.778559 0.500000
#
# Coordination Sequence:
#
# PCOD9145253 Si02
#       6
#     4   4   4   4   4   4
#     4  10  19  31  53  81 104 132 172 214 253 295
#     4  10  19  31  52  81 106 132 170 215 255 291
#     4  10  22  39  55  73 102 137 170 209 259 310
#     4  10  20  35  55  76  98 134 177 208 249 311
#     4   9  15  27  47  70  99 134 167 199 244 302
#     4   9  17  29  46  72 105 135 165 204 250 300
#
# _framework density 21.097273999999999
#
# number of rings (size 3 to 8) (size 9 to 14) (size 15 to 20)
#    0.000    2.333    3.333    0.000    0.000    2.667 
#    0.000    1.667    0.000    2.000    0.000    0.000 
#    0.000    0.000    0.000    0.000    0.000    0.000 
#
# Total GULP energy -134068.941528 kJ/mol
# GULP energy per Si atom -5586.205897 kJ/mol
# Density = 2.104926 g / cm^3
# Si number density = 21.097274 Si / 1000 Ang^3
#
#
#
# Elastic Constant Matrix: (Units=GPa)
#
#
# Indices 1 2 3 4 5 6 
#
# 1 196.7157 -14.5935 120.9496 0.0000 28.0611 0.0000
# 2 -14.5935 64.9786 4.6033 0.0000 9.2833 0.0000
# 3 120.9496 4.6033 225.1886 0.0000 19.7759 0.0000
# 4 0.0000 0.0000 0.0000 -9.5033 0.0000 -13.6002
# 5 28.0611 9.2833 19.7759 0.0000 31.7153 0.0000
# 6 0.0000 0.0000 0.0000 -13.6002 0.0000 28.4834
#
#
#
# Elastic Compliance Matrix: (Units=1/GPa)
#
#
# Indices 1 2 3 4 5 6 
#
# 1 0.008797 0.003142 -0.004258 0.000000 -0.006048 0.000000
# 2 0.003142 0.017185 -0.001431 0.000000 -0.006917 0.000000
# 3 -0.004258 -0.001431 0.006760 0.000000 -0.000028 0.000000
# 4 0.000000 0.000000 0.000000 -0.062511 0.000000 -0.029848
# 5 -0.006048 -0.006917 -0.000028 0.000000 0.038924 0.000000
# 6 0.000000 0.000000 0.000000 -0.029848 0.000000 0.020856
#
#
# Mechanical properties :
#
#
# Convention : Reuss Voigt Hill
#
# Bulk Modulus (GPa) = 36.17123 78.75575 57.46349
# Shear Modulus (GPa) = 112.80980 35.20066 74.00523
#
# Velocity S-wave (km/s) = 7.32034 4.08915 5.92910
# Velocity P-wave (km/s) = 9.41446 7.72695 8.61213
#
# Compressibility (1/GPa) = 0.02764628
#
# Stress axis : x y z
#
# Youngs Moduli (GPa) = 113.66959 58.19066 147.93850
#
# Poissons Ratio (x) = -0.18281 0.62995
# Poissons Ratio (y) = -0.35710 0.21172
# Poissons Ratio (z) = 0.48403 0.08328
#
# Static dielectric constant tensor:
#      x y z
#    x 1.717550 0.000000 0.024260 
#    y 0.000000 1.795140 0.000000 
#    z 0.024260 0.000000 1.739770 
# 
# From -- ./inp_files/32258.got.cif
#   From: 2010.05.17/outbox.cif.g08.bks.cpg/sg10_17_cif.got.tgz:32258.got - 2010.06.03 11:33:40.
