data_PCOD9145784
_publ_section_title
;
Structure prediction by ZEFSAII (Michael W. Deem and Ramdas Pophale) SiO2 
 PCOD9145784
Probable space group: P 2/M
;
_chemical_formula_sum "Si O2"
_cell_formula_units_Z 28
_cell_length_a 9.374449
_cell_length_b 9.190643
_cell_length_c 30.228590
_cell_angle_alpha 90.000000
_cell_angle_beta 141.811296
_cell_angle_gamma 90.000000
_cell_volume 1610.186147
_symmetry_space_group_name_H-M "P 2/M"
_symmetry_group_IT_number 10
_symmetry_cell_setting 'monoclinic'
loop_
_space_group_symop_operation_xyz
x,y,z
-x,y,-z
-x,-y,-z
x,-y,z
loop_
_atom_site_type_symbol
_atom_site_label
_atom_site_fract_x
_atom_site_fract_y
_atom_site_fract_z
Si Si1 0.399301 0.833066 0.289830
Si Si2 0.730604 0.673258 0.431147
Si Si3 0.148319 0.327183 0.992661
Si Si4 0.570451 0.824880 0.567024
Si Si5 0.691169 0.327344 0.134470
Si Si6 0.981845 0.832895 0.723873
Si Si7 0.988941 0.174988 0.130844
O O1 0.608525 0.735040 0.357302
O O2 0.210371 0.831184 0.283671
O O3 0.247718 0.787220 0.210739
O O4 0.475879 0.000000 0.303126
O O5 0.702910 0.500000 0.425932
O O6 0.598111 0.745885 0.439914
O O7 0.000000 0.709267 0.500000
O O8 0.122880 0.500000 0.976805
O O9 0.064483 0.235844 0.930323
O O10 0.418625 0.299705 0.067268
O O11 0.000000 0.293920 0.000000
O O12 0.500000 0.789732 0.500000
O O13 0.833845 0.787079 0.645007
O O14 0.551356 0.000000 0.568520
O O15 0.730755 0.500000 0.140208
O O16 0.811527 0.246532 0.122486
O O17 0.813673 0.266953 0.208536
O O18 0.060159 0.000000 0.738011
O O19 0.968191 0.000000 0.128026
#
# Coordination Sequence:
#
# PCOD9145784 Si02
#       7
#     4   4   4   4   4   4   4
#     4   8  16  31  50  72  97 127 164 203 244 290
#     4  10  20  32  48  74 104 132 165 204 245 289
#     4  10  22  38  52  70 101 137 167 197 240 295
#     4   9  18  33  52  73  98 131 168 203 245 296
#     4  10  19  32  53  77  98 127 167 204 243 293
#     4   8  15  29  49  73  99 125 160 207 249 286
#     4  10  20  34  54  79 101 123 161 210 250 288
#
# _framework density 17.389294
#
# number of rings (size 3 to 8) (size 9 to 14) (size 15 to 20)
#    0.000    2.714    0.000    3.429    0.000   10.286 
#    0.000    1.429    0.000    6.857    0.000    0.000 
#    0.000    0.000    0.000    0.000    0.000    0.000 
#
# Total GULP energy -156079.400518 kJ/mol
# GULP energy per Si atom -5574.264304 kJ/mol
# Density = 1.734972 g / cm^3
# Si number density = 17.389294 Si / 1000 Ang^3
#
#
#
# Elastic Constant Matrix: (Units=GPa)
#
#
# Indices 1 2 3 4 5 6 
#
# 1 55.8556 45.5167 69.0200 0.0000 -0.7828 0.0000
# 2 45.5167 67.8791 89.1340 0.0000 3.5767 0.0000
# 3 69.0200 89.1340 194.2402 0.0000 -9.3807 0.0000
# 4 0.0000 0.0000 0.0000 30.7181 0.0000 15.2608
# 5 -0.7828 3.5767 -9.3807 0.0000 21.5306 0.0000
# 6 0.0000 0.0000 0.0000 15.2608 0.0000 -68.3821
#
#
#
# Elastic Compliance Matrix: (Units=1/GPa)
#
#
# Indices 1 2 3 4 5 6 
#
# 1 0.041482 -0.022253 -0.004369 0.000000 0.003301 0.000000
# 2 -0.022253 0.053553 -0.017504 0.000000 -0.017332 0.000000
# 3 -0.004369 -0.017504 0.015185 0.000000 0.009365 0.000000
# 4 0.000000 0.000000 0.000000 0.029305 0.000000 0.006540
# 5 0.003301 -0.017332 0.009365 0.000000 0.053525 0.000000
# 6 0.000000 0.000000 0.000000 0.006540 0.000000 -0.013164
#
#
# Mechanical properties :
#
#
# Convention : Reuss Voigt Hill
#
# Bulk Modulus (GPa) = 45.52148 80.59069 63.05608
# Shear Modulus (GPa) = 18.15136 4.39359 11.27248
#
# Velocity S-wave (km/s) = 3.23433 1.59126 2.54882
# Velocity P-wave (km/s) = 6.33897 7.05845 6.70836
#
# Compressibility (1/GPa) = 0.02196765
#
# Stress axis : x y z
#
# Youngs Moduli (GPa) = 24.10669 18.67324 65.85257
#
# Poissons Ratio (x) = 0.41554 0.28771
# Poissons Ratio (y) = 0.53645 1.15270
# Poissons Ratio (z) = 0.10532 0.32686
#
# Static dielectric constant tensor:
#      x y z
#    x 1.566790 0.000000 -0.011800 
#    y 0.000000 1.580410 0.000000 
#    z -0.011800 0.000000 1.620740 
# 
# From -- ./inp_files/94544.got.cif
#   From: 2010.05.17/outbox.cif.g08.bks.cpg/sg10_48_cif.got.tgz:94544.got - 2010.06.03 11:33:40.
