data_PCOD9145259
_publ_section_title
;
Structure prediction by ZEFSAII (Michael W. Deem and Ramdas Pophale) SiO2 
 PCOD9145259
Probable space group: P 2/M
;
_chemical_formula_sum "Si O2"
_cell_formula_units_Z 28
_cell_length_a 7.881455
_cell_length_b 15.800682
_cell_length_c 13.835750
_cell_angle_alpha 90.000000
_cell_angle_beta 134.062671
_cell_angle_gamma 90.000000
_cell_volume 1238.111586
_symmetry_space_group_name_H-M "P 2/M"
_symmetry_group_IT_number 10
_symmetry_cell_setting 'monoclinic'
loop_
_space_group_symop_operation_xyz
x,y,z
-x,y,-z
-x,-y,-z
x,-y,z
loop_
_atom_site_type_symbol
_atom_site_label
_atom_site_fract_x
_atom_site_fract_y
_atom_site_fract_z
Si Si1 0.744073 0.696671 0.061090
Si Si2 0.833228 0.872443 0.021334
Si Si3 0.619410 0.725305 0.347560
Si Si4 0.717846 0.405640 0.880121
Si Si5 0.044368 0.278304 0.357183
Si Si6 0.598846 0.091689 0.277158
Si Si7 0.963853 0.909455 0.689754
O O1 0.849391 0.770709 0.036481
O O2 0.933390 0.677884 0.219111
O O3 0.500000 0.738691 0.000000
O O4 0.652864 0.617697 0.964134
O O5 0.904638 0.906621 0.154322
O O6 0.575854 0.897838 0.882943
O O7 0.000000 0.900959 0.000000
O O8 0.403667 0.666076 0.232315
O O9 0.742696 0.689756 0.492575
O O10 0.559618 0.825580 0.327374
O O11 0.818474 0.724377 0.340960
O O12 0.645770 0.500000 0.822849
O O13 0.000000 0.401710 0.000000
O O14 0.134016 0.185309 0.358839
O O15 0.856083 0.090245 0.330128
O O16 0.555891 0.000000 0.306701
O O17 0.833604 0.000000 0.634125
#
# Coordination Sequence:
#
# PCOD9145259 Si02
#       7
#     4   4   4   4   4   4   4
#     4  11  19  38  63  90 116 154 198 249 299 356
#     4  11  20  30  51  81 114 157 204 252 300 348
#     4  10  19  38  59  87 125 158 193 255 302 354
#     4  11  24  42  66  93 121 156 197 241 299 365
#     4   9  19  34  60  89 118 157 203 245 306 353
#     4  10  19  31  52  81 113 157 204 247 298 352
#     4   9  18  32  50  77 116 157 203 253 297 346
#
# _framework density 22.615085000000001
#
# number of rings (size 3 to 8) (size 9 to 14) (size 15 to 20)
#    0.000    1.857    2.857    3.000    0.000    3.143 
#    0.000    5.714    0.000    1.714    0.000    3.000 
#    0.000    0.000    0.000    0.000    0.000    0.000 
#
# Total GULP energy -156138.419622 kJ/mol
# GULP energy per Si atom -5576.372129 kJ/mol
# Density = 2.256361 g / cm^3
# Si number density = 22.615085 Si / 1000 Ang^3
#
#
#
# Elastic Constant Matrix: (Units=GPa)
#
#
# Indices 1 2 3 4 5 6 
#
# 1 39.3894 8.2355 4.6405 0.0000 -1.2554 0.0000
# 2 8.2355 90.6785 26.5066 0.0000 12.5876 0.0000
# 3 4.6405 26.5066 135.0711 0.0000 -6.7272 0.0000
# 4 0.0000 0.0000 0.0000 1.0797 0.0000 -6.5370
# 5 -1.2554 12.5876 -6.7272 0.0000 9.0739 0.0000
# 6 0.0000 0.0000 0.0000 -6.5370 0.0000 -10.3175
#
#
#
# Elastic Compliance Matrix: (Units=1/GPa)
#
#
# Indices 1 2 3 4 5 6 
#
# 1 0.026424 -0.003736 0.000276 0.000000 0.009042 0.000000
# 2 -0.003736 0.016315 -0.004388 0.000000 -0.026403 0.000000
# 3 0.000276 -0.004388 0.008889 0.000000 0.012716 0.000000
# 4 0.000000 0.000000 0.000000 0.191520 0.000000 -0.121344
# 5 0.009042 -0.026403 0.012716 0.000000 0.157512 0.000000
# 6 0.000000 0.000000 0.000000 -0.121344 0.000000 -0.020042
#
#
# Mechanical properties :
#
#
# Convention : Reuss Voigt Hill
#
# Bulk Modulus (GPa) = 27.83101 38.21159 33.02130
# Shear Modulus (GPa) = 12.24614 15.01765 13.63189
#
# Velocity S-wave (km/s) = 2.32955 2.57972 2.45782
# Velocity P-wave (km/s) = 4.42367 5.08001 4.76315
#
# Compressibility (1/GPa) = 0.03593114
#
# Stress axis : x y z
#
# Youngs Moduli (GPa) = 37.84396 61.29233 112.50458
#
# Poissons Ratio (x) = 0.22897 -0.03101
# Poissons Ratio (y) = 0.14137 0.49372
# Poissons Ratio (z) = -0.01043 0.26898
#
# Static dielectric constant tensor:
#      x y z
#    x 2.088870 0.000000 0.054040 
#    y 0.000000 1.859050 0.000000 
#    z 0.054040 0.000000 1.843070 
# 
# From -- ./inp_files/62364.got.cif
#   From: 2010.05.17/outbox.cif.g08.bks.cpg/sg10_32_cif.got.tgz:62364.got - 2010.06.03 11:33:40.
