data_PCOD9145266
_publ_section_title
;
Structure prediction by ZEFSAII (Michael W. Deem and Ramdas Pophale) SiO2 
 PCOD9145266
Probable space group: P 2/M
;
_chemical_formula_sum "Si O2"
_cell_formula_units_Z 32
_cell_length_a 32.309142
_cell_length_b 7.799134
_cell_length_c 12.665295
_cell_angle_alpha 90.000000
_cell_angle_beta 151.480682
_cell_angle_gamma 90.000000
_cell_volume 1523.770624
_symmetry_space_group_name_H-M "P 2/M"
_symmetry_group_IT_number 10
_symmetry_cell_setting 'monoclinic'
loop_
_space_group_symop_operation_xyz
x,y,z
-x,y,-z
-x,-y,-z
x,-y,z
loop_
_atom_site_type_symbol
_atom_site_label
_atom_site_fract_x
_atom_site_fract_y
_atom_site_fract_z
Si Si1 0.300710 0.293468 0.197149
Si Si2 0.322074 0.290030 0.868295
Si Si3 0.001116 0.707240 0.624177
Si Si4 0.183583 0.200997 0.136341
Si Si5 0.287574 0.300495 0.550093
Si Si6 0.445507 0.196079 0.779568
Si Si7 0.811933 0.290471 0.255562
Si Si8 0.488375 0.693392 0.651334
O O1 0.308202 0.500000 0.208194
O O2 0.253139 0.255192 0.201351
O O3 0.399921 0.226241 0.405850
O O4 0.238323 0.235215 0.963062
O O5 0.326637 0.500000 0.877923
O O6 0.301728 0.238487 0.701692
O O7 0.244329 0.237128 0.770209
O O8 0.414727 0.230408 0.124265
O O9 0.000100 0.500000 0.619752
O O10 0.000000 0.766259 0.500000
O O11 0.911446 0.765873 0.476361
O O12 0.088851 0.759188 0.878151
O O13 0.198609 0.285416 0.285237
O O14 0.191290 0.000000 0.167410
O O15 0.312883 0.500000 0.606294
O O16 0.350201 0.199098 0.612115
O O17 0.461032 0.309057 0.713051
O O18 0.471303 0.000000 0.812218
O O19 0.500000 0.261526 0.000000
O O20 0.812027 0.500000 0.254515
O O21 0.497505 0.500000 0.628910
#
# Coordination Sequence:
#
# PCOD9145266 Si02
#       8
#     4   4   4   4   4   4   4   4
#     4  10  19  33  56  85 116 150 183 228 282 335
#     4   9  19  34  54  83 114 151 194 235 272 324
#     4  10  19  36  63  89 112 144 183 231 286 338
#     4  12  24  36  55  86 119 145 180 236 293 342
#     4  11  21  35  56  80 112 150 193 237 282 328
#     4  11  21  31  48  77 111 148 190 234 280 326
#     4   9  18  35  58  84 115 145 186 234 281 335
#     4  10  19  31  52  82 115 151 190 229 274 326
#
# _framework density 21.000534999999999
#
# number of rings (size 3 to 8) (size 9 to 14) (size 15 to 20)
#    0.000    1.750    3.750    1.875    0.000    1.250 
#    0.000    3.125    0.000    8.250    0.000    1.750 
#    0.000    0.000    0.000    0.000    0.000    0.000 
#
# Total GULP energy -178502.956301 kJ/mol
# GULP energy per Si atom -5578.217384 kJ/mol
# Density = 2.095274 g / cm^3
# Si number density = 21.000535 Si / 1000 Ang^3
#
#
#
# Elastic Constant Matrix: (Units=GPa)
#
#
# Indices 1 2 3 4 5 6 
#
# 1 90.9677 2.3454 46.3403 0.0000 21.3319 0.0000
# 2 2.3454 38.5880 -0.2523 0.0000 2.3225 0.0000
# 3 46.3403 -0.2523 159.4973 0.0000 19.2945 0.0000
# 4 0.0000 0.0000 0.0000 -0.0104 0.0000 6.6285
# 5 21.3319 2.3225 19.2945 0.0000 33.5706 0.0000
# 6 0.0000 0.0000 0.0000 6.6285 0.0000 -23.5996
#
#
#
# Elastic Compliance Matrix: (Units=1/GPa)
#
#
# Indices 1 2 3 4 5 6 
#
# 1 0.014379 -0.000462 -0.003307 0.000000 -0.007204 0.000000
# 2 -0.000462 0.026049 0.000385 0.000000 -0.001730 0.000000
# 3 -0.003307 0.000385 0.007502 0.000000 -0.002237 0.000000
# 4 0.000000 0.000000 0.000000 0.540133 0.000000 0.151710
# 5 -0.007204 -0.001730 -0.002237 0.000000 0.035771 0.000000
# 6 0.000000 0.000000 0.000000 0.151710 0.000000 0.000238
#
#
# Mechanical properties :
#
#
# Convention : Reuss Voigt Hill
#
# Bulk Modulus (GPa) = 24.29446 42.87996 33.58721
# Shear Modulus (GPa) = 7.75722 18.03343 12.89532
#
# Velocity S-wave (km/s) = 1.92402 2.93356 2.48069
# Velocity P-wave (km/s) = 4.06564 5.65130 4.92273
#
# Compressibility (1/GPa) = 0.04116165
#
# Stress axis : x y z
#
# Youngs Moduli (GPa) = 69.54700 38.38851 133.30362
#
# Poissons Ratio (x) = 0.01773 0.44081
# Poissons Ratio (y) = 0.03213 -0.05128
# Poissons Ratio (z) = 0.22998 -0.01477
#
# Static dielectric constant tensor:
#      x y z
#    x 1.725610 0.000000 0.011770 
#    y 0.000000 1.775440 0.000000 
#    z 0.011770 0.000000 1.870350 
# 
# From -- ./inp_files/58319.got.cif
#   From: 2010.05.17/outbox.cif.g08.bks.cpg/sg10_30_cif.got.tgz:58319.got - 2010.06.03 11:33:40.
