data_PCOD9145478
_publ_section_title
;
Structure prediction by ZEFSAII (Michael W. Deem and Ramdas Pophale) SiO2 
 PCOD9145478
Probable space group: P 2/M
;
_chemical_formula_sum "Si O2"
_cell_formula_units_Z 32
_cell_length_a 19.532148
_cell_length_b 14.520211
_cell_length_c 16.595733
_cell_angle_alpha 90.000000
_cell_angle_beta 157.785111
_cell_angle_gamma 90.000000
_cell_volume 1779.527296
_symmetry_space_group_name_H-M "P 2/M"
_symmetry_group_IT_number 10
_symmetry_cell_setting 'monoclinic'
loop_
_space_group_symop_operation_xyz
x,y,z
-x,y,-z
-x,-y,-z
x,-y,z
loop_
_atom_site_type_symbol
_atom_site_label
_atom_site_fract_x
_atom_site_fract_y
_atom_site_fract_z
Si Si1 0.466367 0.696760 0.051631
Si Si2 0.000516 0.104629 0.597711
Si Si3 0.297511 0.155871 0.498989
Si Si4 0.570588 0.107844 0.668430
Si Si5 0.093731 0.390223 0.688385
Si Si6 0.048426 0.896097 0.966453
Si Si7 0.419860 0.897635 0.053976
Si Si8 0.847016 0.274604 0.529967
O O1 0.435793 0.807305 0.016502
O O2 0.653144 0.682364 0.299654
O O3 0.500000 0.659349 0.000000
O O4 0.294666 0.649847 0.903696
O O5 0.000000 0.120216 0.500000
O O6 0.887232 0.181699 0.520913
O O7 0.932971 0.000000 0.537723
O O8 0.210382 0.107537 0.855625
O O9 0.440015 0.167842 0.582140
O O10 0.132737 0.098105 0.282818
O O11 0.426629 0.115018 0.710177
O O12 0.184216 0.240547 0.413410
O O13 0.500000 0.109919 0.500000
O O14 0.559466 0.000000 0.684812
O O15 0.778438 0.141448 0.892796
O O16 0.090965 0.500000 0.690106
O O17 0.000000 0.363507 0.500000
O O18 0.993795 0.344451 0.655307
O O19 0.112890 0.000000 0.056969
O O20 0.000000 0.851473 0.000000
O O21 0.438992 0.000000 0.038479
#
# Coordination Sequence:
#
# PCOD9145478 Si02
#       8
#     4   4   4   4   4   4   4   4
#     4  11  21  35  58  81 111 144 187 237 283 340
#     4  10  20  35  54  73 103 153 202 237 275 326
#     4  11  23  34  51  78 113 151 192 242 288 333
#     4  10  19  32  50  73 106 148 198 242 274 321
#     4  11  23  41  65  86 109 141 186 240 300 360
#     4  10  19  32  52  75 106 154 203 241 278 327
#     4  10  21  34  50  75 112 155 195 235 278 327
#     4  11  23  37  56  80 115 146 183 239 290 339
#
# _framework density 17.982303999999999
#
# number of rings (size 3 to 8) (size 9 to 14) (size 15 to 20)
#    0.000    1.500    3.750    2.250    1.750    4.000 
#    0.000    0.000    0.000    0.000    0.000    0.000 
#    0.000    1.000    0.000    1.125    0.000    0.000 
#
# Total GULP energy -178322.269543 kJ/mol
# GULP energy per Si atom -5572.570923 kJ/mol
# Density = 1.794138 g / cm^3
# Si number density = 17.982304 Si / 1000 Ang^3
#
#
#
# Elastic Constant Matrix: (Units=GPa)
#
#
# Indices 1 2 3 4 5 6 
#
# 1 101.8599 38.0405 38.5642 0.0000 31.2078 0.0000
# 2 38.0405 56.4467 19.9604 0.0000 12.8599 0.0000
# 3 38.5642 19.9604 115.8142 0.0000 27.3513 0.0000
# 4 0.0000 0.0000 0.0000 -13.7716 0.0000 -1.9883
# 5 31.2078 12.8599 27.3513 0.0000 34.5743 0.0000
# 6 0.0000 0.0000 0.0000 -1.9883 0.0000 17.8716
#
#
#
# Elastic Compliance Matrix: (Units=1/GPa)
#
#
# Indices 1 2 3 4 5 6 
#
# 1 0.016859 -0.008319 -0.001620 0.000000 -0.010842 0.000000
# 2 -0.008319 0.023850 -0.001253 0.000000 -0.000371 0.000000
# 3 -0.001620 -0.001253 0.010987 0.000000 -0.006764 0.000000
# 4 0.000000 0.000000 0.000000 -0.071465 0.000000 -0.007951
# 5 -0.010842 -0.000371 -0.006764 0.000000 0.044199 0.000000
# 6 0.000000 0.000000 0.000000 -0.007951 0.000000 0.055070
#
#
# Mechanical properties :
#
#
# Convention : Reuss Voigt Hill
#
# Bulk Modulus (GPa) = 34.11405 51.91680 43.01543
# Shear Modulus (GPa) = 44.78163 19.57191 32.17677
#
# Velocity S-wave (km/s) = 4.99572 3.30267 4.23467
# Velocity P-wave (km/s) = 7.23107 6.59373 6.91974
#
# Compressibility (1/GPa) = 0.02931343
#
# Stress axis : x y z
#
# Youngs Moduli (GPa) = 59.31488 41.92939 91.01560
#
# Poissons Ratio (x) = 0.34881 0.14740
# Poissons Ratio (y) = 0.49344 0.11402
# Poissons Ratio (z) = 0.09606 0.05253
#
# Static dielectric constant tensor:
#      x y z
#    x 1.631210 0.000000 0.037150 
#    y 0.000000 1.621140 0.000000 
#    z 0.037150 0.000000 1.629020 
# 
# From -- ./inp_files/79758.got.cif
#   From: 2010.05.17/outbox.cif.g08.bks.cpg/sg10_40_cif.got.tgz:79758.got - 2010.06.03 11:33:40.
