data_PCOD9145196
_publ_section_title
;
Structure prediction by ZEFSAII (Michael W. Deem and Ramdas Pophale) SiO2 
 PCOD9145196
Probable space group: P 2/M
;
_chemical_formula_sum "Si O2"
_cell_formula_units_Z 32
_cell_length_a 20.948227
_cell_length_b 9.212536
_cell_length_c 25.826638
_cell_angle_alpha 90.000000
_cell_angle_beta 157.548282
_cell_angle_gamma 90.000000
_cell_volume 1903.484822
_symmetry_space_group_name_H-M "P 2/M"
_symmetry_group_IT_number 10
_symmetry_cell_setting 'monoclinic'
loop_
_space_group_symop_operation_xyz
x,y,z
-x,y,-z
-x,-y,-z
x,-y,z
loop_
_atom_site_type_symbol
_atom_site_label
_atom_site_fract_x
_atom_site_fract_y
_atom_site_fract_z
Si Si1 0.816735 0.827058 0.624558
Si Si2 0.401972 0.826890 0.075301
Si Si3 0.515737 0.673402 0.348819
Si Si4 0.341547 0.173221 0.645536
Si Si5 0.351758 0.326727 0.928434
Si Si6 0.990974 0.171634 0.339325
Si Si7 0.131752 0.674438 0.054992
Si Si8 0.084073 0.174191 0.909590
O O1 0.645785 0.742021 0.486777
O O2 0.934174 0.800819 0.662174
O O3 0.921295 0.786798 0.753706
O O4 0.784317 0.000000 0.601084
O O5 0.569495 0.796008 0.233561
O O6 0.392987 0.000000 0.058214
O O7 0.388641 0.741770 0.012086
O O8 0.246375 0.790715 0.996286
O O9 0.534713 0.500000 0.361707
O O10 0.566423 0.740745 0.331270
O O11 0.322297 0.709206 0.213850
O O12 0.144738 0.204881 0.493073
O O13 0.361495 0.000000 0.650141
O O14 0.341162 0.500000 0.924535
O O15 0.175139 0.262583 0.777289
O O16 0.500000 0.289058 0.000000
O O17 0.953059 0.000000 0.314019
O O18 0.121220 0.500000 0.041136
O O19 0.094016 0.747906 0.971837
O O20 0.000000 0.719433 0.000000
O O21 0.084528 0.000000 0.917181
#
# Coordination Sequence:
#
# PCOD9145196 Si02
#       8
#     4   4   4   4   4   4   4   4
#     4   9  18  33  53  79 109 135 169 222 271 311
#     4  10  19  35  58  82 106 136 177 223 267 314
#     4  10  19  31  51  79 106 139 180 214 259 317
#     4   9  18  33  55  81 108 133 167 221 273 312
#     4  11  24  38  52  76 111 147 180 216 261 313
#     4   9  17  33  55  79 105 138 174 214 265 317
#     4  10  22  38  53  75 111 148 180 217 263 318
#     4  10  19  34  57  83 106 134 179 226 267 312
#
# _framework density 16.811271999999999
#
# number of rings (size 3 to 8) (size 9 to 14) (size 15 to 20)
#    0.000    2.250    2.500    1.500    0.000    5.250 
#    0.000    1.250    0.000    7.500    0.000    0.000 
#    0.000    0.000    0.000    0.000    0.000    0.000 
#
# Total GULP energy -178523.183027 kJ/mol
# GULP energy per Si atom -5578.849470 kJ/mol
# Density = 1.677301 g / cm^3
# Si number density = 16.811272 Si / 1000 Ang^3
#
#
#
# Elastic Constant Matrix: (Units=GPa)
#
#
# Indices 1 2 3 4 5 6 
#
# 1 95.7474 45.6967 73.8815 0.0000 5.2172 0.0000
# 2 45.6967 39.4122 63.6466 0.0000 5.8312 0.0000
# 3 73.8815 63.6466 164.9178 0.0000 1.2056 0.0000
# 4 0.0000 0.0000 0.0000 19.8715 0.0000 -1.6887
# 5 5.2172 5.8312 1.2056 0.0000 21.8311 0.0000
# 6 0.0000 0.0000 0.0000 -1.6887 0.0000 19.8376
#
#
#
# Elastic Compliance Matrix: (Units=1/GPa)
#
#
# Indices 1 2 3 4 5 6 
#
# 1 0.023449 -0.027788 0.000206 0.000000 0.001807 0.000000
# 2 -0.027788 0.106843 -0.028636 0.000000 -0.020316 0.000000
# 3 0.000206 -0.028636 0.016974 0.000000 0.006662 0.000000
# 4 0.000000 0.000000 0.000000 0.050690 0.000000 0.004315
# 5 0.001807 -0.020316 0.006662 0.000000 0.050433 0.000000
# 6 0.000000 0.000000 0.000000 0.004315 0.000000 0.050777
#
#
# Mechanical properties :
#
#
# Convention : Reuss Voigt Hill
#
# Bulk Modulus (GPa) = 28.71185 74.05856 51.38520
# Shear Modulus (GPa) = 11.81441 20.09822 15.95632
#
# Velocity S-wave (km/s) = 2.65385 3.46138 3.08416
# Velocity P-wave (km/s) = 5.14845 7.75393 6.58141
#
# Compressibility (1/GPa) = 0.03482883
#
# Stress axis : x y z
#
# Youngs Moduli (GPa) = 42.64597 9.35954 58.91329
#
# Poissons Ratio (x) = 0.26009 -0.01216
# Poissons Ratio (y) = 1.18507 1.68706
# Poissons Ratio (z) = -0.00880 0.26802
#
# Static dielectric constant tensor:
#      x y z
#    x 1.531480 0.000000 -0.005020 
#    y 0.000000 1.557230 0.000000 
#    z -0.005020 0.000000 1.584890 
# 
# From -- ./inp_files/86127.got.cif
#   From: 2010.05.17/outbox.cif.g08.bks.cpg/sg10_44_cif.got.tgz:86127.got - 2010.06.03 11:33:40.
