data_PCOD9145974
_publ_section_title
;
Structure prediction by ZEFSAII (Michael W. Deem and Ramdas Pophale) SiO2 
 PCOD9145974
Probable space group: P 2/M
;
_chemical_formula_sum "Si O2"
_cell_formula_units_Z 28
_cell_length_a 15.394577
_cell_length_b 8.169104
_cell_length_c 12.189742
_cell_angle_alpha 90.000000
_cell_angle_beta 52.689469
_cell_angle_gamma 90.000000
_cell_volume 1219.274761
_symmetry_space_group_name_H-M "P 2/M"
_symmetry_group_IT_number 10
_symmetry_cell_setting 'monoclinic'
loop_
_space_group_symop_operation_xyz
x,y,z
-x,y,-z
-x,-y,-z
x,-y,z
loop_
_atom_site_type_symbol
_atom_site_label
_atom_site_fract_x
_atom_site_fract_y
_atom_site_fract_z
Si Si1 0.396414 0.812629 0.000962
Si Si2 0.453953 0.312142 0.726749
Si Si3 0.208640 0.806692 0.312216
Si Si4 0.218168 0.301611 0.895462
Si Si5 0.095842 0.690796 0.204113
Si Si6 0.891333 0.188003 0.232399
Si Si7 0.702801 0.305782 0.524556
O O1 0.299948 0.755494 0.153414
O O2 0.375119 0.000000 0.978505
O O3 0.500000 0.820570 0.000000
O O4 0.426831 0.698736 0.876666
O O5 0.459514 0.500000 0.684691
O O6 0.339735 0.241017 0.768497
O O7 0.576498 0.245109 0.619514
O O8 0.102286 0.773253 0.318926
O O9 0.238979 0.719240 0.401826
O O10 0.217902 0.000000 0.326110
O O11 0.221552 0.500000 0.895537
O O12 0.129800 0.248203 0.874319
O O13 0.179943 0.244777 0.045570
O O14 0.118079 0.500000 0.204059
O O15 0.979676 0.712613 0.234446
O O16 0.776554 0.211983 0.381594
O O17 0.925744 0.000000 0.206426
O O18 0.703028 0.500000 0.499643
#
# Coordination Sequence:
#
# PCOD9145974 Si02
#       7
#     4   4   4   4   4   4   4
#     4  10  19  32  54  88 129 167 198 244 308 368
#     4  10  21  37  62  94 125 161 206 254 302 364
#     4  11  22  37  61  95 132 165 203 252 309 369
#     4  10  22  42  67  95 125 159 204 258 313 365
#     4  11  23  42  69  96 124 160 207 259 311 367
#     4  12  27  45  64  88 123 165 212 261 312 370
#     4  11  24  42  64  91 127 170 212 252 303 369
#
# _framework density 22.964471
#
# number of rings (size 3 to 8) (size 9 to 14) (size 15 to 20)
#    0.000    1.286    2.857    3.000    0.000    6.000 
#    0.000    5.714    0.000    0.000    0.000    0.000 
#    0.000    0.000    0.000    0.000    0.000    0.000 
#
# Total GULP energy -156406.234187 kJ/mol
# GULP energy per Si atom -5585.936935 kJ/mol
# Density = 2.291220 g / cm^3
# Si number density = 22.964471 Si / 1000 Ang^3
#
#
#
# Elastic Constant Matrix: (Units=GPa)
#
#
# Indices 1 2 3 4 5 6 
#
# 1 108.4242 3.6410 11.3509 0.0000 1.7497 0.0000
# 2 3.6410 34.5086 -1.9717 0.0000 -6.6419 0.0000
# 3 11.3509 -1.9717 51.5874 0.0000 1.6215 0.0000
# 4 0.0000 0.0000 0.0000 22.9796 0.0000 4.8632
# 5 1.7497 -6.6419 1.6215 0.0000 10.6570 0.0000
# 6 0.0000 0.0000 0.0000 4.8632 0.0000 19.0909
#
#
#
# Elastic Compliance Matrix: (Units=1/GPa)
#
#
# Indices 1 2 3 4 5 6 
#
# 1 0.009529 -0.001551 -0.002086 0.000000 -0.002213 0.000000
# 2 -0.001551 0.033200 0.000956 0.000000 0.020801 0.000000
# 3 -0.002086 0.000956 0.019946 0.000000 -0.002096 0.000000
# 4 0.000000 0.000000 0.000000 0.045997 0.000000 -0.011717
# 5 -0.002213 0.020801 -0.002096 0.000000 0.107481 0.000000
# 6 0.000000 0.000000 0.000000 -0.011717 0.000000 0.055366
#
#
# Mechanical properties :
#
#
# Convention : Reuss Voigt Hill
#
# Bulk Modulus (GPa) = 17.44781 24.50675 20.97728
# Shear Modulus (GPa) = 16.89276 22.64550 19.76913
#
# Velocity S-wave (km/s) = 2.71514 3.14365 2.93722
# Velocity P-wave (km/s) = 4.17655 4.88584 4.54505
#
# Compressibility (1/GPa) = 0.05731378
#
# Stress axis : x y z
#
# Youngs Moduli (GPa) = 104.93999 30.12042 50.13511
#
# Poissons Ratio (x) = 0.04671 0.10460
# Poissons Ratio (y) = 0.16273 -0.04794
# Poissons Ratio (z) = 0.21895 -0.02880
#
# Static dielectric constant tensor:
#      x y z
#    x 1.962290 0.000000 -0.046590 
#    y 0.000000 1.816120 0.000000 
#    z -0.046590 0.000000 1.853690 
# 
# From -- ./inp_files/49659.got.cif
#   From: 2010.05.17/outbox.cif.g08.bks.cpg/sg10_25_cif.got.tgz:49659.got - 2010.06.03 11:33:40.
