data_PCOD9145619
_publ_section_title
;
Structure prediction by ZEFSAII (Michael W. Deem and Ramdas Pophale) SiO2 
 PCOD9145619
Probable space group: P 2/M
;
_chemical_formula_sum "Si O2"
_cell_formula_units_Z 32
_cell_length_a 24.503718
_cell_length_b 7.476196
_cell_length_c 15.598407
_cell_angle_alpha 90.000000
_cell_angle_beta 150.257538
_cell_angle_gamma 90.000000
_cell_volume 1417.634038
_symmetry_space_group_name_H-M "P 2/M"
_symmetry_group_IT_number 10
_symmetry_cell_setting 'monoclinic'
loop_
_space_group_symop_operation_xyz
x,y,z
-x,y,-z
-x,-y,-z
x,-y,z
loop_
_atom_site_type_symbol
_atom_site_label
_atom_site_fract_x
_atom_site_fract_y
_atom_site_fract_z
Si Si1 0.612859 0.715769 0.608873
Si Si2 0.777717 0.711129 0.980030
Si Si3 0.964381 0.783313 0.684321
Si Si4 0.567544 0.789813 0.354039
Si Si5 0.326436 0.250259 0.987808
Si Si6 0.381620 0.715105 0.876751
Si Si7 0.114401 0.785431 0.608836
Si Si8 0.752025 0.790154 0.474879
O O1 0.500000 0.775039 0.500000
O O2 0.611953 0.500000 0.604572
O O3 0.713393 0.768950 0.807008
O O4 0.614140 0.779370 0.513362
O O5 0.753587 0.500000 0.963354
O O6 0.908103 0.730002 0.143287
O O7 0.726131 0.809449 0.992541
O O8 0.910368 0.725858 0.520857
O O9 0.877923 0.721895 0.639565
O O10 0.963617 0.000000 0.683547
O O11 0.659834 0.717376 0.414286
O O12 0.544345 0.000000 0.303719
O O13 0.448731 0.693824 0.186440
O O14 0.366147 0.189558 0.946347
O O15 0.209571 0.315919 0.788879
O O16 0.375512 0.500000 0.883705
O O17 0.297983 0.769557 0.688402
O O18 0.500000 0.756221 0.000000
O O19 0.000000 0.764945 0.500000
O O20 0.141520 0.000000 0.647823
O O21 0.759506 0.000000 0.506530
#
# Coordination Sequence:
#
# PCOD9145619 Si02
#       8
#     4   4   4   4   4   4   4   4
#     4  10  22  43  66  88 120 160 196 245 314 372
#     4  11  24  41  62  89 121 158 200 249 307 365
#     4  10  21  39  62  85 118 164 205 247 296 353
#     4  11  24  39  63  96 122 153 203 258 307 358
#     4  12  21  36  58  91 126 162 192 251 299 360
#     4  11  23  36  54  85 123 165 209 245 288 355
#     4  10  19  32  51  81 121 161 197 230 284 355
#     4  10  22  41  61  85 122 165 204 248 304 356
#
# _framework density 22.572821999999999
#
# number of rings (size 3 to 8) (size 9 to 14) (size 15 to 20)
#    0.000    1.375    5.000    0.750    0.000    3.500 
#    0.000    1.250    0.000    3.750    0.000    0.000 
#    0.000    0.000    0.000    0.000    0.000    0.000 
#
# Total GULP energy -178219.538173 kJ/mol
# GULP energy per Si atom -5569.360568 kJ/mol
# Density = 2.252144 g / cm^3
# Si number density = 22.572822 Si / 1000 Ang^3
#
#
#
# Elastic Constant Matrix: (Units=GPa)
#
#
# Indices 1 2 3 4 5 6 
#
# 1 160.9355 15.9874 124.9959 0.0000 30.4401 0.0000
# 2 15.9874 88.3898 7.5148 0.0000 5.5070 0.0000
# 3 124.9959 7.5148 164.6480 0.0000 8.0026 0.0000
# 4 0.0000 0.0000 0.0000 13.6027 0.0000 -8.8688
# 5 30.4401 5.5070 8.0026 0.0000 57.0919 0.0000
# 6 0.0000 0.0000 0.0000 -8.8688 0.0000 39.4315
#
#
#
# Elastic Compliance Matrix: (Units=1/GPa)
#
#
# Indices 1 2 3 4 5 6 
#
# 1 0.018239 -0.001681 -0.013396 0.000000 -0.007685 0.000000
# 2 -0.001681 0.011573 0.000764 0.000000 -0.000327 0.000000
# 3 -0.013396 0.000764 0.015974 0.000000 0.004830 0.000000
# 4 0.000000 0.000000 0.000000 0.086148 0.000000 0.019376
# 5 -0.007685 -0.000327 0.004830 0.000000 0.020967 0.000000
# 6 0.000000 0.000000 0.000000 0.019376 0.000000 0.029718
#
#
# Mechanical properties :
#
#
# Convention : Reuss Voigt Hill
#
# Bulk Modulus (GPa) = 58.27826 78.99662 68.63744
# Shear Modulus (GPa) = 23.04522 39.72357 31.38440
#
# Velocity S-wave (km/s) = 3.19866 4.19954 3.73280
# Velocity P-wave (km/s) = 6.28616 7.65423 7.00368
#
# Compressibility (1/GPa) = 0.01715906
#
# Stress axis : x y z
#
# Youngs Moduli (GPa) = 54.82880 86.40776 62.60264
#
# Poissons Ratio (x) = 0.14527 0.83862
# Poissons Ratio (y) = 0.09218 -0.04783
# Poissons Ratio (z) = 0.73448 -0.06602
#
# Static dielectric constant tensor:
#      x y z
#    x 1.839130 0.000000 0.038020 
#    y 0.000000 1.978370 0.000000 
#    z 0.038020 0.000000 1.799670 
# 
# From -- ./inp_files/71630.got.cif
#   From: 2010.05.17/outbox.cif.g08.bks.cpg/sg10_36_cif.got.tgz:71630.got - 2010.06.03 11:33:40.
