data_PCOD9145305
_publ_section_title
;
Structure prediction by ZEFSAII (Michael W. Deem and Ramdas Pophale) SiO2 
 PCOD9145305
Probable space group: P 2/M
;
_chemical_formula_sum "Si O2"
_cell_formula_units_Z 32
_cell_length_a 24.437507
_cell_length_b 7.350271
_cell_length_c 15.171882
_cell_angle_alpha 90.000000
_cell_angle_beta 151.739069
_cell_angle_gamma 90.000000
_cell_volume 1290.352667
_symmetry_space_group_name_H-M "P 2/M"
_symmetry_group_IT_number 10
_symmetry_cell_setting 'monoclinic'
loop_
_space_group_symop_operation_xyz
x,y,z
-x,y,-z
-x,-y,-z
x,-y,z
loop_
_atom_site_type_symbol
_atom_site_label
_atom_site_fract_x
_atom_site_fract_y
_atom_site_fract_z
Si Si1 0.232429 0.719253 0.304502
Si Si2 0.359820 0.289881 0.054539
Si Si3 0.058674 0.293084 0.501591
Si Si4 0.692219 0.720281 0.209161
Si Si5 0.047733 0.277113 0.913561
Si Si6 0.824000 0.706118 0.067121
Si Si7 0.467139 0.790742 0.549564
Si Si8 0.220166 0.277451 0.483959
O O1 0.233685 0.500000 0.308093
O O2 0.333143 0.777578 0.381630
O O3 0.257891 0.780160 0.440044
O O4 0.106107 0.771953 0.089384
O O5 0.326718 0.500000 0.993590
O O6 0.468513 0.286908 0.273419
O O7 0.375046 0.218822 0.975659
O O8 0.256727 0.212290 0.970930
O O9 0.089867 0.500000 0.573963
O O10 0.176966 0.224631 0.631684
O O11 0.000000 0.196754 0.500000
O O12 0.954630 0.306383 0.287138
O O13 0.676108 0.500000 0.192282
O O14 0.694912 0.781110 0.315580
O O15 0.045769 0.500000 0.906248
O O16 0.145827 0.210084 0.983765
O O17 0.916237 0.221113 0.705329
O O18 0.778306 0.500000 0.987198
O O19 0.500000 0.712381 0.500000
O O20 0.505299 0.000000 0.600853
O O21 0.218169 0.500000 0.484887
#
# Coordination Sequence:
#
# PCOD9145305 Si02
#       8
#     4   4   4   4   4   4   4   4
#     4  10  20  34  55  82 109 138 177 224 263 300
#     4  10  19  31  53  84 111 137 177 225 263 300
#     4   9  12  17  31  59 106 148 168 191 240 304
#     4   9  15  24  42  74 116 151 173 202 252 311
#     4   9  15  24  43  75 114 147 171 204 257 313
#     4   9  14  20  37  70 109 141 166 201 252 304
#     4  11  25  44  61  75  96 133 176 220 275 329
#     4   9  16  27  46  77 118 152 172 201 255 316
#
# _framework density 24.799420000000001
#
# number of rings (size 3 to 8) (size 9 to 14) (size 15 to 20)
#    0.000    2.500    2.500    1.500    0.000    3.500 
#    0.000    0.625    0.000    6.000    0.000    1.750 
#    0.000    0.000    0.000    0.000    0.000    0.000 
#
# Total GULP energy -178250.481183 kJ/mol
# GULP energy per Si atom -5570.327537 kJ/mol
# Density = 2.474298 g / cm^3
# Si number density = 24.799420 Si / 1000 Ang^3
#
#
#
# Elastic Constant Matrix: (Units=GPa)
#
#
# Indices 1 2 3 4 5 6 
#
# 1 125.1405 -0.5117 45.6199 0.0000 -39.8202 0.0000
# 2 -0.5117 87.1273 1.9816 0.0000 -7.4022 0.0000
# 3 45.6199 1.9816 154.7069 0.0000 -38.0661 0.0000
# 4 0.0000 0.0000 0.0000 91.2969 0.0000 7.9595
# 5 -39.8202 -7.4022 -38.0661 0.0000 40.5359 0.0000
# 6 0.0000 0.0000 0.0000 7.9595 0.0000 -5.8082
#
#
#
# Elastic Compliance Matrix: (Units=1/GPa)
#
#
# Indices 1 2 3 4 5 6 
#
# 1 0.011791 0.001025 -0.000773 0.000000 0.011045 0.000000
# 2 0.001025 0.011776 0.000421 0.000000 0.003553 0.000000
# 3 -0.000773 0.000421 0.008477 0.000000 0.007279 0.000000
# 4 0.000000 0.000000 0.000000 0.009784 0.000000 0.013408
# 5 0.011045 0.003553 0.007279 0.000000 0.043003 0.000000
# 6 0.000000 0.000000 0.000000 0.013408 0.000000 -0.153795
#
#
# Mechanical properties :
#
#
# Convention : Reuss Voigt Hill
#
# Bulk Modulus (GPa) = 29.94756 51.23937 40.59347
# Shear Modulus (GPa) = -84.48795 46.53057 -18.97869
#
# Velocity S-wave (km/s) = -5.84316 4.33630 -2.76938
# Velocity P-wave (km/s) = 5.78110 6.76592 2.48561
#
# Compressibility (1/GPa) = 0.03339170
#
# Stress axis : x y z
#
# Youngs Moduli (GPa) = 84.80767 84.92034 117.96376
#
# Poissons Ratio (x) = -0.08706 0.09113
# Poissons Ratio (y) = -0.08694 -0.04967
# Poissons Ratio (z) = 0.06552 -0.03575
#
# Static dielectric constant tensor:
#      x y z
#    x 2.036090 0.000000 -0.077050 
#    y 0.000000 2.038120 0.000000 
#    z -0.077050 0.000000 1.973660 
# 
# From -- ./inp_files/72236.got.cif
#   From: 2010.05.17/outbox.cif.g08.bks.cpg/sg10_37_cif.got.tgz:72236.got - 2010.06.03 11:33:40.
