data_PCOD9145651
_publ_section_title
;
Structure prediction by ZEFSAII (Michael W. Deem and Ramdas Pophale) SiO2 
 PCOD9145651
Probable space group: P 2/M
;
_chemical_formula_sum "Si O2"
_cell_formula_units_Z 32
_cell_length_a 26.276651
_cell_length_b 7.598860
_cell_length_c 20.782270
_cell_angle_alpha 90.000000
_cell_angle_beta 156.998982
_cell_angle_gamma 90.000000
_cell_volume 1621.465187
_symmetry_space_group_name_H-M "P 2/M"
_symmetry_group_IT_number 10
_symmetry_cell_setting 'monoclinic'
loop_
_space_group_symop_operation_xyz
x,y,z
-x,y,-z
-x,-y,-z
x,-y,z
loop_
_atom_site_type_symbol
_atom_site_label
_atom_site_fract_x
_atom_site_fract_y
_atom_site_fract_z
Si Si1 0.792731 0.213829 0.637033
Si Si2 0.154966 0.795246 0.164063
Si Si3 0.670705 0.705447 0.014336
Si Si4 0.381368 0.707343 0.684889
Si Si5 0.123147 0.709552 0.847072
Si Si6 0.087224 0.787486 0.949539
Si Si7 0.853398 0.209391 0.343632
Si Si8 0.838248 0.711687 0.474399
O O1 0.778781 0.278248 0.694514
O O2 0.683890 0.273616 0.460902
O O3 0.935819 0.270789 0.778160
O O4 0.793602 0.000000 0.639339
O O5 0.194913 0.000000 0.206588
O O6 0.162117 0.720349 0.100407
O O7 0.000000 0.793071 0.000000
O O8 0.651164 0.500000 0.974744
O O9 0.763465 0.782467 0.066614
O O10 0.751490 0.715231 0.174272
O O11 0.526702 0.783482 0.854374
O O12 0.392821 0.500000 0.713719
O O13 0.277666 0.781508 0.615530
O O14 0.117901 0.500000 0.829247
O O15 0.143772 0.737974 0.946599
O O16 0.980243 0.780363 0.661471
O O17 0.085214 0.000000 0.951525
O O18 0.818947 0.248819 0.377094
O O19 0.000000 0.276017 0.500000
O O20 0.854302 0.000000 0.335167
O O21 0.841556 0.500000 0.486116
#
# Coordination Sequence:
#
# PCOD9145651 Si02
#       8
#     4   4   4   4   4   4   4   4
#     4   9  16  28  49  74 103 137 168 204 252 301
#     4   7  12  24  42  69 102 134 167 201 246 300
#     4  10  22  39  56  73 100 138 170 200 249 308
#     4  10  21  36  53  76 104 133 169 209 248 296
#     4  10  19  32  52  76 100 131 171 209 246 295
#     4   9  16  27  48  76 104 133 167 210 253 294
#     4  11  23  37  56  81 105 128 163 212 253 291
#     4  10  20  35  56  77 100 133 169 205 247 299
#
# _framework density 19.735237000000001
#
# number of rings (size 3 to 8) (size 9 to 14) (size 15 to 20)
#    0.000    2.500    2.500    1.875    0.000    3.000 
#    0.000    3.125    0.000    3.000    0.000    5.250 
#    0.000    0.000    0.000    0.000    0.000    0.000 
#
# Total GULP energy -178465.224067 kJ/mol
# GULP energy per Si atom -5577.038252 kJ/mol
# Density = 1.969032 g / cm^3
# Si number density = 19.735237 Si / 1000 Ang^3
#
#
#
# Elastic Constant Matrix: (Units=GPa)
#
#
# Indices 1 2 3 4 5 6 
#
# 1 168.4426 -5.3995 89.5104 0.0000 -7.2237 0.0000
# 2 -5.3995 40.8631 -3.5426 0.0000 16.3825 0.0000
# 3 89.5104 -3.5426 118.4137 0.0000 8.1626 0.0000
# 4 0.0000 0.0000 0.0000 16.5602 0.0000 -5.9141
# 5 -7.2237 16.3825 8.1626 0.0000 27.6102 0.0000
# 6 0.0000 0.0000 0.0000 -5.9141 0.0000 20.2186
#
#
#
# Elastic Compliance Matrix: (Units=1/GPa)
#
#
# Indices 1 2 3 4 5 6 
#
# 1 0.010735 -0.001938 -0.008621 0.000000 0.006507 0.000000
# 2 -0.001938 0.033098 0.003924 0.000000 -0.021305 0.000000
# 3 -0.008621 0.003924 0.015716 0.000000 -0.009230 0.000000
# 4 0.000000 0.000000 0.000000 0.067429 0.000000 0.019724
# 5 0.006507 -0.021305 -0.009230 0.000000 0.053291 0.000000
# 6 0.000000 0.000000 0.000000 0.019724 0.000000 0.055229
#
#
# Mechanical properties :
#
#
# Convention : Reuss Voigt Hill
#
# Bulk Modulus (GPa) = 21.60884 54.31733 37.96308
# Shear Modulus (GPa) = 18.92550 29.35456 24.14003
#
# Velocity S-wave (km/s) = 3.10008 3.86089 3.50121
# Velocity P-wave (km/s) = 4.87721 6.88898 5.96847
#
# Compressibility (1/GPa) = 0.04627736
#
# Stress axis : x y z
#
# Youngs Moduli (GPa) = 93.15294 30.21362 63.63143
#
# Poissons Ratio (x) = 0.05855 0.54858
# Poissons Ratio (y) = 0.18050 -0.24966
# Poissons Ratio (z) = 0.80310 -0.11855
#
# Static dielectric constant tensor:
#      x y z
#    x 1.704820 0.000000 0.003760 
#    y 0.000000 1.735560 0.000000 
#    z 0.003760 0.000000 1.681530 
# 
# From -- ./inp_files/86992.got.cif
#   From: 2010.05.17/outbox.cif.g08.bks.cpg/sg10_44_cif.got.tgz:86992.got - 2010.06.03 11:33:40.
