data_PCOD9145626
_publ_section_title
;
Structure prediction by ZEFSAII (Michael W. Deem and Ramdas Pophale) SiO2 
 PCOD9145626
Probable space group: P 2/M
;
_chemical_formula_sum "Si O2"
_cell_formula_units_Z 20
_cell_length_a 12.442760
_cell_length_b 14.320749
_cell_length_c 18.956022
_cell_angle_alpha 90.000000
_cell_angle_beta 19.818705
_cell_angle_gamma 90.000000
_cell_volume 1145.215163
_symmetry_space_group_name_H-M "P 2/M"
_symmetry_group_IT_number 10
_symmetry_cell_setting 'monoclinic'
loop_
_space_group_symop_operation_xyz
x,y,z
-x,y,-z
-x,-y,-z
x,-y,z
loop_
_atom_site_type_symbol
_atom_site_label
_atom_site_fract_x
_atom_site_fract_y
_atom_site_fract_z
Si Si1 0.670811 0.608035 0.070194
Si Si2 0.592459 0.607556 0.361243
Si Si3 0.619656 0.894347 0.721684
Si Si4 0.559280 0.759151 0.883081
Si Si5 0.694526 0.721735 0.586647
O O1 0.600975 0.500000 0.100044
O O2 0.642389 0.670120 0.017593
O O3 0.430746 0.652423 0.274996
O O4 0.027638 0.615058 0.879175
O O5 0.500000 0.621712 0.500000
O O6 0.503331 0.500000 0.397648
O O7 0.429202 0.680594 0.410139
O O8 0.487519 0.842727 0.872807
O O9 0.567420 0.823837 0.688745
O O10 0.000000 0.897967 0.500000
O O11 0.506848 0.000000 0.781486
O O12 0.926922 0.730427 0.647339
O O13 0.500000 0.785201 0.000000
#
# Coordination Sequence:
#
# PCOD9145626 Si02
#       5
#     4   4   4   4   4
#     4  10  20  33  49  70  99 135 168 197 236 288
#     4  10  20  33  50  73 101 133 165 198 240 287
#     4   8  16  32  52  73  96 124 160 200 244 294
#     4  10  20  32  49  75 101 127 161 203 248 285
#     4  10  19  32  52  73  96 128 167 205 239 284
#
# _framework density 17.463967
#
# number of rings (size 3 to 8) (size 9 to 14) (size 15 to 20)
#    0.000    2.400    0.000    4.200    0.000    4.800 
#    0.000    0.000    0.000   10.200    0.000    0.000 
#    0.000    0.000    0.000    0.000    0.000    0.000 
#
# Total GULP energy -111528.915587 kJ/mol
# GULP energy per Si atom -5576.445779 kJ/mol
# Density = 1.742422 g / cm^3
# Si number density = 17.463967 Si / 1000 Ang^3
#
#
#
# Elastic Constant Matrix: (Units=GPa)
#
#
# Indices 1 2 3 4 5 6 
#
# 1 89.3304 67.1065 8.7797 0.0000 7.8938 0.0000
# 2 67.1065 158.4603 14.1639 0.0000 -0.9684 0.0000
# 3 8.7797 14.1639 41.1909 0.0000 4.3295 0.0000
# 4 0.0000 0.0000 0.0000 -2.2455 0.0000 0.6465
# 5 7.8938 -0.9684 4.3295 0.0000 17.4418 0.0000
# 6 0.0000 0.0000 0.0000 0.6465 0.0000 23.8531
#
#
#
# Elastic Compliance Matrix: (Units=1/GPa)
#
#
# Indices 1 2 3 4 5 6 
#
# 1 0.017561 -0.007460 -0.000307 0.000000 -0.008286 0.000000
# 2 -0.007460 0.009695 -0.002213 0.000000 0.004464 0.000000
# 3 -0.000307 -0.002213 0.025774 0.000000 -0.006382 0.000000
# 4 0.000000 0.000000 0.000000 -0.441890 0.000000 0.011976
# 5 -0.008286 0.004464 -0.006382 0.000000 0.062915 0.000000
# 6 0.000000 0.000000 0.000000 0.011976 0.000000 0.041599
#
#
# Mechanical properties :
#
#
# Convention : Reuss Voigt Hill
#
# Bulk Modulus (GPa) = 30.23839 52.12022 41.17930
# Shear Modulus (GPa) = -19.73455 21.07199 0.66872
#
# Velocity S-wave (km/s) = -3.36522 3.47738 0.61947
# Velocity P-wave (km/s) = 1.50091 6.78470 4.91349
#
# Compressibility (1/GPa) = 0.03307055
#
# Stress axis : x y z
#
# Youngs Moduli (GPa) = 56.94474 103.14511 38.79835
#
# Poissons Ratio (x) = 0.76947 0.01191
# Poissons Ratio (y) = 0.42481 0.08585
# Poissons Ratio (z) = 0.01748 0.22824
#
# Static dielectric constant tensor:
#      x y z
#    x 1.594930 0.000000 0.011110 
#    y 0.000000 1.594100 0.000000 
#    z 0.011110 0.000000 1.600990 
# 
# From -- ./inp_files/18380.got.cif
#   From: 2010.05.17/outbox.cif.g08.bks.cpg/sg10_10_cif.got.tgz:18380.got - 2010.06.03 11:33:40.
