data_PCOD9145147
_publ_section_title
;
Structure prediction by ZEFSAII (Michael W. Deem and Ramdas Pophale) SiO2 
 PCOD9145147
Probable space group: P 2/M
;
_chemical_formula_sum "Si O2"
_cell_formula_units_Z 28
_cell_length_a 24.257824
_cell_length_b 10.074549
_cell_length_c 8.227285
_cell_angle_alpha 90.000000
_cell_angle_beta 132.353449
_cell_angle_gamma 90.000000
_cell_volume 1485.867782
_symmetry_space_group_name_H-M "P 2/M"
_symmetry_group_IT_number 10
_symmetry_cell_setting 'monoclinic'
loop_
_space_group_symop_operation_xyz
x,y,z
-x,y,-z
-x,-y,-z
x,-y,z
loop_
_atom_site_type_symbol
_atom_site_label
_atom_site_fract_x
_atom_site_fract_y
_atom_site_fract_z
Si Si1 0.794188 0.355805 0.337436
Si Si2 0.455265 0.651226 0.081414
Si Si3 0.282838 0.844743 0.056083
Si Si4 0.319523 0.727479 0.640333
Si Si5 0.913651 0.656031 0.830212
Si Si6 0.603901 0.654583 0.548949
Si Si7 0.805729 0.143691 0.784136
O O1 0.793142 0.500000 0.250764
O O2 0.739161 0.363460 0.382966
O O3 0.874849 0.329670 0.576093
O O4 0.761724 0.235896 0.168909
O O5 0.428034 0.500000 0.059249
O O6 0.517096 0.685845 0.338019
O O7 0.500000 0.645196 0.000000
O O8 0.386499 0.746268 0.901978
O O9 0.355281 0.756996 0.250498
O O10 0.228848 0.842605 0.106226
O O11 0.299078 0.000000 0.051747
O O12 0.354360 0.667750 0.543971
O O13 0.267038 0.846291 0.477299
O O14 0.909045 0.500000 0.863545
O O15 0.863945 0.743469 0.852454
O O16 0.000000 0.694944 0.000000
O O17 0.609042 0.500000 0.610629
O O18 0.841299 0.000000 0.835674
#
# Coordination Sequence:
#
# PCOD9145147 Si02
#       7
#     4   4   4   4   4   4   4
#     4  10  19  31  51  75  98 127 161 197 242 294
#     4   8  13  23  43  72  99 122 156 206 258 301
#     4  10  21  35  48  67 100 136 171 206 238 282
#     4   9  16  28  49  75 100 122 160 212 254 290
#     4   9  19  36  58  84 107 124 151 196 245 291
#     4   9  16  29  51  74  96 126 165 209 256 301
#     4   9  19  34  52  74  99 133 171 201 237 288
#
# _framework density 18.844207999999998
#
# number of rings (size 3 to 8) (size 9 to 14) (size 15 to 20)
#    0.000    2.857    0.000    2.571    0.000    7.143 
#    0.000    2.143    0.000   12.000    0.000    0.000 
#    0.000    0.000    0.000    0.000    0.000    0.000 
#
# Total GULP energy -155896.888205 kJ/mol
# GULP energy per Si atom -5567.746007 kJ/mol
# Density = 1.880132 g / cm^3
# Si number density = 18.844208 Si / 1000 Ang^3
#
#
#
# Elastic Constant Matrix: (Units=GPa)
#
#
# Indices 1 2 3 4 5 6 
#
# 1 36.9999 19.9349 32.7570 0.0000 9.1697 0.0000
# 2 19.9349 88.8343 48.0293 0.0000 -1.1660 0.0000
# 3 32.7570 48.0293 117.6046 0.0000 16.9098 0.0000
# 4 0.0000 0.0000 0.0000 -15.5359 0.0000 12.7868
# 5 9.1697 -1.1660 16.9098 0.0000 29.0607 0.0000
# 6 0.0000 0.0000 0.0000 12.7868 0.0000 11.9287
#
#
#
# Elastic Compliance Matrix: (Units=1/GPa)
#
#
# Indices 1 2 3 4 5 6 
#
# 1 0.038179 -0.004522 -0.007671 0.000000 -0.007765 0.000000
# 2 -0.004522 0.015512 -0.005860 0.000000 0.005459 0.000000
# 3 -0.007671 -0.005860 0.013880 0.000000 -0.005891 0.000000
# 4 0.000000 0.000000 0.000000 -0.034197 0.000000 0.036657
# 5 -0.007765 0.005459 -0.005891 0.000000 0.040508 0.000000
# 6 0.000000 0.000000 0.000000 0.036657 0.000000 0.044538
#
#
# Mechanical properties :
#
#
# Convention : Reuss Voigt Hill
#
# Bulk Modulus (GPa) = 31.78216 49.43125 40.60671
# Shear Modulus (GPa) = 30.30031 14.60522 22.45276
#
# Velocity S-wave (km/s) = 4.01426 2.78699 3.45555
# Velocity P-wave (km/s) = 6.19581 6.05351 6.12507
#
# Compressibility (1/GPa) = 0.03146419
#
# Stress axis : x y z
#
# Youngs Moduli (GPa) = 26.19233 64.46685 72.04546
#
# Poissons Ratio (x) = 0.29153 0.55266
# Poissons Ratio (y) = 0.11844 0.42221
# Poissons Ratio (z) = 0.20092 0.37780
#
# Static dielectric constant tensor:
#      x y z
#    x 1.669900 0.000000 -0.013490 
#    y 0.000000 1.648120 0.000000 
#    z -0.013490 0.000000 1.690650 
# 
# From -- ./inp_files/37260.got.cif
#   From: 2010.05.17/outbox.cif.g08.bks.cpg/sg10_19_cif.got.tgz:37260.got - 2010.06.03 11:33:40.
