data_PCOD9145698
_publ_section_title
;
Structure prediction by ZEFSAII (Michael W. Deem and Ramdas Pophale) SiO2 
 PCOD9145698
Probable space group: P 2/M
;
_chemical_formula_sum "Si O2"
_cell_formula_units_Z 32
_cell_length_a 26.656330
_cell_length_b 7.441202
_cell_length_c 20.721586
_cell_angle_alpha 90.000000
_cell_angle_beta 159.056225
_cell_angle_gamma 90.000000
_cell_volume 1469.209547
_symmetry_space_group_name_H-M "P 2/M"
_symmetry_group_IT_number 10
_symmetry_cell_setting 'monoclinic'
loop_
_space_group_symop_operation_xyz
x,y,z
-x,y,-z
-x,-y,-z
x,-y,z
loop_
_atom_site_type_symbol
_atom_site_label
_atom_site_fract_x
_atom_site_fract_y
_atom_site_fract_z
Si Si1 0.346704 0.716908 0.292394
Si Si2 0.358077 0.282631 0.678404
Si Si3 0.808628 0.719313 0.398780
Si Si4 0.842135 0.786941 0.812232
Si Si5 0.619062 0.208936 0.441133
Si Si6 0.662843 0.280858 0.094667
Si Si7 0.692997 0.706092 0.898470
Si Si8 0.127995 0.279862 0.766670
O O1 0.500000 0.781267 0.500000
O O2 0.356403 0.500000 0.299990
O O3 0.231262 0.761886 0.206990
O O4 0.310285 0.785684 0.177211
O O5 0.358842 0.500000 0.678422
O O6 0.245408 0.223477 0.596103
O O7 0.334119 0.223499 0.576557
O O8 0.511553 0.222639 0.887236
O O9 0.808290 0.500000 0.398409
O O10 0.703769 0.775898 0.215787
O O11 0.966659 0.776093 0.573067
O O12 0.734971 0.714834 0.629339
O O13 0.853273 0.000000 0.812548
O O14 0.000000 0.713294 0.000000
O O15 0.466518 0.294998 0.267265
O O16 0.597723 0.000000 0.431733
O O17 0.659902 0.500000 0.091480
O O18 0.783227 0.224914 0.189104
O O19 0.740412 0.500000 0.947774
O O20 0.792022 0.783835 0.072850
O O21 0.130267 0.500000 0.769160
#
# Coordination Sequence:
#
# PCOD9145698 Si02
#       8
#     4   4   4   4   4   4   4   4
#     4  10  20  34  57  86 113 140 174 220 269 321
#     4  10  19  32  52  78 106 137 171 215 263 308
#     4   9  17  27  44  76 110 135 170 215 259 308
#     4  10  23  41  58  79 109 144 183 223 264 317
#     4  11  22  36  56  78 102 137 178 217 259 313
#     4   9  15  26  47  74 105 139 171 210 259 306
#     4  10  19  34  55  80 109 137 173 218 264 312
#     4   9  16  27  46  74 107 138 168 210 260 304
#
# _framework density 21.780419999999999
#
# number of rings (size 3 to 8) (size 9 to 14) (size 15 to 20)
#    0.000    2.250    2.500    1.125    0.000    5.500 
#    0.000    1.250    0.000    2.250    0.000    0.875 
#    0.000    0.000    0.000    0.000    0.000    0.000 
#
# Total GULP energy -178806.793146 kJ/mol
# GULP energy per Si atom -5587.712286 kJ/mol
# Density = 2.173085 g / cm^3
# Si number density = 21.780420 Si / 1000 Ang^3
#
#
#
# Elastic Constant Matrix: (Units=GPa)
#
#
# Indices 1 2 3 4 5 6 
#
# 1 103.9573 -14.1194 11.0580 0.0000 -7.5279 0.0000
# 2 -14.1194 64.5775 1.6372 0.0000 -1.9343 0.0000
# 3 11.0580 1.6372 26.2983 0.0000 -2.0630 0.0000
# 4 0.0000 0.0000 0.0000 -3.9927 0.0000 4.8441
# 5 -7.5279 -1.9343 -2.0630 0.0000 44.5546 0.0000
# 6 0.0000 0.0000 0.0000 4.8441 0.0000 19.6838
#
#
#
# Elastic Compliance Matrix: (Units=1/GPa)
#
#
# Indices 1 2 3 4 5 6 
#
# 1 0.010551 0.002470 -0.004458 0.000000 0.001684 0.000000
# 2 0.002470 0.016106 -0.001961 0.000000 0.001026 0.000000
# 3 -0.004458 -0.001961 0.040102 0.000000 0.001018 0.000000
# 4 0.000000 0.000000 0.000000 -0.192869 0.000000 0.047465
# 5 0.001684 0.001026 0.001018 0.000000 0.022821 0.000000
# 6 0.000000 0.000000 0.000000 0.047465 0.000000 0.039122
#
#
# Mechanical properties :
#
#
# Convention : Reuss Voigt Hill
#
# Bulk Modulus (GPa) = 16.98919 21.33165 19.16042
# Shear Modulus (GPa) = -136.42654 25.13294 -55.64680
#
# Velocity S-wave (km/s) = -7.92296 3.40063 -5.06009
# Velocity P-wave (km/s) = 8.71094 5.02337 5.03221
#
# Compressibility (1/GPa) = 0.05886096
#
# Stress axis : x y z
#
# Youngs Moduli (GPa) = 94.77782 62.08925 24.93651
#
# Poissons Ratio (x) = -0.15338 0.11117
# Poissons Ratio (y) = -0.23413 0.04890
# Poissons Ratio (z) = 0.42254 0.12176
#
# Static dielectric constant tensor:
#      x y z
#    x 1.749650 0.000000 -0.018030 
#    y 0.000000 1.876580 0.000000 
#    z -0.018030 0.000000 1.761390 
# 
# From -- ./inp_files/87077.got.cif
#   From: 2010.05.17/outbox.cif.g08.bks.cpg/sg10_44_cif.got.tgz:87077.got - 2010.06.03 11:33:40.
