data_PCOD9145028
_publ_section_title
;
Structure prediction by ZEFSAII (Michael W. Deem and Ramdas Pophale) SiO2 
 PCOD9145028
Probable space group: P 2/M
;
_chemical_formula_sum "Si O2"
_cell_formula_units_Z 32
_cell_length_a 7.979653
_cell_length_b 11.659620
_cell_length_c 17.504461
_cell_angle_alpha 90.000000
_cell_angle_beta 67.106000
_cell_angle_gamma 90.000000
_cell_volume 1500.318285
_symmetry_space_group_name_H-M "P 2/M"
_symmetry_group_IT_number 10
_symmetry_cell_setting 'monoclinic'
loop_
_space_group_symop_operation_xyz
x,y,z
-x,y,-z
-x,-y,-z
x,-y,z
loop_
_atom_site_type_symbol
_atom_site_label
_atom_site_fract_x
_atom_site_fract_y
_atom_site_fract_z
Si Si1 0.785410 0.265355 0.537052
Si Si2 0.688795 0.126105 0.050485
Si Si3 0.523995 0.131491 0.331556
Si Si4 0.197470 0.279843 0.637435
Si Si5 0.522356 0.292740 0.181897
Si Si6 0.995847 0.130566 0.874575
Si Si7 0.137701 0.624464 0.800530
Si Si8 0.824888 0.374272 0.684181
O O1 0.651983 0.164644 0.587212
O O2 0.740270 0.306140 0.459604
O O3 0.758665 0.358240 0.608911
O O4 0.000000 0.234711 0.500000
O O5 0.548922 0.223956 0.099182
O O6 0.842623 0.127791 0.090532
O O7 0.603176 0.000000 0.066016
O O8 0.805548 0.140115 0.953266
O O9 0.698451 0.168578 0.350547
O O10 0.520504 0.201797 0.253053
O O11 0.529572 0.000000 0.311561
O O12 0.230968 0.368453 0.700280
O O13 0.978792 0.279271 0.670225
O O14 0.701104 0.367505 0.166330
O O15 0.337341 0.360366 0.227732
O O16 0.030579 0.253362 0.826826
O O17 0.001462 0.000000 0.837607
O O18 0.043928 0.500000 0.824982
O O19 0.908926 0.500000 0.675502
#
# Coordination Sequence:
#
# PCOD9145028 Si02
#       8
#     4   4   4   4   4   4   4   4
#     4   9  20  36  54  78 102 130 176 218 258 312
#     4   8  13  26  49  74 100 132 169 208 252 310
#     4  10  20  35  54  77 109 141 170 213 264 314
#     4  10  21  34  51  74 100 136 178 213 256 314
#     4   9  18  32  51  77 103 132 173 216 263 316
#     4   8  15  28  48  74 103 135 170 210 259 314
#     4  10  19  31  49  76 107 134 170 219 270 319
#     4  10  20  36  54  71  99 135 173 221 269 310
#
# _framework density 21.328807999999999
#
# number of rings (size 3 to 8) (size 9 to 14) (size 15 to 20)
#    0.000    2.750    0.000    2.250    0.000    7.000 
#    0.000   11.875    0.000   11.250    0.000    3.500 
#    0.000    0.000    0.000    0.000    0.000    0.000 
#
# Total GULP energy -178187.589045 kJ/mol
# GULP energy per Si atom -5568.362158 kJ/mol
# Density = 2.128026 g / cm^3
# Si number density = 21.328808 Si / 1000 Ang^3
#
#
#
# Elastic Constant Matrix: (Units=GPa)
#
#
# Indices 1 2 3 4 5 6 
#
# 1 29.7681 18.2814 11.2695 0.0000 4.6490 0.0000
# 2 18.2814 138.5801 39.3374 0.0000 -2.3959 0.0000
# 3 11.2695 39.3374 70.4002 0.0000 -17.1083 0.0000
# 4 0.0000 0.0000 0.0000 13.0757 0.0000 -3.5335
# 5 4.6490 -2.3959 -17.1083 0.0000 18.9600 0.0000
# 6 0.0000 0.0000 0.0000 -3.5335 0.0000 4.4078
#
#
#
# Elastic Compliance Matrix: (Units=1/GPa)
#
#
# Indices 1 2 3 4 5 6 
#
# 1 0.042280 -0.003143 -0.009770 0.000000 -0.019580 0.000000
# 2 -0.003143 0.009073 -0.005252 0.000000 -0.002822 0.000000
# 3 -0.009770 -0.005252 0.024496 0.000000 0.023835 0.000000
# 4 0.000000 0.000000 0.000000 0.097626 0.000000 0.078261
# 5 -0.019580 -0.002822 0.023835 0.000000 0.078694 0.000000
# 6 0.000000 0.000000 0.000000 0.078261 0.000000 0.289606
#
#
# Mechanical properties :
#
#
# Convention : Reuss Voigt Hill
#
# Bulk Modulus (GPa) = 25.30520 41.83610 33.57065
# Shear Modulus (GPa) = 8.45626 18.61272 13.53449
#
# Velocity S-wave (km/s) = 1.99332 2.95728 2.52179
# Velocity P-wave (km/s) = 4.14582 5.59626 4.92473
#
# Compressibility (1/GPa) = 0.03951756
#
# Stress axis : x y z
#
# Youngs Moduli (GPa) = 23.65204 110.21998 40.82348
#
# Poissons Ratio (x) = 0.34638 0.39886
# Poissons Ratio (y) = 0.07433 0.21442
# Poissons Ratio (z) = 0.23109 0.57892
#
# Static dielectric constant tensor:
#      x y z
#    x 1.834710 0.000000 0.003680 
#    y 0.000000 1.777540 0.000000 
#    z 0.003680 0.000000 1.800170 
# 
# From -- ./inp_files/82486.got.cif
#   From: 2010.05.17/outbox.cif.g08.bks.cpg/sg10_42_cif.got.tgz:82486.got - 2010.06.03 11:33:40.
