data_PCOD9145565
_publ_section_title
;
Structure prediction by ZEFSAII (Michael W. Deem and Ramdas Pophale) SiO2 
 PCOD9145565
Probable space group: P 2/M
;
_chemical_formula_sum "Si O2"
_cell_formula_units_Z 28
_cell_length_a 9.065237
_cell_length_b 22.163317
_cell_length_c 15.739446
_cell_angle_alpha 90.000000
_cell_angle_beta 152.505112
_cell_angle_gamma 90.000000
_cell_volume 1459.938360
_symmetry_space_group_name_H-M "P 2/M"
_symmetry_group_IT_number 10
_symmetry_cell_setting 'monoclinic'
loop_
_space_group_symop_operation_xyz
x,y,z
-x,y,-z
-x,-y,-z
x,-y,z
loop_
_atom_site_type_symbol
_atom_site_label
_atom_site_fract_x
_atom_site_fract_y
_atom_site_fract_z
Si Si1 0.022440 0.068288 0.791027
Si Si2 0.685859 0.593478 0.685682
Si Si3 0.869586 0.500000 0.167782
Si Si4 0.320479 0.267535 0.318426
Si Si5 0.323449 0.192798 0.992065
Si Si6 0.394894 0.180085 0.209502
Si Si7 0.767386 0.500000 0.464577
Si Si8 0.379194 0.067970 0.577291
O O1 0.700865 0.069213 0.683784
O O2 0.906502 0.080337 0.635225
O O3 0.238248 0.122211 0.934825
O O4 0.151413 0.000000 0.862630
O O5 0.500000 0.592472 0.500000
O O6 0.732398 0.662943 0.732879
O O7 0.471157 0.557469 0.644868
O O8 0.004859 0.556691 0.823903
O O9 0.034252 0.500000 0.345351
O O10 0.500000 0.500000 0.000000
O O11 0.500000 0.264726 0.500000
O O12 0.477765 0.229685 0.322563
O O13 0.994356 0.231683 0.164316
O O14 0.500000 0.214821 0.000000
O O15 0.506014 0.198934 0.173392
O O16 0.556939 0.117958 0.320204
O O17 0.000000 0.173254 0.000000
O O18 0.000000 0.500000 0.500000
O O19 0.341754 0.000000 0.591546
#
# Coordination Sequence:
#
# PCOD9145565 Si02
#       8
#     4   4   2   4   4   4   2   4
#     4   9  17  31  52  75 101 133 172 219 272 329
#     4   8  17  34  57  81 109 150 185 215 264 321
#     4   9  17  33  56  84 116 147 181 217 264 316
#     4  10  19  37  59  75 100 143 186 219 257 313
#     4  11  23  36  50  75 109 140 172 223 282 324
#     4  10  19  32  51  75 101 135 173 220 269 318
#     4   9  17  35  58  86 118 143 179 223 260 316
#     4   9  16  29  53  79  95 125 181 226 258 319
#
# _framework density 19.178889999999999
#
# number of rings (size 3 to 8) (size 9 to 14) (size 15 to 20)
#    0.000    2.571    2.857    2.571    0.000    1.714 
#    0.000   12.857    0.000    1.714    0.000    0.000 
#    0.000    0.000    0.000    0.000    0.000    0.000 
#
# Total GULP energy -156055.126829 kJ/mol
# GULP energy per Si atom -5573.397387 kJ/mol
# Density = 1.913524 g / cm^3
# Si number density = 19.178890 Si / 1000 Ang^3
#
#
#
# Elastic Constant Matrix: (Units=GPa)
#
#
# Indices 1 2 3 4 5 6 
#
# 1 124.7627 50.7344 29.6250 0.0000 -14.8021 0.0000
# 2 50.7344 130.0694 43.1329 0.0000 -15.2950 0.0000
# 3 29.6250 43.1329 40.6050 0.0000 -10.1424 0.0000
# 4 0.0000 0.0000 0.0000 -297.8660 0.0000 -49.9314
# 5 -14.8021 -15.2950 -10.1424 0.0000 27.1631 0.0000
# 6 0.0000 0.0000 0.0000 -49.9314 0.0000 -5.3666
#
#
#
# Elastic Compliance Matrix: (Units=1/GPa)
#
#
# Indices 1 2 3 4 5 6 
#
# 1 0.010301 -0.002211 -0.004495 0.000000 0.002690 0.000000
# 2 -0.002211 0.012462 -0.011219 0.000000 0.001623 0.000000
# 3 -0.004495 -0.011219 0.041506 0.000000 0.006731 0.000000
# 4 0.000000 0.000000 0.000000 0.005999 0.000000 -0.055813
# 5 0.002690 0.001623 0.006731 0.000000 0.041708 0.000000
# 6 0.000000 0.000000 0.000000 -0.055813 0.000000 0.332953
#
#
# Mechanical properties :
#
#
# Convention : Reuss Voigt Hill
#
# Bulk Modulus (GPa) = 35.18829 60.26908 47.72869
# Shear Modulus (GPa) = 10.19887 -43.75092 -16.77603
#
# Velocity S-wave (km/s) = 2.30853 -4.78137 -2.96076
# Velocity P-wave (km/s) = 5.04906 1.00542 3.64032
#
# Compressibility (1/GPa) = 0.02841854
#
# Stress axis : x y z
#
# Youngs Moduli (GPa) = 97.08027 80.24423 24.09301
#
# Poissons Ratio (x) = 0.17742 0.10829
# Poissons Ratio (y) = 0.21465 0.27030
# Poissons Ratio (z) = 0.43635 0.90028
#
# Static dielectric constant tensor:
#      x y z
#    x 1.667520 0.000000 0.071340 
#    y 0.000000 1.662500 0.000000 
#    z 0.071340 0.000000 1.585940 
# 
# From -- ./inp_files/62634.got.cif
#   From: 2010.05.17/outbox.cif.g08.bks.cpg/sg10_32_cif.got.tgz:62634.got - 2010.06.03 11:33:40.
