data_PCOD9145701
_publ_section_title
;
Structure prediction by ZEFSAII (Michael W. Deem and Ramdas Pophale) SiO2 
 PCOD9145701
Probable space group: P 2/M
;
_chemical_formula_sum "Si O2"
_cell_formula_units_Z 32
_cell_length_a 24.417377
_cell_length_b 9.358366
_cell_length_c 24.603253
_cell_angle_alpha 90.000000
_cell_angle_beta 17.263582
_cell_angle_gamma 90.000000
_cell_volume 1668.432231
_symmetry_space_group_name_H-M "P 2/M"
_symmetry_group_IT_number 10
_symmetry_cell_setting 'monoclinic'
loop_
_space_group_symop_operation_xyz
x,y,z
-x,y,-z
-x,-y,-z
x,-y,z
loop_
_atom_site_type_symbol
_atom_site_label
_atom_site_fract_x
_atom_site_fract_y
_atom_site_fract_z
Si Si1 0.650871 0.335865 0.756270
Si Si2 0.506147 0.833589 0.792780
Si Si3 0.208592 0.326474 0.794831
Si Si4 0.789362 0.164321 0.723806
Si Si5 0.443483 0.672346 0.466304
Si Si6 0.720646 0.170123 0.480374
Si Si7 0.914152 0.166588 0.814924
Si Si8 0.931846 0.663521 0.686778
O O1 0.598009 0.500000 0.816661
O O2 0.533827 0.262683 0.819507
O O3 0.662740 0.243198 0.799689
O O4 0.861433 0.336400 0.533756
O O5 0.640883 0.795384 0.615765
O O6 0.539525 0.000000 0.776132
O O7 0.298497 0.821237 0.967507
O O8 0.204226 0.500000 0.800001
O O9 0.353961 0.284087 0.703841
O O10 0.300360 0.288008 0.650160
O O11 0.000000 0.274230 0.000000
O O12 0.804239 0.249824 0.765876
O O13 0.000000 0.164562 0.500000
O O14 0.736351 0.000000 0.782254
O O15 0.441198 0.500000 0.463155
O O16 0.382065 0.744890 0.469067
O O17 0.938108 0.204245 0.279007
O O18 0.696827 0.000000 0.494512
O O19 0.939051 0.260576 0.737808
O O20 0.949842 0.000000 0.766543
O O21 0.870936 0.500000 0.749125
#
# Coordination Sequence:
#
# PCOD9145701 Si02
#       8
#     4   4   4   4   4   4   4   4
#     4  10  19  32  52  78 107 136 171 221 277 327
#     4  10  21  37  56  76 101 140 185 222 265 325
#     4   8  15  31  54  80 112 146 178 218 264 306
#     4   9  17  29  50  77 104 138 177 215 264 331
#     4   9  18  32  54  82 107 139 185 222 255 311
#     4  10  21  37  55  77 111 146 177 222 272 314
#     4  10  21  37  56  76 101 140 185 222 265 325
#     4  10  19  32  52  78 107 136 171 221 277 327
#
# _framework density 19.179682
#
# number of rings (size 3 to 8) (size 9 to 14) (size 15 to 20)
#    0.000    2.500    1.250    1.875    0.000    5.000 
#    0.000    1.875    0.000    4.500    0.000    0.000 
#    0.000    0.000    0.000    0.000    0.000    0.000 
#
# Total GULP energy -178658.403746 kJ/mol
# GULP energy per Si atom -5583.075117 kJ/mol
# Density = 1.913603 g / cm^3
# Si number density = 19.179682 Si / 1000 Ang^3
#
#
#
# Elastic Constant Matrix: (Units=GPa)
#
#
# Indices 1 2 3 4 5 6 
#
# 1 124.7367 53.9864 33.6016 0.0000 -26.4881 0.0000
# 2 53.9864 74.9017 23.4026 0.0000 -13.2968 0.0000
# 3 33.6016 23.4026 76.6434 0.0000 -23.9812 0.0000
# 4 0.0000 0.0000 0.0000 13.9682 0.0000 -3.1124
# 5 -26.4881 -13.2968 -23.9812 0.0000 19.1681 0.0000
# 6 0.0000 0.0000 0.0000 -3.1124 0.0000 36.9578
#
#
#
# Elastic Compliance Matrix: (Units=1/GPa)
#
#
# Indices 1 2 3 4 5 6 
#
# 1 0.014577 -0.008009 0.001018 0.000000 0.015861 0.000000
# 2 -0.008009 0.019857 -0.002802 0.000000 -0.000798 0.000000
# 3 0.001018 -0.002802 0.021837 0.000000 0.026783 0.000000
# 4 0.000000 0.000000 0.000000 0.072960 0.000000 0.006144
# 5 0.015861 -0.000798 0.026783 0.000000 0.107044 0.000000
# 6 0.000000 0.000000 0.000000 0.006144 0.000000 0.027575
#
#
# Mechanical properties :
#
#
# Convention : Reuss Voigt Hill
#
# Bulk Modulus (GPa) = 27.25884 55.36258 41.31071
# Shear Modulus (GPa) = 16.91103 25.03823 20.97463
#
# Velocity S-wave (km/s) = 2.97259 3.61703 3.31053
# Velocity P-wave (km/s) = 5.10146 6.80968 6.01651
#
# Compressibility (1/GPa) = 0.03668535
#
# Stress axis : x y z
#
# Youngs Moduli (GPa) = 68.59989 50.35986 45.79381
#
# Poissons Ratio (x) = 0.40333 -0.04660
# Poissons Ratio (y) = 0.54941 0.12830
# Poissons Ratio (z) = -0.06980 0.14109
#
# Static dielectric constant tensor:
#      x y z
#    x 1.619700 0.000000 -0.021390 
#    y 0.000000 1.644750 0.000000 
#    z -0.021390 0.000000 1.718250 
# 
# From -- ./inp_files/90623.got.cif
#   From: 2010.05.17/outbox.cif.g08.bks.cpg/sg10_46_cif.got.tgz:90623.got - 2010.06.03 11:33:40.
