data_PCOD9145066
_publ_section_title
;
Structure prediction by ZEFSAII (Michael W. Deem and Ramdas Pophale) SiO2 
 PCOD9145066
Probable space group: P 2/M
;
_chemical_formula_sum "Si O2"
_cell_formula_units_Z 32
_cell_length_a 15.995568
_cell_length_b 9.122221
_cell_length_c 28.297164
_cell_angle_alpha 90.000000
_cell_angle_beta 27.806059
_cell_angle_gamma 90.000000
_cell_volume 1926.089064
_symmetry_space_group_name_H-M "P 2/M"
_symmetry_group_IT_number 10
_symmetry_cell_setting 'monoclinic'
loop_
_space_group_symop_operation_xyz
x,y,z
-x,y,-z
-x,-y,-z
x,-y,z
loop_
_atom_site_type_symbol
_atom_site_label
_atom_site_fract_x
_atom_site_fract_y
_atom_site_fract_z
Si Si1 0.584306 0.175729 0.568950
Si Si2 0.295563 0.333875 0.583506
Si Si3 0.209669 0.675136 0.340009
Si Si4 0.415694 0.175729 0.153256
Si Si5 0.806233 0.824564 0.921932
Si Si6 0.209668 0.324864 0.450323
Si Si7 0.193767 0.175436 0.728165
Si Si8 0.295562 0.333875 0.120932
O O1 0.695061 0.245698 0.470001
O O2 0.663778 0.238641 0.577391
O O3 0.374635 0.217585 0.665613
O O4 0.597382 0.000000 0.560847
O O5 0.500000 0.341557 0.500000
O O6 0.230245 0.500000 0.609271
O O7 0.199175 0.250406 0.674161
O O8 0.231578 0.500000 0.322421
O O9 0.336223 0.761359 0.241169
O O10 0.245326 0.707695 0.377337
O O11 0.000001 0.709542 0.435630
O O12 0.304939 0.245698 0.165062
O O13 0.402618 0.000000 0.158229
O O14 0.625365 0.217585 0.040248
O O15 0.800826 0.749595 0.873336
O O16 1.000000 0.789564 0.847504
O O17 0.796490 0.000000 0.920421
O O18 0.231577 0.500000 0.446002
O O19 0.203509 0.000000 0.716912
O O20 0.230245 0.500000 0.160484
O O21 0.500000 0.341555 0.000000
#
# Coordination Sequence:
#
# PCOD9145066 Si02
#       8
#     4   4   4   4   4   4   4   4
#     4  10  19  31  50  74  98 126 160 197 238 283
#     4   9  17  29  45  66  93 125 161 198 233 271
#     4   9  19  36  55  73  94 121 153 192 241 292
#     4  10  19  31  50  74  98 126 160 197 238 283
#     4   9  18  32  48  68  98 133 165 197 233 274
#     4   9  19  36  55  73  94 121 153 192 241 292
#     4   9  18  32  48  68  98 133 165 197 233 274
#     4   9  17  29  45  66  93 125 161 198 233 271
#
# _framework density 16.613976999999998
#
# number of rings (size 3 to 8) (size 9 to 14) (size 15 to 20)
#    0.000    2.750    0.000    2.250    0.000    6.500 
#    0.000    1.250    0.000    0.750    0.000    5.250 
#    0.000    0.000    0.000    0.000    0.000    0.000 
#
# Total GULP energy -178307.865197 kJ/mol
# GULP energy per Si atom -5572.120787 kJ/mol
# Density = 1.657616 g / cm^3
# Si number density = 16.613977 Si / 1000 Ang^3
#
#
#
# Elastic Constant Matrix: (Units=GPa)
#
#
# Indices 1 2 3 4 5 6 
#
# 1 106.3573 50.3398 63.4958 0.0000 -2.3052 0.0000
# 2 50.3398 47.7331 45.4900 0.0000 3.5956 0.0000
# 3 63.4958 45.4900 105.6283 0.0000 2.8448 0.0000
# 4 0.0000 0.0000 0.0000 15.3464 0.0000 1.8363
# 5 -2.3052 3.5956 2.8448 0.0000 19.1663 0.0000
# 6 0.0000 0.0000 0.0000 1.8363 0.0000 17.8229
#
#
#
# Elastic Compliance Matrix: (Units=1/GPa)
#
#
# Indices 1 2 3 4 5 6 
#
# 1 0.021042 -0.017751 -0.005183 0.000000 0.006630 0.000000
# 2 -0.017751 0.050885 -0.010973 0.000000 -0.010052 0.000000
# 3 -0.005183 -0.010973 0.017339 0.000000 -0.001138 0.000000
# 4 0.000000 0.000000 0.000000 0.065975 0.000000 -0.006797
# 5 0.006630 -0.010052 -0.001138 0.000000 0.055027 0.000000
# 6 0.000000 0.000000 0.000000 -0.006797 0.000000 0.056808
#
#
# Mechanical properties :
#
#
# Convention : Reuss Voigt Hill
#
# Bulk Modulus (GPa) = 46.61506 64.26330 55.43918
# Shear Modulus (GPa) = 14.61824 17.16002 15.88913
#
# Velocity S-wave (km/s) = 2.96949 3.21731 3.09588
# Velocity P-wave (km/s) = 6.31473 7.25022 6.79858
#
# Compressibility (1/GPa) = 0.02145229
#
# Stress axis : x y z
#
# Youngs Moduli (GPa) = 47.52444 19.65232 57.67480
#
# Poissons Ratio (x) = 0.34885 0.29890
# Poissons Ratio (y) = 0.84362 0.63284
# Poissons Ratio (z) = 0.24630 0.21564
#
# Static dielectric constant tensor:
#      x y z
#    x 1.538760 0.000000 -0.031030 
#    y 0.000000 1.560610 0.000000 
#    z -0.031030 0.000000 1.580600 
# 
# From -- ./inp_files/66581.got.cif
#   From: 2010.05.17/outbox.cif.g08.bks.cpg/sg10_34_cif.got.tgz:66581.got - 2010.06.03 11:33:40.
