data_PCOD9145796
_publ_section_title
;
Structure prediction by ZEFSAII (Michael W. Deem and Ramdas Pophale) SiO2 
 PCOD9145796
Probable space group: P 2/M
;
_chemical_formula_sum "Si O2"
_cell_formula_units_Z 32
_cell_length_a 20.836155
_cell_length_b 7.527369
_cell_length_c 12.582330
_cell_angle_alpha 90.000000
_cell_angle_beta 125.536234
_cell_angle_gamma 90.000000
_cell_volume 1605.875432
_symmetry_space_group_name_H-M "P 2/M"
_symmetry_group_IT_number 10
_symmetry_cell_setting 'monoclinic'
loop_
_space_group_symop_operation_xyz
x,y,z
-x,y,-z
-x,-y,-z
x,-y,z
loop_
_atom_site_type_symbol
_atom_site_label
_atom_site_fract_x
_atom_site_fract_y
_atom_site_fract_z
Si Si1 0.026029 0.717212 0.144396
Si Si2 0.127409 0.284040 0.886814
Si Si3 0.707260 0.206153 0.365663
Si Si4 0.381481 0.285192 0.110128
Si Si5 0.463548 0.207962 0.856258
Si Si6 0.796793 0.292746 0.663143
Si Si7 0.268401 0.716051 0.182167
Si Si8 0.241868 0.714756 0.816736
O O1 0.025432 0.500000 0.147494
O O2 0.114389 0.781217 0.252864
O O3 0.958947 0.777521 0.162378
O O4 0.000000 0.766141 0.000000
O O5 0.125722 0.500000 0.882146
O O6 0.166794 0.225919 0.814106
O O7 0.190140 0.237521 0.039411
O O8 0.620131 0.284940 0.260314
O O9 0.754055 0.283667 0.509620
O O10 0.753217 0.222474 0.298754
O O11 0.697564 0.000000 0.383371
O O12 0.382924 0.500000 0.111025
O O13 0.468484 0.222025 0.166056
O O14 0.342926 0.223884 0.183868
O O15 0.320255 0.229935 0.957913
O O16 0.552100 0.000000 0.136272
O O17 0.500000 0.286263 0.000000
O O18 0.807510 0.500000 0.700239
O O19 0.744480 0.220083 0.710375
O O20 0.273815 0.500000 0.186960
O O21 0.241877 0.500000 0.815369
#
# Coordination Sequence:
#
# PCOD9145796 Si02
#       8
#     4   4   4   4   4   4   4   4
#     4   9  14  24  48  82 108 128 161 204 247 288
#     4   8  13  24  46  78 108 127 155 204 250 288
#     4  11  23  37  51  68  99 137 170 207 251 298
#     4   9  17  29  51  80 103 123 156 206 255 295
#     4  10  20  35  52  71  95 128 171 212 250 294
#     4  10  19  32  53  78 105 135 167 201 243 298
#     4   8  14  27  47  76 108 131 154 196 251 297
#     4   9  17  30  50  76 103 129 161 203 250 297
#
# _framework density 19.926826999999999
#
# number of rings (size 3 to 8) (size 9 to 14) (size 15 to 20)
#    0.000    2.750    2.500    1.875    0.000    1.250 
#    0.000    1.875    0.000    9.375    0.000    0.000 
#    0.000    0.000    0.000    0.000    0.000    0.000 
#
# Total GULP energy -178463.176108 kJ/mol
# GULP energy per Si atom -5576.974253 kJ/mol
# Density = 1.988147 g / cm^3
# Si number density = 19.926827 Si / 1000 Ang^3
#
#
#
# Elastic Constant Matrix: (Units=GPa)
#
#
# Indices 1 2 3 4 5 6 
#
# 1 172.1976 -8.3869 83.1364 0.0000 -7.7758 0.0000
# 2 -8.3869 44.0640 -6.4525 0.0000 4.6927 0.0000
# 3 83.1364 -6.4525 109.3948 0.0000 -4.3917 0.0000
# 4 0.0000 0.0000 0.0000 -29.7889 0.0000 6.2594
# 5 -7.7758 4.6927 -4.3917 0.0000 27.1488 0.0000
# 6 0.0000 0.0000 0.0000 6.2594 0.0000 35.5801
#
#
#
# Elastic Compliance Matrix: (Units=1/GPa)
#
#
# Indices 1 2 3 4 5 6 
#
# 1 0.009250 0.000593 -0.006937 0.000000 0.001425 0.000000
# 2 0.000593 0.023318 0.000775 0.000000 -0.003735 0.000000
# 3 -0.006937 0.000775 0.014468 0.000000 0.000219 0.000000
# 4 0.000000 0.000000 0.000000 -0.032373 0.000000 0.005695
# 5 0.001425 -0.003735 0.000219 0.000000 0.037923 0.000000
# 6 0.000000 0.000000 0.000000 0.005695 0.000000 0.027104
#
#
# Mechanical properties :
#
#
# Convention : Reuss Voigt Hill
#
# Bulk Modulus (GPa) = 27.85756 51.36114 39.60935
# Shear Modulus (GPa) = 48.64045 23.74531 36.19288
#
# Velocity S-wave (km/s) = 4.94596 3.45574 4.26642
# Velocity P-wave (km/s) = 6.82839 6.46171 6.64758
#
# Compressibility (1/GPa) = 0.03589690
#
# Stress axis : x y z
#
# Youngs Moduli (GPa) = 108.10984 42.88460 69.11840
#
# Poissons Ratio (x) = -0.02543 0.47950
# Poissons Ratio (y) = -0.06411 -0.05355
# Poissons Ratio (z) = 0.75000 -0.03323
#
# Static dielectric constant tensor:
#      x y z
#    x 1.724840 0.000000 0.000200 
#    y 0.000000 1.758310 0.000000 
#    z 0.000200 0.000000 1.662800 
# 
# From -- ./inp_files/55368.got.cif
#   From: 2010.05.17/outbox.cif.g08.bks.cpg/sg10_28_cif.got.tgz:55368.got - 2010.06.03 11:33:40.
