data_PCOD9145793
_publ_section_title
;
Structure prediction by ZEFSAII (Michael W. Deem and Ramdas Pophale) SiO2 
 PCOD9145793
Probable space group: P 2/M
;
_chemical_formula_sum "Si O2"
_cell_formula_units_Z 32
_cell_length_a 28.586611
_cell_length_b 8.763387
_cell_length_c 21.620468
_cell_angle_alpha 90.000000
_cell_angle_beta 160.911637
_cell_angle_gamma 90.000000
_cell_volume 1771.258695
_symmetry_space_group_name_H-M "P 2/M"
_symmetry_group_IT_number 10
_symmetry_cell_setting 'monoclinic'
loop_
_space_group_symop_operation_xyz
x,y,z
-x,y,-z
-x,-y,-z
x,-y,z
loop_
_atom_site_type_symbol
_atom_site_label
_atom_site_fract_x
_atom_site_fract_y
_atom_site_fract_z
Si Si1 0.159581 0.317279 0.829358
Si Si2 0.594371 0.182578 0.424195
Si Si3 0.090433 0.684021 0.172888
Si Si4 0.932707 0.317051 0.102688
Si Si5 0.320323 0.182714 0.150524
Si Si6 0.434168 0.682563 0.104114
Si Si7 0.425863 0.184023 0.843429
Si Si8 0.907104 0.817066 0.577270
O O1 0.149663 0.500000 0.822045
O O2 0.002833 0.246060 0.640250
O O3 0.242477 0.250053 0.992476
O O4 0.266564 0.279300 0.906890
O O5 0.752104 0.245976 0.630512
O O6 0.486258 0.220620 0.345822
O O7 0.525461 0.250030 0.275351
O O8 0.597235 0.000000 0.421847
O O9 0.103481 0.500000 0.188600
O O10 0.006267 0.726408 0.130242
O O11 0.000000 0.730923 0.000000
O O12 0.930071 0.500000 0.104749
O O13 0.026076 0.250036 0.275988
O O14 0.771442 0.253905 0.908770
O O15 0.305155 0.000000 0.132715
O O16 0.447400 0.500000 0.122490
O O17 0.494550 0.746064 0.115894
O O18 0.258574 0.226467 0.634376
O O19 0.433572 0.000000 0.848504
O O20 0.500000 0.230958 0.000000
O O21 0.919109 0.000000 0.593976
#
# Coordination Sequence:
#
# PCOD9145793 Si02
#       8
#     4   4   4   4   4   4   4   4
#     4   9  17  30  50  77 105 130 163 208 255 303
#     4  10  20  34  55  81 105 134 171 211 257 307
#     4  10  22  38  53  73 104 140 177 216 257 304
#     4  10  19  32  53  78 102 131 168 209 255 305
#     4   9  17  30  50  77 105 130 163 208 255 303
#     4  10  20  34  55  81 105 134 171 211 257 307
#     4  10  22  38  53  73 104 140 177 216 257 304
#     4  10  19  32  53  78 102 131 168 209 255 305
#
# _framework density 18.066248999999999
#
# number of rings (size 3 to 8) (size 9 to 14) (size 15 to 20)
#    0.000    2.250    0.000    4.500    0.000    7.500 
#    0.000    1.250    0.000    7.500    0.000    0.000 
#    0.000    0.000    0.000    0.000    0.000    0.000 
#
# Total GULP energy -178477.917122 kJ/mol
# GULP energy per Si atom -5577.434910 kJ/mol
# Density = 1.802513 g / cm^3
# Si number density = 18.066249 Si / 1000 Ang^3
#
#
#
# Elastic Constant Matrix: (Units=GPa)
#
#
# Indices 1 2 3 4 5 6 
#
# 1 118.8643 50.5887 129.8723 0.0000 41.2075 0.0000
# 2 50.5887 49.1114 47.1560 0.0000 18.0175 0.0000
# 3 129.8723 47.1560 104.4382 0.0000 33.8507 0.0000
# 4 0.0000 0.0000 0.0000 14.8277 0.0000 -0.6771
# 5 41.2075 18.0175 33.8507 0.0000 34.9267 0.0000
# 6 0.0000 0.0000 0.0000 -0.6771 0.0000 15.1695
#
#
#
# Elastic Compliance Matrix: (Units=1/GPa)
#
#
# Indices 1 2 3 4 5 6 
#
# 1 -0.022239 -0.006427 0.030586 0.000000 -0.000090 0.000000
# 2 -0.006427 0.034496 -0.006230 0.000000 -0.004174 0.000000
# 3 0.030586 -0.006230 -0.021858 0.000000 -0.011687 0.000000
# 4 0.000000 0.000000 0.000000 0.067579 0.000000 0.003016
# 5 -0.000090 -0.004174 -0.011687 0.000000 0.042218 0.000000
# 6 0.000000 0.000000 0.000000 0.003016 0.000000 0.066056
#
#
# Mechanical properties :
#
#
# Convention : Reuss Voigt Hill
#
# Bulk Modulus (GPa) = 38.08725 80.84976 59.46851
# Shear Modulus (GPa) = 35.93321 15.97126 25.95223
#
# Velocity S-wave (km/s) = 4.46462 2.97650 3.79424
# Velocity P-wave (km/s) = 6.90687 7.52740 7.22380
#
# Compressibility (1/GPa) = 0.02625550
#
# Stress axis : x y z
#
# Youngs Moduli (GPa) = -44.96648 28.98895 -45.74921
#
# Poissons Ratio (x) = 0.18632 1.39928
# Poissons Ratio (y) = -0.28901 -0.28503
# Poissons Ratio (z) = 1.37534 0.18061
#
# Static dielectric constant tensor:
#      x y z
#    x 1.602000 0.000000 0.063600 
#    y 0.000000 1.608720 0.000000 
#    z 0.063600 0.000000 1.591590 
# 
# From -- ./inp_files/87051.got.cif
#   From: 2010.05.17/outbox.cif.g08.bks.cpg/sg10_44_cif.got.tgz:87051.got - 2010.06.03 11:33:40.
