data_PCOD9145431
_publ_section_title
;
Structure prediction by ZEFSAII (Michael W. Deem and Ramdas Pophale) SiO2 
 PCOD9145431
Probable space group: P 2/M
;
_chemical_formula_sum "Si O2"
_cell_formula_units_Z 32
_cell_length_a 19.771520
_cell_length_b 7.372668
_cell_length_c 22.567725
_cell_angle_alpha 90.000000
_cell_angle_beta 151.307927
_cell_angle_gamma 90.000000
_cell_volume 1579.378264
_symmetry_space_group_name_H-M "P 2/M"
_symmetry_group_IT_number 10
_symmetry_cell_setting 'monoclinic'
loop_
_space_group_symop_operation_xyz
x,y,z
-x,y,-z
-x,-y,-z
x,-y,z
loop_
_atom_site_type_symbol
_atom_site_label
_atom_site_fract_x
_atom_site_fract_y
_atom_site_fract_z
Si Si1 0.842909 0.781148 0.013618
Si Si2 0.162153 0.778382 0.626932
Si Si3 0.308032 0.220591 0.985708
Si Si4 0.336159 0.778896 0.876307
Si Si5 0.403050 0.712486 0.373832
Si Si6 0.908274 0.710606 0.876392
Si Si7 0.558354 0.218534 0.729654
Si Si8 0.594865 0.220654 0.271314
O O1 0.800234 0.721526 0.046686
O O2 0.992127 0.718799 0.104112
O O3 0.843366 0.000000 0.013341
O O4 0.714251 0.722493 0.871623
O O5 0.243603 0.720707 0.749277
O O6 0.258975 0.721251 0.645707
O O7 0.000000 0.719559 0.500000
O O8 0.161137 0.000000 0.626213
O O9 0.279679 0.278946 0.897140
O O10 0.307877 0.000000 0.985451
O O11 0.464199 0.273147 0.128272
O O12 0.336302 0.000000 0.874803
O O13 0.500000 0.723787 0.000000
O O14 0.500000 0.790975 0.500000
O O15 0.385702 0.500000 0.374996
O O16 0.245648 0.791866 0.250123
O O17 0.466707 0.725339 0.356877
O O18 0.885468 0.500000 0.875078
O O19 0.000000 0.793739 0.000000
O O20 0.448136 0.279091 0.695495
O O21 0.558905 0.000000 0.731120
O O22 0.596022 0.000000 0.272896
#
# Coordination Sequence:
#
# PCOD9145431 Si02
#       8
#     4   4   4   4   4   4   4   4
#     4   9  17  28  45  70  96 120 148 188 232 271
#     4   9  15  21  31  51  79 111 145 178 214 255
#     4   8  13  22  36  56  82 111 145 181 217 258
#     4   9  13  19  33  50  71 104 142 175 208 250
#     4  10  21  36  51  68  92 120 150 188 229 268
#     4  10  19  32  50  70  90 114 148 189 228 267
#     4   9  17  29  47  69  93 122 152 184 227 276
#     4   8  13  23  37  55  82 113 144 178 217 261
#
# _framework density 20.261137999999999
#
# number of rings (size 3 to 8) (size 9 to 14) (size 15 to 20)
#    0.000    3.000    2.500    1.500    0.000    1.000 
#    0.000    1.250    0.000    3.000    0.000    0.000 
#    0.000    2.000    0.000    0.125    0.000    0.125 
#
# Total GULP energy -178495.778859 kJ/mol
# GULP energy per Si atom -5577.993089 kJ/mol
# Density = 2.021502 g / cm^3
# Si number density = 20.261138 Si / 1000 Ang^3
#
#
#
# Elastic Constant Matrix: (Units=GPa)
#
#
# Indices 1 2 3 4 5 6 
#
# 1 167.9556 -8.6561 102.6348 0.0000 2.2463 0.0000
# 2 -8.6561 70.3684 8.7377 0.0000 0.7318 0.0000
# 3 102.6348 8.7377 151.9668 0.0000 -1.1724 0.0000
# 4 0.0000 0.0000 0.0000 -21.7542 0.0000 10.2190
# 5 2.2463 0.7318 -1.1724 0.0000 32.3939 0.0000
# 6 0.0000 0.0000 0.0000 10.2190 0.0000 22.8109
#
#
#
# Elastic Compliance Matrix: (Units=1/GPa)
#
#
# Indices 1 2 3 4 5 6 
#
# 1 0.010494 0.002199 -0.007222 0.000000 -0.001039 0.000000
# 2 0.002199 0.014778 -0.002339 0.000000 -0.000571 0.000000
# 3 -0.007222 -0.002339 0.011600 0.000000 0.000973 0.000000
# 4 0.000000 0.000000 0.000000 -0.037976 0.000000 0.017013
# 5 -0.001039 -0.000571 0.000973 0.000000 0.030990 0.000000
# 6 0.000000 0.000000 0.000000 0.017013 0.000000 0.036217
#
#
# Mechanical properties :
#
#
# Convention : Reuss Voigt Hill
#
# Bulk Modulus (GPa) = 45.15249 66.19151 55.67200
# Shear Modulus (GPa) = 56.68235 25.86173 41.27204
#
# Velocity S-wave (km/s) = 5.29496 3.57658 4.51822
# Velocity P-wave (km/s) = 7.72760 7.05663 7.39972
#
# Compressibility (1/GPa) = 0.02214717
#
# Stress axis : x y z
#
# Youngs Moduli (GPa) = 95.28808 67.66940 86.20650
#
# Poissons Ratio (x) = -0.14877 0.62260
# Poissons Ratio (y) = -0.20949 0.20163
# Poissons Ratio (z) = 0.68819 0.15827
#
# Static dielectric constant tensor:
#      x y z
#    x 1.728330 0.000000 -0.000980 
#    y 0.000000 1.769730 0.000000 
#    z -0.000980 0.000000 1.695250 
# 
# From -- ./inp_files/85794.got.cif
#   From: 2010.05.17/outbox.cif.g08.bks.cpg/sg10_43_cif.got.tgz:85794.got - 2010.06.03 11:33:40.
