data_PCOD9145284
_publ_section_title
;
Structure prediction by ZEFSAII (Michael W. Deem and Ramdas Pophale) SiO2 
 PCOD9145284
Probable space group: P 2/M
;
_chemical_formula_sum "Si O2"
_cell_formula_units_Z 28
_cell_length_a 27.053970
_cell_length_b 7.679417
_cell_length_c 8.041150
_cell_angle_alpha 90.000000
_cell_angle_beta 140.378160
_cell_angle_gamma 90.000000
_cell_volume 1065.383224
_symmetry_space_group_name_H-M "P 2/M"
_symmetry_group_IT_number 10
_symmetry_cell_setting 'monoclinic'
loop_
_space_group_symop_operation_xyz
x,y,z
-x,y,-z
-x,-y,-z
x,-y,z
loop_
_atom_site_type_symbol
_atom_site_label
_atom_site_fract_x
_atom_site_fract_y
_atom_site_fract_z
Si Si1 0.023597 0.206633 0.803073
Si Si2 0.167889 0.294458 0.007273
Si Si3 0.687732 0.287423 0.437814
Si Si4 0.880009 0.213116 0.626532
Si Si5 0.450847 0.292733 0.712542
Si Si6 0.735305 0.210064 0.069407
Si Si7 0.589753 0.200570 0.855399
O O1 0.079094 0.234680 0.789394
O O2 0.938235 0.272450 0.628697
O O3 0.016459 0.000000 0.798940
O O4 0.078245 0.270749 0.096961
O O5 0.164983 0.500000 0.017418
O O6 0.215565 0.252692 0.965755
O O7 0.225502 0.223388 0.301148
O O8 0.687440 0.500000 0.427529
O O9 0.635234 0.232216 0.462639
O O10 0.642986 0.220332 0.160037
O O11 0.793415 0.273725 0.365695
O O12 0.877807 0.000000 0.623384
O O13 0.448155 0.500000 0.715871
O O14 0.500000 0.227669 0.000000
O O15 0.504067 0.257088 0.690441
O O16 0.648403 0.282532 0.870868
O O17 0.730088 0.000000 0.064695
O O18 0.581371 0.000000 0.791449
#
# Coordination Sequence:
#
# PCOD9145284 Si02
#       7
#     4   4   4   4   4   4   4
#     4   9  17  34  59  81 100 127 166 210 253 297
#     4  11  23  36  50  73 104 137 173 209 248 295
#     4   9  19  35  53  73 100 135 172 206 245 301
#     4   8  16  33  58  81  99 128 170 206 243 303
#     4   8  15  30  51  73  99 132 167 203 247 300
#     4  10  21  36  51  72 104 138 170 204 247 301
#     4  10  19  31  53  82 104 125 163 214 259 296
#
# _framework density 26.281624999999998
#
# number of rings (size 3 to 8) (size 9 to 14) (size 15 to 20)
#    0.000    2.714    0.000    3.429    0.000    6.571 
#    0.000    6.429    0.000    4.286    0.000    0.000 
#    0.000    0.000    0.000    0.000    0.000    0.000 
#
# Total GULP energy -156366.117465 kJ/mol
# GULP energy per Si atom -5584.504195 kJ/mol
# Density = 2.622181 g / cm^3
# Si number density = 26.281625 Si / 1000 Ang^3
#
#
#
# Elastic Constant Matrix: (Units=GPa)
#
#
# Indices 1 2 3 4 5 6 
#
# 1 177.1880 -11.5270 30.4349 0.0000 39.9581 0.0000
# 2 -11.5270 52.4892 2.4390 0.0000 15.5068 0.0000
# 3 30.4349 2.4390 88.9986 0.0000 42.7885 0.0000
# 4 0.0000 0.0000 0.0000 8.7461 0.0000 -1.8362
# 5 39.9581 15.5068 42.7885 0.0000 67.7095 0.0000
# 6 0.0000 0.0000 0.0000 -1.8362 0.0000 28.5846
#
#
#
# Elastic Compliance Matrix: (Units=1/GPa)
#
#
# Indices 1 2 3 4 5 6 
#
# 1 0.006906 0.002883 -0.000235 0.000000 -0.004587 0.000000
# 2 0.002883 0.022009 0.002373 0.000000 -0.008242 0.000000
# 3 -0.000235 0.002373 0.016441 0.000000 -0.010795 0.000000
# 4 0.000000 0.000000 0.000000 0.115900 0.000000 0.007445
# 5 -0.004587 -0.008242 -0.010795 0.000000 0.026185 0.000000
# 6 0.000000 0.000000 0.000000 0.007445 0.000000 0.035462
#
#
# Mechanical properties :
#
#
# Convention : Reuss Voigt Hill
#
# Bulk Modulus (GPa) = 18.05110 40.15217 29.10164
# Shear Modulus (GPa) = 21.61429 40.82997 31.22213
#
# Velocity S-wave (km/s) = 2.87088 3.94579 3.45045
# Velocity P-wave (km/s) = 4.22759 6.00582 5.19338
#
# Compressibility (1/GPa) = 0.05539828
#
# Stress axis : x y z
#
# Youngs Moduli (GPa) = 144.79918 45.43571 60.82196
#
# Poissons Ratio (x) = -0.13098 0.01431
# Poissons Ratio (y) = -0.41741 -0.14436
# Poissons Ratio (z) = 0.03408 -0.10784
#
# Static dielectric constant tensor:
#      x y z
#    x 2.298300 0.000000 0.053070 
#    y 0.000000 1.933780 0.000000 
#    z 0.053070 0.000000 2.219840 
# 
# From -- ./inp_files/37294.got.cif
#   From: 2010.05.17/outbox.cif.g08.bks.cpg/sg10_19_cif.got.tgz:37294.got - 2010.06.03 11:33:40.
