data_PCOD9145320
_publ_section_title
;
Structure prediction by ZEFSAII (Michael W. Deem and Ramdas Pophale) SiO2 
 PCOD9145320
Probable space group: P 2/M
;
_chemical_formula_sum "Si O2"
_cell_formula_units_Z 28
_cell_length_a 18.802235
_cell_length_b 15.023539
_cell_length_c 9.489537
_cell_angle_alpha 90.000000
_cell_angle_beta 147.528917
_cell_angle_gamma 90.000000
_cell_volume 1439.126685
_symmetry_space_group_name_H-M "P 2/M"
_symmetry_group_IT_number 10
_symmetry_cell_setting 'monoclinic'
loop_
_space_group_symop_operation_xyz
x,y,z
-x,y,-z
-x,-y,-z
x,-y,z
loop_
_atom_site_type_symbol
_atom_site_label
_atom_site_fract_x
_atom_site_fract_y
_atom_site_fract_z
Si Si1 0.385850 0.398112 0.603668
Si Si2 0.560607 0.901683 0.881657
Si Si3 0.138745 0.711697 0.319516
Si Si4 0.282289 0.899044 0.559955
Si Si5 0.246819 0.594537 0.078013
Si Si6 0.417084 0.278982 0.214913
Si Si7 0.956610 0.601454 0.591022
O O1 0.408886 0.500000 0.694335
O O2 0.261804 0.348170 0.467778
O O3 0.346010 0.407182 0.373313
O O4 0.510875 0.331508 0.793975
O O5 0.404724 0.888443 0.655735
O O6 0.606979 0.821703 0.864596
O O7 0.577810 0.000000 0.849537
O O8 0.643150 0.897766 0.164658
O O9 0.184719 0.815000 0.388159
O O10 0.119122 0.675510 0.446680
O O11 0.000000 0.701186 0.000000
O O12 0.226803 0.000000 0.449164
O O13 0.258269 0.500000 0.021193
O O14 0.283896 0.669975 0.031648
O O15 0.103106 0.601319 0.904052
O O16 0.500000 0.278494 0.500000
O O17 0.903569 0.500000 0.518034
O O18 0.000000 0.615078 0.500000
#
# Coordination Sequence:
#
# PCOD9145320 Si02
#       7
#     4   4   4   4   4   4   4
#     4  10  19  33  52  81 112 143 185 231 273 318
#     4   9  18  36  59  80 107 142 180 228 288 344
#     4  12  22  35  61  85 110 146 193 240 275 318
#     4   9  20  38  59  81 106 139 181 232 292 344
#     4   9  18  33  51  73 111 154 184 216 268 330
#     4  10  19  31  54  84 114 142 183 228 281 328
#     4  10  22  37  52  78 114 153 190 220 267 333
#
# _framework density 19.456244000000002
#
# number of rings (size 3 to 8) (size 9 to 14) (size 15 to 20)
#    0.000    2.143    2.857    1.714    2.000    2.857 
#    0.000    0.000    0.000    2.143    0.000    0.000 
#    0.000    0.000    0.000    0.000    0.000    0.000 
#
# Total GULP energy -155879.737501 kJ/mol
# GULP energy per Si atom -5567.133482 kJ/mol
# Density = 1.941196 g / cm^3
# Si number density = 19.456244 Si / 1000 Ang^3
#
#
#
# Elastic Constant Matrix: (Units=GPa)
#
#
# Indices 1 2 3 4 5 6 
#
# 1 68.5806 68.4211 5.5309 0.0000 7.3094 0.0000
# 2 68.4211 178.4649 14.9427 0.0000 16.6443 0.0000
# 3 5.5309 14.9427 24.0836 0.0000 3.3661 0.0000
# 4 0.0000 0.0000 0.0000 -531.1152 0.0000 -383.0435
# 5 7.3094 16.6443 3.3661 0.0000 16.6051 0.0000
# 6 0.0000 0.0000 0.0000 -383.0435 0.0000 -242.3263
#
#
#
# Elastic Compliance Matrix: (Units=1/GPa)
#
#
# Indices 1 2 3 4 5 6 
#
# 1 0.023648 -0.008954 0.000335 0.000000 -0.001502 0.000000
# 2 -0.008954 0.009798 -0.003294 0.000000 -0.005212 0.000000
# 3 0.000335 -0.003294 0.044303 0.000000 -0.005826 0.000000
# 4 0.000000 0.000000 0.000000 0.013448 0.000000 -0.021258
# 5 -0.001502 -0.005212 -0.005826 0.000000 0.067289 0.000000
# 6 0.000000 0.000000 0.000000 -0.021258 0.000000 0.029475
#
#
# Mechanical properties :
#
#
# Convention : Reuss Voigt Hill
#
# Bulk Modulus (GPa) = 18.54542 49.87985 34.21264
# Shear Modulus (GPa) = 21.76151 -139.21830 -58.72839
#
# Velocity S-wave (km/s) = 3.34800 -8.46817 -5.50003
# Velocity P-wave (km/s) = 4.94955 8.36185 4.76563
#
# Compressibility (1/GPa) = 0.05392166
#
# Stress axis : x y z
#
# Youngs Moduli (GPa) = 42.28708 102.05943 22.57160
#
# Poissons Ratio (x) = 0.91386 -0.00756
# Poissons Ratio (y) = 0.37865 0.07436
# Poissons Ratio (z) = -0.01416 0.33623
#
# Static dielectric constant tensor:
#      x y z
#    x 1.683940 0.000000 -0.020060 
#    y 0.000000 1.697090 0.000000 
#    z -0.020060 0.000000 1.771740 
# 
# From -- ./inp_files/55857.got.cif
#   From: 2010.05.17/outbox.cif.g08.bks.cpg/sg10_28_cif.got.tgz:55857.got - 2010.06.03 11:33:40.
