data_PCOD9145854
_publ_section_title
;
Structure prediction by ZEFSAII (Michael W. Deem and Ramdas Pophale) SiO2 
 PCOD9145854
Probable space group: P 2/M
;
_chemical_formula_sum "Si O2"
_cell_formula_units_Z 32
_cell_length_a 23.228124
_cell_length_b 7.619501
_cell_length_c 15.106869
_cell_angle_alpha 90.000000
_cell_angle_beta 30.148468
_cell_angle_gamma 90.000000
_cell_volume 1342.853122
_symmetry_space_group_name_H-M "P 2/M"
_symmetry_group_IT_number 10
_symmetry_cell_setting 'monoclinic'
loop_
_space_group_symop_operation_xyz
x,y,z
-x,y,-z
-x,-y,-z
x,-y,z
loop_
_atom_site_type_symbol
_atom_site_label
_atom_site_fract_x
_atom_site_fract_y
_atom_site_fract_z
Si Si1 0.702028 0.297829 0.383628
Si Si2 0.865388 0.204238 0.014461
Si Si3 0.464960 0.199876 0.639359
Si Si4 0.317678 0.216129 0.992939
Si Si5 0.586507 0.799207 0.956755
Si Si6 0.076579 0.211998 0.261618
Si Si7 0.884521 0.712597 0.284081
Si Si8 0.173665 0.705825 0.438451
O O1 0.676779 0.500000 0.438709
O O2 0.766179 0.289805 0.203828
O O3 0.582718 0.198661 0.537585
O O4 0.791851 0.227488 0.336059
O O5 0.836487 0.000000 0.044829
O O6 0.890599 0.271831 0.882041
O O7 0.986563 0.224336 0.903369
O O8 0.500000 0.286547 0.500000
O O9 0.368444 0.275218 0.831458
O O10 0.428273 0.000000 0.667576
O O11 0.320975 0.000000 0.989289
O O12 0.396450 0.280232 0.968588
O O13 0.184432 0.267402 0.177599
O O14 0.715713 0.799361 0.747521
O O15 0.546346 0.000000 0.023337
O O16 0.500000 0.718184 0.000000
O O17 0.947151 0.270332 0.451393
O O18 0.073376 0.000000 0.266143
O O19 0.888203 0.500000 0.276306
O O20 0.849357 0.766761 0.430098
O O21 0.200936 0.500000 0.404524
#
# Coordination Sequence:
#
# PCOD9145854 Si02
#       8
#     4   4   4   4   4   4   4   4
#     4  11  22  34  51  76 110 151 190 230 282 344
#     4  10  19  32  53  82 110 144 190 237 283 333
#     4  10  21  38  59  83 111 145 188 237 284 331
#     4   9  19  37  60  85 113 148 188 235 290 336
#     4  10  22  39  60  86 115 149 190 235 281 337
#     4   9  18  36  61  84 111 147 188 233 283 341
#     4   9  20  36  52  75 111 151 187 229 283 341
#     4  10  21  38  59  84 115 150 187 232 286 336
#
# _framework density 23.829858000000002
#
# number of rings (size 3 to 8) (size 9 to 14) (size 15 to 20)
#    0.000    2.250    0.000    2.250    1.750    6.500 
#    0.000    4.375    0.000    0.000    0.000    0.000 
#    0.000    0.000    0.000    0.000    0.000    0.000 
#
# Total GULP energy -178853.380938 kJ/mol
# GULP energy per Si atom -5589.168154 kJ/mol
# Density = 2.377562 g / cm^3
# Si number density = 23.829858 Si / 1000 Ang^3
#
#
#
# Elastic Constant Matrix: (Units=GPa)
#
#
# Indices 1 2 3 4 5 6 
#
# 1 133.6866 0.1500 39.1173 0.0000 -20.5457 0.0000
# 2 0.1500 55.6395 -6.2336 0.0000 -0.1474 0.0000
# 3 39.1173 -6.2336 104.1335 0.0000 -7.3597 0.0000
# 4 0.0000 0.0000 0.0000 36.3025 0.0000 -17.0861
# 5 -20.5457 -0.1474 -7.3597 0.0000 38.2364 0.0000
# 6 0.0000 0.0000 0.0000 -17.0861 0.0000 16.5112
#
#
#
# Elastic Compliance Matrix: (Units=1/GPa)
#
#
# Indices 1 2 3 4 5 6 
#
# 1 0.009048 -0.000363 -0.003119 0.000000 0.004260 0.000000
# 2 -0.000363 0.018112 0.001228 0.000000 0.000111 0.000000
# 3 -0.003119 0.001228 0.010878 0.000000 0.000422 0.000000
# 4 0.000000 0.000000 0.000000 0.053701 0.000000 0.055571
# 5 0.004260 0.000111 0.000422 0.000000 0.028524 0.000000
# 6 0.000000 0.000000 0.000000 0.055571 0.000000 0.118071
#
#
# Mechanical properties :
#
#
# Convention : Reuss Voigt Hill
#
# Bulk Modulus (GPa) = 29.82367 39.94745 34.88556
# Shear Modulus (GPa) = 19.68355 35.57174 27.62765
#
# Velocity S-wave (km/s) = 2.87715 3.86779 3.40865
# Velocity P-wave (km/s) = 4.85589 6.06188 5.49209
#
# Compressibility (1/GPa) = 0.03353041
#
# Stress axis : x y z
#
# Youngs Moduli (GPa) = 110.52085 55.21281 91.92642
#
# Poissons Ratio (x) = 0.02002 0.28676
# Poissons Ratio (y) = 0.04008 -0.11291
# Poissons Ratio (z) = 0.34477 -0.06782
#
# Static dielectric constant tensor:
#      x y z
#    x 1.946110 0.000000 0.027430 
#    y 0.000000 1.885400 0.000000 
#    z 0.027430 0.000000 1.870320 
# 
# From -- ./inp_files/71443.got.cif
#   From: 2010.05.17/outbox.cif.g08.bks.cpg/sg10_36_cif.got.tgz:71443.got - 2010.06.03 11:33:40.
