data_PCOD9145380
_publ_section_title
;
Structure prediction by ZEFSAII (Michael W. Deem and Ramdas Pophale) SiO2 
 PCOD9145380
Probable space group: P 2/M
;
_chemical_formula_sum "Si O2"
_cell_formula_units_Z 25
_cell_length_a 14.886439
_cell_length_b 11.953710
_cell_length_c 14.875786
_cell_angle_alpha 90.000000
_cell_angle_beta 150.468379
_cell_angle_gamma 90.000000
_cell_volume 1304.775067
_symmetry_space_group_name_H-M "P 2/M"
_symmetry_group_IT_number 10
_symmetry_cell_setting 'monoclinic'
loop_
_space_group_symop_operation_xyz
x,y,z
-x,y,-z
-x,-y,-z
x,-y,z
loop_
_atom_site_type_symbol
_atom_site_label
_atom_site_fract_x
_atom_site_fract_y
_atom_site_fract_z
Si Si1 0.592302 0.804680 0.495162
Si Si2 0.111422 0.126027 0.805522
Si Si3 0.316174 0.371329 0.183162
Si Si4 0.422525 0.697607 0.075667
Si Si5 0.995631 0.195327 0.092773
Si Si6 0.500000 0.500000 0.000000
Si Si7 0.307065 0.873973 0.612967
O O1 0.500000 0.865017 0.500000
O O2 0.469660 0.695777 0.371250
O O3 0.603580 0.867101 0.409355
O O4 0.798838 0.777389 0.700684
O O5 0.089697 0.132912 0.895474
O O6 0.909198 0.145523 0.589181
O O7 0.169042 0.000000 0.831782
O O8 0.255055 0.220513 0.903314
O O9 0.302836 0.500000 0.196667
O O10 0.371544 0.356797 0.127186
O O11 0.128270 0.304230 0.029868
O O12 0.459038 0.599071 0.038977
O O13 0.594879 0.779476 0.243151
O O14 0.000000 0.134980 0.000000
O O15 0.333489 0.000000 0.670755
#
# Coordination Sequence:
#
# PCOD9145380 Si02
#       7
#     4   4   4   4   4   1   4
#     4  10  19  32  48  77 115 153 201 243 276 328
#     4   9  19  37  61  86 119 159 194 235 289 349
#     4  10  20  35  53  71 110 157 198 243 288 336
#     4  10  21  40  62  89 116 148 191 240 307 357
#     4  10  19  32  48  77 115 153 201 243 276 328
#     4  12  24  44  72  92 116 146 188 254 294 368
#     4   9  19  37  61  86 119 159 194 235 289 349
#
# _framework density 19.16039
#
# number of rings (size 3 to 8) (size 9 to 14) (size 15 to 20)
#    0.000    2.240    2.400    0.480    0.000    1.920 
#    0.000    4.000    0.000    1.920    0.000    0.000 
#    0.000    0.000    0.000    0.000    0.000    0.000 
#
# Total GULP energy -139185.502627 kJ/mol
# GULP energy per Si atom -5567.420105 kJ/mol
# Density = 1.911678 g / cm^3
# Si number density = 19.160390 Si / 1000 Ang^3
#
#
#
# Elastic Constant Matrix: (Units=GPa)
#
#
# Indices 1 2 3 4 5 6 
#
# 1 79.3561 46.8275 37.8547 0.0000 -15.9143 0.0000
# 2 46.8275 159.9485 67.2961 0.0000 6.3020 0.0000
# 3 37.8547 67.2961 87.5149 0.0000 19.6149 0.0000
# 4 0.0000 0.0000 0.0000 2.5759 0.0000 1.0598
# 5 -15.9143 6.3020 19.6149 0.0000 1.5357 0.0000
# 6 0.0000 0.0000 0.0000 1.0598 0.0000 -1.0652
#
#
#
# Elastic Compliance Matrix: (Units=1/GPa)
#
#
# Indices 1 2 3 4 5 6 
#
# 1 0.004816 -0.003300 0.007391 0.000000 -0.030949 0.000000
# 2 -0.003300 0.009661 -0.005664 0.000000 -0.001504 0.000000
# 3 0.007391 -0.005664 0.005257 0.000000 0.032695 0.000000
# 4 0.000000 0.000000 0.000000 0.275448 0.000000 0.274070
# 5 -0.030949 -0.001504 0.032695 0.000000 -0.080984 0.000000
# 6 0.000000 0.000000 0.000000 0.274070 0.000000 -0.666124
#
#
# Mechanical properties :
#
#
# Convention : Reuss Voigt Hill
#
# Bulk Modulus (GPa) = 60.28517 70.08624 65.18570
# Shear Modulus (GPa) = -11.28027 12.26537 0.49255
#
# Velocity S-wave (km/s) = -2.42901 2.53285 0.50757
# Velocity P-wave (km/s) = 4.86467 6.72398 5.86843
#
# Compressibility (1/GPa) = 0.01658783
#
# Stress axis : x y z
#
# Youngs Moduli (GPa) = 207.61994 103.51388 190.23008
#
# Poissons Ratio (x) = 0.34165 -1.40606
# Poissons Ratio (y) = 0.68525 1.07744
# Poissons Ratio (z) = -1.53459 0.58629
#
# Static dielectric constant tensor:
#      x y z
#    x 1.683310 0.000000 -0.006360 
#    y 0.000000 1.628240 0.000000 
#    z -0.006360 0.000000 1.661650 
# 
# From -- ./inp_files/67421.got.cif
#   From: 2010.05.17/outbox.cif.g08.bks.cpg/sg10_34_cif.got.tgz:67421.got - 2010.06.03 11:33:40.
