data_PCOD9145419
_publ_section_title
;
Structure prediction by ZEFSAII (Michael W. Deem and Ramdas Pophale) SiO2 
 PCOD9145419
Probable space group: P 2/M
;
_chemical_formula_sum "Si O2"
_cell_formula_units_Z 32
_cell_length_a 26.814691
_cell_length_b 7.397556
_cell_length_c 22.053442
_cell_angle_alpha 90.000000
_cell_angle_beta 160.094896
_cell_angle_gamma 90.000000
_cell_volume 1489.387685
_symmetry_space_group_name_H-M "P 2/M"
_symmetry_group_IT_number 10
_symmetry_cell_setting 'monoclinic'
loop_
_space_group_symop_operation_xyz
x,y,z
-x,y,-z
-x,-y,-z
x,-y,z
loop_
_atom_site_type_symbol
_atom_site_label
_atom_site_fract_x
_atom_site_fract_y
_atom_site_fract_z
Si Si1 0.369553 0.211554 0.539095
Si Si2 0.865446 0.279891 0.388661
Si Si3 0.579201 0.278906 0.988054
Si Si4 0.645817 0.295699 0.931068
Si Si5 0.784011 0.720084 0.967535
Si Si6 0.498122 0.208922 0.564859
Si Si7 0.887164 0.717668 0.668907
Si Si8 0.756748 0.279357 0.391106
O O1 0.484945 0.301184 0.716826
O O2 0.394622 0.284533 0.499989
O O3 0.211038 0.229626 0.386452
O O4 0.410129 0.000000 0.584500
O O5 0.871391 0.500000 0.394897
O O6 0.859059 0.223855 0.451743
O O7 0.000000 0.218607 0.500000
O O8 0.708224 0.227145 0.180977
O O9 0.575125 0.500000 0.982672
O O10 0.626827 0.214869 0.975533
O O11 0.412751 0.222846 0.811549
O O12 0.701033 0.500000 0.004265
O O13 0.744879 0.216308 0.990943
O O14 0.776553 0.500000 0.959914
O O15 0.658893 0.782419 0.778530
O O16 0.945928 0.777817 0.135536
O O17 0.500000 0.291076 0.500000
O O18 0.452328 0.000000 0.504721
O O19 0.888043 0.500000 0.667269
O O20 0.814744 0.780614 0.522946
O O21 0.756764 0.500000 0.391577
#
# Coordination Sequence:
#
# PCOD9145419 Si02
#       8
#     4   4   4   4   4   4   4   4
#     4  10  19  32  52  77 100 125 163 204 241 289
#     4   9  17  24  34  59  94 125 160 208 251 293
#     4   9  15  24  40  60  88 126 162 196 247 300
#     4   9  16  29  48  71  97 129 164 202 248 297
#     4   9  19  31  49  76 105 132 165 202 242 293
#     4   9  19  37  58  77 100 131 165 200 242 292
#     4  10  19  32  49  73 105 137 165 202 251 296
#     4   9  16  26  40  59  90 131 165 196 244 299
#
# _framework density 21.485339
#
# number of rings (size 3 to 8) (size 9 to 14) (size 15 to 20)
#    0.000    2.750    1.250    0.750    1.750    2.750 
#    0.000    0.625    0.000    3.750    0.000    1.750 
#    0.000    1.000    0.000    0.000    0.000    0.000 
#
# Total GULP energy -178581.223153 kJ/mol
# GULP energy per Si atom -5580.663224 kJ/mol
# Density = 2.143644 g / cm^3
# Si number density = 21.485339 Si / 1000 Ang^3
#
#
#
# Elastic Constant Matrix: (Units=GPa)
#
#
# Indices 1 2 3 4 5 6 
#
# 1 194.0150 -0.6066 77.9829 0.0000 5.2882 0.0000
# 2 -0.6066 73.7388 -7.0284 0.0000 -2.8351 0.0000
# 3 77.9829 -7.0284 70.2654 0.0000 20.9454 0.0000
# 4 0.0000 0.0000 0.0000 24.5163 0.0000 -8.5210
# 5 5.2882 -2.8351 20.9454 0.0000 37.3970 0.0000
# 6 0.0000 0.0000 0.0000 -8.5210 0.0000 1.8085
#
#
#
# Elastic Compliance Matrix: (Units=1/GPa)
#
#
# Indices 1 2 3 4 5 6 
#
# 1 0.010364 -0.000961 -0.013372 0.000000 0.005951 0.000000
# 2 -0.000961 0.013784 0.002512 0.000000 -0.000226 0.000000
# 3 -0.013372 0.002512 0.034456 0.000000 -0.017217 0.000000
# 4 0.000000 0.000000 0.000000 -0.063973 0.000000 -0.301419
# 5 0.005951 -0.000226 -0.017217 0.000000 0.035524 0.000000
# 6 0.000000 0.000000 0.000000 -0.301419 0.000000 -0.867236
#
#
# Mechanical properties :
#
#
# Convention : Reuss Voigt Hill
#
# Bulk Modulus (GPa) = 28.60145 53.19057 40.89601
# Shear Modulus (GPa) = -6.23609 30.58910 12.17650
#
# Velocity S-wave (km/s) = -1.70552 3.77731 2.38320
# Velocity P-wave (km/s) = 3.07613 6.62077 5.16223
#
# Compressibility (1/GPa) = 0.03496326
#
# Stress axis : x y z
#
# Youngs Moduli (GPa) = 96.48847 72.54667 29.02225
#
# Poissons Ratio (x) = 0.06968 0.38810
# Poissons Ratio (y) = 0.09268 -0.07291
# Poissons Ratio (z) = 1.29028 -0.18225
#
# Static dielectric constant tensor:
#      x y z
#    x 1.795490 0.000000 0.006270 
#    y 0.000000 1.888860 0.000000 
#    z 0.006270 0.000000 1.722100 
# 
# From -- ./inp_files/87008.got.cif
#   From: 2010.05.17/outbox.cif.g08.bks.cpg/sg10_44_cif.got.tgz:87008.got - 2010.06.03 11:33:40.
