data_PCOD9145091
_publ_section_title
;
Structure prediction by ZEFSAII (Michael W. Deem and Ramdas Pophale) SiO2 
 PCOD9145091
Probable space group: P 2/M
;
_chemical_formula_sum "Si O2"
_cell_formula_units_Z 32
_cell_length_a 17.782624
_cell_length_b 9.521865
_cell_length_c 9.019010
_cell_angle_alpha 90.000000
_cell_angle_beta 104.937657
_cell_angle_gamma 90.000000
_cell_volume 1475.525966
_symmetry_space_group_name_H-M "P 2/M"
_symmetry_group_IT_number 10
_symmetry_cell_setting 'monoclinic'
loop_
_space_group_symop_operation_xyz
x,y,z
-x,y,-z
-x,-y,-z
x,-y,z
loop_
_atom_site_type_symbol
_atom_site_label
_atom_site_fract_x
_atom_site_fract_y
_atom_site_fract_z
Si Si1 0.639433 0.158499 0.884971
Si Si2 0.413663 0.661615 0.878359
Si Si3 0.472259 0.158554 0.649954
Si Si4 0.792764 0.164119 0.463978
Si Si5 0.870035 0.834344 0.212284
Si Si6 0.956265 0.159484 0.721203
Si Si7 0.276496 0.658205 0.321670
Si Si8 0.112706 0.656520 0.071069
O O1 0.550315 0.145075 0.786986
O O2 0.678101 0.247568 0.773657
O O3 0.671730 0.000000 0.915684
O O4 0.638281 0.244082 0.037686
O O5 0.387567 0.500000 0.855232
O O6 0.421534 0.735336 0.722110
O O7 0.500000 0.658416 0.000000
O O8 0.500000 0.205290 0.500000
O O9 0.438436 0.000000 0.617238
O O10 0.809079 0.212628 0.305284
O O11 0.879265 0.169561 0.582326
O O12 0.735725 0.258863 0.531582
O O13 0.769196 0.000000 0.454254
O O14 0.960048 0.819213 0.311707
O O15 0.857654 0.000000 0.181671
O O16 0.866391 0.750664 0.058819
O O17 0.947497 0.268661 0.849731
O O18 0.956924 0.000000 0.782328
O O19 0.308601 0.500000 0.354227
O O20 0.190713 0.646522 0.208401
O O21 0.089902 0.500000 0.013899
#
# Coordination Sequence:
#
# PCOD9145091 Si02
#       8
#     4   4   4   4   4   4   4   4
#     4  10  19  33  56  79  99 131 172 207 242 288
#     4   9  17  30  50  77 107 136 166 200 238 281
#     4   9  18  33  53  80 112 138 162 199 245 290
#     4   9  18  33  52  73  98 128 164 205 249 299
#     4  10  19  31  50  75  99 125 160 204 253 302
#     4   9  17  31  51  73  97 126 161 202 249 301
#     4  10  21  37  53  70  96 131 171 209 247 293
#     4  10  21  34  48  69  98 130 163 204 251 297
#
# _framework density 21.687183000000001
#
# number of rings (size 3 to 8) (size 9 to 14) (size 15 to 20)
#    0.000    2.500    0.000    2.250    0.000    7.750 
#    0.000    1.250    0.000    5.250    0.000    0.000 
#    0.000    0.000    0.000    0.000    0.000    0.000 
#
# Total GULP energy -178679.394231 kJ/mol
# GULP energy per Si atom -5583.731070 kJ/mol
# Density = 2.163782 g / cm^3
# Si number density = 21.687183 Si / 1000 Ang^3
#
#
#
# Elastic Constant Matrix: (Units=GPa)
#
#
# Indices 1 2 3 4 5 6 
#
# 1 52.3821 42.6105 29.9814 0.0000 -19.2305 0.0000
# 2 42.6105 152.3695 80.0004 0.0000 -58.0417 0.0000
# 3 29.9814 80.0004 128.2391 0.0000 -51.1319 0.0000
# 4 0.0000 0.0000 0.0000 849.6840 0.0000 -63.2350
# 5 -19.2305 -58.0417 -51.1319 0.0000 55.9891 0.0000
# 6 0.0000 0.0000 0.0000 -63.2350 0.0000 20.0697
#
#
#
# Elastic Compliance Matrix: (Units=1/GPa)
#
#
# Indices 1 2 3 4 5 6 
#
# 1 0.025159 -0.005609 -0.001975 0.000000 0.001023 0.000000
# 2 -0.005609 0.013261 -0.003535 0.000000 0.008591 0.000000
# 3 -0.001975 -0.003535 0.013735 0.000000 0.008200 0.000000
# 4 0.000000 0.000000 0.000000 0.001537 0.000000 0.004844
# 5 0.001023 0.008591 0.008200 0.000000 0.034607 0.000000
# 6 0.000000 0.000000 0.000000 0.004844 0.000000 0.065089
#
#
# Mechanical properties :
#
#
# Convention : Reuss Voigt Hill
#
# Bulk Modulus (GPa) = 33.42790 70.90837 52.16813
# Shear Modulus (GPa) = 26.93987 197.17511 112.05749
#
# Velocity S-wave (km/s) = 3.52831 9.54543 7.19598
# Velocity P-wave (km/s) = 5.66090 12.41990 9.65142
#
# Compressibility (1/GPa) = 0.02991513
#
# Stress axis : x y z
#
# Youngs Moduli (GPa) = 39.74672 75.41125 72.80864
#
# Poissons Ratio (x) = 0.42300 0.14379
# Poissons Ratio (y) = 0.22295 0.25741
# Poissons Ratio (z) = 0.07850 0.26661
#
# Static dielectric constant tensor:
#      x y z
#    x 1.840150 0.000000 0.041370 
#    y 0.000000 1.772710 0.000000 
#    z 0.041370 0.000000 1.773420 
# 
# From -- ./inp_files/35688.got.cif
#   From: 2010.05.17/outbox.cif.g08.bks.cpg/sg10_18_cif.got.tgz:35688.got - 2010.06.03 11:33:40.
