data_PCOD9145962
_publ_section_title
;
Structure prediction by ZEFSAII (Michael W. Deem and Ramdas Pophale) SiO2 
 PCOD9145962
Probable space group: P 2/M
;
_chemical_formula_sum "Si O2"
_cell_formula_units_Z 24
_cell_length_a 24.762788
_cell_length_b 7.647400
_cell_length_c 12.970344
_cell_angle_alpha 90.000000
_cell_angle_beta 150.902039
_cell_angle_gamma 90.000000
_cell_volume 1194.463648
_symmetry_space_group_name_H-M "P 2/M"
_symmetry_group_IT_number 10
_symmetry_cell_setting 'monoclinic'
loop_
_space_group_symop_operation_xyz
x,y,z
-x,y,-z
-x,-y,-z
x,-y,z
loop_
_atom_site_type_symbol
_atom_site_label
_atom_site_fract_x
_atom_site_fract_y
_atom_site_fract_z
Si Si1 0.609918 0.295624 0.446221
Si Si2 0.246590 0.204323 0.124293
Si Si3 0.372473 0.287657 0.129359
Si Si4 0.021211 0.792995 0.650102
Si Si5 0.624752 0.286573 0.241537
Si Si6 0.781203 0.288634 0.317964
O O1 0.586025 0.500000 0.388068
O O2 0.703575 0.282653 0.688801
O O3 0.494071 0.223569 0.298004
O O4 0.642194 0.224860 0.387782
O O5 0.333542 0.225593 0.175929
O O6 0.231286 0.000000 0.120274
O O7 0.130019 0.279700 0.888101
O O8 0.373451 0.500000 0.134981
O O9 0.283913 0.232924 0.894337
O O10 0.000000 0.718795 0.500000
O O11 0.908038 0.769802 0.523950
O O12 0.042991 0.000000 0.673186
O O13 0.629982 0.500000 0.247686
O O14 0.713326 0.226362 0.304539
O O15 0.500000 0.238534 0.000000
O O16 0.780015 0.500000 0.316006
#
# Coordination Sequence:
#
# PCOD9145962 Si02
#       6
#     4   4   4   4   4   4
#     4  10  20  35  56  81 112 144 173 213 267 323
#     4  11  23  37  53  75 108 147 183 220 265 317
#     4  10  19  32  54  84 112 137 170 217 270 321
#     4  10  21  38  55  73 104 146 184 220 267 314
#     4   9  16  32  57  83 110 139 172 214 265 317
#     4  10  19  32  57  88 108 131 176 224 264 313
#
# _framework density 20.092700000000001
#
# number of rings (size 3 to 8) (size 9 to 14) (size 15 to 20)
#    0.000    2.000    3.333    1.000    0.000    4.333 
#    0.000    1.667    0.000    6.000    0.000    0.000 
#    0.000    0.000    0.000    0.000    0.000    0.000 
#
# Total GULP energy -134027.651758 kJ/mol
# GULP energy per Si atom -5584.485490 kJ/mol
# Density = 2.004697 g / cm^3
# Si number density = 20.092700 Si / 1000 Ang^3
#
#
#
# Elastic Constant Matrix: (Units=GPa)
#
#
# Indices 1 2 3 4 5 6 
#
# 1 132.5241 -17.0523 50.3817 0.0000 -12.8988 0.0000
# 2 -17.0523 28.6228 -10.3129 0.0000 -0.3893 0.0000
# 3 50.3817 -10.3129 93.7102 0.0000 -13.3402 0.0000
# 4 0.0000 0.0000 0.0000 11.1317 0.0000 18.9668
# 5 -12.8988 -0.3893 -13.3402 0.0000 35.6917 0.0000
# 6 0.0000 0.0000 0.0000 18.9668 0.0000 6.5124
#
#
#
# Elastic Compliance Matrix: (Units=1/GPa)
#
#
# Indices 1 2 3 4 5 6 
#
# 1 0.010064 0.004345 -0.004656 0.000000 0.001944 0.000000
# 2 0.004345 0.038391 0.002294 0.000000 0.002846 0.000000
# 3 -0.004656 0.002294 0.013932 0.000000 0.003550 0.000000
# 4 0.000000 0.000000 0.000000 -0.022672 0.000000 0.066030
# 5 0.001944 0.002846 0.003550 0.000000 0.030078 0.000000
# 6 0.000000 0.000000 0.000000 0.066030 0.000000 -0.038753
#
#
# Mechanical properties :
#
#
# Convention : Reuss Voigt Hill
#
# Bulk Modulus (GPa) = 15.07077 33.43222 24.25150
# Shear Modulus (GPa) = 101.64290 26.12321 63.88305
#
# Velocity S-wave (km/s) = 7.12017 3.60965 5.64475
# Velocity P-wave (km/s) = 8.66675 5.83506 7.38784
#
# Compressibility (1/GPa) = 0.06635359
#
# Stress axis : x y z
#
# Youngs Moduli (GPa) = 99.36300 26.04778 71.77635
#
# Poissons Ratio (x) = -0.11317 0.33418
# Poissons Ratio (y) = -0.43170 -0.16468
# Poissons Ratio (z) = 0.46262 -0.05976
#
# Static dielectric constant tensor:
#      x y z
#    x 1.689000 0.000000 -0.001800 
#    y 0.000000 1.751580 0.000000 
#    z -0.001800 0.000000 1.697850 
# 
# From -- ./inp_files/45286.got.cif
#   From: 2010.05.17/outbox.cif.g08.bks.cpg/sg10_23_cif.got.tgz:45286.got - 2010.06.03 11:33:40.
