data_PCOD9145704
_publ_section_title
;
Structure prediction by ZEFSAII (Michael W. Deem and Ramdas Pophale) SiO2 
 PCOD9145704
Probable space group: P 2/M
;
_chemical_formula_sum "Si O2"
_cell_formula_units_Z 32
_cell_length_a 13.358745
_cell_length_b 8.863766
_cell_length_c 34.172323
_cell_angle_alpha 90.000000
_cell_angle_beta 154.846236
_cell_angle_gamma 90.000000
_cell_volume 1719.877154
_symmetry_space_group_name_H-M "P 2/M"
_symmetry_group_IT_number 10
_symmetry_cell_setting 'monoclinic'
loop_
_space_group_symop_operation_xyz
x,y,z
-x,y,-z
-x,-y,-z
x,-y,z
loop_
_atom_site_type_symbol
_atom_site_label
_atom_site_fract_x
_atom_site_fract_y
_atom_site_fract_z
Si Si1 0.898688 0.324622 0.229468
Si Si2 0.979599 0.817250 0.402968
Si Si3 0.765434 0.317284 0.581170
Si Si4 0.970941 0.325002 0.879047
Si Si5 0.694302 0.823747 0.414648
Si Si6 0.730566 0.331636 0.709152
Si Si7 0.495091 0.182467 0.260992
Si Si8 0.461673 0.819812 0.031932
O O1 0.828409 0.500000 0.210201
O O2 0.677285 0.232823 0.135283
O O3 0.038769 0.271870 0.317363
O O4 0.091990 0.320554 0.263576
O O5 0.140452 0.747278 0.426320
O O6 0.084622 0.767548 0.482394
O O7 0.701317 0.778787 0.303179
O O8 0.996762 0.000000 0.407609
O O9 0.500000 0.270475 0.500000
O O10 0.761787 0.500000 0.578148
O O11 0.001141 0.500000 0.899922
O O12 0.873553 0.316245 0.800017
O O13 0.765035 0.252174 0.832743
O O14 0.220709 0.243013 0.965045
O O15 0.470487 0.792832 0.363076
O O16 0.605738 0.762925 0.341743
O O17 0.734144 0.000000 0.422070
O O18 0.621023 0.500000 0.669797
O O19 0.472274 0.000000 0.253987
O O20 0.450221 0.000000 0.026544
O O21 0.500000 0.766484 0.000000
#
# Coordination Sequence:
#
# PCOD9145704 Si02
#       8
#     4   4   4   4   4   4   4   4
#     4  10  20  35  54  76 106 146 185 223 269 317
#     4  10  20  34  53  76 104 141 182 227 274 320
#     4  10  22  39  58  79 108 147 187 228 271 314
#     4  10  19  32  52  78 108 141 175 214 264 322
#     4   9  17  29  48  74 104 139 178 218 266 321
#     4   9  17  29  47  72 103 138 174 214 261 315
#     4   9  18  33  52  75 107 142 178 222 273 326
#     4  11  22  34  53  82 114 145 177 218 271 327
#
# _framework density 18.605979999999999
#
# number of rings (size 3 to 8) (size 9 to 14) (size 15 to 20)
#    0.000    2.250    1.250    1.875    0.000    5.750 
#    0.000    0.000    0.000    4.500    0.000    5.250 
#    0.000    0.000    0.000    0.000    0.000    0.000 
#
# Total GULP energy -178317.724455 kJ/mol
# GULP energy per Si atom -5572.428889 kJ/mol
# Density = 1.856363 g / cm^3
# Si number density = 18.605980 Si / 1000 Ang^3
#
#
#
# Elastic Constant Matrix: (Units=GPa)
#
#
# Indices 1 2 3 4 5 6 
#
# 1 72.8268 20.3937 39.3742 0.0000 23.3002 0.0000
# 2 20.3937 31.3686 36.5982 0.0000 11.7312 0.0000
# 3 39.3742 36.5982 103.5147 0.0000 24.7225 0.0000
# 4 0.0000 0.0000 0.0000 16.0805 0.0000 -9.9787
# 5 23.3002 11.7312 24.7225 0.0000 30.2857 0.0000
# 6 0.0000 0.0000 0.0000 -9.9787 0.0000 -18.1139
#
#
#
# Elastic Compliance Matrix: (Units=1/GPa)
#
#
# Indices 1 2 3 4 5 6 
#
# 1 0.020546 -0.005424 -0.003260 0.000000 -0.011045 0.000000
# 2 -0.005424 0.056796 -0.017092 0.000000 -0.003875 0.000000
# 3 -0.003260 -0.017092 0.018338 0.000000 -0.005841 0.000000
# 4 0.000000 0.000000 0.000000 0.046344 0.000000 -0.025530
# 5 -0.011045 -0.003875 -0.005841 0.000000 0.047786 0.000000
# 6 0.000000 0.000000 0.000000 -0.025530 0.000000 -0.041142
#
#
# Mechanical properties :
#
#
# Convention : Reuss Voigt Hill
#
# Bulk Modulus (GPa) = 22.66060 44.49358 33.57709
# Shear Modulus (GPa) = 23.26340 13.07338 18.16839
#
# Velocity S-wave (km/s) = 3.53982 2.65362 3.12826
# Velocity P-wave (km/s) = 5.37706 5.77533 5.57975
#
# Compressibility (1/GPa) = 0.04412946
#
# Stress axis : x y z
#
# Youngs Moduli (GPa) = 48.67062 17.60692 54.53047
#
# Poissons Ratio (x) = 0.09550 0.17775
# Poissons Ratio (y) = 0.26399 0.93203
# Poissons Ratio (z) = 0.15865 0.30094
#
# Static dielectric constant tensor:
#      x y z
#    x 1.657370 0.000000 0.003020 
#    y 0.000000 1.648790 0.000000 
#    z 0.003020 0.000000 1.663680 
# 
# From -- ./inp_files/95077.got.cif
#   From: 2010.05.17/outbox.cif.g08.bks.cpg/sg10_48_cif.got.tgz:95077.got - 2010.06.03 11:33:40.
