data_PCOD9145148
_publ_section_title
;
Structure prediction by ZEFSAII (Michael W. Deem and Ramdas Pophale) SiO2 
 PCOD9145148
Probable space group: P 2/M
;
_chemical_formula_sum "Si O2"
_cell_formula_units_Z 32
_cell_length_a 19.020178
_cell_length_b 8.977783
_cell_length_c 12.406269
_cell_angle_alpha 90.000000
_cell_angle_beta 62.898120
_cell_angle_gamma 90.000000
_cell_volume 1885.868553
_symmetry_space_group_name_H-M "P 2/M"
_symmetry_group_IT_number 10
_symmetry_cell_setting 'monoclinic'
loop_
_space_group_symop_operation_xyz
x,y,z
-x,y,-z
-x,-y,-z
x,-y,z
loop_
_atom_site_type_symbol
_atom_site_label
_atom_site_fract_x
_atom_site_fract_y
_atom_site_fract_z
Si Si1 0.682341 0.179702 0.505986
Si Si2 0.139929 0.320986 0.233437
Si Si3 0.494679 0.174041 0.335764
Si Si4 0.439698 0.174597 0.951222
Si Si5 0.334709 0.820324 0.723433
Si Si6 0.020787 0.170810 0.613179
Si Si7 0.283494 0.678253 0.980531
Si Si8 0.180721 0.677934 0.451348
O O1 0.592504 0.235794 0.585949
O O2 0.702201 0.210982 0.367007
O O3 0.743058 0.252387 0.545768
O O4 0.683712 0.000000 0.519886
O O5 0.130011 0.500000 0.239165
O O6 0.054959 0.245099 0.278553
O O7 0.172773 0.281393 0.330000
O O8 0.203749 0.278894 0.098769
O O9 0.517134 0.182259 0.194329
O O10 0.573162 0.232211 0.340410
O O11 0.488735 0.000000 0.371763
O O12 0.358689 0.263760 0.996027
O O13 0.421773 0.000000 0.985143
O O14 0.500000 0.228511 0.000000
O O15 0.292483 0.748452 0.855588
O O16 0.336436 0.000000 0.737790
O O17 0.000000 0.172067 0.500000
O O18 0.102103 0.260583 0.564659
O O19 0.031432 0.000000 0.639476
O O20 0.286574 0.500000 0.970849
O O21 0.183004 0.500000 0.456616
#
# Coordination Sequence:
#
# PCOD9145148 Si02
#       8
#     4   4   4   4   4   4   4   4
#     4  10  19  31  51  75  98 128 168 214 252 291
#     4   9  19  34  51  73 103 136 164 194 241 301
#     4   8  15  29  48  70  94 126 167 208 252 293
#     4   9  18  31  47  69  98 132 167 206 250 293
#     4   9  18  34  52  70  96 130 171 214 255 291
#     4   9  17  31  52  77 101 127 162 201 240 289
#     4  10  20  33  50  72  98 132 170 204 242 294
#     4  10  20  33  49  73 106 136 159 193 247 302
#
# _framework density 16.968308
#
# number of rings (size 3 to 8) (size 9 to 14) (size 15 to 20)
#    0.000    2.750    0.000    2.250    1.750    5.250 
#    0.000    2.500    0.000    4.500    0.000    5.250 
#    0.000    0.000    0.000    0.000    0.000    0.000 
#
# Total GULP energy -178343.208713 kJ/mol
# GULP energy per Si atom -5573.225272 kJ/mol
# Density = 1.692969 g / cm^3
# Si number density = 16.968308 Si / 1000 Ang^3
#
#
#
# Elastic Constant Matrix: (Units=GPa)
#
#
# Indices 1 2 3 4 5 6 
#
# 1 58.4069 22.3095 43.4367 0.0000 -13.1025 0.0000
# 2 22.3095 32.4874 30.2552 0.0000 -8.8249 0.0000
# 3 43.4367 30.2552 68.9524 0.0000 -29.5414 0.0000
# 4 0.0000 0.0000 0.0000 20.7999 0.0000 -2.1581
# 5 -13.1025 -8.8249 -29.5414 0.0000 27.1402 0.0000
# 6 0.0000 0.0000 0.0000 -2.1581 0.0000 17.5997
#
#
#
# Elastic Compliance Matrix: (Units=1/GPa)
#
#
# Indices 1 2 3 4 5 6 
#
# 1 0.034730 -0.003230 -0.025723 0.000000 -0.012282 0.000000
# 2 -0.003230 0.055763 -0.028732 0.000000 -0.014701 0.000000
# 3 -0.025723 -0.028732 0.063693 0.000000 0.047568 0.000000
# 4 0.000000 0.000000 0.000000 0.048697 0.000000 0.005971
# 5 -0.012282 -0.014701 0.047568 0.000000 0.077912 0.000000
# 6 0.000000 0.000000 0.000000 0.005971 0.000000 0.057551
#
#
# Mechanical properties :
#
#
# Convention : Reuss Voigt Hill
#
# Bulk Modulus (GPa) = 25.76172 39.09440 32.42806
# Shear Modulus (GPa) = 10.71455 17.36432 14.03943
#
# Velocity S-wave (km/s) = 2.51558 3.20244 2.87956
# Velocity P-wave (km/s) = 4.86341 6.06332 5.49621
#
# Compressibility (1/GPa) = 0.03881729
#
# Stress axis : x y z
#
# Youngs Moduli (GPa) = 28.79385 17.93288 15.70021
#
# Poissons Ratio (x) = 0.05793 0.40385
# Poissons Ratio (y) = 0.09301 0.45109
# Poissons Ratio (z) = 0.74066 0.51524
#
# Static dielectric constant tensor:
#      x y z
#    x 1.562930 0.000000 -0.001760 
#    y 0.000000 1.574110 0.000000 
#    z -0.001760 0.000000 1.574530 
# 
# From -- ./inp_files/54766.got.cif
#   From: 2010.05.17/outbox.cif.g08.bks.cpg/sg10_28_cif.got.tgz:54766.got - 2010.06.03 11:33:40.
