data_PCOD9145480
_publ_section_title
;
Structure prediction by ZEFSAII (Michael W. Deem and Ramdas Pophale) SiO2 
 PCOD9145480
Probable space group: P 2/M
;
_chemical_formula_sum "Si O2"
_cell_formula_units_Z 32
_cell_length_a 9.439122
_cell_length_b 19.156139
_cell_length_c 8.233375
_cell_angle_alpha 90.000000
_cell_angle_beta 71.898607
_cell_angle_gamma 90.000000
_cell_volume 1415.055042
_symmetry_space_group_name_H-M "P 2/M"
_symmetry_group_IT_number 10
_symmetry_cell_setting 'monoclinic'
loop_
_space_group_symop_operation_xyz
x,y,z
-x,y,-z
-x,-y,-z
x,-y,z
loop_
_atom_site_type_symbol
_atom_site_label
_atom_site_fract_x
_atom_site_fract_y
_atom_site_fract_z
Si Si1 0.401604 0.337889 0.871773
Si Si2 0.159317 0.421037 0.114364
Si Si3 0.949323 0.810734 0.277441
Si Si4 0.091444 0.346487 0.632007
Si Si5 0.549614 0.919183 0.219322
Si Si6 0.761011 0.190696 0.019581
Si Si7 0.647798 0.419057 0.618233
Si Si8 0.737964 0.919099 0.491228
O O1 0.324848 0.262243 0.904901
O O2 0.512978 0.365159 0.694274
O O3 0.500000 0.339757 0.000000
O O4 0.269557 0.393246 0.939168
O O5 0.112170 0.500000 0.107351
O O6 0.256773 0.418698 0.246842
O O7 0.016793 0.372431 0.188075
O O8 0.891753 0.736115 0.360682
O O9 0.868273 0.822793 0.134447
O O10 0.880536 0.870248 0.416395
O O11 0.126477 0.806318 0.174532
O O12 0.241969 0.389489 0.557544
O O13 0.000000 0.360479 0.500000
O O14 0.638486 0.870312 0.063839
O O15 0.644621 0.917189 0.354597
O O16 0.382758 0.896556 0.329921
O O17 0.545711 0.000000 0.170073
O O18 0.604280 0.500000 0.608804
O O19 0.777861 0.000000 0.506610
#
# Coordination Sequence:
#
# PCOD9145480 Si02
#       8
#     4   4   4   4   4   4   4   4
#     4  10  19  32  50  74 101 129 165 205 247 294
#     4   9  16  30  51  71  96 127 164 210 247 285
#     4  10  20  33  50  74 104 134 163 198 243 295
#     4  10  19  32  50  74 101 129 165 205 247 294
#     4   8  15  29  49  73  99 128 164 202 240 284
#     4  10  20  33  50  74 104 134 163 198 243 295
#     4   9  18  30  49  75  94 121 168 216 253 281
#     4   8  15  29  49  73  99 128 164 202 240 284
#
# _framework density 22.613962000000001
#
# number of rings (size 3 to 8) (size 9 to 14) (size 15 to 20)
#    0.000    2.750    1.250    1.500    1.750    3.500 
#    0.000    2.500    0.000    5.250    0.000    0.000 
#    0.000    0.000    0.000    0.000    0.000    0.000 
#
# Total GULP energy -178707.920829 kJ/mol
# GULP energy per Si atom -5584.622526 kJ/mol
# Density = 2.256249 g / cm^3
# Si number density = 22.613962 Si / 1000 Ang^3
#
#
#
# Elastic Constant Matrix: (Units=GPa)
#
#
# Indices 1 2 3 4 5 6 
#
# 1 85.8604 22.5285 41.5706 0.0000 -8.4674 0.0000
# 2 22.5285 123.9802 59.5358 0.0000 -44.8333 0.0000
# 3 41.5706 59.5358 120.9415 0.0000 -40.8824 0.0000
# 4 0.0000 0.0000 0.0000 29.5519 0.0000 -17.1010
# 5 -8.4674 -44.8333 -40.8824 0.0000 39.5063 0.0000
# 6 0.0000 0.0000 0.0000 -17.1010 0.0000 16.3519
#
#
#
# Elastic Compliance Matrix: (Units=1/GPa)
#
#
# Indices 1 2 3 4 5 6 
#
# 1 0.014373 -0.001507 -0.005745 0.000000 -0.004575 0.000000
# 2 -0.001507 0.014261 -0.001754 0.000000 0.014046 0.000000
# 3 -0.005745 -0.001754 0.015407 0.000000 0.012721 0.000000
# 4 0.000000 0.000000 0.000000 0.085708 0.000000 0.089634
# 5 -0.004575 0.014046 0.012721 0.000000 0.053436 0.000000
# 6 0.000000 0.000000 0.000000 0.089634 0.000000 0.154895
#
#
# Mechanical properties :
#
#
# Convention : Reuss Voigt Hill
#
# Bulk Modulus (GPa) = 38.42012 64.22801 51.32407
# Shear Modulus (GPa) = 13.70735 30.89184 22.29959
#
# Velocity S-wave (km/s) = 2.46467 3.70002 3.14363
# Velocity P-wave (km/s) = 5.01258 6.83499 5.99346
#
# Compressibility (1/GPa) = 0.02602803
#
# Stress axis : x y z
#
# Youngs Moduli (GPa) = 69.57729 70.11969 64.90593
#
# Poissons Ratio (x) = 0.10570 0.37286
# Poissons Ratio (y) = 0.10488 0.11387
# Poissons Ratio (z) = 0.39969 0.12301
#
# Static dielectric constant tensor:
#      x y z
#    x 1.904670 0.000000 0.034260 
#    y 0.000000 1.782590 0.000000 
#    z 0.034260 0.000000 1.829210 
# 
# From -- ./inp_files/47819.got.cif
#   From: 2010.05.17/outbox.cif.g08.bks.cpg/sg10_24_cif.got.tgz:47819.got - 2010.06.03 11:33:40.
