data_PCOD9145424
_publ_section_title
;
Structure prediction by ZEFSAII (Michael W. Deem and Ramdas Pophale) SiO2 
 PCOD9145424
Probable space group: P 2/M
;
_chemical_formula_sum "Si O2"
_cell_formula_units_Z 32
_cell_length_a 12.040761
_cell_length_b 16.107033
_cell_length_c 18.121675
_cell_angle_alpha 90.000000
_cell_angle_beta 147.756464
_cell_angle_gamma 90.000000
_cell_volume 1875.071328
_symmetry_space_group_name_H-M "P 2/M"
_symmetry_group_IT_number 10
_symmetry_cell_setting 'monoclinic'
loop_
_space_group_symop_operation_xyz
x,y,z
-x,y,-z
-x,-y,-z
x,-y,z
loop_
_atom_site_type_symbol
_atom_site_label
_atom_site_fract_x
_atom_site_fract_y
_atom_site_fract_z
Si Si1 0.468877 0.254104 0.178522
Si Si2 0.998080 0.403144 0.697607
Si Si3 0.933536 0.741364 0.147087
Si Si4 0.196431 0.699026 0.156798
Si Si5 0.836577 0.908095 0.162543
Si Si6 0.409033 0.091816 0.826489
Si Si7 0.524992 0.402051 0.430182
Si Si8 0.216364 0.403932 0.666059
O O1 0.334213 0.247607 0.177554
O O2 0.589757 0.169459 0.227458
O O3 0.618102 0.334228 0.263651
O O4 0.297442 0.265116 0.017490
O O5 0.006514 0.500000 0.726705
O O6 0.035875 0.338803 0.784418
O O7 0.156012 0.392864 0.718430
O O8 0.761497 0.387538 0.537603
O O9 0.957191 0.826248 0.205992
O O10 0.091998 0.743741 0.167754
O O11 0.354135 0.633751 0.280036
O O12 0.000000 0.663962 0.000000
O O13 0.759807 0.898798 0.203456
O O14 0.933645 0.000000 0.208668
O O15 0.629607 0.908533 0.994521
O O16 0.385103 0.000000 0.779077
O O17 0.500000 0.368724 0.500000
O O18 0.493406 0.500000 0.416348
O O19 0.287595 0.500000 0.694917
O O20 0.000000 0.394876 0.500000
#
# Coordination Sequence:
#
# PCOD9145424 Si02
#       8
#     4   4   4   4   4   4   4   4
#     4  10  20  33  50  72 104 139 167 206 264 308
#     4  10  20  33  52  75  99 129 171 213 252 304
#     4  10  19  32  49  75 105 132 169 214 254 302
#     4  10  21  34  49  74 106 137 173 215 256 304
#     4   8  14  26  47  73 100 129 165 209 256 304
#     4   8  14  27  48  73  98 128 166 208 255 309
#     4  10  19  34  54  73  97 134 178 218 255 298
#     4  10  21  36  51  70  98 131 169 212 255 308
#
# _framework density 17.066018
#
# number of rings (size 3 to 8) (size 9 to 14) (size 15 to 20)
#    0.000    2.500    1.250    2.250    0.000    3.750 
#    0.000    4.375    0.000    4.125    0.000    4.375 
#    0.000    0.000    0.000    0.000    0.000    0.000 
#
# Total GULP energy -178239.172488 kJ/mol
# GULP energy per Si atom -5569.974140 kJ/mol
# Density = 1.702717 g / cm^3
# Si number density = 17.066018 Si / 1000 Ang^3
#
#
#
# Elastic Constant Matrix: (Units=GPa)
#
#
# Indices 1 2 3 4 5 6 
#
# 1 82.2145 67.2427 25.1293 0.0000 -0.7793 0.0000
# 2 67.2427 122.8705 43.4636 0.0000 3.8582 0.0000
# 3 25.1293 43.4636 42.7552 0.0000 -2.7585 0.0000
# 4 0.0000 0.0000 0.0000 -22.3783 0.0000 -9.7704
# 5 -0.7793 3.8582 -2.7585 0.0000 19.4142 0.0000
# 6 0.0000 0.0000 0.0000 -9.7704 0.0000 12.8868
#
#
#
# Elastic Compliance Matrix: (Units=1/GPa)
#
#
# Indices 1 2 3 4 5 6 
#
# 1 0.022241 -0.012057 -0.000609 0.000000 0.003202 0.000000
# 2 -0.012057 0.019629 -0.013272 0.000000 -0.006271 0.000000
# 3 -0.000609 -0.013272 0.037753 0.000000 0.007977 0.000000
# 4 0.000000 0.000000 0.000000 -0.033573 0.000000 -0.025454
# 5 0.003202 -0.006271 0.007977 0.000000 0.054017 0.000000
# 6 0.000000 0.000000 0.000000 -0.025454 0.000000 0.058300
#
#
# Mechanical properties :
#
#
# Convention : Reuss Voigt Hill
#
# Bulk Modulus (GPa) = 36.03928 57.72349 46.88139
# Shear Modulus (GPa) = 22.77993 9.45153 16.11573
#
# Velocity S-wave (km/s) = 3.65747 2.35589 3.07631
# Velocity P-wave (km/s) = 6.24496 6.42631 6.33628
#
# Compressibility (1/GPa) = 0.02774751
#
# Stress axis : x y z
#
# Youngs Moduli (GPa) = 44.96201 50.94610 26.48775
#
# Poissons Ratio (x) = 0.61425 0.01613
# Poissons Ratio (y) = 0.54210 0.35154
# Poissons Ratio (z) = 0.02738 0.67615
#
# Static dielectric constant tensor:
#      x y z
#    x 1.607100 0.000000 0.000710 
#    y 0.000000 1.572520 0.000000 
#    z 0.000710 0.000000 1.573840 
# 
# From -- ./inp_files/77020.got.cif
#   From: 2010.05.17/outbox.cif.g08.bks.cpg/sg10_39_cif.got.tgz:77020.got - 2010.06.03 11:33:40.
