data_PCOD9145754
_publ_section_title
;
Structure prediction by ZEFSAII (Michael W. Deem and Ramdas Pophale) SiO2 
 PCOD9145754
Probable space group: P 2/M
;
_chemical_formula_sum "Si O2"
_cell_formula_units_Z 28
_cell_length_a 13.784950
_cell_length_b 8.693270
_cell_length_c 15.043015
_cell_angle_alpha 90.000000
_cell_angle_beta 127.376159
_cell_angle_gamma 90.000000
_cell_volume 1432.546030
_symmetry_space_group_name_H-M "P 2/M"
_symmetry_group_IT_number 10
_symmetry_cell_setting 'monoclinic'
loop_
_space_group_symop_operation_xyz
x,y,z
-x,y,-z
-x,-y,-z
x,-y,z
loop_
_atom_site_type_symbol
_atom_site_label
_atom_site_fract_x
_atom_site_fract_y
_atom_site_fract_z
Si Si1 0.125938 0.817231 0.425710
Si Si2 0.476460 0.318684 0.381670
Si Si3 0.029618 0.324877 0.920636
Si Si4 0.232411 0.326176 0.314735
Si Si5 0.871537 0.184181 0.199030
Si Si6 0.343195 0.183559 0.661150
Si Si7 0.615502 0.315716 0.124278
O O1 0.989861 0.759834 0.323596
O O2 0.793035 0.761293 0.445651
O O3 0.211150 0.779808 0.387986
O O4 0.114343 0.000000 0.429527
O O5 0.500000 0.294841 0.500000
O O6 0.492012 0.500000 0.369771
O O7 0.333287 0.277472 0.299394
O O8 0.563009 0.224565 0.365494
O O9 0.078556 0.500000 0.960204
O O10 0.107317 0.233603 0.891519
O O11 0.897422 0.336335 0.802832
O O12 0.000000 0.254545 0.000000
O O13 0.266844 0.500000 0.364642
O O14 0.744215 0.252408 0.160174
O O15 0.869005 0.000000 0.204277
O O16 0.390358 0.259798 0.777403
O O17 0.336978 0.000000 0.669722
O O18 0.617731 0.500000 0.123036
O O19 0.500000 0.263831 0.000000
#
# Coordination Sequence:
#
# PCOD9145754 Si02
#       7
#     4   4   4   4   4   4   4
#     4   9  19  35  56  86 121 152 184 231 292 351
#     4  10  19  32  52  82 120 159 198 240 287 339
#     4   9  18  33  54  82 115 152 196 240 287 343
#     4   9  17  30  50  76 111 154 194 237 283 335
#     4  10  21  39  63  88 118 153 191 241 297 350
#     4  11  23  38  60  89 121 158 200 245 296 355
#     4  11  26  47  66  84 112 152 199 249 298 353
#
# _framework density 19.54562
#
# number of rings (size 3 to 8) (size 9 to 14) (size 15 to 20)
#    0.000    2.143    1.429    1.286    0.000    5.143 
#    0.000    5.714    0.000    0.000    0.000    0.000 
#    0.000    0.000    0.000    0.000    0.000    0.000 
#
# Total GULP energy -156047.197017 kJ/mol
# GULP energy per Si atom -5573.114179 kJ/mol
# Density = 1.950113 g / cm^3
# Si number density = 19.545620 Si / 1000 Ang^3
#
#
#
# Elastic Constant Matrix: (Units=GPa)
#
#
# Indices 1 2 3 4 5 6 
#
# 1 117.1212 26.0504 53.6188 0.0000 10.1376 0.0000
# 2 26.0504 31.6452 25.3842 0.0000 3.5093 0.0000
# 3 53.6188 25.3842 113.2883 0.0000 -4.5196 0.0000
# 4 0.0000 0.0000 0.0000 28.0364 0.0000 -7.5005
# 5 10.1376 3.5093 -4.5196 0.0000 22.2515 0.0000
# 6 0.0000 0.0000 0.0000 -7.5005 0.0000 37.0220
#
#
#
# Elastic Compliance Matrix: (Units=1/GPa)
#
#
# Indices 1 2 3 4 5 6 
#
# 1 0.012561 -0.005781 -0.004881 0.000000 -0.005802 0.000000
# 2 -0.005781 0.042611 -0.007032 0.000000 -0.005515 0.000000
# 3 -0.004881 -0.007032 0.012951 0.000000 0.005963 0.000000
# 4 0.000000 0.000000 0.000000 0.037712 0.000000 0.007640
# 5 -0.005802 -0.005515 0.005963 0.000000 0.049665 0.000000
# 6 0.000000 0.000000 0.000000 0.007640 0.000000 0.028559
#
#
# Mechanical properties :
#
#
# Convention : Reuss Voigt Hill
#
# Bulk Modulus (GPa) = 30.54826 52.46238 41.50532
# Shear Modulus (GPa) = 21.70529 27.92874 24.81702
#
# Velocity S-wave (km/s) = 3.33602 3.78418 3.56715
# Velocity P-wave (km/s) = 5.52285 6.78179 6.18444
#
# Compressibility (1/GPa) = 0.03273509
#
# Stress axis : x y z
#
# Youngs Moduli (GPa) = 79.61232 23.46785 77.21608
#
# Poissons Ratio (x) = 0.13568 0.37690
# Poissons Ratio (y) = 0.46027 0.54295
# Poissons Ratio (z) = 0.38859 0.16502
#
# Static dielectric constant tensor:
#      x y z
#    x 1.711570 0.000000 0.036310 
#    y 0.000000 1.685690 0.000000 
#    z 0.036310 0.000000 1.735990 
# 
# From -- ./inp_files/63507.got.cif
#   From: 2010.05.17/outbox.cif.g08.bks.cpg/sg10_32_cif.got.tgz:63507.got - 2010.06.03 11:33:40.
