data_PCOD9145089
_publ_section_title
;
Structure prediction by ZEFSAII (Michael W. Deem and Ramdas Pophale) SiO2 
 PCOD9145089
Probable space group: P 2/M
;
_chemical_formula_sum "Si O2"
_cell_formula_units_Z 28
_cell_length_a 9.442374
_cell_length_b 7.612091
_cell_length_c 30.158618
_cell_angle_alpha 90.000000
_cell_angle_beta 39.673072
_cell_angle_gamma 90.000000
_cell_volume 1383.864802
_symmetry_space_group_name_H-M "P 2/M"
_symmetry_group_IT_number 10
_symmetry_cell_setting 'monoclinic'
loop_
_space_group_symop_operation_xyz
x,y,z
-x,y,-z
-x,-y,-z
x,-y,z
loop_
_atom_site_type_symbol
_atom_site_label
_atom_site_fract_x
_atom_site_fract_y
_atom_site_fract_z
Si Si1 0.162467 0.205480 0.364507
Si Si2 0.514026 0.291076 0.633495
Si Si3 0.071174 0.288531 0.934794
Si Si4 0.574778 0.209164 0.215439
Si Si5 0.331875 0.787595 0.502641
Si Si6 0.104163 0.299815 0.782325
Si Si7 0.247859 0.715653 0.068061
O O1 0.302711 0.220249 0.376267
O O2 0.327684 0.273800 0.286372
O O3 0.917673 0.281438 0.429220
O O4 0.130543 0.000000 0.362548
O O5 0.507218 0.500000 0.642635
O O6 0.582781 0.257349 0.566827
O O7 0.268898 0.220195 0.705858
O O8 0.059659 0.500000 0.938504
O O9 0.316352 0.241320 0.858376
O O10 0.899678 0.227440 0.938344
O O11 0.000000 0.222497 0.000000
O O12 0.736411 0.298545 0.212556
O O13 0.582314 0.000000 0.222346
O O14 0.500000 0.725279 0.500000
O O15 0.325878 0.000000 0.506045
O O16 0.054752 0.500000 0.780691
O O17 0.876769 0.222847 0.856994
O O18 0.243731 0.500000 0.070276
O O19 0.500000 0.770088 0.000000
#
# Coordination Sequence:
#
# PCOD9145089 Si02
#       7
#     4   4   4   4   4   4   4
#     4   9  18  33  52  72  92 119 159 199 232 275
#     4  10  19  31  50  75  98 120 152 196 240 278
#     4   9  17  29  44  64  91 120 149 182 221 266
#     4   9  16  27  46  69  90 114 148 189 228 264
#     4  10  21  36  51  67  93 129 161 189 229 282
#     4   8  15  28  45  66  92 118 146 184 228 270
#     4   8  13  24  44  65  84 112 149 182 212 254
#
# _framework density 20.233191000000001
#
# number of rings (size 3 to 8) (size 9 to 14) (size 15 to 20)
#    0.000    3.000    0.000    2.143    0.000    4.000 
#    0.000    1.429    0.000    8.571    0.000    0.000 
#    0.000    0.000    0.000    0.000    0.000    0.000 
#
# Total GULP energy -155973.837752 kJ/mol
# GULP energy per Si atom -5570.494205 kJ/mol
# Density = 2.018714 g / cm^3
# Si number density = 20.233191 Si / 1000 Ang^3
#
#
#
# Elastic Constant Matrix: (Units=GPa)
#
#
# Indices 1 2 3 4 5 6 
#
# 1 50.3821 -5.9651 80.0355 0.0000 -3.5529 0.0000
# 2 -5.9651 46.3224 -2.3392 0.0000 -2.4248 0.0000
# 3 80.0355 -2.3392 259.7449 0.0000 -9.7951 0.0000
# 4 0.0000 0.0000 0.0000 17.8070 0.0000 -1.3071
# 5 -3.5529 -2.4248 -9.7951 0.0000 29.8053 0.0000
# 6 0.0000 0.0000 0.0000 -1.3071 0.0000 14.0440
#
#
#
# Elastic Compliance Matrix: (Units=1/GPa)
#
#
# Indices 1 2 3 4 5 6 
#
# 1 0.039835 0.004572 -0.012191 0.000000 0.001114 0.000000
# 2 0.004572 0.022223 -0.001134 0.000000 0.001980 0.000000
# 3 -0.012191 -0.001134 0.007632 0.000000 0.000963 0.000000
# 4 0.000000 0.000000 0.000000 0.056544 0.000000 0.005263
# 5 0.001114 0.001980 0.000963 0.000000 0.034161 0.000000
# 6 0.000000 0.000000 0.000000 0.005263 0.000000 0.071694
#
#
# Mechanical properties :
#
#
# Convention : Reuss Voigt Hill
#
# Bulk Modulus (GPa) = 19.16281 55.54577 37.35429
# Shear Modulus (GPa) = 18.72727 31.31248 25.01988
#
# Velocity S-wave (km/s) = 3.04562 3.93820 3.52031
# Velocity P-wave (km/s) = 4.67539 6.94202 5.91823
#
# Compressibility (1/GPa) = 0.05218440
#
# Stress axis : x y z
#
# Youngs Moduli (GPa) = 25.10379 44.99845 131.01890
#
# Poissons Ratio (x) = -0.20575 1.59727
# Poissons Ratio (y) = -0.11478 0.14858
# Poissons Ratio (z) = 0.30604 0.05103
#
# Static dielectric constant tensor:
#      x y z
#    x 1.667960 0.000000 -0.015350 
#    y 0.000000 1.778820 0.000000 
#    z -0.015350 0.000000 1.791690 
# 
# From -- ./inp_files/90414.got.cif
#   From: 2010.05.17/outbox.cif.g08.bks.cpg/sg10_46_cif.got.tgz:90414.got - 2010.06.03 11:33:40.
