data_PCOD9145051
_publ_section_title
;
Structure prediction by ZEFSAII (Michael W. Deem and Ramdas Pophale) SiO2 
 PCOD9145051
Probable space group: P 2/M
;
_chemical_formula_sum "Si O2"
_cell_formula_units_Z 24
_cell_length_a 11.521999
_cell_length_b 9.035862
_cell_length_c 14.227119
_cell_angle_alpha 90.000000
_cell_angle_beta 78.687361
_cell_angle_gamma 90.000000
_cell_volume 1452.424659
_symmetry_space_group_name_H-M "P 2/M"
_symmetry_group_IT_number 10
_symmetry_cell_setting 'monoclinic'
loop_
_space_group_symop_operation_xyz
x,y,z
-x,y,-z
-x,-y,-z
x,-y,z
loop_
_atom_site_type_symbol
_atom_site_label
_atom_site_fract_x
_atom_site_fract_y
_atom_site_fract_z
Si Si1 0.404393 0.679497 0.645844
Si Si2 0.131692 0.829746 0.025052
Si Si3 0.902864 0.176891 0.595078
Si Si4 0.775410 0.677017 0.168382
Si Si5 0.332131 0.679124 0.448509
Si Si6 0.033574 0.675676 0.218083
O O1 0.401885 0.500000 0.647308
O O2 0.330765 0.729690 0.747721
O O3 0.343099 0.722035 0.556906
O O4 0.542073 0.721439 0.618152
O O5 0.118727 0.739152 0.123188
O O6 0.163011 0.000000 0.038084
O O7 0.214669 0.756694 0.933260
O O8 0.000000 0.827013 0.000000
O O9 0.778499 0.245429 0.582663
O O10 0.942439 0.245186 0.687669
O O11 0.000000 0.212636 0.500000
O O12 0.894052 0.000000 0.604187
O O13 0.765891 0.500000 0.155240
O O14 0.898862 0.702316 0.204415
O O15 0.321094 0.500000 0.445846
O O16 0.049424 0.500000 0.224939
#
# Coordination Sequence:
#
# PCOD9145051 Si02
#       6
#     4   4   4   4   4   4
#     4   8  15  29  51  75  97 122 156 202 242 274
#     4   9  17  29  45  68  99 130 157 191 238 285
#     4  11  23  35  47  68 100 132 159 192 236 283
#     4   9  16  28  48  74  99 123 158 199 237 280
#     4   9  17  32  52  72  95 126 163 197 235 281
#     4  10  19  31  50  73  96 126 162 198 235 279
#
# _framework density 16.524093000000001
#
# number of rings (size 3 to 8) (size 9 to 14) (size 15 to 20)
#    0.000    2.667    0.000    3.500    0.000    5.333 
#    0.000    3.333    0.000    1.000    0.000    7.000 
#    0.000    0.000    0.000    0.000    0.000    0.000 
#
# Total GULP energy -133808.140486 kJ/mol
# GULP energy per Si atom -5575.339187 kJ/mol
# Density = 1.648648 g / cm^3
# Si number density = 16.524093 Si / 1000 Ang^3
#
#
#
# Elastic Constant Matrix: (Units=GPa)
#
#
# Indices 1 2 3 4 5 6 
#
# 1 60.1604 40.4996 57.7986 0.0000 -12.8686 0.0000
# 2 40.4996 53.4368 59.9125 0.0000 -4.1219 0.0000
# 3 57.7986 59.9125 148.1634 0.0000 -25.4320 0.0000
# 4 0.0000 0.0000 0.0000 23.8124 0.0000 -2.6442
# 5 -12.8686 -4.1219 -25.4320 0.0000 30.6161 0.0000
# 6 0.0000 0.0000 0.0000 -2.6442 0.0000 15.3997
#
#
#
# Elastic Compliance Matrix: (Units=1/GPa)
#
#
# Indices 1 2 3 4 5 6 
#
# 1 0.038692 -0.024834 -0.003305 0.000000 0.010174 0.000000
# 2 -0.024834 0.051957 -0.013894 0.000000 -0.014985 0.000000
# 3 -0.003305 -0.013894 0.015276 0.000000 0.009429 0.000000
# 4 0.000000 0.000000 0.000000 0.042811 0.000000 0.007351
# 5 0.010174 -0.014985 0.009429 0.000000 0.042754 0.000000
# 6 0.000000 0.000000 0.000000 0.007351 0.000000 0.066198
#
#
# Mechanical properties :
#
#
# Convention : Reuss Voigt Hill
#
# Bulk Modulus (GPa) = 45.74984 64.24244 54.99614
# Shear Modulus (GPa) = 14.32492 20.86898 17.59695
#
# Velocity S-wave (km/s) = 2.94753 3.55765 3.26686
# Velocity P-wave (km/s) = 6.27142 7.47250 6.89815
#
# Compressibility (1/GPa) = 0.02185800
#
# Stress axis : x y z
#
# Youngs Moduli (GPa) = 25.84500 19.24652 65.46345
#
# Poissons Ratio (x) = 0.47797 0.21639
# Poissons Ratio (y) = 0.64183 0.90957
# Poissons Ratio (z) = 0.08543 0.26742
#
# Static dielectric constant tensor:
#      x y z
#    x 1.541250 0.000000 -0.019010 
#    y 0.000000 1.550560 0.000000 
#    z -0.019010 0.000000 1.545630 
# 
# From -- ./inp_files/45166.got.cif
#   From: 2010.05.17/outbox.cif.g08.bks.cpg/sg10_23_cif.got.tgz:45166.got - 2010.06.03 11:33:40.
