data_PCOD9145256
_publ_section_title
;
Structure prediction by ZEFSAII (Michael W. Deem and Ramdas Pophale) SiO2 
 PCOD9145256
Probable space group: P 2/M
;
_chemical_formula_sum "Si O2"
_cell_formula_units_Z 32
_cell_length_a 23.333667
_cell_length_b 7.401330
_cell_length_c 15.455367
_cell_angle_alpha 90.000000
_cell_angle_beta 31.315198
_cell_angle_gamma 90.000000
_cell_volume 1387.276493
_symmetry_space_group_name_H-M "P 2/M"
_symmetry_group_IT_number 10
_symmetry_cell_setting 'monoclinic'
loop_
_space_group_symop_operation_xyz
x,y,z
-x,y,-z
-x,-y,-z
x,-y,z
loop_
_atom_site_type_symbol
_atom_site_label
_atom_site_fract_x
_atom_site_fract_y
_atom_site_fract_z
Si Si1 0.511741 0.779808 0.384628
Si Si2 0.343157 0.221171 0.960903
Si Si3 0.766961 0.218291 0.506269
Si Si4 0.727998 0.217504 0.365867
Si Si5 0.002304 0.708287 0.729438
Si Si6 0.099182 0.203363 0.316295
Si Si7 0.936322 0.710376 0.999493
Si Si8 0.522435 0.220191 0.873248
O O1 0.500000 0.721046 0.500000
O O2 0.612300 0.722973 0.191967
O O3 0.397758 0.725953 0.484668
O O4 0.515800 0.000000 0.381649
O O5 0.432922 0.275568 0.917303
O O6 0.339577 0.000000 0.963430
O O7 0.221654 0.282751 0.147123
O O8 0.779402 0.278610 0.390575
O O9 0.865457 0.285133 0.438702
O O10 0.645559 0.275832 0.690058
O O11 0.770754 0.000000 0.503307
O O12 0.807551 0.276785 0.186609
O O13 0.727127 0.000000 0.368231
O O14 0.966007 0.500000 0.770720
O O15 0.949438 0.805164 0.717087
O O16 0.965768 0.788306 0.868770
O O17 0.000000 0.289888 0.500000
O O18 0.114853 0.000000 0.332633
O O19 0.968835 0.500000 0.952837
O O20 0.000000 0.791043 0.000000
O O21 0.520701 0.000000 0.874157
O O22 0.500000 0.278016 0.000000
#
# Coordination Sequence:
#
# PCOD9145256 Si02
#       8
#     4   4   4   4   4   4   4   4
#     4   9  17  29  47  75 110 145 176 215 276 339
#     4   9  17  32  51  79 116 145 176 221 277 337
#     4  10  19  33  55  85 115 141 185 239 281 332
#     4  10  19  31  52  81 110 140 181 231 279 329
#     4  11  24  40  58  79 111 156 197 231 280 340
#     4  10  23  40  61  88 115 147 192 241 283 329
#     4  10  21  37  53  74 109 150 186 220 271 338
#     4   9  17  29  52  82 111 143 173 218 285 341
#
# _framework density 23.066780000000001
#
# number of rings (size 3 to 8) (size 9 to 14) (size 15 to 20)
#    0.000    2.250    2.500    0.375    3.500    1.500 
#    0.000    0.000    0.000    2.250    0.000    0.000 
#    0.000    0.000    0.000    0.000    0.000    0.000 
#
# Total GULP energy -178754.068786 kJ/mol
# GULP energy per Si atom -5586.064650 kJ/mol
# Density = 2.301428 g / cm^3
# Si number density = 23.066780 Si / 1000 Ang^3
#
#
#
# Elastic Constant Matrix: (Units=GPa)
#
#
# Indices 1 2 3 4 5 6 
#
# 1 68.0891 -6.4678 46.1532 0.0000 5.5624 0.0000
# 2 -6.4678 80.4068 -2.3701 0.0000 4.0897 0.0000
# 3 46.1532 -2.3701 191.0865 0.0000 -3.4666 0.0000
# 4 0.0000 0.0000 0.0000 23.1215 0.0000 -6.0905
# 5 5.5624 4.0897 -3.4666 0.0000 40.0504 0.0000
# 6 0.0000 0.0000 0.0000 -6.0905 0.0000 -8.4076
#
#
#
# Elastic Compliance Matrix: (Units=1/GPa)
#
#
# Indices 1 2 3 4 5 6 
#
# 1 0.018056 0.001477 -0.004398 0.000000 -0.003039 0.000000
# 2 0.001477 0.012626 -0.000228 0.000000 -0.001514 0.000000
# 3 -0.004398 -0.000228 0.006314 0.000000 0.001181 0.000000
# 4 0.000000 0.000000 0.000000 0.036319 0.000000 -0.026310
# 5 -0.003039 -0.001514 0.001181 0.000000 0.025647 0.000000
# 6 0.000000 0.000000 0.000000 -0.026310 0.000000 -0.099881
#
#
# Mechanical properties :
#
#
# Convention : Reuss Voigt Hill
#
# Bulk Modulus (GPa) = 32.57356 46.02366 39.29861
# Shear Modulus (GPa) = 320.25884 31.10400 175.68142
#
# Velocity S-wave (km/s) = 11.79582 3.67608 8.73656
# Velocity P-wave (km/s) = 14.13060 6.16553 10.90155
#
# Compressibility (1/GPa) = 0.03069974
#
# Stress axis : x y z
#
# Youngs Moduli (GPa) = 55.38218 79.20225 158.37655
#
# Poissons Ratio (x) = -0.11701 0.69653
# Poissons Ratio (y) = -0.08182 0.03606
# Poissons Ratio (z) = 0.24357 0.01803
#
# Static dielectric constant tensor:
#      x y z
#    x 1.813880 0.000000 0.013910 
#    y 0.000000 1.786660 0.000000 
#    z 0.013910 0.000000 1.877120 
# 
# From -- ./inp_files/71403.got.cif
#   From: 2010.05.17/outbox.cif.g08.bks.cpg/sg10_36_cif.got.tgz:71403.got - 2010.06.03 11:33:40.
