data_PCOD9145500
_publ_section_title
;
Structure prediction by ZEFSAII (Michael W. Deem and Ramdas Pophale) SiO2 
 PCOD9145500
Probable space group: P 2/M
;
_chemical_formula_sum "Si O2"
_cell_formula_units_Z 30
_cell_length_a 31.126145
_cell_length_b 7.462782
_cell_length_c 18.104129
_cell_angle_alpha 90.000000
_cell_angle_beta 19.445198
_cell_angle_gamma 90.000000
_cell_volume 1399.987529
_symmetry_space_group_name_H-M "P 2/M"
_symmetry_group_IT_number 10
_symmetry_cell_setting 'monoclinic'
loop_
_space_group_symop_operation_xyz
x,y,z
-x,y,-z
-x,-y,-z
x,-y,z
loop_
_atom_site_type_symbol
_atom_site_label
_atom_site_fract_x
_atom_site_fract_y
_atom_site_fract_z
Si Si1 0.291113 0.283476 0.113064
Si Si2 0.143339 0.788039 0.056552
Si Si3 0.431553 0.704570 0.372248
Si Si4 0.330317 0.000000 0.449135
Si Si5 0.146657 0.714379 0.493095
Si Si6 0.418784 0.782799 0.559010
Si Si7 0.116537 0.209257 0.263994
Si Si8 0.637498 0.715336 0.736689
O O1 0.291069 0.500000 0.113209
O O2 0.200192 0.218381 0.327036
O O3 0.237625 0.221107 0.121428
O O4 0.439568 0.227767 0.879752
O O5 0.136458 0.712163 0.151028
O O6 0.001363 0.765042 0.253111
O O7 0.166905 0.000000 0.024769
O O8 0.270399 0.720863 0.809667
O O9 0.404802 0.500000 0.395782
O O10 0.464324 0.713191 0.406014
O O11 0.322998 0.843114 0.525853
O O12 0.346527 0.158956 0.359691
O O13 0.149613 0.500000 0.483349
O O14 0.247973 0.763749 0.391840
O O15 0.500000 0.728732 0.500000
O O16 0.426909 0.000000 0.542295
O O17 0.000000 0.291843 0.500000
O O18 0.084310 0.000000 0.304457
O O19 0.645171 0.500000 0.708163
O O20 0.500000 0.743968 0.000000
#
# Coordination Sequence:
#
# PCOD9145500 Si02
#       8
#     4   4   4   2   4   4   4   4
#     4  10  21  35  54  83 124 165 203 250 306 366
#     4  10  21  36  58  88 124 163 210 260 305 368
#     4  11  24  41  63  95 126 162 216 270 314 374
#     4  12  23  40  65  93 119 169 202 259 331 381
#     4  10  21  37  58  87 125 165 199 250 316 380
#     4  10  21  41  66  92 127 170 219 267 315 366
#     4  10  19  32  50  82 120 162 203 244 291 362
#     4  10  22  41  63  94 133 167 212 264 317 391
#
# _framework density 21.428764000000001
#
# number of rings (size 3 to 8) (size 9 to 14) (size 15 to 20)
#    0.000    1.733    2.000    2.200    1.867    4.800 
#    0.000    0.000    0.000    1.600    0.000    2.800 
#    0.000    0.000    0.000    0.000    0.000    0.000 
#
# Total GULP energy -167076.198916 kJ/mol
# GULP energy per Si atom -5569.206631 kJ/mol
# Density = 2.137999 g / cm^3
# Si number density = 21.428764 Si / 1000 Ang^3
#
#
#
# Elastic Constant Matrix: (Units=GPa)
#
#
# Indices 1 2 3 4 5 6 
#
# 1 93.9696 16.7979 15.3123 0.0000 -7.7457 0.0000
# 2 16.7979 94.8946 1.3625 0.0000 3.5906 0.0000
# 3 15.3123 1.3625 93.8302 0.0000 -8.4435 0.0000
# 4 0.0000 0.0000 0.0000 17.0261 0.0000 -1.7933
# 5 -7.7457 3.5906 -8.4435 0.0000 24.1681 0.0000
# 6 0.0000 0.0000 0.0000 -1.7933 0.0000 18.2391
#
#
#
# Elastic Compliance Matrix: (Units=1/GPa)
#
#
# Indices 1 2 3 4 5 6 
#
# 1 0.011566 -0.002157 -0.001542 0.000000 0.003489 0.000000
# 2 -0.002157 0.011008 -0.000018 0.000000 -0.002333 0.000000
# 3 -0.001542 -0.000018 0.011218 0.000000 0.003428 0.000000
# 4 0.000000 0.000000 0.000000 0.059348 0.000000 0.005835
# 5 0.003489 -0.002333 0.003428 0.000000 0.044039 0.000000
# 6 0.000000 0.000000 0.000000 0.005835 0.000000 0.055401
#
#
# Mechanical properties :
#
#
# Convention : Reuss Voigt Hill
#
# Bulk Modulus (GPa) = 37.93912 38.84886 38.39399
# Shear Modulus (GPa) = 23.94623 28.50144 26.22384
#
# Velocity S-wave (km/s) = 3.34650 3.65095 3.50203
# Velocity P-wave (km/s) = 5.71623 5.99510 5.85733
#
# Compressibility (1/GPa) = 0.02635802
#
# Stress axis : x y z
#
# Youngs Moduli (GPa) = 86.45858 90.83969 89.14311
#
# Poissons Ratio (x) = 0.19596 0.13748
# Poissons Ratio (y) = 0.18651 0.00158
# Poissons Ratio (z) = 0.13334 0.00161
#
# Static dielectric constant tensor:
#      x y z
#    x 1.793180 0.000000 -0.016880 
#    y 0.000000 1.799200 0.000000 
#    z -0.016880 0.000000 1.824060 
# 
# From -- ./inp_files/80698.got.cif
#   From: 2010.05.17/outbox.cif.g08.bks.cpg/sg10_41_cif.got.tgz:80698.got - 2010.06.03 11:33:40.
