data_PCOD9145293
_publ_section_title
;
Structure prediction by ZEFSAII (Michael W. Deem and Ramdas Pophale) SiO2 
 PCOD9145293
Probable space group: P 2/M
;
_chemical_formula_sum "Si O2"
_cell_formula_units_Z 32
_cell_length_a 22.603319
_cell_length_b 7.877337
_cell_length_c 12.600418
_cell_angle_alpha 90.000000
_cell_angle_beta 46.369165
_cell_angle_gamma 90.000000
_cell_volume 1623.886025
_symmetry_space_group_name_H-M "P 2/M"
_symmetry_group_IT_number 10
_symmetry_cell_setting 'monoclinic'
loop_
_space_group_symop_operation_xyz
x,y,z
-x,y,-z
-x,-y,-z
x,-y,z
loop_
_atom_site_type_symbol
_atom_site_label
_atom_site_fract_x
_atom_site_fract_y
_atom_site_fract_z
Si Si1 0.283242 0.701998 0.432559
Si Si2 0.064591 0.195628 0.825899
Si Si3 0.274399 0.206254 0.103429
Si Si4 0.409389 0.798658 0.097540
Si Si5 0.147699 0.799746 0.434904
Si Si6 0.804860 0.701674 0.006067
Si Si7 0.768272 0.303621 0.284044
Si Si8 0.979433 0.694323 0.719200
O O1 0.293255 0.500000 0.425854
O O2 0.353860 0.774309 0.270378
O O3 0.197603 0.733506 0.476030
O O4 0.283095 0.770960 0.553446
O O5 0.141551 0.292527 0.777704
O O6 0.022625 0.288854 0.780229
O O7 0.085976 0.000000 0.768536
O O8 0.000000 0.185537 0.000000
O O9 0.354816 0.266236 0.066847
O O10 0.197002 0.264711 0.271182
O O11 0.274316 0.000000 0.100587
O O12 0.262733 0.272064 0.999780
O O13 0.417791 0.000000 0.068835
O O14 0.500000 0.726024 0.000000
O O15 0.051136 0.765744 0.555641
O O16 0.159387 0.000000 0.422551
O O17 0.819985 0.500000 0.003878
O O18 0.777406 0.772411 0.154715
O O19 0.889944 0.773942 0.851412
O O20 0.742798 0.500000 0.302509
O O21 0.967548 0.500000 0.702003
#
# Coordination Sequence:
#
# PCOD9145293 Si02
#       8
#     4   4   4   4   4   4   4   4
#     4  10  19  31  53  83 110 136 169 214 264 312
#     4  11  21  30  45  71  99 134 183 234 272 306
#     4   9  20  37  55  76 103 134 170 215 263 316
#     4   9  19  38  63  87 110 134 160 202 263 321
#     4  10  20  34  51  73 103 138 179 228 276 313
#     4  10  22  36  50  70 102 146 186 219 259 312
#     4  10  20  34  50  71 104 143 179 217 264 309
#     4  11  21  32  48  70  99 140 186 229 270 309
#
# _framework density 19.705815999999999
#
# number of rings (size 3 to 8) (size 9 to 14) (size 15 to 20)
#    0.000    2.000    2.500    2.250    0.000    5.750 
#    0.000    2.500    0.000    0.750    0.000    5.250 
#    0.000    0.000    0.000    0.000    0.000    0.000 
#
# Total GULP energy -178422.161196 kJ/mol
# GULP energy per Si atom -5575.692537 kJ/mol
# Density = 1.966096 g / cm^3
# Si number density = 19.705816 Si / 1000 Ang^3
#
#
#
# Elastic Constant Matrix: (Units=GPa)
#
#
# Indices 1 2 3 4 5 6 
#
# 1 108.6456 -9.1503 66.4726 0.0000 10.6571 0.0000
# 2 -9.1503 19.4407 -16.3731 0.0000 0.2797 0.0000
# 3 66.4726 -16.3731 72.5266 0.0000 3.3157 0.0000
# 4 0.0000 0.0000 0.0000 -13.1038 0.0000 0.5136
# 5 10.6571 0.2797 3.3157 0.0000 24.8961 0.0000
# 6 0.0000 0.0000 0.0000 0.5136 0.0000 15.4176
#
#
#
# Elastic Compliance Matrix: (Units=1/GPa)
#
#
# Indices 1 2 3 4 5 6 
#
# 1 0.023030 -0.008125 -0.022633 0.000000 -0.006753 0.000000
# 2 -0.008125 0.066554 0.022484 0.000000 -0.000264 0.000000
# 3 -0.022633 0.022484 0.039416 0.000000 0.004186 0.000000
# 4 0.000000 0.000000 0.000000 -0.076214 0.000000 0.002539
# 5 -0.006753 -0.000264 0.004186 0.000000 0.042503 0.000000
# 6 0.000000 0.000000 0.000000 0.002539 0.000000 0.064776
#
#
# Mechanical properties :
#
#
# Convention : Reuss Voigt Hill
#
# Bulk Modulus (GPa) = 8.89272 31.39012 20.14142
# Shear Modulus (GPa) = 23.35382 16.08622 19.72002
#
# Velocity S-wave (km/s) = 3.44630 2.86023 3.16685
# Velocity P-wave (km/s) = 4.51204 5.18380 4.85954
#
# Compressibility (1/GPa) = 0.11245150
#
# Stress axis : x y z
#
# Youngs Moduli (GPa) = 43.42187 15.02538 25.37025
#
# Poissons Ratio (x) = 0.12208 0.57421
# Poissons Ratio (y) = 0.35280 -0.57042
# Poissons Ratio (z) = 0.98277 -0.33783
#
# Static dielectric constant tensor:
#      x y z
#    x 1.676860 0.000000 0.012890 
#    y 0.000000 1.729840 0.000000 
#    z 0.012890 0.000000 1.752600 
# 
# From -- ./inp_files/55268.got.cif
#   From: 2010.05.17/outbox.cif.g08.bks.cpg/sg10_28_cif.got.tgz:55268.got - 2010.06.03 11:33:40.
