data_PCOD9145845
_publ_section_title
;
Structure prediction by ZEFSAII (Michael W. Deem and Ramdas Pophale) SiO2 
 PCOD9145845
Probable space group: P 2/M
;
_chemical_formula_sum "Si O2"
_cell_formula_units_Z 28
_cell_length_a 22.622846
_cell_length_b 8.402845
_cell_length_c 15.219226
_cell_angle_alpha 90.000000
_cell_angle_beta 30.491298
_cell_angle_gamma 90.000000
_cell_volume 1467.989790
_symmetry_space_group_name_H-M "P 2/M"
_symmetry_group_IT_number 10
_symmetry_cell_setting 'monoclinic'
loop_
_space_group_symop_operation_xyz
x,y,z
-x,y,-z
-x,-y,-z
x,-y,z
loop_
_atom_site_type_symbol
_atom_site_label
_atom_site_fract_x
_atom_site_fract_y
_atom_site_fract_z
Si Si1 0.791986 0.692329 0.974933
Si Si2 0.120047 0.306049 0.954477
Si Si3 0.365322 0.690393 0.328327
Si Si4 0.145251 0.694087 0.723068
Si Si5 0.277412 0.189895 0.261563
Si Si6 0.979189 0.307962 0.425591
Si Si7 0.614312 0.809838 0.061322
O O1 0.789745 0.500000 0.976784
O O2 0.683317 0.751770 0.058188
O O3 0.910760 0.743094 0.773212
O O4 0.803029 0.746249 0.061672
O O5 0.120498 0.500000 0.953696
O O6 0.159073 0.256300 0.807175
O O7 0.984668 0.257881 0.140034
O O8 0.365120 0.500000 0.330351
O O9 0.250109 0.748993 0.527399
O O10 0.356159 0.746105 0.239583
O O11 0.482376 0.751467 0.223445
O O12 0.146060 0.500000 0.720389
O O13 0.144639 0.243158 0.446652
O O14 0.319431 0.248804 0.112044
O O15 0.283806 0.000000 0.253456
O O16 0.973509 0.500000 0.429569
O O17 0.000000 0.259468 0.500000
O O18 0.616070 0.000000 0.057699
#
# Coordination Sequence:
#
# PCOD9145845 Si02
#       7
#     4   4   4   4   4   4   4
#     4  10  19  33  55  82 109 141 178 216 263 312
#     4   8  14  28  54  84 111 134 162 209 266 320
#     4  11  22  36  57  80 103 135 180 227 269 309
#     4   8  15  30  53  83 111 132 163 214 270 315
#     4  11  23  37  54  76 106 144 182 217 263 320
#     4  10  19  32  53  81 111 136 170 220 263 304
#     4  11  24  39  52  71 106 147 183 218 261 317
#
# _framework density 19.073702999999998
#
# number of rings (size 3 to 8) (size 9 to 14) (size 15 to 20)
#    0.000    2.143    1.429    3.429    0.000    6.571 
#    0.000    0.714    0.000    6.000    0.000    6.000 
#    0.000    0.000    0.000    0.000    0.000    0.000 
#
# Total GULP energy -156340.391658 kJ/mol
# GULP energy per Si atom -5583.585416 kJ/mol
# Density = 1.903029 g / cm^3
# Si number density = 19.073703 Si / 1000 Ang^3
#
#
#
# Elastic Constant Matrix: (Units=GPa)
#
#
# Indices 1 2 3 4 5 6 
#
# 1 161.0571 15.9913 34.4046 0.0000 -9.7695 0.0000
# 2 15.9913 9.4184 1.2661 0.0000 -2.2688 0.0000
# 3 34.4046 1.2661 39.0561 0.0000 -12.5789 0.0000
# 4 0.0000 0.0000 0.0000 -88.4849 0.0000 95.4593
# 5 -9.7695 -2.2688 -12.5789 0.0000 22.6387 0.0000
# 6 0.0000 0.0000 0.0000 95.4593 0.0000 -93.9176
#
#
#
# Elastic Compliance Matrix: (Units=1/GPa)
#
#
# Indices 1 2 3 4 5 6 
#
# 1 0.009420 -0.015382 -0.008510 0.000000 -0.002205 0.000000
# 2 -0.015382 0.133916 0.013876 0.000000 0.014493 0.000000
# 3 -0.008510 0.013876 0.038872 0.000000 0.019317 0.000000
# 4 0.000000 0.000000 0.000000 0.117075 0.000000 0.118997
# 5 -0.002205 0.014493 0.019317 0.000000 0.055406 0.000000
# 6 0.000000 0.000000 0.000000 0.118997 0.000000 0.110303
#
#
# Mechanical properties :
#
#
# Convention : Reuss Voigt Hill
#
# Bulk Modulus (GPa) = 6.16606 34.76176 20.46391
# Shear Modulus (GPa) = 9.27499 -21.42810 -6.07656
#
# Velocity S-wave (km/s) = 2.20755 -3.35541 -1.78683
# Velocity P-wave (km/s) = 3.12049 1.80357 2.54856
#
# Compressibility (1/GPa) = 0.16217821
#
# Stress axis : x y z
#
# Youngs Moduli (GPa) = 106.15350 7.46734 25.72542
#
# Poissons Ratio (x) = 0.11486 0.21892
# Poissons Ratio (y) = 1.63281 -0.35697
# Poissons Ratio (z) = 0.90334 -0.10362
#
# Static dielectric constant tensor:
#      x y z
#    x 1.660510 0.000000 0.019870 
#    y 0.000000 1.656480 0.000000 
#    z 0.019870 0.000000 1.654090 
# 
# From -- ./inp_files/49121.got.cif
#   From: 2010.05.17/outbox.cif.g08.bks.cpg/sg10_25_cif.got.tgz:49121.got - 2010.06.03 11:33:40.
