data_PCOD9145831
_publ_section_title
;
Structure prediction by ZEFSAII (Michael W. Deem and Ramdas Pophale) SiO2 
 PCOD9145831
Probable space group: P 2/M
;
_chemical_formula_sum "Si O2"
_cell_formula_units_Z 30
_cell_length_a 12.054571
_cell_length_b 9.392291
_cell_length_c 31.156880
_cell_angle_alpha 90.000000
_cell_angle_beta 150.673339
_cell_angle_gamma 90.000000
_cell_volume 1727.768578
_symmetry_space_group_name_H-M "P 2/M"
_symmetry_group_IT_number 10
_symmetry_cell_setting 'monoclinic'
loop_
_space_group_symop_operation_xyz
x,y,z
-x,y,-z
-x,-y,-z
x,-y,z
loop_
_atom_site_type_symbol
_atom_site_label
_atom_site_fract_x
_atom_site_fract_y
_atom_site_fract_z
Si Si1 0.141378 0.167757 0.769135
Si Si2 0.778473 0.667862 0.764078
Si Si3 0.348716 0.166056 0.364668
Si Si4 0.000000 0.750498 0.500000
Si Si5 0.424955 0.164454 0.700609
Si Si6 0.768848 0.343991 0.509735
Si Si7 0.762246 0.664282 0.282714
Si Si8 0.735226 0.667609 0.102959
O O1 0.242418 0.255842 0.763972
O O2 0.226017 0.234439 0.842513
O O3 0.866475 0.181409 0.676816
O O4 0.193733 0.000000 0.784233
O O5 0.727206 0.500000 0.749417
O O6 0.703458 0.733270 0.693320
O O7 0.633974 0.754980 0.749370
O O8 0.049493 0.687327 0.855915
O O9 0.591591 0.221456 0.461525
O O10 0.360499 0.000000 0.355826
O O11 0.204930 0.827897 0.594510
O O12 0.129530 0.671236 0.504467
O O13 0.367426 0.247490 0.724664
O O14 0.474833 0.000000 0.725244
O O15 0.659576 0.500000 0.476307
O O16 0.980334 0.337823 0.612920
O O17 0.686074 0.500000 0.254191
O O18 0.738596 0.500000 0.117014
O O19 0.500000 0.697168 0.000000
#
# Coordination Sequence:
#
# PCOD9145831 Si02
#       8
#     4   4   4   2   4   4   4   4
#     4  10  21  37  55  78 108 140 174 216 267 322
#     4  10  19  32  53  80 110 140 175 220 268 317
#     4  10  20  32  49  73 103 138 178 223 271 316
#     4  10  20  30  48  72 104 142 186 230 268 310
#     4  11  21  33  51  76 108 144 184 226 270 315
#     4  10  20  32  48  70 100 138 185 231 269 310
#     4  10  22  37  52  73 102 143 188 224 263 314
#     4   9  19  37  62  89 112 137 170 212 266 326
#
# _framework density 17.363437999999999
#
# number of rings (size 3 to 8) (size 9 to 14) (size 15 to 20)
#    0.000    2.000    1.333    2.400    0.000    6.667 
#    0.000    2.667    0.000    0.800    0.000    5.600 
#    0.000    0.000    0.000    0.000    0.000    0.000 
#
# Total GULP energy -167290.650790 kJ/mol
# GULP energy per Si atom -5576.355026 kJ/mol
# Density = 1.732392 g / cm^3
# Si number density = 17.363438 Si / 1000 Ang^3
#
#
#
# Elastic Constant Matrix: (Units=GPa)
#
#
# Indices 1 2 3 4 5 6 
#
# 1 104.3222 80.6919 40.0140 0.0000 -0.2439 0.0000
# 2 80.6919 152.6051 43.1302 0.0000 5.5191 0.0000
# 3 40.0140 43.1302 49.2160 0.0000 9.9638 0.0000
# 4 0.0000 0.0000 0.0000 5.5953 0.0000 -2.8734
# 5 -0.2439 5.5191 9.9638 0.0000 18.3898 0.0000
# 6 0.0000 0.0000 0.0000 -2.8734 0.0000 24.6431
#
#
#
# Elastic Compliance Matrix: (Units=1/GPa)
#
#
# Indices 1 2 3 4 5 6 
#
# 1 0.019767 -0.007615 -0.011134 0.000000 0.008580 0.000000
# 2 -0.007615 0.011692 -0.003734 0.000000 -0.001587 0.000000
# 3 -0.011134 -0.003734 0.036444 0.000000 -0.018773 0.000000
# 4 0.000000 0.000000 0.000000 0.190106 0.000000 0.022167
# 5 0.008580 -0.001587 -0.018773 0.000000 0.065139 0.000000
# 6 0.000000 0.000000 0.000000 0.022167 0.000000 0.043164
#
#
# Mechanical properties :
#
#
# Convention : Reuss Voigt Hill
#
# Bulk Modulus (GPa) = 43.59965 70.42393 57.01179
# Shear Modulus (GPa) = 11.93535 19.21279 15.57407
#
# Velocity S-wave (km/s) = 2.62465 3.33003 2.99816
# Velocity P-wave (km/s) = 5.86085 7.44529 6.70007
#
# Compressibility (1/GPa) = 0.02293596
#
# Stress axis : x y z
#
# Youngs Moduli (GPa) = 50.58955 85.52694 27.43966
#
# Poissons Ratio (x) = 0.65133 0.30552
# Poissons Ratio (y) = 0.38526 0.10245
# Poissons Ratio (z) = 0.56328 0.31932
#
# Static dielectric constant tensor:
#      x y z
#    x 1.584930 0.000000 0.018090 
#    y 0.000000 1.589580 0.000000 
#    z 0.018090 0.000000 1.580120 
# 
# From -- ./inp_files/94895.got.cif
#   From: 2010.05.17/outbox.cif.g08.bks.cpg/sg10_48_cif.got.tgz:94895.got - 2010.06.03 11:33:40.
