data_PCOD9145287
_publ_section_title
;
Structure prediction by ZEFSAII (Michael W. Deem and Ramdas Pophale) SiO2 
 PCOD9145287
Probable space group: P 2/M
;
_chemical_formula_sum "Si O2"
_cell_formula_units_Z 32
_cell_length_a 23.811048
_cell_length_b 7.335650
_cell_length_c 13.658674
_cell_angle_alpha 90.000000
_cell_angle_beta 35.416759
_cell_angle_gamma 90.000000
_cell_volume 1382.591110
_symmetry_space_group_name_H-M "P 2/M"
_symmetry_group_IT_number 10
_symmetry_cell_setting 'monoclinic'
loop_
_space_group_symop_operation_xyz
x,y,z
-x,y,-z
-x,-y,-z
x,-y,z
loop_
_atom_site_type_symbol
_atom_site_label
_atom_site_fract_x
_atom_site_fract_y
_atom_site_fract_z
Si Si1 0.259012 0.221072 0.731934
Si Si2 0.810159 0.789821 0.526770
Si Si3 0.814288 0.221775 0.950833
Si Si4 0.019038 0.777014 0.584411
Si Si5 0.392417 0.777913 0.125172
Si Si6 0.093472 0.292666 0.813388
Si Si7 0.476573 0.777941 0.422486
Si Si8 0.650880 0.221888 0.035183
O O1 0.180127 0.287879 0.767861
O O2 0.367828 0.278217 0.551551
O O3 0.256417 0.000000 0.733583
O O4 0.231933 0.278383 0.880625
O O5 0.700161 0.718205 0.678283
O O6 0.866491 0.787359 0.344186
O O7 0.881892 0.710876 0.507026
O O8 0.797644 0.000000 0.573761
O O9 0.925222 0.277857 0.780541
O O10 0.813071 0.000000 0.952492
O O11 0.747960 0.279881 0.953696
O O12 0.000000 0.721642 0.500000
O O13 0.021729 0.000000 0.580859
O O14 0.398861 0.000000 0.120207
O O15 0.500000 0.712690 0.000000
O O16 0.363416 0.723643 0.056182
O O17 0.066663 0.500000 0.826497
O O18 0.000000 0.208550 0.000000
O O19 0.500000 0.721566 0.500000
O O20 0.559195 0.719456 0.230419
O O21 0.478135 0.000000 0.420055
O O22 0.652280 0.000000 0.033007
#
# Coordination Sequence:
#
# PCOD9145287 Si02
#       8
#     4   4   4   4   4   4   4   4
#     4  10  19  31  53  82 107 135 178 222 265 318
#     4  10  20  35  56  82 109 139 181 227 267 316
#     4   9  15  24  41  69 102 134 167 209 258 311
#     4   9  16  26  44  72 107 137 164 208 268 316
#     4   9  18  29  44  73 111 145 176 216 265 311
#     4  11  25  42  57  75 105 145 183 224 279 334
#     4   9  15  25  43  76 114 144 172 212 266 320
#     4   9  15  24  40  67 110 148 171 204 258 315
#
# _framework density 23.144950000000001
#
# number of rings (size 3 to 8) (size 9 to 14) (size 15 to 20)
#    0.000    2.500    1.250    1.875    1.750    5.000 
#    0.000    0.000    0.000    1.125    0.000    2.625 
#    0.000    0.000    0.000    0.000    0.000    0.000 
#
# Total GULP energy -178824.058358 kJ/mol
# GULP energy per Si atom -5588.251824 kJ/mol
# Density = 2.309227 g / cm^3
# Si number density = 23.144950 Si / 1000 Ang^3
#
#
#
# Elastic Constant Matrix: (Units=GPa)
#
#
# Indices 1 2 3 4 5 6 
#
# 1 126.9926 -4.6498 52.9714 0.0000 -23.3478 0.0000
# 2 -4.6498 85.9275 3.4791 0.0000 -2.8474 0.0000
# 3 52.9714 3.4791 158.4872 0.0000 -25.2747 0.0000
# 4 0.0000 0.0000 0.0000 -55.8117 0.0000 -96.5458
# 5 -23.3478 -2.8474 -25.2747 0.0000 41.9439 0.0000
# 6 0.0000 0.0000 0.0000 -96.5458 0.0000 -178.9201
#
#
#
# Elastic Compliance Matrix: (Units=1/GPa)
#
#
# Indices 1 2 3 4 5 6 
#
# 1 0.009718 0.000761 -0.002648 0.000000 0.003865 0.000000
# 2 0.000761 0.011727 -0.000351 0.000000 0.001008 0.000000
# 3 -0.002648 -0.000351 0.007704 0.000000 0.003144 0.000000
# 4 0.000000 0.000000 0.000000 -0.269157 0.000000 0.145238
# 5 0.003865 0.001008 0.003144 0.000000 0.027956 0.000000
# 6 0.000000 0.000000 0.000000 0.145238 0.000000 -0.083960
#
#
# Mechanical properties :
#
#
# Convention : Reuss Voigt Hill
#
# Bulk Modulus (GPa) = 40.53212 52.77873 46.65542
# Shear Modulus (GPa) = -17.64836 -17.25046 -17.44941
#
# Velocity S-wave (km/s) = -2.76436 -2.73302 -2.74874
# Velocity P-wave (km/s) = 2.71319 3.59080 3.18239
#
# Compressibility (1/GPa) = 0.02467179
#
# Stress axis : x y z
#
# Youngs Moduli (GPa) = 102.90617 85.27672 129.80393
#
# Poissons Ratio (x) = -0.06491 0.34375
# Poissons Ratio (y) = -0.07833 0.04557
# Poissons Ratio (z) = 0.27252 0.02994
#
# Static dielectric constant tensor:
#      x y z
#    x 1.798710 0.000000 -0.009480 
#    y 0.000000 1.914450 0.000000 
#    z -0.009480 0.000000 1.851290 
# 
# From -- ./inp_files/71493.got.cif
#   From: 2010.05.17/outbox.cif.g08.bks.cpg/sg10_36_cif.got.tgz:71493.got - 2010.06.03 11:33:40.
