data_PCOD9145296
_publ_section_title
;
Structure prediction by ZEFSAII (Michael W. Deem and Ramdas Pophale) SiO2 
 PCOD9145296
Probable space group: P 2/M
;
_chemical_formula_sum "Si O2"
_cell_formula_units_Z 28
_cell_length_a 14.994751
_cell_length_b 7.557171
_cell_length_c 22.118848
_cell_angle_alpha 90.000000
_cell_angle_beta 30.189964
_cell_angle_gamma 90.000000
_cell_volume 1260.420588
_symmetry_space_group_name_H-M "P 2/M"
_symmetry_group_IT_number 10
_symmetry_cell_setting 'monoclinic'
loop_
_space_group_symop_operation_xyz
x,y,z
-x,y,-z
-x,-y,-z
x,-y,z
loop_
_atom_site_type_symbol
_atom_site_label
_atom_site_fract_x
_atom_site_fract_y
_atom_site_fract_z
Si Si1 0.732078 0.284143 0.624409
Si Si2 0.915630 0.286196 0.112561
Si Si3 0.697007 0.293465 0.884865
Si Si4 0.897230 0.715737 0.651014
Si Si5 0.961830 0.792430 0.828337
Si Si6 0.333201 0.788115 0.558876
Si Si7 0.481061 0.711701 0.671623
O O1 0.729875 0.500000 0.625491
O O2 0.763629 0.231874 0.675165
O O3 0.559263 0.223183 0.689423
O O4 0.906987 0.227417 0.484456
O O5 0.913720 0.500000 0.113549
O O6 0.712173 0.220260 0.234292
O O7 0.023089 0.232639 0.108917
O O8 0.000000 0.227370 0.000000
O O9 0.676523 0.500000 0.880753
O O10 0.827032 0.220175 0.756603
O O11 0.793057 0.284179 0.892959
O O12 0.500000 0.214942 0.000000
O O13 0.906251 0.500000 0.646361
O O14 0.145013 0.718094 0.692340
O O15 0.956527 0.000000 0.818585
O O16 0.500000 0.718803 0.500000
O O17 0.377588 0.749422 0.463631
O O18 0.329061 0.000000 0.569541
O O19 0.463811 0.500000 0.686412
#
# Coordination Sequence:
#
# PCOD9145296 Si02
#       7
#     4   4   4   4   4   4   4
#     4   8  14  25  45  74 104 133 168 214 265 317
#     4  10  22  38  55  79 112 147 185 233 281 330
#     4  10  21  36  57  83 109 142 183 230 280 330
#     4   8  14  27  47  73 105 135 167 212 267 323
#     4  11  23  39  59  81 110 150 188 233 285 335
#     4  10  20  35  54  78 111 147 184 228 277 329
#     4  10  19  31  53  83 110 141 182 228 276 329
#
# _framework density 22.214807
#
# number of rings (size 3 to 8) (size 9 to 14) (size 15 to 20)
#    0.000    2.429    1.429    2.143    0.000    4.286 
#    0.000    4.286    0.000    0.857    0.000    4.000 
#    0.000    0.000    0.000    0.000    0.000    0.000 
#
# Total GULP energy -156367.035887 kJ/mol
# GULP energy per Si atom -5584.536996 kJ/mol
# Density = 2.216424 g / cm^3
# Si number density = 22.214807 Si / 1000 Ang^3
#
#
#
# Elastic Constant Matrix: (Units=GPa)
#
#
# Indices 1 2 3 4 5 6 
#
# 1 144.7157 -16.2425 38.3772 0.0000 -3.3141 0.0000
# 2 -16.2425 50.1011 -1.6748 0.0000 -4.6422 0.0000
# 3 38.3772 -1.6748 69.3092 0.0000 6.5925 0.0000
# 4 0.0000 0.0000 0.0000 10.2754 0.0000 17.4586
# 5 -3.3141 -4.6422 6.5925 0.0000 32.0399 0.0000
# 6 0.0000 0.0000 0.0000 17.4586 0.0000 25.1717
#
#
#
# Elastic Compliance Matrix: (Units=1/GPa)
#
#
# Indices 1 2 3 4 5 6 
#
# 1 0.008581 0.002832 -0.004902 0.000000 0.002307 0.000000
# 2 0.002832 0.021169 -0.001403 0.000000 0.003649 0.000000
# 3 -0.004902 -0.001403 0.017519 0.000000 -0.004315 0.000000
# 4 0.000000 0.000000 0.000000 -0.545418 0.000000 0.378291
# 5 0.002307 0.003649 -0.004315 0.000000 0.032866 0.000000
# 6 0.000000 0.000000 0.000000 0.378291 0.000000 -0.222647
#
#
# Mechanical properties :
#
#
# Convention : Reuss Voigt Hill
#
# Bulk Modulus (GPa) = 24.80123 33.89398 29.34760
# Shear Modulus (GPa) = -7.49016 29.74180 11.12582
#
# Velocity S-wave (km/s) = -1.83821 3.66297 2.24035
# Velocity P-wave (km/s) = 2.58518 5.76023 4.46450
#
# Compressibility (1/GPa) = 0.04032059
#
# Stress axis : x y z
#
# Youngs Moduli (GPa) = 116.53984 47.23930 57.08075
#
# Poissons Ratio (x) = -0.13377 0.27982
# Poissons Ratio (y) = -0.33000 0.08011
# Poissons Ratio (z) = 0.57130 0.06630
#
# Static dielectric constant tensor:
#      x y z
#    x 1.807260 0.000000 -0.016330 
#    y 0.000000 1.838210 0.000000 
#    z -0.016330 0.000000 1.814250 
# 
# From -- ./inp_files/84898.got.cif
#   From: 2010.05.17/outbox.cif.g08.bks.cpg/sg10_43_cif.got.tgz:84898.got - 2010.06.03 11:33:40.
