data_PCOD9145960
_publ_section_title
;
Structure prediction by ZEFSAII (Michael W. Deem and Ramdas Pophale) SiO2 
 PCOD9145960
Probable space group: P 2/M
;
_chemical_formula_sum "Si O2"
_cell_formula_units_Z 32
_cell_length_a 11.409049
_cell_length_b 13.014617
_cell_length_c 14.369501
_cell_angle_alpha 90.000000
_cell_angle_beta 140.943522
_cell_angle_gamma 90.000000
_cell_volume 1344.381261
_symmetry_space_group_name_H-M "P 2/M"
_symmetry_group_IT_number 10
_symmetry_cell_setting 'monoclinic'
loop_
_space_group_symop_operation_xyz
x,y,z
-x,y,-z
-x,-y,-z
x,-y,z
loop_
_atom_site_type_symbol
_atom_site_label
_atom_site_fract_x
_atom_site_fract_y
_atom_site_fract_z
Si Si1 0.132774 0.620710 0.698392
Si Si2 0.741243 0.277741 0.442774
Si Si3 0.481653 0.116178 0.796270
Si Si4 0.210970 0.820355 0.167398
Si Si5 0.155175 0.883905 0.331329
Si Si6 0.528572 0.609654 0.903320
Si Si7 0.241436 0.213408 0.920721
Si Si8 0.589619 0.618698 0.658407
O O1 0.117489 0.500000 0.722435
O O2 0.313090 0.616384 0.742589
O O3 0.189373 0.714805 0.801802
O O4 0.929028 0.657797 0.545451
O O5 0.681937 0.195434 0.327524
O O6 0.770867 0.200071 0.550400
O O7 0.574292 0.351645 0.371541
O O8 0.643063 0.136937 0.818462
O O9 0.417401 0.000000 0.752035
O O10 0.582806 0.139105 0.956916
O O11 0.249013 0.877849 0.288193
O O12 0.251474 0.701797 0.220916
O O13 0.000000 0.833146 0.000000
O O14 0.942181 0.851525 0.176624
O O15 0.164881 0.000000 0.374219
O O16 0.604867 0.500000 0.923934
O O17 0.500000 0.610485 0.000000
O O18 0.674162 0.694892 0.962266
O O19 0.500000 0.632095 0.500000
O O20 0.646846 0.500000 0.702107
#
# Coordination Sequence:
#
# PCOD9145960 Si02
#       8
#     4   4   4   4   4   4   4   4
#     4   9  18  36  63  88 110 141 182 227 273 329
#     4  10  21  37  57  81 108 148 191 229 269 327
#     4  11  23  37  55  78 114 151 185 236 281 316
#     4  11  22  37  54  80 109 143 189 230 274 320
#     4  11  21  35  56  79 105 144 195 239 270 314
#     4   8  15  32  58  86 111 137 175 224 276 329
#     4  10  19  32  54  84 111 141 172 224 284 333
#     4  10  20  36  54  75 109 146 177 218 271 329
#
# _framework density 23.802772000000001
#
# number of rings (size 3 to 8) (size 9 to 14) (size 15 to 20)
#    0.000    2.000    2.500    2.625    0.000    0.750 
#    0.000    9.375    0.000   28.500    0.000    0.000 
#    0.000    0.000    0.000    0.000    0.000    0.000 
#
# Total GULP energy -178434.075961 kJ/mol
# GULP energy per Si atom -5576.064874 kJ/mol
# Density = 2.374860 g / cm^3
# Si number density = 23.802772 Si / 1000 Ang^3
#
#
#
# Elastic Constant Matrix: (Units=GPa)
#
#
# Indices 1 2 3 4 5 6 
#
# 1 61.0853 13.1561 -1.3247 0.0000 -16.9811 0.0000
# 2 13.1561 137.4449 -7.3129 0.0000 0.2983 0.0000
# 3 -1.3247 -7.3129 90.6629 0.0000 -4.3048 0.0000
# 4 0.0000 0.0000 0.0000 1.4156 0.0000 12.9378
# 5 -16.9811 0.2983 -4.3048 0.0000 29.0710 0.0000
# 6 0.0000 0.0000 0.0000 12.9378 0.0000 16.6086
#
#
#
# Elastic Compliance Matrix: (Units=1/GPa)
#
#
# Indices 1 2 3 4 5 6 
#
# 1 0.020095 -0.001912 0.000703 0.000000 0.011862 0.000000
# 2 -0.001912 0.007489 0.000523 0.000000 -0.001116 0.000000
# 3 0.000703 0.000523 0.011180 0.000000 0.002061 0.000000
# 4 0.000000 0.000000 0.000000 -0.115437 0.000000 0.089923
# 5 0.011862 -0.001116 0.002061 0.000000 0.041644 0.000000
# 6 0.000000 0.000000 0.000000 0.089923 0.000000 -0.009839
#
#
# Mechanical properties :
#
#
# Convention : Reuss Voigt Hill
#
# Bulk Modulus (GPa) = 26.74379 33.13667 29.94023
# Shear Modulus (GPa) = -161.12370 28.39735 -66.36317
#
# Velocity S-wave (km/s) = -8.23639 3.45777 -5.28592
# Velocity P-wave (km/s) = 8.89892 5.46746 4.96476
#
# Compressibility (1/GPa) = 0.03739185
#
# Stress axis : x y z
#
# Youngs Moduli (GPa) = 49.76375 133.53099 89.44401
#
# Poissons Ratio (x) = 0.25529 -0.06284
# Poissons Ratio (y) = 0.09514 -0.04679
# Poissons Ratio (z) = -0.03496 -0.06985
#
# Static dielectric constant tensor:
#      x y z
#    x 1.964860 0.000000 -0.107280 
#    y 0.000000 1.910980 0.000000 
#    z -0.107280 0.000000 2.092910 
# 
# From -- ./inp_files/38221.got.cif
#   From: 2010.05.17/outbox.cif.g08.bks.cpg/sg10_20_cif.got.tgz:38221.got - 2010.06.03 11:33:40.
