data_PCOD9145728
_publ_section_title
;
Structure prediction by ZEFSAII (Michael W. Deem and Ramdas Pophale) SiO2 
 PCOD9145728
Probable space group: P 2/M
;
_chemical_formula_sum "Si O2"
_cell_formula_units_Z 32
_cell_length_a 14.770909
_cell_length_b 7.618744
_cell_length_c 25.310249
_cell_angle_alpha 90.000000
_cell_angle_beta 150.160053
_cell_angle_gamma 90.000000
_cell_volume 1417.258059
_symmetry_space_group_name_H-M "P 2/M"
_symmetry_group_IT_number 10
_symmetry_cell_setting 'monoclinic'
loop_
_space_group_symop_operation_xyz
x,y,z
-x,y,-z
-x,-y,-z
x,-y,z
loop_
_atom_site_type_symbol
_atom_site_label
_atom_site_fract_x
_atom_site_fract_y
_atom_site_fract_z
Si Si1 0.941793 0.790685 0.206643
Si Si2 0.574349 0.707585 0.481865
Si Si3 0.795851 0.787259 0.747004
Si Si4 0.441600 0.209894 0.028607
Si Si5 0.864929 0.715596 0.384514
Si Si6 0.046017 0.296431 0.369006
Si Si7 0.058499 0.792667 0.972803
Si Si8 0.525641 0.701337 0.837658
O O1 0.118613 0.725184 0.265461
O O2 0.919439 0.713107 0.253213
O O3 0.774451 0.759042 0.082952
O O4 0.950812 0.000000 0.218612
O O5 0.500000 0.783087 0.500000
O O6 0.604389 0.500000 0.505624
O O7 0.412306 0.730869 0.357800
O O8 0.762789 0.782425 0.554527
O O9 0.802029 0.000000 0.749175
O O10 0.927336 0.722585 0.860120
O O11 0.477247 0.000000 0.048646
O O12 0.500000 0.272315 0.000000
O O13 0.513985 0.288574 0.119366
O O14 0.856451 0.500000 0.379417
O O15 0.654961 0.776537 0.281651
O O16 0.000000 0.765733 0.500000
O O17 0.952036 0.777987 0.373294
O O18 0.081897 0.500000 0.399810
O O19 0.274326 0.778084 0.071402
O O20 0.018944 0.000000 0.953843
O O21 0.000000 0.718893 0.000000
O O22 0.541945 0.500000 0.829850
#
# Coordination Sequence:
#
# PCOD9145728 Si02
#       8
#     4   4   4   4   4   4   4   4
#     4  10  19  32  52  79 111 145 183 226 277 337
#     4  10  20  33  51  80 113 146 185 229 281 334
#     4  10  20  35  55  79 108 147 187 224 277 339
#     4  10  20  35  56  82 116 157 194 231 283 346
#     4   9  20  39  59  80 110 151 191 229 279 335
#     4  10  20  35  56  80 110 148 189 232 281 337
#     4  10  22  42  64  84 114 155 193 231 283 349
#     4  11  22  36  60  90 116 146 191 243 288 337
#
# _framework density 22.578810000000001
#
# number of rings (size 3 to 8) (size 9 to 14) (size 15 to 20)
#    0.000    2.000    2.500    1.125    0.000    3.250 
#    0.000    1.875    0.000    3.375    0.000    0.000 
#    0.000    0.000    0.000    0.000    0.000    0.000 
#
# Total GULP energy -178644.240567 kJ/mol
# GULP energy per Si atom -5582.632518 kJ/mol
# Density = 2.252742 g / cm^3
# Si number density = 22.578810 Si / 1000 Ang^3
#
#
#
# Elastic Constant Matrix: (Units=GPa)
#
#
# Indices 1 2 3 4 5 6 
#
# 1 88.5753 -4.6117 46.0554 0.0000 -8.1142 0.0000
# 2 -4.6117 37.5831 -1.8793 0.0000 3.5524 0.0000
# 3 46.0554 -1.8793 144.2867 0.0000 -7.0276 0.0000
# 4 0.0000 0.0000 0.0000 9.9446 0.0000 -2.0157
# 5 -8.1142 3.5524 -7.0276 0.0000 28.8068 0.0000
# 6 0.0000 0.0000 0.0000 -2.0157 0.0000 12.5729
#
#
#
# Elastic Compliance Matrix: (Units=1/GPa)
#
#
# Indices 1 2 3 4 5 6 
#
# 1 0.013818 0.001227 -0.004263 0.000000 0.002701 0.000000
# 2 0.001227 0.027036 -0.000187 0.000000 -0.003034 0.000000
# 3 -0.004263 -0.000187 0.008331 0.000000 0.000855 0.000000
# 4 0.000000 0.000000 0.000000 0.103935 0.000000 0.016663
# 5 0.002701 -0.003034 0.000855 0.000000 0.036057 0.000000
# 6 0.000000 0.000000 0.000000 0.016663 0.000000 0.082207
#
#
# Mechanical properties :
#
#
# Convention : Reuss Voigt Hill
#
# Bulk Modulus (GPa) = 23.39867 38.84155 31.12011
# Shear Modulus (GPa) = 17.11885 25.65691 21.38788
#
# Velocity S-wave (km/s) = 2.75650 3.37460 3.08109
# Velocity P-wave (km/s) = 4.52953 5.69420 5.14493
#
# Compressibility (1/GPa) = 0.04273747
#
# Stress axis : x y z
#
# Youngs Moduli (GPa) = 72.37090 36.98819 120.04005
#
# Poissons Ratio (x) = -0.04539 0.51173
# Poissons Ratio (y) = -0.08881 0.02249
# Poissons Ratio (z) = 0.30852 0.00693
#
# Static dielectric constant tensor:
#      x y z
#    x 1.847750 0.000000 0.017560 
#    y 0.000000 1.845600 0.000000 
#    z 0.017560 0.000000 1.852640 
# 
# From -- ./inp_files/89646.got.cif
#   From: 2010.05.17/outbox.cif.g08.bks.cpg/sg10_45_cif.got.tgz:89646.got - 2010.06.03 11:33:40.
