data_PCOD9145171
_publ_section_title
;
Structure prediction by ZEFSAII (Michael W. Deem and Ramdas Pophale) SiO2 
 PCOD9145171
Probable space group: P 2/M
;
_chemical_formula_sum "Si O2"
_cell_formula_units_Z 32
_cell_length_a 21.470509
_cell_length_b 11.464807
_cell_length_c 7.702136
_cell_angle_alpha 90.000000
_cell_angle_beta 62.685092
_cell_angle_gamma 90.000000
_cell_volume 1684.521894
_symmetry_space_group_name_H-M "P 2/M"
_symmetry_group_IT_number 10
_symmetry_cell_setting 'monoclinic'
loop_
_space_group_symop_operation_xyz
x,y,z
-x,y,-z
-x,-y,-z
x,-y,z
loop_
_atom_site_type_symbol
_atom_site_label
_atom_site_fract_x
_atom_site_fract_y
_atom_site_fract_z
Si Si1 0.575751 0.710745 0.361696
Si Si2 0.364860 0.130176 0.413180
Si Si3 0.784242 0.792261 0.315045
Si Si4 0.059062 0.369572 0.570163
Si Si5 0.936125 0.130526 0.216370
Si Si6 0.272303 0.632751 0.909312
Si Si7 0.218967 0.367178 0.340828
Si Si8 0.571946 0.136253 0.016907
O O1 0.500000 0.655121 0.500000
O O2 0.593061 0.791201 0.505923
O O3 0.646077 0.635750 0.248436
O O4 0.571440 0.787037 0.190556
O O5 0.284573 0.129002 0.577154
O O6 0.371600 0.169248 0.204302
O O7 0.394815 0.000000 0.380180
O O8 0.859436 0.853682 0.226814
O O9 0.771798 0.715217 0.160406
O O10 0.778408 0.708024 0.489658
O O11 0.053913 0.500000 0.665302
O O12 0.053645 0.249870 0.686659
O O13 0.137176 0.367086 0.391236
O O14 0.000000 0.366946 0.500000
O O15 0.936060 0.000000 0.302671
O O16 0.000000 0.129161 0.000000
O O17 0.246350 0.500000 0.932412
O O18 0.263009 0.673098 0.119299
O O19 0.240123 0.500000 0.355121
O O20 0.581918 0.000000 0.051780
O O21 0.500000 0.148166 0.000000
#
# Coordination Sequence:
#
# PCOD9145171 Si02
#       8
#     4   4   4   4   4   4   4   4
#     4  11  21  34  52  75 106 139 175 220 270 334
#     4  10  20  33  52  76 103 136 175 224 271 321
#     4  10  20  36  58  79 108 146 187 225 278 340
#     4   9  19  35  58  87 116 149 196 247 292 341
#     4  10  22  38  57  85 123 159 191 235 293 354
#     4  10  22  37  57  81 106 143 184 232 286 332
#     4   9  18  35  56  79 108 137 180 238 282 329
#     4  10  19  31  51  77 104 136 175 220 273 329
#
# _framework density 18.996489
#
# number of rings (size 3 to 8) (size 9 to 14) (size 15 to 20)
#    0.000    2.125    1.250    1.875    1.750    1.750 
#    0.000    0.000    0.000    4.125    0.000    0.000 
#    0.000    0.000    0.000    0.000    0.000    0.000 
#
# Total GULP energy -178239.220269 kJ/mol
# GULP energy per Si atom -5569.975633 kJ/mol
# Density = 1.895325 g / cm^3
# Si number density = 18.996489 Si / 1000 Ang^3
#
#
#
# Elastic Constant Matrix: (Units=GPa)
#
#
# Indices 1 2 3 4 5 6 
#
# 1 63.0972 28.6373 9.0019 0.0000 -7.2292 0.0000
# 2 28.6373 100.5333 37.6920 0.0000 10.5726 0.0000
# 3 9.0019 37.6920 82.0920 0.0000 -1.7753 0.0000
# 4 0.0000 0.0000 0.0000 25.1013 0.0000 0.7990
# 5 -7.2292 10.5726 -1.7753 0.0000 28.3000 0.0000
# 6 0.0000 0.0000 0.0000 0.7990 0.0000 30.2635
#
#
#
# Elastic Compliance Matrix: (Units=1/GPa)
#
#
# Indices 1 2 3 4 5 6 
#
# 1 0.019664 -0.006836 0.001148 0.000000 0.007649 0.000000
# 2 -0.006836 0.015093 -0.006349 0.000000 -0.007783 0.000000
# 3 0.001148 -0.006349 0.015049 0.000000 0.003609 0.000000
# 4 0.000000 0.000000 0.000000 0.039872 0.000000 -0.001053
# 5 0.007649 -0.007783 0.003609 0.000000 0.040424 0.000000
# 6 0.000000 0.000000 0.000000 -0.001053 0.000000 0.033071
#
#
# Mechanical properties :
#
#
# Convention : Reuss Voigt Hill
#
# Bulk Modulus (GPa) = 38.86238 44.04275 41.45257
# Shear Modulus (GPa) = 25.53333 28.09239 26.81286
#
# Velocity S-wave (km/s) = 3.67019 3.84971 3.76102
# Velocity P-wave (km/s) = 6.20181 6.55709 6.38192
#
# Compressibility (1/GPa) = 0.02573183
#
# Stress axis : x y z
#
# Youngs Moduli (GPa) = 50.85495 66.25620 66.45177
#
# Poissons Ratio (x) = 0.45293 -0.07628
# Poissons Ratio (y) = 0.34765 0.42187
# Poissons Ratio (z) = -0.05838 0.42063
#
# Static dielectric constant tensor:
#      x y z
#    x 1.665370 0.000000 -0.031610 
#    y 0.000000 1.669440 0.000000 
#    z -0.031610 0.000000 1.673200 
# 
# From -- ./inp_files/34595.got.cif
#   From: 2010.05.17/outbox.cif.g08.bks.cpg/sg10_18_cif.got.tgz:34595.got - 2010.06.03 11:33:40.
