data_PCOD9145504
_publ_section_title
;
Structure prediction by ZEFSAII (Michael W. Deem and Ramdas Pophale) SiO2 
 PCOD9145504
Probable space group: P 2/M
;
_chemical_formula_sum "Si O2"
_cell_formula_units_Z 32
_cell_length_a 24.031176
_cell_length_b 7.479524
_cell_length_c 10.068120
_cell_angle_alpha 90.000000
_cell_angle_beta 58.085041
_cell_angle_gamma 90.000000
_cell_volume 1536.101724
_symmetry_space_group_name_H-M "P 2/M"
_symmetry_group_IT_number 10
_symmetry_cell_setting 'monoclinic'
loop_
_space_group_symop_operation_xyz
x,y,z
-x,y,-z
-x,-y,-z
x,-y,z
loop_
_atom_site_type_symbol
_atom_site_label
_atom_site_fract_x
_atom_site_fract_y
_atom_site_fract_z
Si Si1 0.822790 0.281997 0.627323
Si Si2 0.939547 0.281701 0.671287
Si Si3 0.325945 0.285686 0.190864
Si Si4 0.939952 0.718258 0.979996
Si Si5 0.824707 0.281879 0.319499
Si Si6 0.464076 0.213077 0.916465
Si Si7 0.323117 0.713370 0.492556
Si Si8 0.458317 0.214189 0.431646
O O1 0.823676 0.500000 0.626047
O O2 0.873966 0.225001 0.675140
O O3 0.747772 0.224284 0.748889
O O4 0.840583 0.228875 0.452575
O O5 0.939984 0.500000 0.674148
O O6 0.000000 0.227906 0.500000
O O7 0.943795 0.223546 0.820556
O O8 0.322673 0.500000 0.199448
O O9 0.341621 0.219962 0.321040
O O10 0.386341 0.241124 0.020368
O O11 0.940449 0.500000 0.975289
O O12 0.875117 0.775426 0.142514
O O13 0.000000 0.771907 0.000000
O O14 0.826318 0.500000 0.317754
O O15 0.750238 0.222922 0.384438
O O16 0.504331 0.286441 0.743317
O O17 0.473100 0.000000 0.904830
O O18 0.500000 0.287341 0.000000
O O19 0.318214 0.500000 0.489354
O O20 0.381195 0.751646 0.520248
O O21 0.500000 0.285648 0.500000
O O22 0.464401 0.000000 0.424737
#
# Coordination Sequence:
#
# PCOD9145504 Si02
#       8
#     4   4   4   4   4   4   4   4
#     4   8  14  25  38  54  81 113 144 177 219 265
#     4   9  15  22  34  53  79 112 147 181 216 258
#     4   9  17  29  47  70  93 120 151 188 232 275
#     4   9  15  22  34  53  78 111 150 183 213 255
#     4   8  14  25  39  55  79 112 145 179 218 261
#     4  10  19  32  51  71  89 115 154 194 228 269
#     4   9  17  30  48  68  92 121 153 188 229 276
#     4  10  21  36  50  66  91 121 151 189 236 277
#
# _framework density 20.831952999999999
#
# number of rings (size 3 to 8) (size 9 to 14) (size 15 to 20)
#    0.000    3.000    1.250    2.250    0.000    4.000 
#    2.250    0.000    0.000    0.000    0.000    0.000 
#    0.000    1.000    0.000    1.750    0.000    2.250 
#
# Total GULP energy -178409.560988 kJ/mol
# GULP energy per Si atom -5575.298781 kJ/mol
# Density = 2.078454 g / cm^3
# Si number density = 20.831953 Si / 1000 Ang^3
#
#
#
# Elastic Constant Matrix: (Units=GPa)
#
#
# Indices 1 2 3 4 5 6 
#
# 1 186.7505 1.3668 98.3600 0.0000 10.3478 0.0000
# 2 1.3668 57.2031 4.4271 0.0000 3.9819 0.0000
# 3 98.3600 4.4271 149.8703 0.0000 2.5121 0.0000
# 4 0.0000 0.0000 0.0000 564.3249 0.0000 808.8312
# 5 10.3478 3.9819 2.5121 0.0000 31.1528 0.0000
# 6 0.0000 0.0000 0.0000 808.8312 0.0000 1226.8236
#
#
#
# Elastic Compliance Matrix: (Units=1/GPa)
#
#
# Indices 1 2 3 4 5 6 
#
# 1 0.008358 0.000389 -0.005457 0.000000 -0.002386 0.000000
# 2 0.000389 0.017692 -0.000739 0.000000 -0.002331 0.000000
# 3 -0.005457 -0.000739 0.010258 0.000000 0.001080 0.000000
# 4 0.000000 0.000000 0.000000 0.032184 0.000000 -0.021218
# 5 -0.002386 -0.002331 0.001080 0.000000 0.033103 0.000000
# 6 0.000000 0.000000 0.000000 -0.021218 0.000000 0.014804
#
#
# Mechanical properties :
#
#
# Convention : Reuss Voigt Hill
#
# Bulk Modulus (GPa) = 40.49627 66.90355 53.69991
# Shear Modulus (GPa) = 36.69887 383.77159 210.23523
#
# Velocity S-wave (km/s) = 4.20177 13.58759 10.05677
# Velocity P-wave (km/s) = 6.55908 16.68379 12.67617
#
# Compressibility (1/GPa) = 0.02469363
#
# Stress axis : x y z
#
# Youngs Moduli (GPa) = 119.64191 56.52371 97.48860
#
# Poissons Ratio (x) = -0.02197 0.53200
# Poissons Ratio (y) = -0.04651 0.07201
# Poissons Ratio (z) = 0.65289 0.04175
#
# Static dielectric constant tensor:
#      x y z
#    x 1.727300 0.000000 -0.016390 
#    y 0.000000 1.785230 0.000000 
#    z -0.016390 0.000000 1.724770 
# 
# From -- ./inp_files/34610.got.cif
#   From: 2010.05.17/outbox.cif.g08.bks.cpg/sg10_18_cif.got.tgz:34610.got - 2010.06.03 11:33:40.
