data_PCOD9145530
_publ_section_title
;
Structure prediction by ZEFSAII (Michael W. Deem and Ramdas Pophale) SiO2 
 PCOD9145530
Probable space group: P 2/M
;
_chemical_formula_sum "Si O2"
_cell_formula_units_Z 32
_cell_length_a 20.004973
_cell_length_b 13.877779
_cell_length_c 18.537734
_cell_angle_alpha 90.000000
_cell_angle_beta 22.171544
_cell_angle_gamma 90.000000
_cell_volume 1942.202485
_symmetry_space_group_name_H-M "P 2/M"
_symmetry_group_IT_number 10
_symmetry_cell_setting 'monoclinic'
loop_
_space_group_symop_operation_xyz
x,y,z
-x,y,-z
-x,-y,-z
x,-y,z
loop_
_atom_site_type_symbol
_atom_site_label
_atom_site_fract_x
_atom_site_fract_y
_atom_site_fract_z
Si Si1 0.061524 0.883698 0.860986
Si Si2 0.373440 0.885267 0.452876
Si Si3 0.113351 0.201905 0.242634
Si Si4 0.244463 0.612238 0.189958
Si Si5 0.667418 0.610721 0.736651
Si Si6 0.783248 0.115414 0.013304
Si Si7 0.276154 0.794060 0.402081
Si Si8 0.436478 0.113546 0.986883
O O1 0.260603 0.859490 0.636546
O O2 0.055863 0.000000 0.871371
O O3 0.925095 0.859141 0.933203
O O4 0.000000 0.845229 0.000000
O O5 0.584154 0.870196 0.242038
O O6 0.291377 0.825539 0.469009
O O7 0.345365 0.000000 0.467059
O O8 0.144843 0.311234 0.239001
O O9 0.909291 0.172397 0.446009
O O10 0.183360 0.177709 0.091976
O O11 0.234695 0.139512 0.174198
O O12 0.189890 0.500000 0.235759
O O13 0.237112 0.637003 0.282820
O O14 0.454954 0.617374 0.961506
O O15 0.709716 0.500000 0.679609
O O16 0.716179 0.681318 0.623513
O O17 0.801375 0.000000 0.977813
O O18 0.442031 0.840308 0.195571
O O19 0.462358 0.000000 0.959012
O O20 0.500000 0.152744 0.000000
#
# Coordination Sequence:
#
# PCOD9145530 Si02
#       8
#     4   4   4   4   4   4   4   4
#     4   9  18  32  50  76 106 131 164 208 248 299
#     4  10  19  32  51  73 100 137 173 205 249 301
#     4  12  22  33  53  75  98 133 175 217 260 310
#     4   9  18  34  54  73  97 130 168 215 270 319
#     4   9  18  34  54  73  97 130 168 215 270 319
#     4  10  19  32  51  73 100 137 173 205 249 301
#     4  12  22  33  53  75  98 133 175 217 260 310
#     4  11  24  38  49  67  98 134 177 224 259 295
#
# _framework density 16.476140000000001
#
# number of rings (size 3 to 8) (size 9 to 14) (size 15 to 20)
#    0.000    1.750    3.750    2.250    0.000    4.500 
#    0.000    5.000    0.000    0.000    0.000    0.000 
#    0.000    2.000    0.000    5.250    0.000    0.250 
#
# Total GULP energy -178529.053680 kJ/mol
# GULP energy per Si atom -5579.032928 kJ/mol
# Density = 1.643864 g / cm^3
# Si number density = 16.476140 Si / 1000 Ang^3
#
#
#
# Elastic Constant Matrix: (Units=GPa)
#
#
# Indices 1 2 3 4 5 6 
#
# 1 29.8699 11.7408 2.0553 0.0000 2.9674 0.0000
# 2 11.7408 53.3250 14.1050 0.0000 8.5260 0.0000
# 3 2.0553 14.1050 41.6820 0.0000 -2.8902 0.0000
# 4 0.0000 0.0000 0.0000 24.5956 0.0000 6.2675
# 5 2.9674 8.5260 -2.8902 0.0000 30.4341 0.0000
# 6 0.0000 0.0000 0.0000 6.2675 0.0000 15.2903
#
#
#
# Elastic Compliance Matrix: (Units=1/GPa)
#
#
# Indices 1 2 3 4 5 6 
#
# 1 0.036732 -0.008116 0.000850 0.000000 -0.001227 0.000000
# 2 -0.008116 0.023740 -0.008093 0.000000 -0.006628 0.000000
# 3 0.000850 -0.008093 0.027017 0.000000 0.004750 0.000000
# 4 0.000000 0.000000 0.000000 0.045400 0.000000 -0.018609
# 5 -0.001227 -0.006628 0.004750 0.000000 0.035285 0.000000
# 6 0.000000 0.000000 0.000000 -0.018609 0.000000 0.073029
#
#
# Mechanical properties :
#
#
# Convention : Reuss Voigt Hill
#
# Bulk Modulus (GPa) = 17.61442 20.07545 18.84494
# Shear Modulus (GPa) = 17.19124 20.52905 18.86015
#
# Velocity S-wave (km/s) = 3.23368 3.53368 3.38700
# Velocity P-wave (km/s) = 4.96551 5.37217 5.17284
#
# Compressibility (1/GPa) = 0.05677168
#
# Stress axis : x y z
#
# Youngs Moduli (GPa) = 27.22415 42.12247 37.01344
#
# Poissons Ratio (x) = 0.34187 -0.03147
# Poissons Ratio (y) = 0.22096 0.29955
# Poissons Ratio (z) = -0.02315 0.34090
#
# Static dielectric constant tensor:
#      x y z
#    x 1.550830 0.000000 -0.011830 
#    y 0.000000 1.555830 0.000000 
#    z -0.011830 0.000000 1.592470 
# 
# From -- ./inp_files/79699.got.cif
#   From: 2010.05.17/outbox.cif.g08.bks.cpg/sg10_40_cif.got.tgz:79699.got - 2010.06.03 11:33:40.
