data_PCOD9145224
_publ_section_title
;
Structure prediction by ZEFSAII (Michael W. Deem and Ramdas Pophale) SiO2 
 PCOD9145224
Probable space group: P 2/M
;
_chemical_formula_sum "Si O2"
_cell_formula_units_Z 21
_cell_length_a 8.501677
_cell_length_b 17.032153
_cell_length_c 9.084663
_cell_angle_alpha 90.000000
_cell_angle_beta 52.587373
_cell_angle_gamma 90.000000
_cell_volume 1044.857363
_symmetry_space_group_name_H-M "P 2/M"
_symmetry_group_IT_number 10
_symmetry_cell_setting 'monoclinic'
loop_
_space_group_symop_operation_xyz
x,y,z
-x,y,-z
-x,-y,-z
x,-y,z
loop_
_atom_site_type_symbol
_atom_site_label
_atom_site_fract_x
_atom_site_fract_y
_atom_site_fract_z
Si Si1 0.798583 0.129372 0.185472
Si Si2 0.282235 0.745058 0.551815
Si Si3 0.655737 0.585310 0.046047
Si Si4 0.062898 0.412828 0.635359
Si Si5 0.500000 0.000000 0.500000
Si Si6 0.530855 0.755579 0.155813
O O1 0.848825 0.193412 0.284064
O O2 0.681467 0.179115 0.127984
O O3 0.647723 0.068047 0.343930
O O4 0.000000 0.097313 0.000000
O O5 0.500000 0.750264 0.500000
O O6 0.200889 0.657884 0.603014
O O7 0.323898 0.766819 0.358898
O O8 0.641197 0.500000 0.132544
O O9 0.608527 0.667383 0.151763
O O10 0.500000 0.582532 0.000000
O O11 0.869749 0.590133 0.848330
O O12 0.151669 0.500000 0.597051
O O13 0.000000 0.402840 0.500000
O O14 0.500000 0.759045 0.000000
#
# Coordination Sequence:
#
# PCOD9145224 Si02
#       6
#     4   4   4   4   1   4
#     4  11  23  42  69  93 120 158 202 246 310 378
#     4  10  21  38  57  87 125 160 207 252 301 372
#     4   9  17  29  48  78 116 159 204 247 294 344
#     4  10  19  31  51  83 120 164 213 254 298 355
#     4  12  22  48  70  92 122 156 200 248 308 408
#     4  10  19  36  61  90 124 160 203 254 302 357
#
# _framework density 20.098437000000001
#
# number of rings (size 3 to 8) (size 9 to 14) (size 15 to 20)
#    0.000    1.905    2.857    3.714    0.000    2.667 
#    0.000    3.333    0.000   11.429    0.000    0.000 
#    0.000    0.000    0.000    0.000    0.000    0.000 
#
# Total GULP energy -116916.842452 kJ/mol
# GULP energy per Si atom -5567.468688 kJ/mol
# Density = 2.005269 g / cm^3
# Si number density = 20.098437 Si / 1000 Ang^3
#
#
#
# Elastic Constant Matrix: (Units=GPa)
#
#
# Indices 1 2 3 4 5 6 
#
# 1 25.5674 35.8324 31.7796 0.0000 -2.9333 0.0000
# 2 35.8324 148.7351 48.0229 0.0000 -5.0711 0.0000
# 3 31.7796 48.0229 134.6758 0.0000 -11.1813 0.0000
# 4 0.0000 0.0000 0.0000 11.0145 0.0000 -8.0242
# 5 -2.9333 -5.0711 -11.1813 0.0000 34.8658 0.0000
# 6 0.0000 0.0000 0.0000 -8.0242 0.0000 -1.5883
#
#
#
# Elastic Compliance Matrix: (Units=1/GPa)
#
#
# Indices 1 2 3 4 5 6 
#
# 1 0.074035 -0.013780 -0.012539 0.000000 0.000203 0.000000
# 2 -0.013780 0.010165 -0.000356 0.000000 0.000205 0.000000
# 3 -0.012539 -0.000356 0.010704 0.000000 0.002326 0.000000
# 4 0.000000 0.000000 0.000000 0.019398 0.000000 -0.097997
# 5 0.000203 0.000205 0.002326 0.000000 0.029474 0.000000
# 6 0.000000 0.000000 0.000000 -0.097997 0.000000 -0.134515
#
#
# Mechanical properties :
#
#
# Convention : Reuss Voigt Hill
#
# Bulk Modulus (GPa) = 24.06585 60.02758 42.04671
# Shear Modulus (GPa) = 65.39090 21.74793 43.56942
#
# Velocity S-wave (km/s) = 5.71016 3.29305 4.66102
# Velocity P-wave (km/s) = 7.44813 6.66262 7.06630
#
# Compressibility (1/GPa) = 0.04155266
#
# Stress axis : x y z
#
# Youngs Moduli (GPa) = 13.50718 98.37516 93.42123
#
# Poissons Ratio (x) = 1.35565 1.17144
# Poissons Ratio (y) = 0.18613 0.03325
# Poissons Ratio (z) = 0.16937 0.03501
#
# Static dielectric constant tensor:
#      x y z
#    x 1.724230 0.000000 0.010130 
#    y 0.000000 1.719810 0.000000 
#    z 0.010130 0.000000 1.787030 
# 
# From -- ./inp_files/19563.got.cif
#   From: 2010.05.17/outbox.cif.g08.bks.cpg/sg10_10_cif.got.tgz:19563.got - 2010.06.03 11:33:40.
