data_PCOD9145198
_publ_section_title
;
Structure prediction by ZEFSAII (Michael W. Deem and Ramdas Pophale) SiO2 
 PCOD9145198
Probable space group: P 2/M
;
_chemical_formula_sum "Si O2"
_cell_formula_units_Z 28
_cell_length_a 16.980398
_cell_length_b 13.604024
_cell_length_c 5.511797
_cell_angle_alpha 90.000000
_cell_angle_beta 71.380450
_cell_angle_gamma 90.000000
_cell_volume 1206.592995
_symmetry_space_group_name_H-M "P 2/M"
_symmetry_group_IT_number 10
_symmetry_cell_setting 'monoclinic'
loop_
_space_group_symop_operation_xyz
x,y,z
-x,y,-z
-x,-y,-z
x,-y,z
loop_
_atom_site_type_symbol
_atom_site_label
_atom_site_fract_x
_atom_site_fract_y
_atom_site_fract_z
Si Si1 0.677015 0.685304 0.058326
Si Si2 0.909197 0.684502 0.129775
Si Si3 0.239516 0.109014 0.080822
Si Si4 0.338286 0.387532 0.424082
Si Si5 0.099387 0.612829 0.362548
Si Si6 0.496519 0.756224 0.253025
Si Si7 0.133506 0.891963 0.684392
O O1 0.707734 0.644929 0.285226
O O2 0.576225 0.683859 0.174215
O O3 0.700028 0.798625 0.993378
O O4 0.704189 0.624798 0.796393
O O5 0.866841 0.632143 0.400005
O O6 0.920437 0.795421 0.217741
O O7 0.872102 0.678906 0.894157
O O8 0.000000 0.637647 0.000000
O O9 0.182893 0.119823 0.380494
O O10 0.278267 0.000000 0.065242
O O11 0.191007 0.108369 0.870059
O O12 0.365171 0.500000 0.425505
O O13 0.414393 0.310242 0.333595
O O14 0.112015 0.500000 0.280491
O O15 0.000000 0.630261 0.500000
O O16 0.500000 0.814207 0.500000
O O17 0.500000 0.814539 0.000000
O O18 0.092306 0.000000 0.714546
#
# Coordination Sequence:
#
# PCOD9145198 Si02
#       7
#     4   4   4   4   4   4   4
#     4  10  19  32  52  74 100 133 174 216 248 292
#     4  10  19  32  54  82 109 136 167 211 266 313
#     4  10  21  38  58  75  95 134 182 220 256 304
#     4  10  19  31  51  79 109 139 170 206 254 311
#     4   9  17  30  50  77 106 137 172 201 232 291
#     4   8  16  27  44  71 102 128 161 203 249 293
#     4  10  21  37  57  79 102 131 171 216 264 319
#
# _framework density 23.205836000000001
#
# number of rings (size 3 to 8) (size 9 to 14) (size 15 to 20)
#    0.000    2.429    0.000    2.571    0.000    7.143 
#    0.000    0.000    0.000   30.000    0.000    0.000 
#    0.000    0.000    0.000    0.000    0.000    0.000 
#
# Total GULP energy -156107.192268 kJ/mol
# GULP energy per Si atom -5575.256867 kJ/mol
# Density = 2.315302 g / cm^3
# Si number density = 23.205836 Si / 1000 Ang^3
#
#
#
# Elastic Constant Matrix: (Units=GPa)
#
#
# Indices 1 2 3 4 5 6 
#
# 1 46.2161 -9.6982 32.4265 0.0000 6.0517 0.0000
# 2 -9.6982 64.9843 8.8793 0.0000 5.7260 0.0000
# 3 32.4265 8.8793 219.8491 0.0000 41.2461 0.0000
# 4 0.0000 0.0000 0.0000 32.2785 0.0000 8.9976
# 5 6.0517 5.7260 41.2461 0.0000 37.7743 0.0000
# 6 0.0000 0.0000 0.0000 8.9976 0.0000 7.3784
#
#
#
# Elastic Compliance Matrix: (Units=1/GPa)
#
#
# Indices 1 2 3 4 5 6 
#
# 1 0.025288 0.004343 -0.003800 0.000000 -0.000560 0.000000
# 2 0.004343 0.016352 -0.000887 0.000000 -0.002206 0.000000
# 3 -0.003800 -0.000887 0.006295 0.000000 -0.006130 0.000000
# 4 0.000000 0.000000 0.000000 0.046935 0.000000 -0.057235
# 5 -0.000560 -0.002206 -0.006130 0.000000 0.033591 0.000000
# 6 0.000000 0.000000 0.000000 -0.057235 0.000000 0.205327
#
#
# Mechanical properties :
#
#
# Convention : Reuss Voigt Hill
#
# Bulk Modulus (GPa) = 21.16579 43.80721 32.48650
# Shear Modulus (GPa) = 14.27649 35.44902 24.86276
#
# Velocity S-wave (km/s) = 2.48304 3.91268 3.27678
# Velocity P-wave (km/s) = 4.16669 6.27142 5.32410
#
# Compressibility (1/GPa) = 0.04724606
#
# Stress axis : x y z
#
# Youngs Moduli (GPa) = 39.54376 61.15467 158.85566
#
# Poissons Ratio (x) = -0.26557 0.60368
# Poissons Ratio (y) = -0.17172 0.14092
# Poissons Ratio (z) = 0.15027 0.05425
#
# Static dielectric constant tensor:
#      x y z
#    x 1.929530 0.000000 0.053150 
#    y 0.000000 1.803840 0.000000 
#    z 0.053150 0.000000 1.967640 
# 
# From -- ./inp_files/12393.got.cif
#   From: 2010.05.17/outbox.cif.g08.bks.cpg/sg10_7_cif.got.tgz:12393.got - 2010.06.03 11:33:40.
