data_PCOD9145511
_publ_section_title
;
Structure prediction by ZEFSAII (Michael W. Deem and Ramdas Pophale) SiO2 
 PCOD9145511
Probable space group: P 2/M
;
_chemical_formula_sum "Si O2"
_cell_formula_units_Z 28
_cell_length_a 13.716773
_cell_length_b 7.505727
_cell_length_c 14.057347
_cell_angle_alpha 90.000000
_cell_angle_beta 60.350295
_cell_angle_gamma 90.000000
_cell_volume 1257.769011
_symmetry_space_group_name_H-M "P 2/M"
_symmetry_group_IT_number 10
_symmetry_cell_setting 'monoclinic'
loop_
_space_group_symop_operation_xyz
x,y,z
-x,y,-z
-x,-y,-z
x,-y,z
loop_
_atom_site_type_symbol
_atom_site_label
_atom_site_fract_x
_atom_site_fract_y
_atom_site_fract_z
Si Si1 0.568674 0.718423 0.176416
Si Si2 0.158758 0.785210 0.360864
Si Si3 0.547435 0.709810 0.575041
Si Si4 0.190315 0.215315 0.554233
Si Si5 0.370330 0.291048 0.146731
Si Si6 0.770052 0.713427 0.965686
Si Si7 0.980203 0.787135 0.754587
O O1 0.563971 0.500000 0.178775
O O2 0.512979 0.782353 0.301107
O O3 0.489071 0.777330 0.126729
O O4 0.696647 0.771619 0.091745
O O5 0.134813 0.729495 0.479992
O O6 0.285782 0.730456 0.275885
O O7 0.086256 0.717737 0.306967
O O8 0.150329 0.000000 0.363461
O O9 0.500000 0.787479 0.500000
O O10 0.520032 0.500000 0.589057
O O11 0.681632 0.725202 0.507984
O O12 0.108106 0.275556 0.679044
O O13 0.194293 0.000000 0.552714
O O14 0.386019 0.500000 0.118531
O O15 0.300566 0.215511 0.091647
O O16 0.764206 0.500000 0.966722
O O17 0.900370 0.752717 0.883242
O O18 0.984272 0.000000 0.744945
#
# Coordination Sequence:
#
# PCOD9145511 Si02
#       7
#     4   4   4   4   4   4   4
#     4   9  16  29  48  68  95 126 156 197 243 285
#     4   9  16  27  44  68  98 131 162 191 229 282
#     4  10  21  36  54  75  96 121 158 205 252 288
#     4  10  19  32  51  71  96 130 163 197 240 287
#     4   9  15  25  43  67  95 128 160 191 231 281
#     4   9  17  28  45  70  97 128 163 192 227 283
#     4   9  18  31  46  69 102 134 161 192 232 280
#
# _framework density 22.261638999999999
#
# number of rings (size 3 to 8) (size 9 to 14) (size 15 to 20)
#    0.000    2.714    1.429    0.857    0.000    4.286 
#    0.000    1.429    0.000    8.571    0.000    6.000 
#    0.000    0.000    0.000    0.000    0.000    0.000 
#
# Total GULP energy -156054.091756 kJ/mol
# GULP energy per Si atom -5573.360420 kJ/mol
# Density = 2.221097 g / cm^3
# Si number density = 22.261639 Si / 1000 Ang^3
#
#
#
# Elastic Constant Matrix: (Units=GPa)
#
#
# Indices 1 2 3 4 5 6 
#
# 1 37.3281 -5.6634 48.8394 0.0000 -12.0729 0.0000
# 2 -5.6634 56.2215 -0.4497 0.0000 5.9348 0.0000
# 3 48.8394 -0.4497 151.8113 0.0000 -48.0211 0.0000
# 4 0.0000 0.0000 0.0000 2.5051 0.0000 -4.9167
# 5 -12.0729 5.9348 -48.0211 0.0000 33.3575 0.0000
# 6 0.0000 0.0000 0.0000 -4.9167 0.0000 7.8907
#
#
#
# Elastic Compliance Matrix: (Units=1/GPa)
#
#
# Indices 1 2 3 4 5 6 
#
# 1 0.049533 0.006008 -0.019435 0.000000 -0.011120 0.000000
# 2 0.006008 0.019120 -0.004158 0.000000 -0.007213 0.000000
# 3 -0.019435 -0.004158 0.019897 0.000000 0.022349 0.000000
# 4 0.000000 0.000000 0.000000 -1.790446 0.000000 -1.115620
# 5 -0.011120 -0.007213 0.022349 0.000000 0.059410 0.000000
# 6 0.000000 0.000000 0.000000 -1.115620 0.000000 -0.568408
#
#
# Mechanical properties :
#
#
# Convention : Reuss Voigt Hill
#
# Bulk Modulus (GPa) = 18.73355 36.75704 27.74529
# Shear Modulus (GPa) = -2.31703 22.25963 9.97130
#
# Velocity S-wave (km/s) = -1.02131 3.16557 2.11869
# Velocity P-wave (km/s) = 2.65380 5.46885 4.29831
#
# Compressibility (1/GPa) = 0.05338016
#
# Stress axis : x y z
#
# Youngs Moduli (GPa) = 20.18862 52.30081 50.25976
#
# Poissons Ratio (x) = -0.31423 0.97680
# Poissons Ratio (y) = -0.12129 0.20897
# Poissons Ratio (z) = 0.39237 0.21746
#
# Static dielectric constant tensor:
#      x y z
#    x 1.782800 0.000000 -0.018840 
#    y 0.000000 1.861820 0.000000 
#    z -0.018840 0.000000 1.872910 
# 
# From -- ./inp_files/65919.got.cif
#   From: 2010.05.17/outbox.cif.g08.bks.cpg/sg10_33_cif.got.tgz:65919.got - 2010.06.03 11:33:40.
