data_PCOD9145074
_publ_section_title
;
Structure prediction by ZEFSAII (Michael W. Deem and Ramdas Pophale) SiO2 
 PCOD9145074
Probable space group: P 2/M
;
_chemical_formula_sum "Si O2"
_cell_formula_units_Z 32
_cell_length_a 31.261949
_cell_length_b 7.486040
_cell_length_c 13.196848
_cell_angle_alpha 90.000000
_cell_angle_beta 27.705317
_cell_angle_gamma 90.000000
_cell_volume 1435.888005
_symmetry_space_group_name_H-M "P 2/M"
_symmetry_group_IT_number 10
_symmetry_cell_setting 'monoclinic'
loop_
_space_group_symop_operation_xyz
x,y,z
-x,y,-z
-x,-y,-z
x,-y,z
loop_
_atom_site_type_symbol
_atom_site_label
_atom_site_fract_x
_atom_site_fract_y
_atom_site_fract_z
Si Si1 0.648360 0.716876 0.383788
Si Si2 0.538478 0.284730 0.311984
Si Si3 0.917601 0.217710 0.885031
Si Si4 0.876019 0.793299 0.545857
Si Si5 0.691474 0.792124 0.846186
Si Si6 0.808225 0.708592 0.908311
Si Si7 0.755015 0.201991 0.359625
Si Si8 0.598926 0.780780 0.837398
O O1 0.655284 0.500000 0.376080
O O2 0.542697 0.765720 0.594798
O O3 0.693479 0.799675 0.387350
O O4 0.709635 0.771407 0.158233
O O5 0.500000 0.222492 0.500000
O O6 0.544677 0.500000 0.303919
O O7 0.634737 0.218623 0.069287
O O8 0.875744 0.270300 0.863495
O O9 0.021722 0.283064 0.677554
O O10 0.915495 0.000000 0.890510
O O11 0.850016 0.281418 0.117047
O O12 0.792231 0.713277 0.656229
O O13 0.846431 0.792399 0.726014
O O14 0.884434 0.000000 0.497102
O O15 0.626305 0.720898 0.893313
O O16 0.704967 0.000000 0.792990
O O17 0.798676 0.500000 0.904835
O O18 0.686140 0.280543 0.586900
O O19 0.776004 0.000000 0.349679
O O20 0.595842 0.000000 0.840238
O O21 0.500000 0.721676 0.000000
#
# Coordination Sequence:
#
# PCOD9145074 Si02
#       8
#     4   4   4   4   4   4   4   4
#     4   9  18  31  47  70  99 126 155 198 247 290
#     4  10  20  34  50  69  98 133 162 193 239 291
#     4   9  18  32  49  71 100 132 165 202 244 287
#     4  10  20  33  47  67 100 135 164 202 248 288
#     4  10  21  35  51  73  99 129 167 205 243 292
#     4  10  19  31  50  75 100 130 168 203 238 288
#     4   9  17  31  52  73  93 123 162 199 240 291
#     4   9  17  31  52  76  99 122 155 205 254 290
#
# _framework density 22.285861000000001
#
# number of rings (size 3 to 8) (size 9 to 14) (size 15 to 20)
#    0.000    2.500    0.000    2.250    0.000    5.750 
#    0.000    1.250    0.000    6.000    0.000    0.000 
#    0.000    6.000    0.000    0.000    0.000    0.000 
#
# Total GULP energy -178563.388632 kJ/mol
# GULP energy per Si atom -5580.105895 kJ/mol
# Density = 2.223514 g / cm^3
# Si number density = 22.285861 Si / 1000 Ang^3
#
#
#
# Elastic Constant Matrix: (Units=GPa)
#
#
# Indices 1 2 3 4 5 6 
#
# 1 91.4825 -6.4213 61.7160 0.0000 -14.1129 0.0000
# 2 -6.4213 59.1447 -6.9236 0.0000 -2.3289 0.0000
# 3 61.7160 -6.9236 139.4006 0.0000 -14.5652 0.0000
# 4 0.0000 0.0000 0.0000 13.7805 0.0000 8.1392
# 5 -14.1129 -2.3289 -14.5652 0.0000 41.0487 0.0000
# 6 0.0000 0.0000 0.0000 8.1392 0.0000 -0.2586
#
#
#
# Elastic Compliance Matrix: (Units=1/GPa)
#
#
# Indices 1 2 3 4 5 6 
#
# 1 0.016024 0.001080 -0.006707 0.000000 0.003191 0.000000
# 2 0.001080 0.017148 0.000534 0.000000 0.001534 0.000000
# 3 -0.006707 0.000534 0.010314 0.000000 0.001384 0.000000
# 4 0.000000 0.000000 0.000000 0.003704 0.000000 0.116590
# 5 0.003191 0.001534 0.001384 0.000000 0.026036 0.000000
# 6 0.000000 0.000000 0.000000 0.116590 0.000000 -0.197397
#
#
# Mechanical properties :
#
#
# Convention : Reuss Voigt Hill
#
# Bulk Modulus (GPa) = 30.03072 42.97446 36.50259
# Shear Modulus (GPa) = -48.59831 27.02456 -10.78687
#
# Velocity S-wave (km/s) = -4.67484 3.48607 -2.20244
# Velocity P-wave (km/s) = 3.95403 5.96059 3.15391
#
# Compressibility (1/GPa) = 0.03329924
#
# Stress axis : x y z
#
# Youngs Moduli (GPa) = 62.40706 58.31647 96.95474
#
# Poissons Ratio (x) = -0.06299 0.65029
# Poissons Ratio (y) = -0.06741 -0.05174
# Poissons Ratio (z) = 0.41857 -0.03112
#
# Static dielectric constant tensor:
#      x y z
#    x 1.821170 0.000000 -0.004020 
#    y 0.000000 1.861550 0.000000 
#    z -0.004020 0.000000 1.834100 
# 
# From -- ./inp_files/58198.got.cif
#   From: 2010.05.17/outbox.cif.g08.bks.cpg/sg10_30_cif.got.tgz:58198.got - 2010.06.03 11:33:40.
