data_PCOD9145739
_publ_section_title
;
Structure prediction by ZEFSAII (Michael W. Deem and Ramdas Pophale) SiO2 
 PCOD9145739
Probable space group: P 2/M
;
_chemical_formula_sum "Si O2"
_cell_formula_units_Z 30
_cell_length_a 7.350929
_cell_length_b 12.640359
_cell_length_c 25.139697
_cell_angle_alpha 90.000000
_cell_angle_beta 45.826322
_cell_angle_gamma 90.000000
_cell_volume 1675.408116
_symmetry_space_group_name_H-M "P 2/M"
_symmetry_group_IT_number 10
_symmetry_cell_setting 'monoclinic'
loop_
_space_group_symop_operation_xyz
x,y,z
-x,y,-z
-x,-y,-z
x,-y,z
loop_
_atom_site_type_symbol
_atom_site_label
_atom_site_fract_x
_atom_site_fract_y
_atom_site_fract_z
Si Si1 0.276486 0.872700 0.152139
Si Si2 0.684489 0.875232 0.264208
Si Si3 0.765225 0.230301 0.581085
Si Si4 0.561018 0.619326 0.425130
Si Si5 0.455261 0.260624 0.809334
Si Si6 0.951945 0.379007 0.946899
Si Si7 0.886090 0.374143 0.658644
Si Si8 0.500000 0.771208 0.000000
O O1 0.432818 0.804490 0.163558
O O2 0.377208 0.839863 0.072904
O O3 0.975711 0.845923 0.219321
O O4 0.306814 0.000000 0.153438
O O5 0.459636 0.843203 0.350541
O O6 0.613294 0.820706 0.223389
O O7 0.683775 0.000000 0.258012
O O8 0.625174 0.307229 0.568682
O O9 0.864465 0.302050 0.610215
O O10 0.000000 0.181132 0.500000
O O11 0.500000 0.619829 0.500000
O O12 0.533075 0.500000 0.410527
O O13 0.854228 0.650723 0.363287
O O14 0.659315 0.341483 0.743400
O O15 0.204437 0.326397 0.872634
O O16 0.913558 0.500000 0.935974
O O17 0.716693 0.304686 0.979978
O O18 0.000000 0.381707 0.000000
O O19 0.887490 0.500000 0.645544
#
# Coordination Sequence:
#
# PCOD9145739 Si02
#       8
#     4   4   4   4   4   4   4   2
#     4  11  23  40  64  90 118 154 199 250 298 345
#     4  10  23  41  60  83 115 153 196 248 301 347
#     4  11  21  35  58  82 111 151 193 241 290 350
#     4  10  19  32  52  80 112 146 181 226 287 346
#     4  11  21  40  62  86 116 154 199 243 295 347
#     4  11  23  40  62  88 122 159 193 232 286 352
#     4  10  21  35  55  83 115 150 192 238 289 350
#     4  12  22  42  62  94 122 160 196 240 290 350
#
# _framework density 17.906084
#
# number of rings (size 3 to 8) (size 9 to 14) (size 15 to 20)
#    0.000    1.333    4.000    2.400    0.000    0.800 
#    0.000    0.667    0.000    0.400    0.000    0.000 
#    0.000    0.000    0.000    0.000    0.000    0.000 
#
# Total GULP energy -167394.198828 kJ/mol
# GULP energy per Si atom -5579.806628 kJ/mol
# Density = 1.786533 g / cm^3
# Si number density = 17.906084 Si / 1000 Ang^3
#
#
#
# Elastic Constant Matrix: (Units=GPa)
#
#
# Indices 1 2 3 4 5 6 
#
# 1 33.1837 3.1303 13.7577 0.0000 -9.9957 0.0000
# 2 3.1303 42.0046 21.4832 0.0000 -8.2248 0.0000
# 3 13.7577 21.4832 124.5788 0.0000 -19.4436 0.0000
# 4 0.0000 0.0000 0.0000 22.4972 0.0000 -6.9557
# 5 -9.9957 -8.2248 -19.4436 0.0000 32.7790 0.0000
# 6 0.0000 0.0000 0.0000 -6.9557 0.0000 22.2246
#
#
#
# Elastic Compliance Matrix: (Units=1/GPa)
#
#
# Indices 1 2 3 4 5 6 
#
# 1 0.033800 0.000476 -0.002411 0.000000 0.008996 0.000000
# 2 0.000476 0.026672 -0.003951 0.000000 0.004494 0.000000
# 3 -0.002411 -0.003951 0.009593 0.000000 0.003964 0.000000
# 4 0.000000 0.000000 0.000000 0.049212 0.000000 0.015402
# 5 0.008996 0.004494 0.003964 0.000000 0.036730 0.000000
# 6 0.000000 0.000000 0.000000 0.015402 0.000000 0.049816
#
#
# Mechanical properties :
#
#
# Convention : Reuss Voigt Hill
#
# Bulk Modulus (GPa) = 17.15446 30.72325 23.93886
# Shear Modulus (GPa) = 21.09484 26.25987 23.67736
#
# Velocity S-wave (km/s) = 3.43604 3.83369 3.64030
# Velocity P-wave (km/s) = 5.03417 6.06560 5.57379
#
# Compressibility (1/GPa) = 0.05829389
#
# Stress axis : x y z
#
# Youngs Moduli (GPa) = 29.58601 37.49248 104.24035
#
# Poissons Ratio (x) = -0.01783 0.25127
# Poissons Ratio (y) = -0.01407 0.41181
# Poissons Ratio (z) = 0.07132 0.14812
#
# Static dielectric constant tensor:
#      x y z
#    x 1.571860 0.000000 -0.068580 
#    y 0.000000 1.604550 0.000000 
#    z -0.068580 0.000000 1.516100 
# 
# From -- ./inp_files/87553.got.cif
#   From: 2010.05.17/outbox.cif.g08.bks.cpg/sg10_44_cif.got.tgz:87553.got - 2010.06.03 11:33:40.
