data_PCOD9145331
_publ_section_title
;
Structure prediction by ZEFSAII (Michael W. Deem and Ramdas Pophale) SiO2 
 PCOD9145331
Probable space group: P 2/M
;
_chemical_formula_sum "Si O2"
_cell_formula_units_Z 28
_cell_length_a 10.207019
_cell_length_b 11.213616
_cell_length_c 13.475429
_cell_angle_alpha 90.000000
_cell_angle_beta 108.610453
_cell_angle_gamma 90.000000
_cell_volume 1461.715189
_symmetry_space_group_name_H-M "P 2/M"
_symmetry_group_IT_number 10
_symmetry_cell_setting 'monoclinic'
loop_
_space_group_symop_operation_xyz
x,y,z
-x,y,-z
-x,-y,-z
x,-y,z
loop_
_atom_site_type_symbol
_atom_site_label
_atom_site_fract_x
_atom_site_fract_y
_atom_site_fract_z
Si Si1 0.854201 0.864638 0.207272
Si Si2 0.159126 0.861332 0.339155
Si Si3 0.445696 0.626404 0.100236
Si Si4 0.530646 0.139080 0.619555
Si Si5 0.646524 0.868958 0.975143
Si Si6 0.854927 0.369400 0.522284
Si Si7 0.328545 0.704827 0.697806
O O1 0.769206 0.854142 0.084657
O O2 0.790208 0.772845 0.269806
O O3 0.019331 0.850506 0.241173
O O4 0.828090 0.000000 0.237163
O O5 0.306322 0.848141 0.321306
O O6 0.154894 0.751797 0.416011
O O7 0.158970 0.000000 0.379949
O O8 0.371787 0.500000 0.100098
O O9 0.578925 0.632898 0.202575
O O10 0.500000 0.625907 0.000000
O O11 0.361947 0.749397 0.091372
O O12 0.500000 0.184339 0.500000
O O13 0.433687 0.202136 0.674130
O O14 0.495893 0.000000 0.611108
O O15 0.660226 0.000000 0.929532
O O16 0.500000 0.873232 0.000000
O O17 0.845843 0.500000 0.572290
O O18 0.738957 0.364443 0.409248
O O19 0.000000 0.365804 0.500000
#
# Coordination Sequence:
#
# PCOD9145331 Si02
#       7
#     4   4   4   4   4   4   4
#     4  10  19  31  55  86 111 141 186 233 283 336
#     4  10  21  39  57  80 114 153 190 230 281 341
#     4  10  20  34  53  83 115 142 179 235 291 336
#     4  10  21  36  56  83 118 153 193 238 281 331
#     4   9  16  30  50  80 111 134 173 230 281 329
#     4  11  23  36  52  82 118 149 187 238 287 334
#     4  12  20  34  56  85 111 150 190 235 282 335
#
# _framework density 19.155578999999999
#
# number of rings (size 3 to 8) (size 9 to 14) (size 15 to 20)
#    0.000    1.714    5.714    0.857    0.000    1.429 
#    0.000    2.857    0.000    0.857    0.000    5.000 
#    0.000    0.000    0.000    0.000    0.000    0.000 
#
# Total GULP energy -156009.108998 kJ/mol
# GULP energy per Si atom -5571.753893 kJ/mol
# Density = 1.911198 g / cm^3
# Si number density = 19.155579 Si / 1000 Ang^3
#
#
#
# Elastic Constant Matrix: (Units=GPa)
#
#
# Indices 1 2 3 4 5 6 
#
# 1 73.8406 24.1390 19.9157 0.0000 23.1244 0.0000
# 2 24.1390 137.9777 23.0491 0.0000 15.0987 0.0000
# 3 19.9157 23.0491 72.4955 0.0000 31.4737 0.0000
# 4 0.0000 0.0000 0.0000 -24.2887 0.0000 -1.1444
# 5 23.1244 15.0987 31.4737 0.0000 26.3040 0.0000
# 6 0.0000 0.0000 0.0000 -1.1444 0.0000 -2.1961
#
#
#
# Elastic Compliance Matrix: (Units=1/GPa)
#
#
# Indices 1 2 3 4 5 6 
#
# 1 0.019735 -0.001838 0.004655 0.000000 -0.021865 0.000000
# 2 -0.001838 0.007947 -0.001546 0.000000 -0.001097 0.000000
# 3 0.004655 -0.001546 0.029963 0.000000 -0.039057 0.000000
# 4 0.000000 0.000000 0.000000 -0.042208 0.000000 0.021995
# 5 -0.021865 -0.001097 -0.039057 0.000000 0.104602 0.000000
# 6 0.000000 0.000000 0.000000 0.021995 0.000000 -0.466813
#
#
# Mechanical properties :
#
#
# Convention : Reuss Voigt Hill
#
# Bulk Modulus (GPa) = 16.61426 46.50237 31.55832
# Shear Modulus (GPa) = -15.18585 14.44451 -0.37067
#
# Velocity S-wave (km/s) = -2.81866 2.74900 -0.44037
# Velocity P-wave (km/s) = 1.37876 5.86556 4.03137
#
# Compressibility (1/GPa) = 0.06018925
#
# Stress axis : x y z
#
# Youngs Moduli (GPa) = 50.67087 125.82931 33.37440
#
# Poissons Ratio (x) = 0.23123 -0.15537
# Poissons Ratio (y) = 0.09312 0.05159
# Poissons Ratio (z) = -0.23589 0.19450
#
# Static dielectric constant tensor:
#      x y z
#    x 1.624920 0.000000 0.023680 
#    y 0.000000 1.734670 0.000000 
#    z 0.023680 0.000000 1.686460 
# 
# From -- ./inp_files/61006.got.cif
#   From: 2010.05.17/outbox.cif.g08.bks.cpg/sg10_31_cif.got.tgz:61006.got - 2010.06.03 11:33:40.
