data_PCOD9145913
_publ_section_title
;
Structure prediction by ZEFSAII (Michael W. Deem and Ramdas Pophale) SiO2 
 PCOD9145913
Probable space group: P 2/M
;
_chemical_formula_sum "Si O2"
_cell_formula_units_Z 26
_cell_length_a 5.155716
_cell_length_b 27.626006
_cell_length_c 10.264615
_cell_angle_alpha 90.000000
_cell_angle_beta 61.936452
_cell_angle_gamma 90.000000
_cell_volume 1290.114393
_symmetry_space_group_name_H-M "P 2/M"
_symmetry_group_IT_number 10
_symmetry_cell_setting 'monoclinic'
loop_
_space_group_symop_operation_xyz
x,y,z
-x,y,-z
-x,-y,-z
x,-y,z
loop_
_atom_site_type_symbol
_atom_site_label
_atom_site_fract_x
_atom_site_fract_y
_atom_site_fract_z
Si Si1 0.151845 0.387776 0.321582
Si Si2 0.148415 0.197684 0.102638
Si Si3 0.851851 0.000000 0.896143
Si Si4 0.150279 0.306568 0.104755
Si Si5 0.260908 0.100391 0.171513
Si Si6 0.648317 0.055917 0.598924
Si Si7 0.656531 0.554364 0.321067
O O1 0.109159 0.341915 0.237419
O O2 0.479815 0.406776 0.275785
O O3 0.000000 0.380613 0.500000
O O4 0.983035 0.429635 0.281424
O O5 0.047977 0.251725 0.163428
O O6 0.096389 0.151466 0.206942
O O7 0.500000 0.201586 0.000000
O O8 0.000000 0.185889 0.000000
O O9 0.919856 0.949454 0.808568
O O10 0.500000 0.000000 0.000000
O O11 0.000000 0.000000 0.000000
O O12 0.500000 0.306435 0.000000
O O13 0.000000 0.319331 0.000000
O O14 0.428077 0.091165 0.265887
O O15 0.500000 0.102208 0.000000
O O16 0.500000 0.069306 0.500000
O O17 0.000000 0.057987 0.500000
O O18 0.569556 0.000000 0.649381
O O19 0.500000 0.553856 0.500000
O O20 0.639919 0.500000 0.271133
#
# Coordination Sequence:
#
# PCOD9145913 Si02
#       7
#     4   4   2   4   4   4   4
#     4  10  19  32  54  81 107 137 183 228 263 305
#     4   9  19  34  54  79 105 135 175 223 268 318
#     4  10  20  30  48  80 106 124 159 216 265 298
#     4  10  20  36  56  76 104 144 182 217 270 326
#     4  10  20  37  58  83 105 136 179 226 263 312
#     4  10  22  38  53  75 109 144 171 203 258 324
#     4   9  17  30  51  80 111 142 176 219 268 316
#
# _framework density 20.153251000000001
#
# number of rings (size 3 to 8) (size 9 to 14) (size 15 to 20)
#    0.000    2.308    0.769    1.846    0.000    6.769 
#    0.000    0.769    0.000   12.000    0.000    0.000 
#    0.000    0.000    0.000    0.000    0.000    0.000 
#
# Total GULP energy -145013.685165 kJ/mol
# GULP energy per Si atom -5577.449429 kJ/mol
# Density = 2.010738 g / cm^3
# Si number density = 20.153251 Si / 1000 Ang^3
#
#
#
# Elastic Constant Matrix: (Units=GPa)
#
#
# Indices 1 2 3 4 5 6 
#
# 1 107.6122 17.4721 37.6382 0.0000 39.4931 0.0000
# 2 17.4721 138.6075 58.0487 0.0000 33.3204 0.0000
# 3 37.6382 58.0487 95.5770 0.0000 36.3035 0.0000
# 4 0.0000 0.0000 0.0000 85.8927 0.0000 0.3735
# 5 39.4931 33.3204 36.3035 0.0000 38.9823 0.0000
# 6 0.0000 0.0000 0.0000 0.3735 0.0000 26.1363
#
#
#
# Elastic Compliance Matrix: (Units=1/GPa)
#
#
# Indices 1 2 3 4 5 6 
#
# 1 0.015440 0.002617 -0.001359 0.000000 -0.016613 0.000000
# 2 0.002617 0.010615 -0.004680 0.000000 -0.007366 0.000000
# 3 -0.001359 -0.004680 0.018255 0.000000 -0.011624 0.000000
# 4 0.000000 0.000000 0.000000 0.011643 0.000000 -0.000166
# 5 -0.016613 -0.007366 -0.011624 0.000000 0.059605 0.000000
# 6 0.000000 0.000000 0.000000 -0.000166 0.000000 0.038263
#
#
# Mechanical properties :
#
#
# Convention : Reuss Voigt Hill
#
# Bulk Modulus (GPa) = 26.69058 63.12386 44.90722
# Shear Modulus (GPa) = 28.87567 45.44477 37.16022
#
# Velocity S-wave (km/s) = 3.78935 4.75379 4.29870
# Velocity P-wave (km/s) = 5.69369 7.84355 6.85344
#
# Compressibility (1/GPa) = 0.03746641
#
# Stress axis : x y z
#
# Youngs Moduli (GPa) = 64.76622 94.20197 54.77827
#
# Poissons Ratio (x) = -0.24650 0.07446
# Poissons Ratio (y) = -0.16947 0.25635
# Poissons Ratio (z) = 0.08804 0.44084
#
# Static dielectric constant tensor:
#      x y z
#    x 1.367570 0.000000 0.099570 
#    y 0.000000 1.773210 0.000000 
#    z 0.099570 0.000000 1.680830 
# 
# From -- ./inp_files/15721.got.cif
#   From: 2010.05.17/outbox.cif.g08.bks.cpg/sg10_8_cif.got.tgz:15721.got - 2010.06.03 11:33:40.
