data_PCOD9145696
_publ_section_title
;
Structure prediction by ZEFSAII (Michael W. Deem and Ramdas Pophale) SiO2 
 PCOD9145696
Probable space group: P 2/M
;
_chemical_formula_sum "Si O2"
_cell_formula_units_Z 28
_cell_length_a 14.937900
_cell_length_b 7.707847
_cell_length_c 21.511159
_cell_angle_alpha 90.000000
_cell_angle_beta 30.690119
_cell_angle_gamma 90.000000
_cell_volume 1264.132318
_symmetry_space_group_name_H-M "P 2/M"
_symmetry_group_IT_number 10
_symmetry_cell_setting 'monoclinic'
loop_
_space_group_symop_operation_xyz
x,y,z
-x,y,-z
-x,-y,-z
x,-y,z
loop_
_atom_site_type_symbol
_atom_site_label
_atom_site_fract_x
_atom_site_fract_y
_atom_site_fract_z
Si Si1 0.322445 0.789055 0.274695
Si Si2 0.717940 0.208196 0.070165
Si Si3 0.317016 0.709443 0.638352
Si Si4 0.770215 0.296076 0.534724
Si Si5 0.623468 0.292378 0.260228
Si Si6 0.136622 0.200589 0.262946
Si Si7 0.059301 0.792454 0.176881
O O1 0.523718 0.734657 0.164744
O O2 0.219142 0.727177 0.397301
O O3 0.244536 0.723628 0.256258
O O4 0.314845 0.000000 0.279647
O O5 0.735672 0.254453 0.131859
O O6 0.720289 0.000000 0.066354
O O7 0.857017 0.275680 0.937100
O O8 0.500000 0.770237 0.500000
O O9 0.321435 0.500000 0.636021
O O10 0.303776 0.771973 0.717602
O O11 0.147668 0.761352 0.700793
O O12 0.779324 0.500000 0.513968
O O13 0.576929 0.228661 0.630825
O O14 0.933111 0.206449 0.404636
O O15 0.610466 0.500000 0.272061
O O16 0.145728 0.278246 0.188479
O O17 0.193671 0.000000 0.224123
O O18 0.085780 0.000000 0.161985
#
# Coordination Sequence:
#
# PCOD9145696 Si02
#       7
#     4   4   4   4   4   4   4
#     4   9  18  33  53  75 102 138 174 209 252 304
#     4   9  19  36  55  76 103 135 173 213 253 299
#     4  10  21  38  58  79 104 135 170 207 253 310
#     4  10  19  32  52  78 106 134 169 214 259 304
#     4   9  19  35  55  77 102 135 172 210 254 305
#     4  10  20  33  50  74 105 139 173 210 255 305
#     4  10  22  37  53  77 106 135 171 215 257 299
#
# _framework density 22.149578999999999
#
# number of rings (size 3 to 8) (size 9 to 14) (size 15 to 20)
#    0.000    2.429    0.000    1.714    0.000    7.143 
#    0.000    5.714    0.000    0.000    0.000    6.000 
#    0.000    0.000    0.000    0.000    0.000    0.000 
#
# Total GULP energy -156367.736867 kJ/mol
# GULP energy per Si atom -5584.562031 kJ/mol
# Density = 2.209917 g / cm^3
# Si number density = 22.149579 Si / 1000 Ang^3
#
#
#
# Elastic Constant Matrix: (Units=GPa)
#
#
# Indices 1 2 3 4 5 6 
#
# 1 112.5058 0.0369 0.9734 0.0000 28.5211 0.0000
# 2 0.0369 37.8553 -5.0832 0.0000 2.5984 0.0000
# 3 0.9734 -5.0832 51.1852 0.0000 19.8324 0.0000
# 4 0.0000 0.0000 0.0000 26.9609 0.0000 8.4828
# 5 28.5211 2.5984 19.8324 0.0000 26.4626 0.0000
# 6 0.0000 0.0000 0.0000 8.4828 0.0000 13.0288
#
#
#
# Elastic Compliance Matrix: (Units=1/GPa)
#
#
# Indices 1 2 3 4 5 6 
#
# 1 0.014479 0.002682 0.008652 0.000000 -0.022353 0.000000
# 2 0.002682 0.028091 0.006944 0.000000 -0.010853 0.000000
# 3 0.008652 0.006944 0.033736 0.000000 -0.035290 0.000000
# 4 0.000000 0.000000 0.000000 0.046646 0.000000 -0.030370
# 5 -0.022353 -0.010853 -0.035290 0.000000 0.089395 0.000000
# 6 0.000000 0.000000 0.000000 -0.030370 0.000000 0.096526
#
#
# Mechanical properties :
#
#
# Convention : Reuss Voigt Hill
#
# Bulk Modulus (GPa) = 8.86036 21.48895 15.17465
# Shear Modulus (GPa) = 16.13222 26.99842 21.56532
#
# Velocity S-wave (km/s) = 2.70169 3.49508 3.12368
# Velocity P-wave (km/s) = 3.70690 5.10003 4.45821
#
# Compressibility (1/GPa) = 0.11286221
#
# Stress axis : x y z
#
# Youngs Moduli (GPa) = 69.06340 35.59840 29.64231
#
# Poissons Ratio (x) = -0.09548 -0.25647
# Poissons Ratio (y) = -0.18523 -0.20583
# Poissons Ratio (z) = -0.59755 -0.24719
#
# Static dielectric constant tensor:
#      x y z
#    x 1.825590 0.000000 0.023880 
#    y 0.000000 1.827350 0.000000 
#    z 0.023880 0.000000 1.797410 
# 
# From -- ./inp_files/49339.got.cif
#   From: 2010.05.17/outbox.cif.g08.bks.cpg/sg10_25_cif.got.tgz:49339.got - 2010.06.03 11:33:40.
