data_PCOD9145709
_publ_section_title
;
Structure prediction by ZEFSAII (Michael W. Deem and Ramdas Pophale) SiO2 
 PCOD9145709
Probable space group: P 2/M
;
_chemical_formula_sum "Si O2"
_cell_formula_units_Z 32
_cell_length_a 9.067813
_cell_length_b 14.296822
_cell_length_c 14.136339
_cell_angle_alpha 90.000000
_cell_angle_beta 60.493350
_cell_angle_gamma 90.000000
_cell_volume 1594.950725
_symmetry_space_group_name_H-M "P 2/M"
_symmetry_group_IT_number 10
_symmetry_cell_setting 'monoclinic'
loop_
_space_group_symop_operation_xyz
x,y,z
-x,y,-z
-x,-y,-z
x,-y,z
loop_
_atom_site_type_symbol
_atom_site_label
_atom_site_fract_x
_atom_site_fract_y
_atom_site_fract_z
Si Si1 0.252332 0.893820 0.094690
Si Si2 0.684158 0.241766 0.088716
Si Si3 0.706867 0.391598 0.934539
Si Si4 0.148879 0.107597 0.811635
Si Si5 0.686150 0.224518 0.398465
Si Si6 0.465046 0.401329 0.623913
Si Si7 0.181793 0.678434 0.456925
Si Si8 0.701435 0.252405 0.767423
O O1 0.273212 0.845315 0.188621
O O2 0.053366 0.890293 0.131575
O O3 0.307570 0.000000 0.075556
O O4 0.344714 0.830099 0.988694
O O5 0.791776 0.182605 0.129183
O O6 0.498885 0.266540 0.186812
O O7 0.759339 0.333048 0.011710
O O8 0.760235 0.500000 0.916358
O O9 0.758701 0.332731 0.824502
O O10 0.500000 0.389848 0.000000
O O11 0.228321 0.141963 0.687035
O O12 0.199673 0.000000 0.818298
O O13 0.500000 0.199796 0.500000
O O14 0.652158 0.310402 0.335628
O O15 0.793731 0.266833 0.451813
O O16 0.500000 0.406974 0.500000
O O17 0.391530 0.500000 0.680365
O O18 0.652836 0.386628 0.604984
O O19 0.200552 0.746059 0.361432
O O20 0.000000 0.631319 0.500000
#
# Coordination Sequence:
#
# PCOD9145709 Si02
#       8
#     4   4   4   4   4   4   4   4
#     4  10  21  36  54  77 107 140 172 220 284 337
#     4  10  19  34  57  82 107 135 178 227 271 324
#     4   8  16  32  54  80 108 136 169 212 263 321
#     4  11  22  36  55  79 106 141 184 227 277 329
#     4   9  19  36  54  73 107 146 184 225 268 318
#     4   8  16  32  52  73 100 136 176 217 263 311
#     4  10  19  32  52  78 110 146 182 222 266 311
#     4  10  20  34  54  80 108 142 181 219 265 320
#
# _framework density 20.063316
#
# number of rings (size 3 to 8) (size 9 to 14) (size 15 to 20)
#    0.000    2.750    0.000    4.125    0.000    3.500 
#    0.000    3.750    0.000   15.750    0.000    0.000 
#    0.000    0.000    0.000    0.000    0.000    0.000 
#
# Total GULP energy -178361.993465 kJ/mol
# GULP energy per Si atom -5573.812296 kJ/mol
# Density = 2.001765 g / cm^3
# Si number density = 20.063316 Si / 1000 Ang^3
#
#
#
# Elastic Constant Matrix: (Units=GPa)
#
#
# Indices 1 2 3 4 5 6 
#
# 1 86.3714 26.6846 28.7444 0.0000 5.7129 0.0000
# 2 26.6846 109.2270 31.4109 0.0000 2.0624 0.0000
# 3 28.7444 31.4109 52.2787 0.0000 8.6536 0.0000
# 4 0.0000 0.0000 0.0000 0.2471 0.0000 -4.9572
# 5 5.7129 2.0624 8.6536 0.0000 21.7929 0.0000
# 6 0.0000 0.0000 0.0000 -4.9572 0.0000 -1.2914
#
#
#
# Elastic Compliance Matrix: (Units=1/GPa)
#
#
# Indices 1 2 3 4 5 6 
#
# 1 0.014387 -0.001531 -0.006840 0.000000 -0.000911 0.000000
# 2 -0.001531 0.011290 -0.006242 0.000000 0.001811 0.000000
# 3 -0.006840 -0.006242 0.028091 0.000000 -0.008771 0.000000
# 4 0.000000 0.000000 0.000000 0.051879 0.000000 -0.199142
# 5 -0.000911 0.001811 -0.008771 0.000000 0.049437 0.000000
# 6 0.000000 0.000000 0.000000 -0.199142 0.000000 -0.009926
#
#
# Mechanical properties :
#
#
# Convention : Reuss Voigt Hill
#
# Bulk Modulus (GPa) = 40.74385 46.83966 43.79175
# Shear Modulus (GPa) = 27.38767 14.88552 21.13660
#
# Velocity S-wave (km/s) = 3.69868 2.72679 3.24928
# Velocity P-wave (km/s) = 6.21225 5.77152 5.99594
#
# Compressibility (1/GPa) = 0.02454358
#
# Stress axis : x y z
#
# Youngs Moduli (GPa) = 69.50491 88.57461 35.59826
#
# Poissons Ratio (x) = 0.13558 0.24350
# Poissons Ratio (y) = 0.10639 0.22219
# Poissons Ratio (z) = 0.47543 0.55285
#
# Static dielectric constant tensor:
#      x y z
#    x 1.743470 0.000000 0.007900 
#    y 0.000000 1.726400 0.000000 
#    z 0.007900 0.000000 1.717140 
# 
# From -- ./inp_files/61829.got.cif
#   From: 2010.05.17/outbox.cif.g08.bks.cpg/sg10_31_cif.got.tgz:61829.got - 2010.06.03 11:33:40.
