data_PCOD9145578
_publ_section_title
;
Structure prediction by ZEFSAII (Michael W. Deem and Ramdas Pophale) SiO2 
 PCOD9145578
Probable space group: P 2/M
;
_chemical_formula_sum "Si O2"
_cell_formula_units_Z 28
_cell_length_a 20.973815
_cell_length_b 7.581847
_cell_length_c 14.750975
_cell_angle_alpha 90.000000
_cell_angle_beta 148.401170
_cell_angle_gamma 90.000000
_cell_volume 1229.074946
_symmetry_space_group_name_H-M "P 2/M"
_symmetry_group_IT_number 10
_symmetry_cell_setting 'monoclinic'
loop_
_space_group_symop_operation_xyz
x,y,z
-x,y,-z
-x,-y,-z
x,-y,z
loop_
_atom_site_type_symbol
_atom_site_label
_atom_site_fract_x
_atom_site_fract_y
_atom_site_fract_z
Si Si1 0.173030 0.217745 0.441544
Si Si2 0.523441 0.706480 0.723248
Si Si3 0.744354 0.798670 0.644759
Si Si4 0.719870 0.785939 0.817085
Si Si5 0.916746 0.212325 0.204598
Si Si6 0.372173 0.201699 0.815901
Si Si7 0.721474 0.707274 0.110738
O O1 0.176574 0.277314 0.341572
O O2 0.293333 0.280290 0.639690
O O3 0.052772 0.273407 0.349470
O O4 0.174930 0.000000 0.443823
O O5 0.501293 0.500000 0.712191
O O6 0.394283 0.798860 0.559317
O O7 0.596997 0.727156 0.718280
O O8 0.614961 0.772095 0.912952
O O9 0.739369 0.718731 0.738929
O O10 0.786919 0.000000 0.708491
O O11 0.715096 0.000000 0.808797
O O12 0.829263 0.731447 0.015892
O O13 0.848939 0.268670 0.213815
O O14 0.918109 0.000000 0.206553
O O15 0.290211 0.202366 0.806795
O O16 0.399899 0.000000 0.822164
O O17 0.500000 0.285662 0.000000
O O18 0.702020 0.500000 0.101173
#
# Coordination Sequence:
#
# PCOD9145578 Si02
#       7
#     4   4   4   4   4   4   4
#     4   9  19  34  53  77 103 133 170 211 251 298
#     4  10  20  33  50  74 104 136 170 208 253 305
#     4  10  19  32  51  76 105 134 168 210 254 299
#     4   9  18  31  51  77 102 133 170 209 252 297
#     4   9  18  35  55  75 102 135 172 209 248 298
#     4  10  20  35  56  80 104 133 168 205 252 307
#     4  10  21  36  54  76 103 135 170 211 256 299
#
# _framework density 22.781358999999998
#
# number of rings (size 3 to 8) (size 9 to 14) (size 15 to 20)
#    0.000    2.429    0.000    2.143    0.000    6.571 
#    0.000    7.857    0.000    0.000    0.000    5.000 
#    0.000    0.000    0.000    0.000    0.000    0.000 
#
# Total GULP energy -156424.833836 kJ/mol
# GULP energy per Si atom -5586.601208 kJ/mol
# Density = 2.272951 g / cm^3
# Si number density = 22.781359 Si / 1000 Ang^3
#
#
#
# Elastic Constant Matrix: (Units=GPa)
#
#
# Indices 1 2 3 4 5 6 
#
# 1 108.3586 -5.0684 15.2973 0.0000 -9.5935 0.0000
# 2 -5.0684 57.1289 -2.1844 0.0000 0.3413 0.0000
# 3 15.2973 -2.1844 29.9550 0.0000 10.1397 0.0000
# 4 0.0000 0.0000 0.0000 -48.0360 0.0000 -197.0091
# 5 -9.5935 0.3413 10.1397 0.0000 35.1612 0.0000
# 6 0.0000 0.0000 0.0000 -197.0091 0.0000 -754.6496
#
#
#
# Elastic Compliance Matrix: (Units=1/GPa)
#
#
# Indices 1 2 3 4 5 6 
#
# 1 0.010700 0.000648 -0.007095 0.000000 0.004959 0.000000
# 2 0.000648 0.017604 0.001053 0.000000 -0.000298 0.000000
# 3 -0.007095 0.001053 0.041825 0.000000 -0.014008 0.000000
# 4 0.000000 0.000000 0.000000 0.294526 0.000000 -0.076889
# 5 0.004959 -0.000298 -0.014008 0.000000 0.033836 0.000000
# 6 0.000000 0.000000 0.000000 -0.076889 0.000000 0.018748
#
#
# Mechanical properties :
#
#
# Convention : Reuss Voigt Hill
#
# Bulk Modulus (GPa) = 16.85168 23.50352 20.17760
# Shear Modulus (GPa) = 11.16555 -141.01168 -64.92306
#
# Velocity S-wave (km/s) = 2.21626 -7.87605 -5.34417
# Velocity P-wave (km/s) = 3.73661 8.50707 5.40407
#
# Compressibility (1/GPa) = 0.05934128
#
# Stress axis : x y z
#
# Youngs Moduli (GPa) = 93.46056 56.80571 23.90904
#
# Poissons Ratio (x) = -0.03683 0.16965
# Poissons Ratio (y) = -0.06059 -0.02519
# Poissons Ratio (z) = 0.66315 -0.05984
#
# Static dielectric constant tensor:
#      x y z
#    x 1.840260 0.000000 -0.005420 
#    y 0.000000 1.899130 0.000000 
#    z -0.005420 0.000000 1.831630 
# 
# From -- ./inp_files/49342.got.cif
#   From: 2010.05.17/outbox.cif.g08.bks.cpg/sg10_25_cif.got.tgz:49342.got - 2010.06.03 11:33:40.
