data_PCOD9145840
_publ_section_title
;
Structure prediction by ZEFSAII (Michael W. Deem and Ramdas Pophale) SiO2 
 PCOD9145840
Probable space group: P 2/M
;
_chemical_formula_sum "Si O2"
_cell_formula_units_Z 32
_cell_length_a 14.762373
_cell_length_b 7.448109
_cell_length_c 23.842354
_cell_angle_alpha 90.000000
_cell_angle_beta 147.980877
_cell_angle_gamma 90.000000
_cell_volume 1389.929972
_symmetry_space_group_name_H-M "P 2/M"
_symmetry_group_IT_number 10
_symmetry_cell_setting 'monoclinic'
loop_
_space_group_symop_operation_xyz
x,y,z
-x,y,-z
-x,-y,-z
x,-y,z
loop_
_atom_site_type_symbol
_atom_site_label
_atom_site_fract_x
_atom_site_fract_y
_atom_site_fract_z
Si Si1 0.517919 0.782669 0.679319
Si Si2 0.099198 0.208673 0.104925
Si Si3 0.922820 0.280171 0.399967
Si Si4 0.986398 0.716001 0.673776
Si Si5 0.780143 0.716970 0.006431
Si Si6 0.447642 0.289462 0.767926
Si Si7 0.614999 0.787477 0.509358
Si Si8 0.309704 0.280808 0.914806
O O1 0.714202 0.717385 0.785129
O O2 0.432744 0.728656 0.693187
O O3 0.435148 0.715095 0.578406
O O4 0.513744 0.000000 0.675900
O O5 0.965714 0.219104 0.085130
O O6 0.129829 0.000000 0.107211
O O7 0.000000 0.291818 0.000000
O O8 0.925045 0.500000 0.401729
O O9 0.724976 0.219982 0.294371
O O10 0.000000 0.221862 0.500000
O O11 0.018750 0.221734 0.393772
O O12 0.992226 0.500000 0.675442
O O13 0.818227 0.765008 0.620475
O O14 0.160802 0.778465 0.794593
O O15 0.785714 0.500000 0.006942
O O16 0.735443 0.771441 0.045718
O O17 0.628713 0.782487 0.885428
O O18 0.452060 0.500000 0.784083
O O19 0.500000 0.714571 0.500000
O O20 0.579525 0.000000 0.488893
O O21 0.311259 0.500000 0.913794
O O22 0.500000 0.220573 0.000000
#
# Coordination Sequence:
#
# PCOD9145840 Si02
#       8
#     4   4   4   4   4   4   4   4
#     4  10  21  37  55  76 105 142 182 221 269 325
#     4  10  20  35  54  76 104 140 179 220 268 325
#     4   9  17  30  51  78 106 134 170 215 265 314
#     4  10  20  36  59  84 110 144 187 229 267 319
#     4  10  20  32  51  80 109 137 175 218 267 319
#     4  10  19  32  53  81 109 138 171 216 267 320
#     4  10  23  41  58  77 107 147 186 227 278 328
#     4   9  18  34  56  83 116 149 179 219 274 329
#
# _framework density 23.022743999999999
#
# number of rings (size 3 to 8) (size 9 to 14) (size 15 to 20)
#    0.000    2.250    1.250    1.500    1.750    5.500 
#    0.000    0.625    0.000    5.250    0.000    0.000 
#    0.000    0.000    0.000    0.000    0.000    0.000 
#
# Total GULP energy -178831.927599 kJ/mol
# GULP energy per Si atom -5588.497737 kJ/mol
# Density = 2.297034 g / cm^3
# Si number density = 23.022744 Si / 1000 Ang^3
#
#
#
# Elastic Constant Matrix: (Units=GPa)
#
#
# Indices 1 2 3 4 5 6 
#
# 1 140.4374 -17.8553 30.8614 0.0000 12.0326 0.0000
# 2 -17.8553 66.2220 -8.1731 0.0000 -2.5186 0.0000
# 3 30.8614 -8.1731 85.6473 0.0000 4.8285 0.0000
# 4 0.0000 0.0000 0.0000 1.1763 0.0000 0.1425
# 5 12.0326 -2.5186 4.8285 0.0000 41.9218 0.0000
# 6 0.0000 0.0000 0.0000 0.1425 0.0000 31.1711
#
#
#
# Elastic Compliance Matrix: (Units=1/GPa)
#
#
# Indices 1 2 3 4 5 6 
#
# 1 0.008091 0.001783 -0.002637 0.000000 -0.001911 0.000000
# 2 0.001783 0.015698 0.000837 0.000000 0.000335 0.000000
# 3 -0.002637 0.000837 0.012743 0.000000 -0.000660 0.000000
# 4 0.000000 0.000000 0.000000 0.850559 0.000000 -0.003888
# 5 -0.001911 0.000335 -0.000660 0.000000 0.024499 0.000000
# 6 0.000000 0.000000 0.000000 -0.003888 0.000000 0.032099
#
#
# Mechanical properties :
#
#
# Convention : Reuss Voigt Hill
#
# Bulk Modulus (GPa) = 27.40011 33.55251 30.47631
# Shear Modulus (GPa) = 5.23074 34.01877 19.62475
#
# Velocity S-wave (km/s) = 1.50895 3.84815 2.92277
# Velocity P-wave (km/s) = 3.86821 5.86085 4.96551
#
# Compressibility (1/GPa) = 0.03649620
#
# Stress axis : x y z
#
# Youngs Moduli (GPa) = 123.59917 63.70430 78.47327
#
# Poissons Ratio (x) = -0.11360 0.20696
# Poissons Ratio (y) = -0.22041 -0.06565
# Poissons Ratio (z) = 0.32598 -0.05329
#
# Static dielectric constant tensor:
#      x y z
#    x 1.831690 0.000000 0.000190 
#    y 0.000000 1.887680 0.000000 
#    z 0.000190 0.000000 1.856690 
# 
# From -- ./inp_files/66451.got.cif
#   From: 2010.05.17/outbox.cif.g08.bks.cpg/sg10_34_cif.got.tgz:66451.got - 2010.06.03 11:33:40.
