data_PCOD9145978
_publ_section_title
;
Structure prediction by ZEFSAII (Michael W. Deem and Ramdas Pophale) SiO2 
 PCOD9145978
Probable space group: P 2/M
;
_chemical_formula_sum "Si O2"
_cell_formula_units_Z 30
_cell_length_a 5.597202
_cell_length_b 17.338843
_cell_length_c 16.687919
_cell_angle_alpha 90.000000
_cell_angle_beta 116.912189
_cell_angle_gamma 90.000000
_cell_volume 1444.151175
_symmetry_space_group_name_H-M "P 2/M"
_symmetry_group_IT_number 10
_symmetry_cell_setting 'monoclinic'
loop_
_space_group_symop_operation_xyz
x,y,z
-x,y,-z
-x,-y,-z
x,-y,z
loop_
_atom_site_type_symbol
_atom_site_label
_atom_site_fract_x
_atom_site_fract_y
_atom_site_fract_z
Si Si1 0.175678 0.805436 0.686454
Si Si2 0.431003 0.227649 0.395165
Si Si3 0.262187 0.648232 0.236857
Si Si4 0.500000 0.848360 0.000000
Si Si5 0.018204 0.217960 0.098411
Si Si6 0.800939 0.412916 0.529866
Si Si7 0.583873 0.089045 0.842816
Si Si8 0.187736 0.622704 0.730413
O O1 0.325870 0.807140 0.622011
O O2 0.334928 0.865963 0.765440
O O3 0.205195 0.716168 0.720893
O O4 0.855332 0.817120 0.644963
O O5 0.500000 0.234491 0.500000
O O6 0.362572 0.305988 0.332931
O O7 0.184194 0.714499 0.162549
O O8 0.508516 0.598524 0.241154
O O9 0.979516 0.608362 0.214558
O O10 0.593856 0.900937 0.940881
O O11 0.288537 0.791708 0.925504
O O12 0.158535 0.138222 0.144681
O O13 0.000000 0.226036 0.000000
O O14 0.500000 0.386705 0.500000
O O15 0.758268 0.500000 0.491357
O O16 0.000000 0.367611 0.500000
O O17 0.986313 0.413161 0.635256
O O18 0.588605 0.000000 0.821686
#
# Coordination Sequence:
#
# PCOD9145978 Si02
#       8
#     4   4   4   2   4   4   4   4
#     4  10  21  36  53  79 108 141 188 237 277 329
#     4  10  19  33  55  76 102 134 177 235 284 320
#     4  10  20  34  53  82 113 141 190 238 279 328
#     4  10  21  34  56  84 106 142 189 226 293 380
#     4  10  21  36  55  79 111 146 178 238 298 356
#     4  10  21  36  54  85 127 160 189 227 280 339
#     4  11  22  37  55  77 110 149 185 236 301 356
#     4  10  19  32  55  75 111 152 186 227 266 326
#
# _framework density 20.773447999999998
#
# number of rings (size 3 to 8) (size 9 to 14) (size 15 to 20)
#    0.000    1.867    2.667    3.000    1.867    9.333 
#    0.000    0.000    0.000    2.400    0.000    0.000 
#    0.000    3.200    0.000    0.000    0.000    0.000 
#
# Total GULP energy -167012.361506 kJ/mol
# GULP energy per Si atom -5567.078717 kJ/mol
# Density = 2.072617 g / cm^3
# Si number density = 20.773448 Si / 1000 Ang^3
#
#
#
# Elastic Constant Matrix: (Units=GPa)
#
#
# Indices 1 2 3 4 5 6 
#
# 1 188.1232 23.3161 29.0035 0.0000 18.3333 0.0000
# 2 23.3161 45.9023 30.6633 0.0000 7.3331 0.0000
# 3 29.0035 30.6633 80.1528 0.0000 8.7191 0.0000
# 4 0.0000 0.0000 0.0000 21.7635 0.0000 0.1484
# 5 18.3333 7.3331 8.7191 0.0000 39.3826 0.0000
# 6 0.0000 0.0000 0.0000 0.1484 0.0000 -21.0236
#
#
#
# Elastic Compliance Matrix: (Units=1/GPa)
#
#
# Indices 1 2 3 4 5 6 
#
# 1 0.005943 -0.001873 -0.001200 0.000000 -0.002152 0.000000
# 2 -0.001873 0.030215 -0.010620 0.000000 -0.002403 0.000000
# 3 -0.001200 -0.010620 0.017109 0.000000 -0.001252 0.000000
# 4 0.000000 0.000000 0.000000 0.045946 0.000000 0.000324
# 5 -0.002152 -0.002403 -0.001252 0.000000 0.027118 0.000000
# 6 0.000000 0.000000 0.000000 0.000324 0.000000 -0.047563
#
#
# Mechanical properties :
#
#
# Convention : Reuss Voigt Hill
#
# Bulk Modulus (GPa) = 38.63810 53.34934 45.99372
# Shear Modulus (GPa) = 43.56141 23.43752 33.49947
#
# Velocity S-wave (km/s) = 4.58424 3.36258 4.02009
# Velocity P-wave (km/s) = 6.83085 6.38852 6.61338
#
# Compressibility (1/GPa) = 0.02588119
#
# Stress axis : x y z
#
# Youngs Moduli (GPa) = 168.27916 33.09616 58.44833
#
# Poissons Ratio (x) = 0.06200 0.07011
# Poissons Ratio (y) = 0.31526 0.62071
# Poissons Ratio (z) = 0.20186 0.35147
#
# Static dielectric constant tensor:
#      x y z
#    x 1.917880 0.000000 -0.037780 
#    y 0.000000 1.735030 0.000000 
#    z -0.037780 0.000000 1.747440 
# 
# From -- ./inp_files/73708.got.cif
#   From: 2010.05.17/outbox.cif.g08.bks.cpg/sg10_37_cif.got.tgz:73708.got - 2010.06.03 11:33:40.
