data_PCOD9145902
_publ_section_title
;
Structure prediction by ZEFSAII (Michael W. Deem and Ramdas Pophale) SiO2 
 PCOD9145902
Probable space group: P 2/M
;
_chemical_formula_sum "Si O2"
_cell_formula_units_Z 32
_cell_length_a 25.359697
_cell_length_b 17.358829
_cell_length_c 9.418911
_cell_angle_alpha 90.000000
_cell_angle_beta 26.119390
_cell_angle_gamma 90.000000
_cell_volume 1825.398509
_symmetry_space_group_name_H-M "P 2/M"
_symmetry_group_IT_number 10
_symmetry_cell_setting 'monoclinic'
loop_
_space_group_symop_operation_xyz
x,y,z
-x,y,-z
-x,-y,-z
x,-y,z
loop_
_atom_site_type_symbol
_atom_site_label
_atom_site_fract_x
_atom_site_fract_y
_atom_site_fract_z
Si Si1 0.717031 0.221597 0.192453
Si Si2 0.357563 0.090422 0.822495
Si Si3 0.731852 0.823464 0.681345
Si Si4 0.475750 0.289909 0.895270
Si Si5 0.081236 0.087288 0.944109
Si Si6 0.953661 0.775445 0.772014
Si Si7 0.389355 0.591643 0.877981
Si Si8 0.830832 0.301540 0.640413
O O1 0.687383 0.135755 0.208460
O O2 0.596730 0.263842 0.526299
O O3 0.811726 0.231349 0.090766
O O4 0.771538 0.260207 0.919933
O O5 0.500000 0.102916 0.500000
O O6 0.333738 0.000000 0.869040
O O7 0.297805 0.125123 0.108871
O O8 0.796299 0.874925 0.408327
O O9 0.811921 0.752779 0.548657
O O10 0.615158 0.781409 0.903312
O O11 0.423791 0.362871 0.937166
O O12 0.500000 0.306328 0.000000
O O13 0.094595 0.000000 0.965605
O O14 0.024319 0.146960 0.192453
O O15 0.000000 0.084920 0.000000
O O16 0.000000 0.785538 0.500000
O O17 0.027490 0.704816 0.664611
O O18 0.500000 0.609574 0.500000
O O19 0.385540 0.500000 0.901704
O O20 0.255708 0.624133 0.163600
#
# Coordination Sequence:
#
# PCOD9145902 Si02
#       8
#     4   4   4   4   4   4   4   4
#     4  10  19  34  54  79 112 143 191 233 278 330
#     4  10  19  32  54  80 110 150 195 247 292 334
#     4  10  19  34  55  77 108 147 192 237 286 334
#     4  11  21  34  56  86 115 148 179 229 281 339
#     4  11  22  36  52  76 110 147 194 244 287 329
#     4  10  21  37  55  78 108 150 191 238 278 331
#     4  10  20  36  63  91 115 144 177 222 280 342
#     4   9  18  34  58  82 107 140 187 227 267 327
#
# _framework density 17.530418999999998
#
# number of rings (size 3 to 8) (size 9 to 14) (size 15 to 20)
#    0.000    1.875    3.750    1.125    0.000    1.000 
#    0.000    0.000    0.000    6.000    0.000   11.375 
#    0.000    0.000    0.000    0.000    0.000    0.000 
#
# Total GULP energy -178253.297104 kJ/mol
# GULP energy per Si atom -5570.415534 kJ/mol
# Density = 1.749052 g / cm^3
# Si number density = 17.530419 Si / 1000 Ang^3
#
#
#
# Elastic Constant Matrix: (Units=GPa)
#
#
# Indices 1 2 3 4 5 6 
#
# 1 87.8627 38.2525 25.5846 0.0000 -20.0670 0.0000
# 2 38.2525 91.2350 32.6317 0.0000 -17.4400 0.0000
# 3 25.5846 32.6317 43.2065 0.0000 -18.0167 0.0000
# 4 0.0000 0.0000 0.0000 24.0283 0.0000 3.9075
# 5 -20.0670 -17.4400 -18.0167 0.0000 29.6490 0.0000
# 6 0.0000 0.0000 0.0000 3.9075 0.0000 -3.4010
#
#
#
# Elastic Compliance Matrix: (Units=1/GPa)
#
#
# Indices 1 2 3 4 5 6 
#
# 1 0.015581 -0.004089 -0.003675 0.000000 0.005907 0.000000
# 2 -0.004089 0.016242 -0.009396 0.000000 0.001076 0.000000
# 3 -0.003675 -0.009396 0.038943 0.000000 0.015650 0.000000
# 4 0.000000 0.000000 0.000000 0.035066 0.000000 0.040288
# 5 0.005907 0.001076 0.015650 0.000000 0.047869 0.000000
# 6 0.000000 0.000000 0.000000 0.040288 0.000000 -0.247740
#
#
# Mechanical properties :
#
#
# Convention : Reuss Voigt Hill
#
# Bulk Modulus (GPa) = 27.43827 46.13799 36.78813
# Shear Modulus (GPa) = -105.10835 18.44426 -43.33205
#
# Velocity S-wave (km/s) = -7.75164 3.24717 -4.97713
# Velocity P-wave (km/s) = 8.02691 6.35884 3.46385
#
# Compressibility (1/GPa) = 0.03644545
#
# Stress axis : x y z
#
# Youngs Moduli (GPa) = 64.18143 61.56990 25.67839
#
# Poissons Ratio (x) = 0.25177 0.09436
# Poissons Ratio (y) = 0.26245 0.24129
# Poissons Ratio (z) = 0.23584 0.57854
#
# Static dielectric constant tensor:
#      x y z
#    x 1.627600 0.000000 -0.051570 
#    y 0.000000 1.565070 0.000000 
#    z -0.051570 0.000000 1.671770 
# 
# From -- ./inp_files/36432.got.cif
#   From: 2010.05.17/outbox.cif.g08.bks.cpg/sg10_19_cif.got.tgz:36432.got - 2010.06.03 11:33:40.
