data_PCOD9146165
_publ_section_title
;
Structure prediction by ZEFSAII (Michael W. Deem and Ramdas Pophale) SiO2 
 PCOD9146165
Probable space group: P 2/M
;
_chemical_formula_sum "Si O2"
_cell_formula_units_Z 32
_cell_length_a 14.431600
_cell_length_b 19.210584
_cell_length_c 8.565176
_cell_angle_alpha 90.000000
_cell_angle_beta 139.363504
_cell_angle_gamma 90.000000
_cell_volume 1546.479716
_symmetry_space_group_name_H-M "P 2/M"
_symmetry_group_IT_number 10
_symmetry_cell_setting 'monoclinic'
loop_
_space_group_symop_operation_xyz
x,y,z
-x,y,-z
-x,-y,-z
x,-y,z
loop_
_atom_site_type_symbol
_atom_site_label
_atom_site_fract_x
_atom_site_fract_y
_atom_site_fract_z
Si Si1 0.324379 0.785028 0.944228
Si Si2 0.379518 0.376789 0.459167
Si Si3 0.838289 0.079460 0.350810
Si Si4 0.841151 0.419212 0.078686
Si Si5 0.588274 0.577137 0.977399
Si Si6 0.940542 0.274390 0.248809
Si Si7 0.654713 0.755211 0.392787
Si Si8 0.898286 0.153613 0.736990
O O1 0.266958 0.864096 0.859477
O O2 0.224940 0.746305 0.941731
O O3 0.306556 0.756810 0.742593
O O4 0.489133 0.774700 0.192274
O O5 0.500000 0.344166 0.500000
O O6 0.260680 0.413350 0.203013
O O7 0.476282 0.425056 0.692633
O O8 0.316653 0.318210 0.490342
O O9 0.851731 0.097485 0.550260
O O10 0.000000 0.090352 0.500000
O O11 0.796623 0.000000 0.268545
O O12 0.889452 0.500000 0.156037
O O13 0.737399 0.400507 0.093515
O O14 0.950978 0.355169 0.210953
O O15 0.620970 0.500000 0.080083
O O16 0.500000 0.616304 0.000000
O O17 0.000000 0.266900 0.500000
O O18 0.016285 0.217938 0.236153
O O19 0.752731 0.810953 0.605818
O O20 0.000000 0.125233 0.000000
#
# Coordination Sequence:
#
# PCOD9146165 Si02
#       8
#     4   4   4   4   4   4   4   4
#     4  10  19  37  59  94 119 144 203 258 290 344
#     4  10  19  33  52  78 110 154 190 238 305 368
#     4  10  19  38  66  92 121 166 205 237 291 356
#     4  10  22  36  52  77 111 155 201 248 308 368
#     4   9  18  30  48  75 105 138 184 241 297 355
#     4  12  21  39  62  81 114 157 202 251 305 363
#     4  10  21  33  58  88 118 148 196 251 297 340
#     4  11  22  39  59  92 125 159 197 243 296 362
#
# _framework density 20.692156000000001
#
# number of rings (size 3 to 8) (size 9 to 14) (size 15 to 20)
#    0.000    1.750    3.750    2.625    3.500    2.000 
#    0.000    5.000    0.000    4.125    0.000    1.750 
#    0.000    0.000    0.000    0.000    0.000    0.000 
#
# Total GULP energy -178500.416810 kJ/mol
# GULP energy per Si atom -5578.138025 kJ/mol
# Density = 2.064506 g / cm^3
# Si number density = 20.692156 Si / 1000 Ang^3
#
#
#
# Elastic Constant Matrix: (Units=GPa)
#
#
# Indices 1 2 3 4 5 6 
#
# 1 44.3533 19.6034 2.8893 0.0000 10.2008 0.0000
# 2 19.6034 106.5357 -11.4590 0.0000 -0.9041 0.0000
# 3 2.8893 -11.4590 38.7134 0.0000 1.9746 0.0000
# 4 0.0000 0.0000 0.0000 20.8562 0.0000 -1.5322
# 5 10.2008 -0.9041 1.9746 0.0000 21.7287 0.0000
# 6 0.0000 0.0000 0.0000 -1.5322 0.0000 4.7502
#
#
#
# Elastic Compliance Matrix: (Units=1/GPa)
#
#
# Indices 1 2 3 4 5 6 
#
# 1 0.028291 -0.005652 -0.003110 0.000000 -0.013234 0.000000
# 2 -0.005652 0.010825 0.003484 0.000000 0.002787 0.000000
# 3 -0.003110 0.003484 0.027138 0.000000 -0.000861 0.000000
# 4 0.000000 0.000000 0.000000 0.049111 0.000000 0.015840
# 5 -0.013234 0.002787 -0.000861 0.000000 0.052429 0.000000
# 6 0.000000 0.000000 0.000000 0.015840 0.000000 0.215625
#
#
# Mechanical properties :
#
#
# Convention : Reuss Voigt Hill
#
# Bulk Modulus (GPa) = 17.95414 23.51887 20.73650
# Shear Modulus (GPa) = 12.11999 21.37162 16.74580
#
# Velocity S-wave (km/s) = 2.42281 3.21726 2.84788
# Velocity P-wave (km/s) = 4.06476 5.01914 4.56695
#
# Compressibility (1/GPa) = 0.05569747
#
# Stress axis : x y z
#
# Youngs Moduli (GPa) = 35.34723 92.37878 36.84863
#
# Poissons Ratio (x) = 0.52217 0.11458
# Poissons Ratio (y) = 0.19980 -0.12838
# Poissons Ratio (z) = 0.10991 -0.32183
#
# Static dielectric constant tensor:
#      x y z
#    x 1.797460 0.000000 -0.005660 
#    y 0.000000 1.749120 0.000000 
#    z -0.005660 0.000000 1.748490 
# 
# From -- ./inp_files/30306.got.cif
#   From: 2010.05.17/outbox.cif.g08.bks.cpg/sg10_16_cif.got.tgz:30306.got - 2010.06.03 11:33:40.
