data_PCOD9146486
_publ_section_title
;
Structure prediction by ZEFSAII (Michael W. Deem and Ramdas Pophale) SiO2 
 PCOD9146486
Probable space group: P 2/M
;
_chemical_formula_sum "Si O2"
_cell_formula_units_Z 32
_cell_length_a 12.443261
_cell_length_b 9.031906
_cell_length_c 20.916926
_cell_angle_alpha 90.000000
_cell_angle_beta 127.606070
_cell_angle_gamma 90.000000
_cell_volume 1862.344507
_symmetry_space_group_name_H-M "P 2/M"
_symmetry_group_IT_number 10
_symmetry_cell_setting 'monoclinic'
loop_
_space_group_symop_operation_xyz
x,y,z
-x,y,-z
-x,-y,-z
x,-y,z
loop_
_atom_site_type_symbol
_atom_site_label
_atom_site_fract_x
_atom_site_fract_y
_atom_site_fract_z
Si Si1 0.578531 0.822364 0.212698
Si Si2 0.443043 0.822021 0.299306
Si Si3 0.595270 0.676921 0.473441
Si Si4 0.137602 0.676060 0.879517
Si Si5 0.404412 0.822080 0.025164
Si Si6 0.863416 0.823754 0.621557
Si Si7 0.852012 0.323210 0.267969
Si Si8 0.144345 0.823968 0.229233
O O1 0.507502 0.788662 0.254084
O O2 0.480637 0.781499 0.118128
O O3 0.721146 0.740928 0.255678
O O4 0.600796 0.000000 0.217169
O O5 0.524527 0.742104 0.385062
O O6 0.284409 0.780502 0.246344
O O7 0.449963 0.000000 0.312058
O O8 0.500000 0.711335 0.500000
O O9 0.608296 0.500000 0.473671
O O10 0.740894 0.750299 0.538759
O O11 0.138835 0.500000 0.886778
O O12 0.161755 0.711891 0.812951
O O13 0.989665 0.739838 0.842049
O O14 0.258815 0.748113 0.963240
O O15 0.388473 0.000000 0.017817
O O16 0.500000 0.779505 0.000000
O O17 0.839224 0.795987 0.688669
O O18 0.008747 0.752375 0.658853
O O19 0.866167 0.000000 0.612757
O O20 0.860828 0.500000 0.277746
O O21 0.123455 0.000000 0.213589
#
# Coordination Sequence:
#
# PCOD9146486 Si02
#       8
#     4   4   4   4   4   4   4   4
#     4  10  21  37  57  81 110 145 185 226 272 326
#     4  10  21  38  58  81 110 145 185 226 269 324
#     4  11  22  35  55  84 115 144 179 223 271 324
#     4  10  20  32  52  81 110 141 179 226 272 320
#     4  10  19  33  55  81 108 141 183 229 272 318
#     4  10  19  33  57  83 108 140 183 229 269 315
#     4  10  20  34  53  80 114 145 178 223 277 328
#     4   9  18  33  54  79 107 141 179 222 271 319
#
# _framework density 17.182641
#
# number of rings (size 3 to 8) (size 9 to 14) (size 15 to 20)
#    0.000    2.000    2.500    1.500    0.000    3.750 
#    0.000    1.250    0.000    7.500    0.000    0.000 
#    0.000    0.000    0.000    0.000    0.000    0.000 
#
# Total GULP energy -178656.442730 kJ/mol
# GULP energy per Si atom -5583.013835 kJ/mol
# Density = 1.714353 g / cm^3
# Si number density = 17.182641 Si / 1000 Ang^3
#
#
#
# Elastic Constant Matrix: (Units=GPa)
#
#
# Indices 1 2 3 4 5 6 
#
# 1 147.0560 63.4440 87.3544 0.0000 23.9248 0.0000
# 2 63.4440 42.1369 56.8775 0.0000 9.6788 0.0000
# 3 87.3544 56.8775 126.7059 0.0000 21.3155 0.0000
# 4 0.0000 0.0000 0.0000 4.1195 0.0000 -9.5805
# 5 23.9248 9.6788 21.3155 0.0000 33.7021 0.0000
# 6 0.0000 0.0000 0.0000 -9.5805 0.0000 10.7102
#
#
#
# Elastic Compliance Matrix: (Units=1/GPa)
#
#
# Indices 1 2 3 4 5 6 
#
# 1 0.020517 -0.029898 0.000316 0.000000 -0.006178 0.000000
# 2 -0.029898 0.103794 -0.027457 0.000000 0.008782 0.000000
# 3 0.000316 -0.027457 0.020939 0.000000 -0.005582 0.000000
# 4 0.000000 0.000000 0.000000 -0.224698 0.000000 -0.200996
# 5 -0.006178 0.008782 -0.005582 0.000000 0.035066 0.000000
# 6 0.000000 0.000000 0.000000 -0.200996 0.000000 -0.086427
#
#
# Mechanical properties :
#
#
# Convention : Reuss Voigt Hill
#
# Bulk Modulus (GPa) = 32.08187 81.25008 56.66598
# Shear Modulus (GPa) = -788.74911 16.92123 -385.91394
#
# Velocity S-wave (km/s) = -21.44842 3.14153 -15.00276
# Velocity P-wave (km/s) = 24.38582 7.78125 16.34198
#
# Compressibility (1/GPa) = 0.03117025
#
# Stress axis : x y z
#
# Youngs Moduli (GPa) = 48.74120 9.63446 47.75745
#
# Poissons Ratio (x) = 0.28805 -0.01508
# Poissons Ratio (y) = 1.45727 1.31129
# Poissons Ratio (z) = -0.01539 0.26454
#
# Static dielectric constant tensor:
#      x y z
#    x 1.569010 0.000000 -0.002950 
#    y 0.000000 1.568820 0.000000 
#    z -0.002950 0.000000 1.555600 
# 
# From -- ./inp_files/49777.got.cif
#   From: 2010.05.17/outbox.cif.g08.bks.cpg/sg10_25_cif.got.tgz:49777.got - 2010.06.03 11:33:40.
