data_PCOD9146881
_publ_section_title
;
Structure prediction by ZEFSAII (Michael W. Deem and Ramdas Pophale) SiO2 
 PCOD9146881
Probable space group: P 2/M
;
_chemical_formula_sum "Si O2"
_cell_formula_units_Z 24
_cell_length_a 29.599562
_cell_length_b 11.480971
_cell_length_c 12.803567
_cell_angle_alpha 90.000000
_cell_angle_beta 19.747529
_cell_angle_gamma 90.000000
_cell_volume 1470.118663
_symmetry_space_group_name_H-M "P 2/M"
_symmetry_group_IT_number 10
_symmetry_cell_setting 'monoclinic'
loop_
_space_group_symop_operation_xyz
x,y,z
-x,y,-z
-x,-y,-z
x,-y,z
loop_
_atom_site_type_symbol
_atom_site_label
_atom_site_fract_x
_atom_site_fract_y
_atom_site_fract_z
Si Si1 0.843732 0.753528 0.861780
Si Si2 0.287108 0.000000 0.906223
Si Si3 0.300030 0.359406 0.636128
Si Si4 0.342570 0.367310 0.311454
Si Si5 0.358587 0.638326 0.855309
Si Si6 0.595548 0.250593 0.028792
Si Si7 0.577295 0.000000 0.165855
O O1 0.000000 0.745891 0.500000
O O2 0.791740 0.884822 0.956854
O O3 0.803826 0.702739 0.061574
O O4 0.758765 0.677038 0.965147
O O5 0.430346 0.000000 0.537181
O O6 0.320210 0.000000 0.958602
O O7 0.305701 0.500000 0.639925
O O8 0.271600 0.338654 0.575217
O O9 0.445830 0.305003 0.344951
O O10 0.309086 0.500000 0.353010
O O11 0.500000 0.367604 0.000000
O O12 0.330120 0.282788 0.240293
O O13 0.500000 0.684034 0.500000
O O14 0.367598 0.500000 0.840714
O O15 0.340593 0.688504 0.009470
O O16 0.590868 0.115009 0.066424
#
# Coordination Sequence:
#
# PCOD9146881 Si02
#       7
#     4   2   4   4   4   4   2
#     4  12  24  37  55  80 112 149 184 224 270 327
#     4  11  21  40  51  77 110 151 181 217 276 330
#     4  10  19  34  54  79 115 147 174 219 275 326
#     4   8  16  30  51  78 110 144 173 214 274 329
#     4  11  20  32  54  82 111 140 175 227 279 321
#     4  11  18  32  53  83 107 140 183 222 271 320
#     4  11  20  32  60  80 109 139 180 237 271 307
#
# _framework density 16.325212000000001
#
# number of rings (size 3 to 8) (size 9 to 14) (size 15 to 20)
#    0.000    1.500    5.000    3.250    0.000    1.333 
#    0.000    4.583    0.000    1.000    0.000    4.667 
#    0.000    0.000    0.000    0.000    0.000    0.000 
#
# Total GULP energy -133899.226366 kJ/mol
# GULP energy per Si atom -5579.134432 kJ/mol
# Density = 1.628806 g / cm^3
# Si number density = 16.325212 Si / 1000 Ang^3
#
#
#
# Elastic Constant Matrix: (Units=GPa)
#
#
# Indices 1 2 3 4 5 6 
#
# 1 118.7172 65.5101 55.8299 0.0000 32.5798 0.0000
# 2 65.5101 116.5905 41.2207 0.0000 21.5439 0.0000
# 3 55.8299 41.2207 86.8242 0.0000 11.9294 0.0000
# 4 0.0000 0.0000 0.0000 25.4139 0.0000 46.8383
# 5 32.5798 21.5439 11.9294 0.0000 25.7686 0.0000
# 6 0.0000 0.0000 0.0000 46.8383 0.0000 70.5852
#
#
#
# Elastic Compliance Matrix: (Units=1/GPa)
#
#
# Indices 1 2 3 4 5 6 
#
# 1 0.019532 -0.005102 -0.007828 0.000000 -0.016805 0.000000
# 2 -0.005102 0.012884 -0.002395 0.000000 -0.003213 0.000000
# 3 -0.007828 -0.002395 0.017144 0.000000 0.003963 0.000000
# 4 0.000000 0.000000 0.000000 -0.176471 0.000000 0.117101
# 5 -0.016805 -0.003213 0.003963 0.000000 0.060906 0.000000
# 6 0.000000 0.000000 0.000000 0.117101 0.000000 -0.063537
#
#
# Mechanical properties :
#
#
# Convention : Reuss Voigt Hill
#
# Bulk Modulus (GPa) = 52.88241 71.91702 62.39971
# Shear Modulus (GPa) = -54.00166 34.99163 -9.50502
#
# Velocity S-wave (km/s) = -5.75765 4.63472 -2.41556
# Velocity P-wave (km/s) = 3.42597 8.53166 5.52503
#
# Compressibility (1/GPa) = 0.01890988
#
# Stress axis : x y z
#
# Youngs Moduli (GPa) = 51.19806 77.61623 58.32989
#
# Poissons Ratio (x) = 0.39596 0.45663
# Poissons Ratio (y) = 0.26119 0.13969
# Poissons Ratio (z) = 0.40080 0.18588
#
# Static dielectric constant tensor:
#      x y z
#    x 1.557510 0.000000 0.022890 
#    y 0.000000 1.552580 0.000000 
#    z 0.022890 0.000000 1.534480 
# 
# From -- ./inp_files/57723.got.cif
#   From: 2010.05.17/outbox.cif.g08.bks.cpg/sg10_29_cif.got.tgz:57723.got - 2010.06.03 11:33:40.
