data_PCOD9146342
_publ_section_title
;
Structure prediction by ZEFSAII (Michael W. Deem and Ramdas Pophale) SiO2 
 PCOD9146342
Probable space group: P 2/M
;
_chemical_formula_sum "Si O2"
_cell_formula_units_Z 32
_cell_length_a 23.079039
_cell_length_b 7.448134
_cell_length_c 14.982152
_cell_angle_alpha 90.000000
_cell_angle_beta 31.162669
_cell_angle_gamma 90.000000
_cell_volume 1332.674944
_symmetry_space_group_name_H-M "P 2/M"
_symmetry_group_IT_number 10
_symmetry_cell_setting 'monoclinic'
loop_
_space_group_symop_operation_xyz
x,y,z
-x,y,-z
-x,-y,-z
x,-y,z
loop_
_atom_site_type_symbol
_atom_site_label
_atom_site_fract_x
_atom_site_fract_y
_atom_site_fract_z
Si Si1 0.705738 0.294572 0.384857
Si Si2 0.865349 0.209853 0.017933
Si Si3 0.470822 0.203627 0.633041
Si Si4 0.326374 0.219067 0.981480
Si Si5 0.603501 0.780347 0.922850
Si Si6 0.089588 0.219558 0.244606
Si Si7 0.885305 0.715881 0.291495
Si Si8 0.152828 0.793180 0.452227
O O1 0.680552 0.500000 0.441631
O O2 0.770611 0.291805 0.204883
O O3 0.587764 0.198083 0.531659
O O4 0.792779 0.221079 0.343021
O O5 0.839521 0.000000 0.046163
O O6 0.879995 0.275751 0.897120
O O7 0.987672 0.234280 0.900520
O O8 0.500000 0.291295 0.500000
O O9 0.378772 0.284175 0.819752
O O10 0.432104 0.000000 0.663758
O O11 0.328362 0.000000 0.975642
O O12 0.400093 0.272018 0.968817
O O13 0.196400 0.271503 0.162401
O O14 0.725412 0.716972 0.729046
O O15 0.602544 0.000000 0.919582
O O16 0.500000 0.717652 0.000000
O O17 0.964194 0.283587 0.430928
O O18 0.083931 0.000000 0.252124
O O19 0.880571 0.500000 0.301258
O O20 0.862512 0.788996 0.420488
O O21 0.156973 0.000000 0.415270
#
# Coordination Sequence:
#
# PCOD9146342 Si02
#       8
#     4   4   4   4   4   4   4   4
#     4  11  23  35  50  74 107 146 183 224 274 332
#     4  10  19  33  54  80 108 140 181 228 273 323
#     4  10  21  36  55  79 104 140 188 233 277 326
#     4   9  17  30  50  76 107 141 175 224 282 323
#     4   9  18  30  47  77 112 141 175 224 277 327
#     4   8  15  29  49  75 104 133 171 218 269 324
#     4  10  21  35  51  75 109 144 181 223 272 331
#     4   9  18  32  53  79 106 137 178 225 270 325
#
# _framework density 24.011856999999999
#
# number of rings (size 3 to 8) (size 9 to 14) (size 15 to 20)
#    0.000    2.500    0.000    3.000    1.750    6.250 
#    0.000    2.500    0.000    1.875    0.000    3.500 
#    0.000    0.000    0.000    0.000    0.000    0.000 
#
# Total GULP energy -178826.824876 kJ/mol
# GULP energy per Si atom -5588.338277 kJ/mol
# Density = 2.395720 g / cm^3
# Si number density = 24.011857 Si / 1000 Ang^3
#
#
#
# Elastic Constant Matrix: (Units=GPa)
#
#
# Indices 1 2 3 4 5 6 
#
# 1 140.7388 0.4361 55.5811 0.0000 -31.1900 0.0000
# 2 0.4361 77.8152 -1.3884 0.0000 -3.2136 0.0000
# 3 55.5811 -1.3884 141.8338 0.0000 -19.5753 0.0000
# 4 0.0000 0.0000 0.0000 -141.7635 0.0000 35.7254
# 5 -31.1900 -3.2136 -19.5753 0.0000 36.8850 0.0000
# 6 0.0000 0.0000 0.0000 35.7254 0.0000 13.6545
#
#
#
# Elastic Compliance Matrix: (Units=1/GPa)
#
#
# Indices 1 2 3 4 5 6 
#
# 1 0.009732 0.000171 -0.002886 0.000000 0.006713 0.000000
# 2 0.000171 0.012913 0.000253 0.000000 0.001404 0.000000
# 3 -0.002886 0.000253 0.008470 0.000000 0.002077 0.000000
# 4 0.000000 0.000000 0.000000 -0.004251 0.000000 0.011122
# 5 0.006713 0.001404 0.002077 0.000000 0.034013 0.000000
# 6 0.000000 0.000000 0.000000 0.011122 0.000000 0.044135
#
#
# Mechanical properties :
#
#
# Convention : Reuss Voigt Hill
#
# Bulk Modulus (GPa) = 38.17883 52.18283 45.18083
# Shear Modulus (GPa) = 42.13524 2.13913 22.13719
#
# Velocity S-wave (km/s) = 4.19354 0.94488 3.03962
# Velocity P-wave (km/s) = 6.27552 4.79267 5.58354
#
# Compressibility (1/GPa) = 0.02619253
#
# Stress axis : x y z
#
# Youngs Moduli (GPa) = 102.75238 77.44429 118.05694
#
# Poissons Ratio (x) = -0.01326 0.34067
# Poissons Ratio (y) = -0.01759 -0.02988
# Poissons Ratio (z) = 0.29650 -0.01960
#
# Static dielectric constant tensor:
#      x y z
#    x 1.917700 0.000000 0.005360 
#    y 0.000000 1.894060 0.000000 
#    z 0.005360 0.000000 1.887320 
# 
# From -- ./inp_files/71440.got.cif
#   From: 2010.05.17/outbox.cif.g08.bks.cpg/sg10_36_cif.got.tgz:71440.got - 2010.06.03 11:33:40.
