data_PCOD9146383
_publ_section_title
;
Structure prediction by ZEFSAII (Michael W. Deem and Ramdas Pophale) SiO2 
 PCOD9146383
Probable space group: P 2/M
;
_chemical_formula_sum "Si O2"
_cell_formula_units_Z 32
_cell_length_a 30.827588
_cell_length_b 9.062176
_cell_length_c 10.889332
_cell_angle_alpha 90.000000
_cell_angle_beta 152.320195
_cell_angle_gamma 90.000000
_cell_volume 1413.145861
_symmetry_space_group_name_H-M "P 2/M"
_symmetry_group_IT_number 10
_symmetry_cell_setting 'monoclinic'
loop_
_space_group_symop_operation_xyz
x,y,z
-x,y,-z
-x,-y,-z
x,-y,z
loop_
_atom_site_type_symbol
_atom_site_label
_atom_site_fract_x
_atom_site_fract_y
_atom_site_fract_z
Si Si1 0.315399 0.669789 0.979764
Si Si2 0.359694 0.325731 0.465612
Si Si3 0.040182 0.176775 0.918854
Si Si4 0.202523 0.329417 0.439564
Si Si5 0.370201 0.170359 0.736937
Si Si6 0.147282 0.826048 0.670679
Si Si7 0.160388 0.827167 0.976530
Si Si8 0.483190 0.828878 0.276505
O O1 0.335383 0.500000 0.059543
O O2 0.252853 0.673991 0.697574
O O3 0.244508 0.743365 0.896809
O O4 0.410876 0.755734 0.190049
O O5 0.364206 0.500000 0.468327
O O6 0.400068 0.269895 0.697793
O O7 0.253949 0.268369 0.205512
O O8 0.420737 0.254819 0.509769
O O9 0.934079 0.222808 0.625800
O O10 0.042046 0.000000 0.947301
O O11 0.099123 0.263386 0.168311
O O12 0.094631 0.204919 0.926697
O O13 0.204000 0.500000 0.401158
O O14 0.267599 0.225408 0.518769
O O15 0.370692 0.000000 0.698060
O O16 0.429727 0.179814 0.010562
O O17 0.163305 0.000000 0.688840
O O18 0.113134 0.809004 0.724930
O O19 0.187427 0.000000 0.053583
O O20 0.499135 0.000000 0.345184
#
# Coordination Sequence:
#
# PCOD9146383 Si02
#       8
#     4   4   4   4   4   4   4   4
#     4  10  22  40  59  83 119 157 193 238 290 342
#     4  12  23  34  54  86 121 153 188 232 287 348
#     4  10  20  36  61  89 117 149 190 241 294 345
#     4  10  20  34  55  85 120 155 189 232 290 347
#     4  10  19  33  54  82 116 153 191 232 283 340
#     4  10  22  40  62  86 111 151 201 244 288 342
#     4  10  21  39  61  85 117 152 193 243 291 339
#     4  10  21  37  59  84 113 152 196 238 282 338
#
# _framework density 22.644513
#
# number of rings (size 3 to 8) (size 9 to 14) (size 15 to 20)
#    0.000    1.750    1.250    3.375    0.000    7.500 
#    0.000    3.125    0.000    6.000    0.000    0.000 
#    0.000    0.000    0.000    0.000    0.000    0.000 
#
# Total GULP energy -179026.805338 kJ/mol
# GULP energy per Si atom -5594.587667 kJ/mol
# Density = 2.259297 g / cm^3
# Si number density = 22.644513 Si / 1000 Ang^3
#
#
#
# Elastic Constant Matrix: (Units=GPa)
#
#
# Indices 1 2 3 4 5 6 
#
# 1 91.2185 33.5792 16.2803 0.0000 10.5460 0.0000
# 2 33.5792 115.2936 42.5272 0.0000 17.5857 0.0000
# 3 16.2803 42.5272 98.2045 0.0000 12.1052 0.0000
# 4 0.0000 0.0000 0.0000 8.4974 0.0000 2.0052
# 5 10.5460 17.5857 12.1052 0.0000 36.4481 0.0000
# 6 0.0000 0.0000 0.0000 2.0052 0.0000 123.4613
#
#
#
# Elastic Compliance Matrix: (Units=1/GPa)
#
#
# Indices 1 2 3 4 5 6 
#
# 1 0.012429 -0.003159 -0.000456 0.000000 -0.001921 0.000000
# 2 -0.003159 0.011611 -0.004094 0.000000 -0.003329 0.000000
# 3 -0.000456 -0.004094 0.012274 0.000000 -0.001969 0.000000
# 4 0.000000 0.000000 0.000000 0.118136 0.000000 -0.001919
# 5 -0.001921 -0.003329 -0.001969 0.000000 0.030252 0.000000
# 6 0.000000 0.000000 0.000000 -0.001919 0.000000 0.008131
#
#
# Mechanical properties :
#
#
# Convention : Reuss Voigt Hill
#
# Bulk Modulus (GPa) = 47.85456 54.38779 51.12118
# Shear Modulus (GPa) = 23.23239 47.83669 35.53454
#
# Velocity S-wave (km/s) = 3.20654 4.60119 3.96565
# Velocity P-wave (km/s) = 5.90661 7.23174 6.60251
#
# Compressibility (1/GPa) = 0.02089665
#
# Stress axis : x y z
#
# Youngs Moduli (GPa) = 80.45750 86.12186 81.47192
#
# Poissons Ratio (x) = 0.27204 0.03713
# Poissons Ratio (y) = 0.25415 0.33357
# Poissons Ratio (z) = 0.03667 0.35261
#
# Static dielectric constant tensor:
#      x y z
#    x 1.862590 0.000000 -0.042250 
#    y 0.000000 1.761940 0.000000 
#    z -0.042250 0.000000 1.862180 
# 
# From -- ./inp_files/58348.got.cif
#   From: 2010.05.17/outbox.cif.g08.bks.cpg/sg10_30_cif.got.tgz:58348.got - 2010.06.03 11:33:40.
