data_PCOD9146045
_publ_section_title
;
Structure prediction by ZEFSAII (Michael W. Deem and Ramdas Pophale) SiO2 
 PCOD9146045
Probable space group: P 2/M
;
_chemical_formula_sum "Si O2"
_cell_formula_units_Z 26
_cell_length_a 9.941802
_cell_length_b 13.388628
_cell_length_c 12.470871
_cell_angle_alpha 90.000000
_cell_angle_beta 123.034243
_cell_angle_gamma 90.000000
_cell_volume 1391.620138
_symmetry_space_group_name_H-M "P 2/M"
_symmetry_group_IT_number 10
_symmetry_cell_setting 'monoclinic'
loop_
_space_group_symop_operation_xyz
x,y,z
-x,y,-z
-x,-y,-z
x,-y,z
loop_
_atom_site_type_symbol
_atom_site_label
_atom_site_fract_x
_atom_site_fract_y
_atom_site_fract_z
Si Si1 0.160901 0.114874 0.141922
Si Si2 0.221414 0.616356 0.890299
Si Si3 0.971098 0.803220 0.250060
Si Si4 0.000000 0.743527 0.500000
Si Si5 0.418573 0.731881 0.160629
Si Si6 0.310069 0.387373 0.679344
Si Si7 0.635300 0.891600 0.148941
O O1 0.287458 0.195688 0.155169
O O2 0.103516 0.144424 0.235659
O O3 0.219128 0.000000 0.160380
O O4 0.000000 0.121747 0.000000
O O5 0.189305 0.500000 0.905725
O O6 0.068280 0.690052 0.807589
O O7 0.301118 0.613618 0.806563
O O8 0.335038 0.671656 0.026288
O O9 0.801653 0.860982 0.166734
O O10 0.006681 0.803009 0.391748
O O11 0.160204 0.677005 0.575042
O O12 0.514103 0.652749 0.274480
O O13 0.566153 0.804773 0.192313
O O14 0.287411 0.500000 0.633348
O O15 0.652040 0.000000 0.208998
O O16 0.500000 0.898565 0.000000
#
# Coordination Sequence:
#
# PCOD9146045 Si02
#       7
#     4   4   4   2   4   4   4
#     4  11  23  39  61  88 123 161 191 236 305 369
#     4  10  19  32  56  89 121 153 190 244 303 349
#     4  11  21  40  58  87 119 157 199 247 291 351
#     4  10  21  38  65  84 118 158 207 250 287 332
#     4  12  19  35  56  90 122 151 190 246 304 355
#     4  10  20  35  60  89 119 158 204 247 293 348
#     4  11  19  32  57  84 111 145 195 249 295 344
#
# _framework density 18.683259
#
# number of rings (size 3 to 8) (size 9 to 14) (size 15 to 20)
#    0.000    1.231    6.154    2.077    0.000    4.308 
#    0.000    4.615    0.000    1.846    0.000    0.000 
#    0.000    0.000    0.000    0.000    0.000    0.000 
#
# Total GULP energy -144989.091711 kJ/mol
# GULP energy per Si atom -5576.503527 kJ/mol
# Density = 1.864074 g / cm^3
# Si number density = 18.683259 Si / 1000 Ang^3
#
#
#
# Elastic Constant Matrix: (Units=GPa)
#
#
# Indices 1 2 3 4 5 6 
#
# 1 46.1330 17.0051 9.2638 0.0000 10.8390 0.0000
# 2 17.0051 81.4195 24.0738 0.0000 -2.7822 0.0000
# 3 9.2638 24.0738 67.8336 0.0000 9.6449 0.0000
# 4 0.0000 0.0000 0.0000 28.8137 0.0000 6.1464
# 5 10.8390 -2.7822 9.6449 0.0000 17.2590 0.0000
# 6 0.0000 0.0000 0.0000 6.1464 0.0000 24.3897
#
#
#
# Elastic Compliance Matrix: (Units=1/GPa)
#
#
# Indices 1 2 3 4 5 6 
#
# 1 0.028698 -0.007102 0.001441 0.000000 -0.019973 0.000000
# 2 -0.007102 0.015952 -0.006182 0.000000 0.010487 0.000000
# 3 0.001441 -0.006182 0.018478 0.000000 -0.012228 0.000000
# 4 0.000000 0.000000 0.000000 0.036677 0.000000 -0.009243
# 5 -0.019973 0.010487 -0.012228 0.000000 0.079008 0.000000
# 6 0.000000 0.000000 0.000000 -0.009243 0.000000 0.043330
#
#
# Mechanical properties :
#
#
# Convention : Reuss Voigt Hill
#
# Bulk Modulus (GPa) = 25.35467 32.89685 29.12576
# Shear Modulus (GPa) = 19.30675 23.76205 21.53440
#
# Velocity S-wave (km/s) = 3.21810 3.57015 3.39869
# Velocity P-wave (km/s) = 5.23531 5.88562 5.56996
#
# Compressibility (1/GPa) = 0.03944047
#
# Stress axis : x y z
#
# Youngs Moduli (GPa) = 34.84593 62.68887 54.11905
#
# Poissons Ratio (x) = 0.44524 -0.07800
# Poissons Ratio (y) = 0.24749 0.33458
# Poissons Ratio (z) = -0.05022 0.38756
#
# Static dielectric constant tensor:
#      x y z
#    x 1.645230 0.000000 -0.004000 
#    y 0.000000 1.749950 0.000000 
#    z -0.004000 0.000000 1.646080 
# 
# From -- ./inp_files/42793.got.cif
#   From: 2010.05.17/outbox.cif.g08.bks.cpg/sg10_22_cif.got.tgz:42793.got - 2010.06.03 11:33:40.
