data_PCOD9146002
_publ_section_title
;
Structure prediction by ZEFSAII (Michael W. Deem and Ramdas Pophale) SiO2 
 PCOD9146002
Probable space group: P 2/M
;
_chemical_formula_sum "Si O2"
_cell_formula_units_Z 28
_cell_length_a 19.519622
_cell_length_b 8.843984
_cell_length_c 13.939511
_cell_angle_alpha 90.000000
_cell_angle_beta 39.718683
_cell_angle_gamma 90.000000
_cell_volume 1537.731238
_symmetry_space_group_name_H-M "P 2/M"
_symmetry_group_IT_number 10
_symmetry_cell_setting 'monoclinic'
loop_
_space_group_symop_operation_xyz
x,y,z
-x,y,-z
-x,-y,-z
x,-y,z
loop_
_atom_site_type_symbol
_atom_site_label
_atom_site_fract_x
_atom_site_fract_y
_atom_site_fract_z
Si Si1 0.247692 0.680910 0.616041
Si Si2 0.887222 0.181938 0.075356
Si Si3 0.109739 0.817515 0.150698
Si Si4 0.884306 0.319090 0.433778
Si Si5 0.553476 0.681086 0.722271
Si Si6 0.312381 0.818628 0.249022
Si Si7 0.335242 0.818315 0.003043
O O1 0.245629 0.500000 0.629285
O O2 0.207344 0.756212 0.756383
O O3 0.165846 0.719706 0.617096
O O4 0.365028 0.725573 0.450897
O O5 0.881979 0.227369 0.970074
O O6 0.885141 0.000000 0.081013
O O7 0.000000 0.233565 0.000000
O O8 0.097168 0.000000 0.168666
O O9 0.219456 0.776703 0.085835
O O10 0.004539 0.741637 0.308320
O O11 0.880205 0.500000 0.448481
O O12 0.804658 0.242550 0.595567
O O13 0.554838 0.500000 0.727270
O O14 0.605264 0.748355 0.763540
O O15 0.433797 0.741866 0.842465
O O16 0.339853 0.777274 0.110467
O O17 0.314634 0.000000 0.254853
O O18 0.346063 0.000000 0.984180
#
# Coordination Sequence:
#
# PCOD9146002 Si02
#       7
#     4   4   4   4   4   4   4
#     4   9  19  34  53  79 108 137 172 217 268 318
#     4  10  19  32  55  84 106 134 178 220 264 314
#     4  10  21  37  54  77 112 144 178 222 268 321
#     4  10  20  34  53  81 111 141 179 220 270 321
#     4  10  21  37  57  82 109 139 179 225 268 313
#     4  10  20  35  57  81 106 140 183 223 265 317
#     4  10  22  38  55  77 107 147 184 218 266 321
#
# _framework density 18.208642999999999
#
# number of rings (size 3 to 8) (size 9 to 14) (size 15 to 20)
#    0.000    2.143    1.429    2.571    0.000    7.714 
#    0.000    3.571    0.000    4.286    0.000    0.000 
#    0.000    0.000    0.000    0.000    0.000    0.000 
#
# Total GULP energy -156330.909992 kJ/mol
# GULP energy per Si atom -5583.246785 kJ/mol
# Density = 1.816720 g / cm^3
# Si number density = 18.208643 Si / 1000 Ang^3
#
#
#
# Elastic Constant Matrix: (Units=GPa)
#
#
# Indices 1 2 3 4 5 6 
#
# 1 15.4046 5.7033 15.9181 0.0000 -11.9974 0.0000
# 2 5.7033 16.6605 22.5908 0.0000 -6.6217 0.0000
# 3 15.9181 22.5908 111.9453 0.0000 -21.1162 0.0000
# 4 0.0000 0.0000 0.0000 102.5819 0.0000 0.0305
# 5 -11.9974 -6.6217 -21.1162 0.0000 29.2083 0.0000
# 6 0.0000 0.0000 0.0000 0.0305 0.0000 12.3724
#
#
#
# Elastic Compliance Matrix: (Units=1/GPa)
#
#
# Indices 1 2 3 4 5 6 
#
# 1 0.103042 -0.014305 -0.005087 0.000000 0.035404 0.000000
# 2 -0.014305 0.086155 -0.014794 0.000000 0.002961 0.000000
# 3 -0.005087 -0.014794 0.013449 0.000000 0.004280 0.000000
# 4 0.000000 0.000000 0.000000 0.009748 0.000000 -0.000024
# 5 0.035404 0.002961 0.004280 0.000000 0.052545 0.000000
# 6 0.000000 0.000000 0.000000 -0.000024 0.000000 0.080825
#
#
# Mechanical properties :
#
#
# Convention : Reuss Voigt Hill
#
# Bulk Modulus (GPa) = 7.44737 25.82607 16.63672
# Shear Modulus (GPa) = 10.89577 35.48573 23.19075
#
# Velocity S-wave (km/s) = 2.44884 4.41936 3.57264
# Velocity P-wave (km/s) = 3.47774 6.34469 5.11614
#
# Compressibility (1/GPa) = 0.13427556
#
# Stress axis : x y z
#
# Youngs Moduli (GPa) = 9.70478 11.60693 74.35526
#
# Poissons Ratio (x) = 0.16603 0.37825
# Poissons Ratio (y) = 0.13882 1.09999
# Poissons Ratio (z) = 0.04937 0.17171
#
# Static dielectric constant tensor:
#      x y z
#    x 1.612730 0.000000 -0.005450 
#    y 0.000000 1.610380 0.000000 
#    z -0.005450 0.000000 1.617710 
# 
# From -- ./inp_files/48750.got.cif
#   From: 2010.05.17/outbox.cif.g08.bks.cpg/sg10_25_cif.got.tgz:48750.got - 2010.06.03 11:33:40.
