data_PCOD9146528
_publ_section_title
;
Structure prediction by ZEFSAII (Michael W. Deem and Ramdas Pophale) SiO2 
 PCOD9146528
Probable space group: P 2/M
;
_chemical_formula_sum "Si O2"
_cell_formula_units_Z 32
_cell_length_a 29.678994
_cell_length_b 8.695187
_cell_length_c 12.515089
_cell_angle_alpha 90.000000
_cell_angle_beta 145.852936
_cell_angle_gamma 90.000000
_cell_volume 1812.891370
_symmetry_space_group_name_H-M "P 2/M"
_symmetry_group_IT_number 10
_symmetry_cell_setting 'monoclinic'
loop_
_space_group_symop_operation_xyz
x,y,z
-x,y,-z
-x,-y,-z
x,-y,z
loop_
_atom_site_type_symbol
_atom_site_label
_atom_site_fract_x
_atom_site_fract_y
_atom_site_fract_z
Si Si1 0.031554 0.815832 0.180832
Si Si2 0.740471 0.184316 0.556742
Si Si3 0.284733 0.184661 0.926723
Si Si4 0.238191 0.316436 0.057205
Si Si5 0.791103 0.316928 0.437056
Si Si6 0.532209 0.186953 0.679365
Si Si7 0.122304 0.684300 0.019610
Si Si8 0.626410 0.185426 0.521478
O O1 0.118309 0.744187 0.370764
O O2 0.037009 0.000000 0.198012
O O3 0.000000 0.775426 0.000000
O O4 0.965032 0.753205 0.131931
O O5 0.741789 0.256038 0.442513
O O6 0.817449 0.245824 0.773513
O O7 0.663695 0.224416 0.479535
O O8 0.746349 0.000000 0.560272
O O9 0.239331 0.238212 0.944457
O O10 0.377520 0.238190 0.120613
O O11 0.283865 0.000000 0.919153
O O12 0.245621 0.253125 0.744223
O O13 0.242140 0.500000 0.053222
O O14 0.162129 0.278730 0.983290
O O15 0.315480 0.258432 0.275559
O O16 0.791337 0.500000 0.436961
O O17 0.500000 0.237246 0.500000
O O18 0.464842 0.231481 0.633580
O O19 0.534726 0.000000 0.681733
O O20 0.120728 0.500000 0.028558
O O21 0.631845 0.000000 0.543944
#
# Coordination Sequence:
#
# PCOD9146528 Si02
#       8
#     4   4   4   4   4   4   4   4
#     4  11  22  37  60  88 114 142 187 238 277 326
#     4  10  19  33  55  83 113 146 189 234 278 330
#     4  11  22  38  60  82 113 152 192 234 280 334
#     4  10  20  34  53  83 119 150 185 226 279 337
#     4  12  25  40  58  80 115 153 187 228 284 344
#     4   9  16  31  57  87 112 142 189 238 280 326
#     4  10  20  34  56  85 116 149 183 228 281 331
#     4   9  17  32  56  84 112 145 188 237 281 324
#
# _framework density 17.651361000000001
#
# number of rings (size 3 to 8) (size 9 to 14) (size 15 to 20)
#    0.000    1.750    2.500    3.000    0.000    2.500 
#    0.000    3.125    0.000    7.500    0.000    0.000 
#    0.000    0.000    0.000    0.000    0.000    0.000 
#
# Total GULP energy -178677.638969 kJ/mol
# GULP energy per Si atom -5583.676218 kJ/mol
# Density = 1.761119 g / cm^3
# Si number density = 17.651361 Si / 1000 Ang^3
#
#
#
# Elastic Constant Matrix: (Units=GPa)
#
#
# Indices 1 2 3 4 5 6 
#
# 1 162.3360 58.7466 80.1677 0.0000 -8.5440 0.0000
# 2 58.7466 64.2756 45.3967 0.0000 -7.4477 0.0000
# 3 80.1677 45.3967 107.5334 0.0000 -12.4333 0.0000
# 4 0.0000 0.0000 0.0000 365.2523 0.0000 66.1498
# 5 -8.5440 -7.4477 -12.4333 0.0000 26.9776 0.0000
# 6 0.0000 0.0000 0.0000 66.1498 0.0000 41.6536
#
#
#
# Elastic Compliance Matrix: (Units=1/GPa)
#
#
# Indices 1 2 3 4 5 6 
#
# 1 0.011277 -0.006267 -0.005861 0.000000 -0.000860 0.000000
# 2 -0.006267 0.025744 -0.005919 0.000000 0.002394 0.000000
# 3 -0.005861 -0.005919 0.016651 0.000000 0.004184 0.000000
# 4 0.000000 0.000000 0.000000 0.003843 0.000000 -0.006103
# 5 -0.000860 0.002394 0.004184 0.000000 0.039385 0.000000
# 6 0.000000 0.000000 0.000000 -0.006103 0.000000 0.033700
#
#
# Mechanical properties :
#
#
# Convention : Reuss Voigt Hill
#
# Bulk Modulus (GPa) = 56.88855 78.08523 67.48689
# Shear Modulus (GPa) = 28.97634 96.76565 62.87099
#
# Velocity S-wave (km/s) = 4.05605 7.41212 5.97457
# Velocity P-wave (km/s) = 7.36440 10.84372 9.26878
#
# Compressibility (1/GPa) = 0.01757823
#
# Stress axis : x y z
#
# Youngs Moduli (GPa) = 88.67480 38.84381 60.05506
#
# Poissons Ratio (x) = 0.24345 0.35198
# Poissons Ratio (y) = 0.55575 0.35547
# Poissons Ratio (z) = 0.51971 0.22992
#
# Static dielectric constant tensor:
#      x y z
#    x 1.620480 0.000000 0.012790 
#    y 0.000000 1.590100 0.000000 
#    z 0.012790 0.000000 1.563750 
# 
# From -- ./inp_files/58373.got.cif
#   From: 2010.05.17/outbox.cif.g08.bks.cpg/sg10_30_cif.got.tgz:58373.got - 2010.06.03 11:33:40.
