data_PCOD9146483
_publ_section_title
;
Structure prediction by ZEFSAII (Michael W. Deem and Ramdas Pophale) SiO2 
 PCOD9146483
Probable space group: P 2/M
;
_chemical_formula_sum "Si O2"
_cell_formula_units_Z 32
_cell_length_a 24.836591
_cell_length_b 7.841356
_cell_length_c 23.203561
_cell_angle_alpha 90.000000
_cell_angle_beta 160.262629
_cell_angle_gamma 90.000000
_cell_volume 1526.092169
_symmetry_space_group_name_H-M "P 2/M"
_symmetry_group_IT_number 10
_symmetry_cell_setting 'monoclinic'
loop_
_space_group_symop_operation_xyz
x,y,z
-x,y,-z
-x,-y,-z
x,-y,z
loop_
_atom_site_type_symbol
_atom_site_label
_atom_site_fract_x
_atom_site_fract_y
_atom_site_fract_z
Si Si1 0.946355 0.798107 0.508910
Si Si2 0.241120 0.290093 0.494219
Si Si3 0.712144 0.304983 0.586615
Si Si4 0.576340 0.293466 0.136840
Si Si5 0.921932 0.300235 0.237385
Si Si6 0.433351 0.708455 0.113317
Si Si7 0.813635 0.305369 0.810422
Si Si8 0.436862 0.195298 0.370959
O O1 0.757911 0.766660 0.326379
O O2 0.000000 0.733788 0.500000
O O3 0.040400 0.715680 0.656706
O O4 0.977666 0.000000 0.542712
O O5 0.242069 0.500000 0.496563
O O6 0.243322 0.232542 0.429984
O O7 0.409109 0.237922 0.692441
O O8 0.080058 0.231009 0.364252
O O9 0.770868 0.500000 0.645907
O O10 0.771687 0.222693 0.706265
O O11 0.522276 0.302033 0.407838
O O12 0.580877 0.500000 0.140900
O O13 0.470436 0.241210 0.084759
O O14 0.500000 0.234357 0.000000
O O15 0.916062 0.500000 0.216130
O O16 0.743207 0.230689 0.045964
O O17 0.429548 0.500000 0.111454
O O18 0.750297 0.500000 0.746677
O O19 0.747519 0.221275 0.801705
O O20 0.000000 0.311505 0.000000
O O21 0.500000 0.236378 0.500000
O O22 0.470876 0.000000 0.392964
#
# Coordination Sequence:
#
# PCOD9146483 Si02
#       8
#     4   4   4   4   4   4   4   4
#     4  11  23  36  51  76 110 142 175 217 269 325
#     4   9  17  32  53  80 108 134 172 219 264 313
#     4   9  17  31  51  74 102 135 169 209 257 307
#     4  10  19  33  55  81 107 135 177 224 266 318
#     4  10  19  35  59  79 103 136 173 220 265 311
#     4   9  17  31  53  82 105 128 169 219 266 312
#     4   9  17  30  48  75 108 137 169 211 259 309
#     4   9  17  30  49  71  96 131 171 207 249 299
#
# _framework density 20.968589999999999
#
# number of rings (size 3 to 8) (size 9 to 14) (size 15 to 20)
#    0.000    2.500    1.250    1.500    0.000    4.000 
#    2.250    1.250    0.000    0.000    0.000    0.000 
#    0.000    0.000    0.000    0.000    0.000    0.000 
#
# Total GULP energy -178289.032300 kJ/mol
# GULP energy per Si atom -5571.532259 kJ/mol
# Density = 2.092086 g / cm^3
# Si number density = 20.968590 Si / 1000 Ang^3
#
#
#
# Elastic Constant Matrix: (Units=GPa)
#
#
# Indices 1 2 3 4 5 6 
#
# 1 134.2576 2.1616 49.0536 0.0000 16.3689 0.0000
# 2 2.1616 29.9032 5.8198 0.0000 1.1046 0.0000
# 3 49.0536 5.8198 116.1835 0.0000 25.0332 0.0000
# 4 0.0000 0.0000 0.0000 0.3589 0.0000 -1.8111
# 5 16.3689 1.1046 25.0332 0.0000 26.6945 0.0000
# 6 0.0000 0.0000 0.0000 -1.8111 0.0000 -5.0111
#
#
#
# Elastic Compliance Matrix: (Units=1/GPa)
#
#
# Indices 1 2 3 4 5 6 
#
# 1 0.008931 0.000077 -0.003251 0.000000 -0.002431 0.000000
# 2 0.000077 0.033772 -0.001771 0.000000 0.000216 0.000000
# 3 -0.003251 -0.001771 0.012060 0.000000 -0.009243 0.000000
# 4 0.000000 0.000000 0.000000 0.986684 0.000000 -0.356610
# 5 -0.002431 0.000216 -0.009243 0.000000 0.047610 0.000000
# 6 0.000000 0.000000 0.000000 -0.356610 0.000000 -0.070668
#
#
# Mechanical properties :
#
#
# Convention : Reuss Voigt Hill
#
# Bulk Modulus (GPa) = 22.28463 43.82383 33.05423
# Shear Modulus (GPa) = 4.79278 19.29573 12.04425
#
# Velocity S-wave (km/s) = 1.51349 3.03680 2.39925
# Velocity P-wave (km/s) = 3.70201 5.76553 4.84491
#
# Compressibility (1/GPa) = 0.04487398
#
# Stress axis : x y z
#
# Youngs Moduli (GPa) = 111.96543 29.61006 82.92050
#
# Poissons Ratio (x) = -0.00228 0.26957
# Poissons Ratio (y) = -0.00861 0.14683
# Poissons Ratio (z) = 0.36399 0.05243
#
# Static dielectric constant tensor:
#      x y z
#    x 1.759020 0.000000 0.035480 
#    y 0.000000 1.782360 0.000000 
#    z 0.035480 0.000000 1.866830 
# 
# From -- ./inp_files/90617.got.cif
#   From: 2010.05.17/outbox.cif.g08.bks.cpg/sg10_46_cif.got.tgz:90617.got - 2010.06.03 11:33:40.
