data_PCOD9146270
_publ_section_title
;
Structure prediction by ZEFSAII (Michael W. Deem and Ramdas Pophale) SiO2 
 PCOD9146270
Probable space group: P 2/M
;
_chemical_formula_sum "Si O2"
_cell_formula_units_Z 28
_cell_length_a 10.634455
_cell_length_b 7.943156
_cell_length_c 28.455978
_cell_angle_alpha 90.000000
_cell_angle_beta 139.692632
_cell_angle_gamma 90.000000
_cell_volume 1554.929992
_symmetry_space_group_name_H-M "P 2/M"
_symmetry_group_IT_number 10
_symmetry_cell_setting 'monoclinic'
loop_
_space_group_symop_operation_xyz
x,y,z
-x,y,-z
-x,-y,-z
x,-y,z
loop_
_atom_site_type_symbol
_atom_site_label
_atom_site_fract_x
_atom_site_fract_y
_atom_site_fract_z
Si Si1 0.402515 0.205618 0.900827
Si Si2 0.542762 0.797928 0.189054
Si Si3 0.801464 0.500000 0.615691
Si Si4 0.849699 0.192163 0.499066
Si Si5 0.798601 0.201323 0.065462
Si Si6 0.397941 0.500000 0.544998
Si Si7 0.101170 0.698264 0.076318
Si Si8 0.948797 0.804866 0.341839
O O1 0.393024 0.263030 0.844553
O O2 0.240528 0.262061 0.892416
O O3 0.398492 0.000000 0.898636
O O4 0.611814 0.257823 0.981585
O O5 0.330261 0.732474 0.141015
O O6 0.721273 0.759531 0.274402
O O7 0.524009 0.000000 0.181861
O O8 0.628137 0.500000 0.603597
O O9 0.697891 0.500000 0.534650
O O10 0.930782 0.668542 0.653534
O O11 0.683864 0.332783 0.453643
O O12 0.000000 0.224194 0.500000
O O13 0.967878 0.202309 0.581731
O O14 0.775618 0.000000 0.473536
O O15 0.991599 0.242312 0.091917
O O16 0.785684 0.000000 0.063778
O O17 0.070509 0.500000 0.066061
O O18 0.000000 0.772160 0.000000
O O19 0.970053 0.000000 0.331467
#
# Coordination Sequence:
#
# PCOD9146270 Si02
#       8
#     4   4   2   4   4   2   4   4
#     4   8  15  28  50  73  88 115 160 207 252 300
#     4  10  19  33  54  73  93 129 173 212 254 309
#     4   9  18  32  52  76 107 131 162 214 256 296
#     4   9  17  31  53  80 109 139 174 214 251 297
#     4   9  16  30  50  69  90 117 158 208 254 299
#     4   9  17  30  52  82 103 131 170 207 255 305
#     4  11  22  32  45  72 103 129 166 214 260 303
#     4   9  19  33  52  77 102 136 175 207 256 314
#
# _framework density 18.007241
#
# number of rings (size 3 to 8) (size 9 to 14) (size 15 to 20)
#    0.000    2.714    1.429    1.500    1.000    1.143 
#    0.000    5.000    3.143    0.000    0.000    0.000 
#    0.000    0.000    0.000    0.000    0.000    0.000 
#
# Total GULP energy -155983.777418 kJ/mol
# GULP energy per Si atom -5570.849194 kJ/mol
# Density = 1.796626 g / cm^3
# Si number density = 18.007241 Si / 1000 Ang^3
#
#
#
# Elastic Constant Matrix: (Units=GPa)
#
#
# Indices 1 2 3 4 5 6 
#
# 1 126.9620 42.2042 23.9701 0.0000 26.2409 0.0000
# 2 42.2042 59.2094 17.1982 0.0000 13.3488 0.0000
# 3 23.9701 17.1982 34.1362 0.0000 20.8940 0.0000
# 4 0.0000 0.0000 0.0000 10.5447 0.0000 -7.1930
# 5 26.2409 13.3488 20.8940 0.0000 20.7987 0.0000
# 6 0.0000 0.0000 0.0000 -7.1930 0.0000 -30.3119
#
#
#
# Elastic Compliance Matrix: (Units=1/GPa)
#
#
# Indices 1 2 3 4 5 6 
#
# 1 0.012543 -0.006595 0.004182 0.000000 -0.015794 0.000000
# 2 -0.006595 0.023649 -0.008014 0.000000 0.001193 0.000000
# 3 0.004182 -0.008014 0.079136 0.000000 -0.079631 0.000000
# 4 0.000000 0.000000 0.000000 0.081622 0.000000 -0.019369
# 5 -0.015794 0.001193 -0.079631 0.000000 0.147237 0.000000
# 6 0.000000 0.000000 0.000000 -0.019369 0.000000 -0.028394
#
#
# Mechanical properties :
#
#
# Convention : Reuss Voigt Hill
#
# Bulk Modulus (GPa) = 10.58493 43.00582 26.79538
# Shear Modulus (GPa) = 13.58189 9.33531 11.45860
#
# Velocity S-wave (km/s) = 2.74933 2.27935 2.52530
# Velocity P-wave (km/s) = 3.99617 5.55532 4.83896
#
# Compressibility (1/GPa) = 0.09447396
#
# Stress axis : x y z
#
# Youngs Moduli (GPa) = 79.72334 42.28564 12.63651
#
# Poissons Ratio (x) = 0.27886 -0.05284
# Poissons Ratio (y) = 0.52576 0.10127
# Poissons Ratio (z) = -0.33337 0.33887
#
# Static dielectric constant tensor:
#      x y z
#    x 1.626250 0.000000 -0.020610 
#    y 0.000000 1.643670 0.000000 
#    z -0.020610 0.000000 1.607940 
# 
# From -- ./inp_files/94558.got.cif
#   From: 2010.05.17/outbox.cif.g08.bks.cpg/sg10_48_cif.got.tgz:94558.got - 2010.06.03 11:33:40.
