data_PCOD9146141
_publ_section_title
;
Structure prediction by ZEFSAII (Michael W. Deem and Ramdas Pophale) SiO2 
 PCOD9146141
Probable space group: P 2/M
;
_chemical_formula_sum "Si O2"
_cell_formula_units_Z 26
_cell_length_a 9.393232
_cell_length_b 31.857294
_cell_length_c 5.058586
_cell_angle_alpha 90.000000
_cell_angle_beta 58.519231
_cell_angle_gamma 90.000000
_cell_volume 1290.946220
_symmetry_space_group_name_H-M "P 2/M"
_symmetry_group_IT_number 10
_symmetry_cell_setting 'monoclinic'
loop_
_space_group_symop_operation_xyz
x,y,z
-x,y,-z
-x,-y,-z
x,-y,z
loop_
_atom_site_type_symbol
_atom_site_label
_atom_site_fract_x
_atom_site_fract_y
_atom_site_fract_z
Si Si1 0.188521 0.549066 0.708476
Si Si2 0.314695 0.265005 0.566998
Si Si3 0.876019 0.000000 0.370117
Si Si4 0.123056 0.090006 0.630207
Si Si5 0.877572 0.818427 0.368727
Si Si6 0.815584 0.689141 0.799908
Si Si7 0.687771 0.403463 0.920496
O O1 0.223481 0.500000 0.629102
O O2 0.213196 0.574259 0.414095
O O3 0.303576 0.568016 0.827468
O O4 0.000000 0.553152 0.000000
O O5 0.500000 0.262622 0.500000
O O6 0.247808 0.219906 0.539516
O O7 0.302155 0.294617 0.323126
O O8 0.205465 0.283536 0.915059
O O9 0.783209 0.045057 0.459636
O O10 0.000000 0.000000 0.500000
O O11 0.000000 0.000000 0.000000
O O12 0.209260 0.135508 0.538296
O O13 0.000000 0.089806 0.500000
O O14 0.000000 0.090080 0.000000
O O15 0.000000 0.813218 0.500000
O O16 0.000000 0.817935 0.000000
O O17 0.769236 0.641295 0.907255
O O18 0.000000 0.692507 0.500000
O O19 0.500000 0.397622 0.000000
#
# Coordination Sequence:
#
# PCOD9146141 Si02
#       7
#     4   4   2   4   4   4   4
#     4  11  24  43  66  92 123 159 196 231 272 327
#     4  12  24  39  58  84 114 145 185 235 284 331
#     4   8  12  20  34  58  91 124 161 212 269 310
#     4   8  14  23  39  63  93 128 168 216 265 317
#     4  10  19  33  52  75 104 141 183 223 272 332
#     4  12  25  43  64  85 113 151 191 230 278 336
#     4  12  25  42  64  92 123 152 188 235 283 330
#
# _framework density 20.140266
#
# number of rings (size 3 to 8) (size 9 to 14) (size 15 to 20)
#    0.000    1.385    0.000    7.385    0.000    3.077 
#    0.000    0.000    0.000    0.000    0.000    0.538 
#    0.000    0.000    0.000   38.769    0.000    2.077 
#
# Total GULP energy -145249.713838 kJ/mol
# GULP energy per Si atom -5586.527455 kJ/mol
# Density = 2.009443 g / cm^3
# Si number density = 20.140266 Si / 1000 Ang^3
#
#
#
# Elastic Constant Matrix: (Units=GPa)
#
#
# Indices 1 2 3 4 5 6 
#
# 1 68.5406 27.9577 18.9615 0.0000 12.7798 0.0000
# 2 27.9577 165.8089 24.8524 0.0000 -3.7856 0.0000
# 3 18.9615 24.8524 71.1946 0.0000 22.3887 0.0000
# 4 0.0000 0.0000 0.0000 6.2127 0.0000 21.4066
# 5 12.7798 -3.7856 22.3887 0.0000 39.0737 0.0000
# 6 0.0000 0.0000 0.0000 21.4066 0.0000 17.3538
#
#
#
# Elastic Compliance Matrix: (Units=1/GPa)
#
#
# Indices 1 2 3 4 5 6 
#
# 1 0.017143 -0.002669 -0.002183 0.000000 -0.004615 0.000000
# 2 -0.002669 0.006954 -0.002687 0.000000 0.003086 0.000000
# 3 -0.002183 -0.002687 0.018813 0.000000 -0.010326 0.000000
# 4 0.000000 0.000000 0.000000 -0.049522 0.000000 0.061087
# 5 -0.004615 0.003086 -0.010326 0.000000 0.033317 0.000000
# 6 0.000000 0.000000 0.000000 0.061087 0.000000 -0.017729
#
#
# Mechanical properties :
#
#
# Convention : Reuss Voigt Hill
#
# Bulk Modulus (GPa) = 35.93035 49.89860 42.91448
# Shear Modulus (GPa) = 150.00581 28.11288 89.05934
#
# Velocity S-wave (km/s) = 8.63957 3.74017 6.65699
# Velocity P-wave (km/s) = 10.83521 6.59402 8.96892
#
# Compressibility (1/GPa) = 0.02783162
#
# Stress axis : x y z
#
# Youngs Moduli (GPa) = 58.33364 143.79619 53.15554
#
# Poissons Ratio (x) = 0.38374 0.11604
# Poissons Ratio (y) = 0.15567 0.14285
# Poissons Ratio (z) = 0.12734 0.38644
#
# Static dielectric constant tensor:
#      x y z
#    x 1.682370 0.000000 -0.009120 
#    y 0.000000 1.775050 0.000000 
#    z -0.009120 0.000000 1.672380 
# 
# From -- ./inp_files/5437.got.cif
#   From: 2010.05.17/outbox.cif.g08.bks.cpg/sg10_3_cif.got.tgz:5437.got - 2010.06.03 11:33:40.
