data_PCOD9146135
_publ_section_title
;
Structure prediction by ZEFSAII (Michael W. Deem and Ramdas Pophale) SiO2 
 PCOD9146135
Probable space group: P 2/M
;
_chemical_formula_sum "Si O2"
_cell_formula_units_Z 28
_cell_length_a 25.095502
_cell_length_b 7.411855
_cell_length_c 8.624148
_cell_angle_alpha 90.000000
_cell_angle_beta 45.200050
_cell_angle_gamma 90.000000
_cell_volume 1138.243230
_symmetry_space_group_name_H-M "P 2/M"
_symmetry_group_IT_number 10
_symmetry_cell_setting 'monoclinic'
loop_
_space_group_symop_operation_xyz
x,y,z
-x,y,-z
-x,-y,-z
x,-y,z
loop_
_atom_site_type_symbol
_atom_site_label
_atom_site_fract_x
_atom_site_fract_y
_atom_site_fract_z
Si Si1 0.657952 0.706227 0.498387
Si Si2 0.588069 0.718769 0.316736
Si Si3 0.921076 0.285611 0.598958
Si Si4 0.161443 0.281696 0.522814
Si Si5 0.178284 0.214936 0.946478
Si Si6 0.058725 0.204604 0.992905
Si Si7 0.666908 0.279790 0.834070
O O1 0.630164 0.500000 0.563093
O O2 0.623411 0.785030 0.408764
O O3 0.747257 0.704817 0.278151
O O4 0.645886 0.780016 0.699273
O O5 0.500000 0.758864 0.500000
O O6 0.598252 0.500000 0.296877
O O7 0.621941 0.779097 0.080703
O O8 0.929368 0.500000 0.574786
O O9 0.904355 0.222858 0.458543
O O10 0.000000 0.207072 0.500000
O O11 0.837687 0.247705 0.840657
O O12 0.160391 0.500000 0.535249
O O13 0.136031 0.201990 0.737319
O O14 0.246404 0.228607 0.316962
O O15 0.095287 0.292437 0.067418
O O16 0.180004 0.000000 0.922194
O O17 0.035020 0.000000 0.072173
O O18 0.000000 0.296557 0.000000
O O19 0.662766 0.500000 0.837421
#
# Coordination Sequence:
#
# PCOD9146135 Si02
#       7
#     4   4   4   4   4   4   4
#     4  10  19  34  57  80 110 148 181 228 283 330
#     4   9  18  32  53  85 118 143 176 226 281 339
#     4  10  21  35  52  76 106 142 184 232 288 340
#     4  10  19  33  52  74 102 137 180 225 268 326
#     4  11  22  35  53  77 106 142 186 232 277 334
#     4  10  21  35  50  72 104 139 177 226 277 320
#     4   9  17  30  50  78 109 142 180 222 274 331
#
# _framework density 24.599309999999999
#
# number of rings (size 3 to 8) (size 9 to 14) (size 15 to 20)
#    0.000    2.143    1.429    2.143    0.000    4.571 
#    0.000    2.857    0.000    0.429    0.000    1.000 
#    0.000    0.000    0.000    0.000    0.000    0.000 
#
# Total GULP energy -155982.189018 kJ/mol
# GULP energy per Si atom -5570.792465 kJ/mol
# Density = 2.454332 g / cm^3
# Si number density = 24.599310 Si / 1000 Ang^3
#
#
#
# Elastic Constant Matrix: (Units=GPa)
#
#
# Indices 1 2 3 4 5 6 
#
# 1 146.0192 13.6638 45.6288 0.0000 11.3607 0.0000
# 2 13.6638 87.8415 14.9531 0.0000 0.9190 0.0000
# 3 45.6288 14.9531 157.2681 0.0000 10.4992 0.0000
# 4 0.0000 0.0000 0.0000 -15.3681 0.0000 -17.7144
# 5 11.3607 0.9190 10.4992 0.0000 28.2377 0.0000
# 6 0.0000 0.0000 0.0000 -17.7144 0.0000 -12.6705
#
#
#
# Elastic Compliance Matrix: (Units=1/GPa)
#
#
# Indices 1 2 3 4 5 6 
#
# 1 0.007736 -0.000837 -0.002009 0.000000 -0.002338 0.000000
# 2 -0.000837 0.011662 -0.000885 0.000000 0.000286 0.000000
# 3 -0.002009 -0.000885 0.007147 0.000000 -0.001820 0.000000
# 4 0.000000 0.000000 0.000000 0.106403 0.000000 -0.148760
# 5 -0.002338 0.000286 -0.001820 0.000000 0.037022 0.000000
# 6 0.000000 0.000000 0.000000 -0.148760 0.000000 0.129056
#
#
# Mechanical properties :
#
#
# Convention : Reuss Voigt Hill
#
# Bulk Modulus (GPa) = 52.40112 59.95781 56.17946
# Shear Modulus (GPa) = 15.98212 21.16538 18.57375
#
# Velocity S-wave (km/s) = 2.55168 2.93645 2.75080
# Velocity P-wave (km/s) = 5.47992 5.99364 5.74253
#
# Compressibility (1/GPa) = 0.01908356
#
# Stress axis : x y z
#
# Youngs Moduli (GPa) = 129.25877 85.74854 139.91682
#
# Poissons Ratio (x) = 0.07177 0.28108
# Poissons Ratio (y) = 0.10819 0.12384
# Poissons Ratio (z) = 0.25967 0.07590
#
# Static dielectric constant tensor:
#      x y z
#    x 2.058300 0.000000 0.012850 
#    y 0.000000 1.907770 0.000000 
#    z 0.012850 0.000000 1.959900 
# 
# From -- ./inp_files/36971.got.cif
#   From: 2010.05.17/outbox.cif.g08.bks.cpg/sg10_19_cif.got.tgz:36971.got - 2010.06.03 11:33:40.
