data_PCOD9146352
_publ_section_title
;
Structure prediction by ZEFSAII (Michael W. Deem and Ramdas Pophale) SiO2 
 PCOD9146352
Probable space group: P 2/M
;
_chemical_formula_sum "Si O2"
_cell_formula_units_Z 32
_cell_length_a 18.378185
_cell_length_b 14.234941
_cell_length_c 11.713249
_cell_angle_alpha 90.000000
_cell_angle_beta 29.361293
_cell_angle_gamma 90.000000
_cell_volume 1502.487671
_symmetry_space_group_name_H-M "P 2/M"
_symmetry_group_IT_number 10
_symmetry_cell_setting 'monoclinic'
loop_
_space_group_symop_operation_xyz
x,y,z
-x,y,-z
-x,-y,-z
x,-y,z
loop_
_atom_site_type_symbol
_atom_site_label
_atom_site_fract_x
_atom_site_fract_y
_atom_site_fract_z
Si Si1 0.606914 0.389581 0.104669
Si Si2 0.214190 0.893978 0.792974
Si Si3 0.007472 0.806963 0.362427
Si Si4 0.142959 0.395236 0.871486
Si Si5 0.303018 0.351083 0.431247
Si Si6 0.125021 0.155910 0.678405
Si Si7 0.715007 0.255846 0.145833
Si Si8 0.139316 0.397302 0.427706
O O1 0.583382 0.500000 0.166688
O O2 0.479637 0.351688 0.193818
O O3 0.611223 0.320041 0.208027
O O4 0.758828 0.386919 0.824029
O O5 0.214511 0.897651 0.654860
O O6 0.326243 0.821124 0.700464
O O7 0.227069 0.000000 0.819396
O O8 0.048459 0.853351 0.046650
O O9 0.899533 0.862227 0.422726
O O10 0.957034 0.696947 0.431564
O O11 0.000000 0.843462 0.500000
O O12 0.175373 0.802052 0.087132
O O13 0.106406 0.500000 0.961849
O O14 0.263459 0.398424 0.606636
O O15 0.192435 0.331922 0.907364
O O16 0.000000 0.357288 0.000000
O O17 0.213257 0.253833 0.559482
O O18 0.241380 0.397925 0.401497
O O19 0.063356 0.500000 0.529472
#
# Coordination Sequence:
#
# PCOD9146352 Si02
#       8
#     4   4   4   4   4   4   4   4
#     4  11  23  37  53  78 119 168 207 235 269 330
#     4  10  19  37  66  91 112 141 182 243 304 355
#     4  10  19  33  54  80 112 149 184 240 293 338
#     4  11  21  34  53  77 109 147 187 237 289 339
#     4  11  21  35  55  79 114 152 197 240 277 329
#     4   9  18  33  58  84 111 136 181 231 291 344
#     4  11  22  36  54  83 118 150 190 235 293 349
#     4  10  20  34  53  78 109 153 208 249 275 320
#
# _framework density 21.298012
#
# number of rings (size 3 to 8) (size 9 to 14) (size 15 to 20)
#    0.000    1.625    2.500    4.875    0.000    3.750 
#    0.000    1.250    0.000   11.625    0.000    0.000 
#    0.000   15.500    0.000    0.000    0.000    0.000 
#
# Total GULP energy -178278.260638 kJ/mol
# GULP energy per Si atom -5571.195645 kJ/mol
# Density = 2.124954 g / cm^3
# Si number density = 21.298012 Si / 1000 Ang^3
#
#
#
# Elastic Constant Matrix: (Units=GPa)
#
#
# Indices 1 2 3 4 5 6 
#
# 1 149.1633 38.4276 8.5164 0.0000 15.9968 0.0000
# 2 38.4276 95.2730 0.1006 0.0000 -1.0277 0.0000
# 3 8.5164 0.1006 25.9487 0.0000 4.5605 0.0000
# 4 0.0000 0.0000 0.0000 7.3629 0.0000 -2.0942
# 5 15.9968 -1.0277 4.5605 0.0000 28.9761 0.0000
# 6 0.0000 0.0000 0.0000 -2.0942 0.0000 12.1843
#
#
#
# Elastic Compliance Matrix: (Units=1/GPa)
#
#
# Indices 1 2 3 4 5 6 
#
# 1 0.008131 -0.003324 -0.001899 0.000000 -0.004308 0.000000
# 2 -0.003324 0.011859 0.000667 0.000000 0.002151 0.000000
# 3 -0.001899 0.000667 0.040078 0.000000 -0.005236 0.000000
# 4 0.000000 0.000000 0.000000 0.142798 0.000000 0.024543
# 5 -0.004308 0.002151 -0.005236 0.000000 0.037790 0.000000
# 6 0.000000 0.000000 0.000000 0.024543 0.000000 0.086291
#
#
# Mechanical properties :
#
#
# Convention : Reuss Voigt Hill
#
# Bulk Modulus (GPa) = 19.62424 40.49714 30.06069
# Shear Modulus (GPa) = 14.16255 24.59401 19.37828
#
# Velocity S-wave (km/s) = 2.58150 3.40186 3.01967
# Velocity P-wave (km/s) = 4.25672 5.87248 5.12863
#
# Compressibility (1/GPa) = 0.05095740
#
# Stress axis : x y z
#
# Youngs Moduli (GPa) = 122.98973 84.32178 24.95112
#
# Poissons Ratio (x) = 0.28028 0.04737
# Poissons Ratio (y) = 0.40881 -0.01664
# Poissons Ratio (z) = 0.23350 -0.05624
#
# Static dielectric constant tensor:
#      x y z
#    x 1.805820 0.000000 0.006620 
#    y 0.000000 1.774260 0.000000 
#    z 0.006620 0.000000 1.882790 
# 
# From -- ./inp_files/54025.got.cif
#   From: 2010.05.17/outbox.cif.g08.bks.cpg/sg10_28_cif.got.tgz:54025.got - 2010.06.03 11:33:40.
