data_PCOD9146932
_publ_section_title
;
Structure prediction by ZEFSAII (Michael W. Deem and Ramdas Pophale) SiO2 
 PCOD9146932
Probable space group: P 2/M
;
_chemical_formula_sum "Si O2"
_cell_formula_units_Z 28
_cell_length_a 9.847009
_cell_length_b 8.730635
_cell_length_c 28.922411
_cell_angle_alpha 90.000000
_cell_angle_beta 39.107679
_cell_angle_gamma 90.000000
_cell_volume 1568.420264
_symmetry_space_group_name_H-M "P 2/M"
_symmetry_group_IT_number 10
_symmetry_cell_setting 'monoclinic'
loop_
_space_group_symop_operation_xyz
x,y,z
-x,y,-z
-x,-y,-z
x,-y,z
loop_
_atom_site_type_symbol
_atom_site_label
_atom_site_fract_x
_atom_site_fract_y
_atom_site_fract_z
Si Si1 0.121658 0.817817 0.902881
Si Si2 0.715357 0.184507 0.416041
Si Si3 0.749338 0.182785 0.818737
Si Si4 0.302351 0.682330 0.950839
Si Si5 0.829097 0.317602 0.696510
Si Si6 0.583345 0.318232 0.253363
Si Si7 0.762685 0.183535 0.296240
O O1 0.238476 0.739404 0.916059
O O2 0.245633 0.767958 0.824331
O O3 0.127819 0.000000 0.907311
O O4 0.876351 0.759100 0.969312
O O5 0.500000 0.228273 0.500000
O O6 0.703846 0.223676 0.364596
O O7 0.931219 0.261795 0.378241
O O8 0.740422 0.000000 0.412336
O O9 0.545172 0.263727 0.895508
O O10 0.761101 0.234758 0.762054
O O11 0.983934 0.221831 0.777190
O O12 0.721927 0.000000 0.827827
O O13 0.284633 0.500000 0.957367
O O14 0.827736 0.500000 0.704981
O O15 0.653113 0.281878 0.704049
O O16 0.616140 0.500000 0.239868
O O17 0.621130 0.266743 0.295599
O O18 0.741183 0.000000 0.297032
#
# Coordination Sequence:
#
# PCOD9146932 Si02
#       7
#     4   4   4   4   4   4   4
#     4  11  21  33  52  76 106 145 186 230 277 321
#     4   9  19  38  62  86 111 140 179 224 267 321
#     4  10  19  34  55  79 106 142 189 233 271 323
#     4  11  20  32  51  78 110 141 182 233 280 325
#     4  10  20  33  54  82 110 142 181 224 269 323
#     4  11  22  36  53  79 113 146 182 225 275 328
#     4   9  20  36  56  81 109 142 181 223 272 326
#
# _framework density 17.852357000000001
#
# number of rings (size 3 to 8) (size 9 to 14) (size 15 to 20)
#    0.000    1.857    1.429    5.571    0.000    4.857 
#    0.000    1.429    0.000    8.571    0.000    0.000 
#    0.000    0.000    0.000    0.000    0.000    0.000 
#
# Total GULP energy -156355.855156 kJ/mol
# GULP energy per Si atom -5584.137684 kJ/mol
# Density = 1.781172 g / cm^3
# Si number density = 17.852357 Si / 1000 Ang^3
#
#
#
# Elastic Constant Matrix: (Units=GPa)
#
#
# Indices 1 2 3 4 5 6 
#
# 1 91.0227 35.7621 32.6666 0.0000 -11.4488 0.0000
# 2 35.7621 67.6220 28.9917 0.0000 -6.6235 0.0000
# 3 32.6666 28.9917 104.9180 0.0000 -14.8089 0.0000
# 4 0.0000 0.0000 0.0000 29.1396 0.0000 -0.9000
# 5 -11.4488 -6.6235 -14.8089 0.0000 17.0860 0.0000
# 6 0.0000 0.0000 0.0000 -0.9000 0.0000 27.3984
#
#
#
# Elastic Compliance Matrix: (Units=1/GPa)
#
#
# Indices 1 2 3 4 5 6 
#
# 1 0.014998 -0.006483 -0.002067 0.000000 0.005745 0.000000
# 2 -0.006483 0.019699 -0.003373 0.000000 0.000369 0.000000
# 3 -0.002067 -0.003373 0.012222 0.000000 0.007900 0.000000
# 4 0.000000 0.000000 0.000000 0.034352 0.000000 0.001128
# 5 0.005745 0.000369 0.007900 0.000000 0.069368 0.000000
# 6 0.000000 0.000000 0.000000 0.001128 0.000000 0.036535
#
#
# Mechanical properties :
#
#
# Convention : Reuss Voigt Hill
#
# Bulk Modulus (GPa) = 43.34094 50.93371 47.13732
# Shear Modulus (GPa) = 22.86129 25.80097 24.33113
#
# Velocity S-wave (km/s) = 3.58240 3.80576 3.69576
# Velocity P-wave (km/s) = 6.43751 6.92128 6.68378
#
# Compressibility (1/GPa) = 0.02307287
#
# Stress axis : x y z
#
# Youngs Moduli (GPa) = 66.67671 50.76506 81.81921
#
# Poissons Ratio (x) = 0.32909 0.16916
# Poissons Ratio (y) = 0.43223 0.27596
# Poissons Ratio (z) = 0.13785 0.17122
#
# Static dielectric constant tensor:
#      x y z
#    x 1.602210 0.000000 -0.014520 
#    y 0.000000 1.599480 0.000000 
#    z -0.014520 0.000000 1.609670 
# 
# From -- ./inp_files/94501.got.cif
#   From: 2010.05.17/outbox.cif.g08.bks.cpg/sg10_48_cif.got.tgz:94501.got - 2010.06.03 11:33:40.
