data_PCOD9146473
_publ_section_title
;
Structure prediction by ZEFSAII (Michael W. Deem and Ramdas Pophale) SiO2 
 PCOD9146473
Probable space group: P 2/M
;
_chemical_formula_sum "Si O2"
_cell_formula_units_Z 28
_cell_length_a 32.319329
_cell_length_b 8.252576
_cell_length_c 32.319382
_cell_angle_alpha 90.000000
_cell_angle_beta 9.453774
_cell_angle_gamma 90.000000
_cell_volume 1415.875638
_symmetry_space_group_name_H-M "P 2/M"
_symmetry_group_IT_number 10
_symmetry_cell_setting 'monoclinic'
loop_
_space_group_symop_operation_xyz
x,y,z
-x,y,-z
-x,-y,-z
x,-y,z
loop_
_atom_site_type_symbol
_atom_site_label
_atom_site_fract_x
_atom_site_fract_y
_atom_site_fract_z
Si Si1 0.381608 0.194109 0.380762
Si Si2 0.761873 0.304237 0.761867
Si Si3 0.523359 0.801718 0.524630
Si Si4 0.809271 0.195793 0.809535
Si Si5 0.333290 0.801882 0.333550
Si Si6 0.094873 0.692209 0.095720
Si Si7 0.952807 0.804355 0.951549
O O1 0.357396 0.251997 0.357228
O O2 0.143153 0.249331 0.642754
O O3 0.381200 0.000000 0.380510
O O4 0.643900 0.249245 0.141921
O O5 0.761380 0.500000 0.761376
O O6 0.785672 0.250767 0.785666
O O7 0.000000 0.247152 0.500000
O O8 0.500000 0.247154 0.000000
O O9 0.500000 0.750956 0.500000
O O10 0.784855 0.748005 0.287214
O O11 0.523383 0.000000 0.524750
O O12 0.285453 0.747988 0.786489
O O13 0.071286 0.251134 0.571471
O O14 0.809595 0.000000 0.809851
O O15 0.571055 0.251129 0.071663
O O16 0.333382 0.000000 0.333661
O O17 0.094598 0.500000 0.095252
O O18 0.071564 0.755055 0.071921
O O19 0.953655 0.000000 0.952375
#
# Coordination Sequence:
#
# PCOD9146473 Si02
#       7
#     4   4   4   4   4   4   4
#     4  11  22  41  66  87 113 156 203 238 285 356
#     4  10  21  36  52  73 105 143 180 217 261 317
#     4   9  17  30  52  82 110 137 182 243 287 322
#     4  10  19  34  56  82 108 135 174 224 278 327
#     4   9  19  35  57  83 109 138 177 230 280 328
#     4  12  25  40  58  87 125 156 191 246 300 338
#     4  10  19  33  55  80 108 148 193 229 277 348
#
# _framework density 19.775749999999999
#
# number of rings (size 3 to 8) (size 9 to 14) (size 15 to 20)
#    0.000    1.857    0.000    4.714    0.000    5.714 
#    0.000    4.286    0.000    2.571    0.000    0.000 
#    0.000    0.000    0.000    0.000    0.000    0.000 
#
# Total GULP energy -156514.444180 kJ/mol
# GULP energy per Si atom -5589.801578 kJ/mol
# Density = 1.973074 g / cm^3
# Si number density = 19.775750 Si / 1000 Ang^3
#
#
#
# Elastic Constant Matrix: (Units=GPa)
#
#
# Indices 1 2 3 4 5 6 
#
# 1 242.4379 12.5624 155.4183 0.0000 -0.8785 0.0000
# 2 12.5624 15.6434 24.3425 0.0000 -1.1003 0.0000
# 3 155.4183 24.3425 254.9856 0.0000 0.2479 0.0000
# 4 0.0000 0.0000 0.0000 11.1533 0.0000 -7.7832
# 5 -0.8785 -1.1003 0.2479 0.0000 49.3903 0.0000
# 6 0.0000 0.0000 0.0000 -7.7832 0.0000 -76.3069
#
#
#
# Elastic Compliance Matrix: (Units=1/GPa)
#
#
# Indices 1 2 3 4 5 6 
#
# 1 0.006789 0.001174 -0.004250 0.000000 0.000168 0.000000
# 2 0.001174 0.075425 -0.007918 0.000000 0.001741 0.000000
# 3 -0.004250 -0.007918 0.007269 0.000000 -0.000288 0.000000
# 4 0.000000 0.000000 0.000000 0.083702 0.000000 -0.008537
# 5 0.000168 0.001741 -0.000288 0.000000 0.020290 0.000000
# 6 0.000000 0.000000 0.000000 -0.008537 0.000000 -0.012234
#
#
# Mechanical properties :
#
#
# Convention : Reuss Voigt Hill
#
# Bulk Modulus (GPa) = 14.81608 99.74594 57.28101
# Shear Modulus (GPa) = 22.15061 18.23024 20.19043
#
# Velocity S-wave (km/s) = 3.35040 3.03949 3.19873
# Velocity P-wave (km/s) = 4.74081 7.92881 6.53228
#
# Compressibility (1/GPa) = 0.06749425
#
# Stress axis : x y z
#
# Youngs Moduli (GPa) = 147.28880 13.25821 137.57676
#
# Poissons Ratio (x) = -0.01556 0.58477
# Poissons Ratio (y) = -0.17287 1.08928
# Poissons Ratio (z) = 0.62605 0.10497
#
# Static dielectric constant tensor:
#      x y z
#    x 1.653280 0.000000 -0.003650 
#    y 0.000000 1.681160 0.000000 
#    z -0.003650 0.000000 1.693290 
# 
# From -- ./inp_files/94278.got.cif
#   From: 2010.05.17/outbox.cif.g08.bks.cpg/sg10_48_cif.got.tgz:94278.got - 2010.06.03 11:33:40.
