data_PCOD9146626
_publ_section_title
;
Structure prediction by ZEFSAII (Michael W. Deem and Ramdas Pophale) SiO2 
 PCOD9146626
Probable space group: P 2/M
;
_chemical_formula_sum "Si O2"
_cell_formula_units_Z 28
_cell_length_a 21.153460
_cell_length_b 7.666546
_cell_length_c 15.026393
_cell_angle_alpha 90.000000
_cell_angle_beta 32.102109
_cell_angle_gamma 90.000000
_cell_volume 1295.035801
_symmetry_space_group_name_H-M "P 2/M"
_symmetry_group_IT_number 10
_symmetry_cell_setting 'monoclinic'
loop_
_space_group_symop_operation_xyz
x,y,z
-x,y,-z
-x,-y,-z
x,-y,z
loop_
_atom_site_type_symbol
_atom_site_label
_atom_site_fract_x
_atom_site_fract_y
_atom_site_fract_z
Si Si1 0.729089 0.198503 0.879899
Si Si2 0.185419 0.704314 0.033297
Si Si3 0.634861 0.713337 0.325121
Si Si4 0.924593 0.711699 0.304513
Si Si5 0.271978 0.793118 0.316655
Si Si6 0.535511 0.701879 0.771646
Si Si7 0.268091 0.287373 0.603167
O O1 0.744525 0.277144 0.763256
O O2 0.771900 0.000000 0.824760
O O3 0.794252 0.281257 0.886031
O O4 0.588276 0.203190 0.067670
O O5 0.180469 0.500000 0.016726
O O6 0.297898 0.774548 0.843725
O O7 0.058350 0.778493 0.154996
O O8 0.500000 0.774317 0.500000
O O9 0.628426 0.500000 0.330655
O O10 0.711979 0.764222 0.319374
O O11 0.926832 0.500000 0.300338
O O12 0.843685 0.763633 0.484995
O O13 0.851594 0.769595 0.304157
O O14 0.382787 0.712512 0.237869
O O15 0.296234 0.000000 0.281562
O O16 0.506317 0.500000 0.787247
O O17 0.619852 0.768256 0.591435
O O18 0.268799 0.500000 0.599964
#
# Coordination Sequence:
#
# PCOD9146626 Si02
#       7
#     4   4   4   4   4   4   4
#     4  11  23  36  51  74 106 143 179 216 264 319
#     4  10  21  35  53  77 104 137 180 226 264 304
#     4   9  16  28  50  80 109 136 169 212 263 316
#     4   9  19  35  53  77 105 135 178 225 266 309
#     4  10  21  36  54  76 104 140 178 215 261 319
#     4  10  19  33  56  84 110 136 171 216 263 310
#     4   8  15  29  51  78 107 136 167 210 262 313
#
# _framework density 21.621023999999998
#
# number of rings (size 3 to 8) (size 9 to 14) (size 15 to 20)
#    0.000    2.429    0.000    3.429    0.000    8.000 
#    0.000    5.714    0.000    7.286    0.000    5.000 
#    0.000    0.000    0.000    0.000    0.000    0.000 
#
# Total GULP energy -156353.180251 kJ/mol
# GULP energy per Si atom -5584.042152 kJ/mol
# Density = 2.157181 g / cm^3
# Si number density = 21.621024 Si / 1000 Ang^3
#
#
#
# Elastic Constant Matrix: (Units=GPa)
#
#
# Indices 1 2 3 4 5 6 
#
# 1 84.1528 -12.5400 21.1909 0.0000 3.4521 0.0000
# 2 -12.5400 38.6263 -7.5416 0.0000 -0.3569 0.0000
# 3 21.1909 -7.5416 30.1908 0.0000 -18.6189 0.0000
# 4 0.0000 0.0000 0.0000 -1.6424 0.0000 22.5416
# 5 3.4521 -0.3569 -18.6189 0.0000 32.2851 0.0000
# 6 0.0000 0.0000 0.0000 22.5416 0.0000 33.0077
#
#
#
# Elastic Compliance Matrix: (Units=1/GPa)
#
#
# Indices 1 2 3 4 5 6 
#
# 1 0.017903 0.001647 -0.020678 0.000000 -0.013821 0.000000
# 2 0.001647 0.028291 0.009305 0.000000 0.005503 0.000000
# 3 -0.020678 0.009305 0.079752 0.000000 0.048307 0.000000
# 4 0.000000 0.000000 0.000000 -0.058697 0.000000 0.040086
# 5 -0.013821 0.005503 0.048307 0.000000 0.060372 0.000000
# 6 0.000000 0.000000 0.000000 0.040086 0.000000 0.002921
#
#
# Mechanical properties :
#
#
# Convention : Reuss Voigt Hill
#
# Bulk Modulus (GPa) = 9.39023 17.24315 13.31669
# Shear Modulus (GPa) = 26.95541 22.85412 24.90476
#
# Velocity S-wave (km/s) = 3.53473 3.25473 3.39761
# Velocity P-wave (km/s) = 4.58384 4.70286 4.64373
#
# Compressibility (1/GPa) = 0.10649365
#
# Stress axis : x y z
#
# Youngs Moduli (GPa) = 55.85796 35.34647 12.53883
#
# Poissons Ratio (x) = -0.05822 0.25928
# Poissons Ratio (y) = -0.09200 -0.11667
# Poissons Ratio (z) = 1.15503 -0.32888
#
# Static dielectric constant tensor:
#      x y z
#    x 1.773190 0.000000 0.009610 
#    y 0.000000 1.799950 0.000000 
#    z 0.009610 0.000000 1.763620 
# 
# From -- ./inp_files/49404.got.cif
#   From: 2010.05.17/outbox.cif.g08.bks.cpg/sg10_25_cif.got.tgz:49404.got - 2010.06.03 11:33:40.
