data_PCOD9146261
_publ_section_title
;
Structure prediction by ZEFSAII (Michael W. Deem and Ramdas Pophale) SiO2 
 PCOD9146261
Probable space group: P 2/M
;
_chemical_formula_sum "Si O2"
_cell_formula_units_Z 24
_cell_length_a 11.534406
_cell_length_b 13.580996
_cell_length_c 14.758728
_cell_angle_alpha 90.000000
_cell_angle_beta 27.510533
_cell_angle_gamma 90.000000
_cell_volume 1067.910160
_symmetry_space_group_name_H-M "P 2/M"
_symmetry_group_IT_number 10
_symmetry_cell_setting 'monoclinic'
loop_
_space_group_symop_operation_xyz
x,y,z
-x,y,-z
-x,-y,-z
x,-y,z
loop_
_atom_site_type_symbol
_atom_site_label
_atom_site_fract_x
_atom_site_fract_y
_atom_site_fract_z
Si Si1 0.733813 0.886239 0.717554
Si Si2 0.457526 0.614570 0.269212
Si Si3 0.970344 0.387099 0.121188
Si Si4 0.187162 0.113057 0.121389
Si Si5 0.761558 0.383265 0.771980
Si Si6 0.817376 0.718581 0.396591
O O1 0.761360 0.888841 0.806570
O O2 0.000000 0.842235 0.500000
O O3 0.729357 0.000000 0.686939
O O4 0.450655 0.846989 0.895327
O O5 0.409402 0.500000 0.332793
O O6 0.281329 0.634764 0.304915
O O7 0.418911 0.693062 0.376430
O O8 0.745347 0.614761 0.037569
O O9 0.887963 0.500000 0.167087
O O10 0.800773 0.336789 0.313122
O O11 0.000000 0.344236 0.000000
O O12 0.934592 0.176251 0.288669
O O13 0.154651 0.000000 0.114141
O O14 0.800763 0.500000 0.754802
O O15 0.971401 0.328522 0.683511
O O16 0.500000 0.356362 0.000000
#
# Coordination Sequence:
#
# PCOD9146261 Si02
#       6
#     4   4   4   4   4   4
#     4   8  15  30  49  68  99 143 184 222 270 324
#     4  10  21  36  56  85 114 145 185 223 271 338
#     4  10  22  40  59  81 111 143 180 231 282 330
#     4   9  20  33  47  74 108 142 184 233 275 320
#     4  10  19  33  53  80 117 151 179 216 271 337
#     4  12  22  33  57  81 113 150 189 224 274 333
#
# _framework density 22.473801000000002
#
# number of rings (size 3 to 8) (size 9 to 14) (size 15 to 20)
#    0.000    2.167    1.667    3.000    2.333    4.667 
#    0.000    2.500    0.000    0.500    0.000    1.167 
#    0.000    0.000    0.000    0.000    0.000    0.000 
#
# Total GULP energy -133943.894051 kJ/mol
# GULP energy per Si atom -5580.995585 kJ/mol
# Density = 2.242265 g / cm^3
# Si number density = 22.473801 Si / 1000 Ang^3
#
#
#
# Elastic Constant Matrix: (Units=GPa)
#
#
# Indices 1 2 3 4 5 6 
#
# 1 65.3143 6.2726 4.6407 0.0000 14.9678 0.0000
# 2 6.2726 87.4785 27.0861 0.0000 6.1032 0.0000
# 3 4.6407 27.0861 113.5745 0.0000 9.8453 0.0000
# 4 0.0000 0.0000 0.0000 -18.8847 0.0000 -3.6416
# 5 14.9678 6.1032 9.8453 0.0000 32.3450 0.0000
# 6 0.0000 0.0000 0.0000 -3.6416 0.0000 3.8757
#
#
#
# Elastic Compliance Matrix: (Units=1/GPa)
#
#
# Indices 1 2 3 4 5 6 
#
# 1 0.017170 -0.000731 0.000154 0.000000 -0.007854 0.000000
# 2 -0.000731 0.012443 -0.002838 0.000000 -0.001146 0.000000
# 3 0.000154 -0.002838 0.009691 0.000000 -0.002485 0.000000
# 4 0.000000 0.000000 0.000000 -0.044830 0.000000 -0.042122
# 5 -0.007854 -0.001146 -0.002485 0.000000 0.035524 0.000000
# 6 0.000000 0.000000 0.000000 -0.042122 0.000000 0.218440
#
#
# Mechanical properties :
#
#
# Convention : Reuss Voigt Hill
#
# Bulk Modulus (GPa) = 30.79545 38.04070 34.41807
# Shear Modulus (GPa) = 18.79055 18.69172 18.74113
#
# Velocity S-wave (km/s) = 2.89469 2.88707 2.89088
# Velocity P-wave (km/s) = 4.99048 5.29877 5.14694
#
# Compressibility (1/GPa) = 0.03247233
#
# Stress axis : x y z
#
# Youngs Moduli (GPa) = 58.24196 80.36962 103.19028
#
# Poissons Ratio (x) = 0.05873 -0.01585
# Poissons Ratio (y) = 0.04256 0.29288
# Poissons Ratio (z) = -0.00894 0.22811
#
# Static dielectric constant tensor:
#      x y z
#    x 1.808990 0.000000 -0.030210 
#    y 0.000000 1.914670 0.000000 
#    z -0.030210 0.000000 1.923950 
# 
# From -- ./inp_files/51522.got.cif
#   From: 2010.05.17/outbox.cif.g08.bks.cpg/sg10_26_cif.got.tgz:51522.got - 2010.06.03 11:33:40.
