data_PCOD9146904
_publ_section_title
;
Structure prediction by ZEFSAII (Michael W. Deem and Ramdas Pophale) SiO2 
 PCOD9146904
Probable space group: P 2/M
;
_chemical_formula_sum "Si O2"
_cell_formula_units_Z 28
_cell_length_a 9.746731
_cell_length_b 7.770764
_cell_length_c 26.600128
_cell_angle_alpha 90.000000
_cell_angle_beta 40.252779
_cell_angle_gamma 90.000000
_cell_volume 1301.808691
_symmetry_space_group_name_H-M "P 2/M"
_symmetry_group_IT_number 10
_symmetry_cell_setting 'monoclinic'
loop_
_space_group_symop_operation_xyz
x,y,z
-x,y,-z
-x,-y,-z
x,-y,z
loop_
_atom_site_type_symbol
_atom_site_label
_atom_site_fract_x
_atom_site_fract_y
_atom_site_fract_z
Si Si1 0.318289 0.205160 0.186984
Si Si2 0.181928 0.700745 0.335852
Si Si3 0.582766 0.301747 0.424729
Si Si4 0.162546 0.802220 0.496618
Si Si5 0.644365 0.291695 0.231117
Si Si6 0.776071 0.794553 0.081654
Si Si7 0.905139 0.707612 0.254484
O O1 0.225043 0.281412 0.264758
O O2 0.560623 0.269356 0.114772
O O3 0.151524 0.247490 0.190276
O O4 0.325375 0.000000 0.191348
O O5 0.152735 0.500000 0.355821
O O6 0.398644 0.766592 0.301488
O O7 0.974930 0.794197 0.413914
O O8 0.500000 0.221283 0.500000
O O9 0.641327 0.500000 0.420374
O O10 0.380532 0.297004 0.444052
O O11 0.777947 0.225210 0.339083
O O12 0.000000 0.733703 0.500000
O O13 0.213100 0.000000 0.470116
O O14 0.637696 0.500000 0.233560
O O15 0.739852 0.237771 0.150861
O O16 0.785939 0.230722 0.237894
O O17 0.782063 0.000000 0.071923
O O18 0.000000 0.722351 0.000000
O O19 0.886383 0.500000 0.260325
#
# Coordination Sequence:
#
# PCOD9146904 Si02
#       7
#     4   4   4   4   4   4   4
#     4  10  20  34  55  81 106 135 171 210 257 312
#     4  10  19  34  55  75  99 135 178 220 262 312
#     4  10  21  36  54  75 101 140 185 224 266 314
#     4  11  23  35  49  74 105 135 173 223 272 314
#     4   9  19  34  54  80 107 139 178 218 261 310
#     4   9  19  37  59  82 108 137 171 212 258 313
#     4  10  20  35  53  77 110 142 177 220 263 313
#
# _framework density 21.508538000000001
#
# number of rings (size 3 to 8) (size 9 to 14) (size 15 to 20)
#    0.000    2.143    0.000    3.000    0.000    6.286 
#    0.000    0.714    0.000    4.286    0.000    0.000 
#    0.000    0.000    0.000    0.000    0.000    0.000 
#
# Total GULP energy -156405.029749 kJ/mol
# GULP energy per Si atom -5585.893920 kJ/mol
# Density = 2.145958 g / cm^3
# Si number density = 21.508538 Si / 1000 Ang^3
#
#
#
# Elastic Constant Matrix: (Units=GPa)
#
#
# Indices 1 2 3 4 5 6 
#
# 1 117.0625 -5.3086 29.9539 0.0000 -31.0267 0.0000
# 2 -5.3086 35.1902 -0.5398 0.0000 -3.0958 0.0000
# 3 29.9539 -0.5398 99.8508 0.0000 -31.0687 0.0000
# 4 0.0000 0.0000 0.0000 13.7305 0.0000 3.6505
# 5 -31.0267 -3.0958 -31.0687 0.0000 26.2939 0.0000
# 6 0.0000 0.0000 0.0000 3.6505 0.0000 23.0546
#
#
#
# Elastic Compliance Matrix: (Units=1/GPa)
#
#
# Indices 1 2 3 4 5 6 
#
# 1 0.012957 0.003528 0.001611 0.000000 0.017608 0.000000
# 2 0.003528 0.029907 0.002363 0.000000 0.010477 0.000000
# 3 0.001611 0.002363 0.016166 0.000000 0.021281 0.000000
# 4 0.000000 0.000000 0.000000 0.076031 0.000000 -0.012039
# 5 0.017608 0.010477 0.021281 0.000000 0.085188 0.000000
# 6 0.000000 0.000000 0.000000 -0.012039 0.000000 0.045282
#
#
# Mechanical properties :
#
#
# Convention : Reuss Voigt Hill
#
# Bulk Modulus (GPa) = 13.50704 33.36829 23.43767
# Shear Modulus (GPa) = 18.16829 27.81567 22.99198
#
# Velocity S-wave (km/s) = 2.90953 3.60006 3.27306
# Velocity P-wave (km/s) = 4.19292 5.72960 5.02040
#
# Compressibility (1/GPa) = 0.07403548
#
# Stress axis : x y z
#
# Youngs Moduli (GPa) = 77.17698 33.43668 61.85842
#
# Poissons Ratio (x) = -0.11798 -0.09965
# Poissons Ratio (y) = -0.27232 -0.14618
# Poissons Ratio (z) = -0.12433 -0.07902
#
# Static dielectric constant tensor:
#      x y z
#    x 1.816620 0.000000 -0.011020 
#    y 0.000000 1.787620 0.000000 
#    z -0.011020 0.000000 1.767880 
# 
# From -- ./inp_files/36783.got.cif
#   From: 2010.05.17/outbox.cif.g08.bks.cpg/sg10_19_cif.got.tgz:36783.got - 2010.06.03 11:33:40.
