data_PCOD9146804
_publ_section_title
;
Structure prediction by ZEFSAII (Michael W. Deem and Ramdas Pophale) SiO2 
 PCOD9146804
Probable space group: P 2/M
;
_chemical_formula_sum "Si O2"
_cell_formula_units_Z 18
_cell_length_a 12.864286
_cell_length_b 15.744510
_cell_length_c 7.770105
_cell_angle_alpha 90.000000
_cell_angle_beta 144.730819
_cell_angle_gamma 90.000000
_cell_volume 908.724950
_symmetry_space_group_name_H-M "P 2/M"
_symmetry_group_IT_number 10
_symmetry_cell_setting 'monoclinic'
loop_
_space_group_symop_operation_xyz
x,y,z
-x,y,-z
-x,-y,-z
x,-y,z
loop_
_atom_site_type_symbol
_atom_site_label
_atom_site_fract_x
_atom_site_fract_y
_atom_site_fract_z
Si Si1 0.805075 0.778173 0.534593
Si Si2 0.653336 0.591941 0.352348
Si Si3 0.220041 0.094929 0.795747
Si Si4 0.765834 0.800648 0.865689
Si Si5 0.500000 0.348394 0.500000
O O1 0.763819 0.678172 0.472967
O O2 0.730680 0.833144 0.276295
O O3 0.731246 0.813625 0.616469
O O4 0.020541 0.787509 0.827628
O O5 0.748814 0.500000 0.470205
O O6 0.566252 0.600418 0.424232
O O7 0.500000 0.592462 0.000000
O O8 0.000000 0.092724 0.500000
O O9 0.281521 0.000000 0.835515
O O10 0.282767 0.124941 0.068711
O O11 0.660204 0.715311 0.772565
#
# Coordination Sequence:
#
# PCOD9146804 Si02
#       5
#     4   4   4   4   2
#     4   9  18  33  51  74 102 132 165 204 247 292
#     4  10  20  34  53  76 101 131 166 203 246 296
#     4   9  17  30  51  76 100 129 166 206 247 294
#     4   9  18  32  51  72  99 134 167 202 247 292
#     4  10  19  34  53  72 100 136 165 204 249 292
#
# _framework density 19.807974000000002
#
# number of rings (size 3 to 8) (size 9 to 14) (size 15 to 20)
#    0.000    2.667    0.000    1.667    0.000    0.889 
#    0.000   15.000    0.000   21.333    0.000    0.000 
#    0.000    0.000    0.000    0.000    0.000    0.000 
#
# Total GULP energy -100365.171096 kJ/mol
# GULP energy per Si atom -5575.842839 kJ/mol
# Density = 1.976289 g / cm^3
# Si number density = 19.807974 Si / 1000 Ang^3
#
#
#
# Elastic Constant Matrix: (Units=GPa)
#
#
# Indices 1 2 3 4 5 6 
#
# 1 59.8011 64.1968 21.1836 0.0000 -14.6739 0.0000
# 2 64.1968 146.3418 22.4631 0.0000 -30.1604 0.0000
# 3 21.1836 22.4631 30.9922 0.0000 -16.4755 0.0000
# 4 0.0000 0.0000 0.0000 2363.1007 0.0000-4017.3673
# 5 -14.6739 -30.1604 -16.4755 0.0000 25.2803 0.0000
# 6 0.0000 0.0000 0.0000-4017.3673 0.0000 6989.4447
#
#
#
# Elastic Compliance Matrix: (Units=1/GPa)
#
#
# Indices 1 2 3 4 5 6 
#
# 1 0.038259 -0.015684 -0.019776 0.000000 -0.009392 0.000000
# 2 -0.015684 0.015522 0.006847 0.000000 0.013877 0.000000
# 3 -0.019776 0.006847 0.059768 0.000000 0.035641 0.000000
# 4 0.000000 0.000000 0.000000 0.018514 0.000000 0.010641
# 5 -0.009392 0.013877 0.035641 0.000000 0.073889 0.000000
# 6 0.000000 0.000000 0.000000 0.010641 0.000000 0.006260
#
#
# Mechanical properties :
#
#
# Convention : Reuss Voigt Hill
#
# Bulk Modulus (GPa) = 17.75468 50.31357 34.03413
# Shear Modulus (GPa) = 17.34832 1884.18460 950.76646
#
# Velocity S-wave (km/s) = 2.96264 30.87540 21.93248
# Velocity P-wave (km/s) = 4.54817 36.00708 25.66316
#
# Compressibility (1/GPa) = 0.05632317
#
# Stress axis : x y z
#
# Youngs Moduli (GPa) = 26.13744 64.42278 16.73143
#
# Poissons Ratio (x) = 1.01038 0.33088
# Poissons Ratio (y) = 0.40993 -0.11455
# Poissons Ratio (z) = 0.51690 -0.44107
#
# Static dielectric constant tensor:
#      x y z
#    x 1.724590 0.000000 0.004510 
#    y 0.000000 1.687100 0.000000 
#    z 0.004510 0.000000 1.700550 
# 
# From -- ./inp_files/28907.got.cif
#   From: 2010.05.17/outbox.cif.g08.bks.cpg/sg10_15_cif.got.tgz:28907.got - 2010.06.03 11:33:40.
