data_PCOD9146432
_publ_section_title
;
Structure prediction by ZEFSAII (Michael W. Deem and Ramdas Pophale) SiO2 
 PCOD9146432
Probable space group: P 2/M
;
_chemical_formula_sum "Si O2"
_cell_formula_units_Z 32
_cell_length_a 24.350588
_cell_length_b 9.332863
_cell_length_c 11.715468
_cell_angle_alpha 90.000000
_cell_angle_beta 41.993255
_cell_angle_gamma 90.000000
_cell_volume 1781.304203
_symmetry_space_group_name_H-M "P 2/M"
_symmetry_group_IT_number 10
_symmetry_cell_setting 'monoclinic'
loop_
_space_group_symop_operation_xyz
x,y,z
-x,y,-z
-x,-y,-z
x,-y,z
loop_
_atom_site_type_symbol
_atom_site_label
_atom_site_fract_x
_atom_site_fract_y
_atom_site_fract_z
Si Si1 0.416335 0.664298 0.556032
Si Si2 0.350440 0.330638 0.279809
Si Si3 0.467197 0.167770 0.258097
Si Si4 0.122371 0.328779 0.016339
Si Si5 0.032879 0.835620 0.818122
Si Si6 0.816167 0.668616 0.331254
Si Si7 0.661750 0.169141 0.936156
Si Si8 0.267152 0.670942 0.960152
O O1 0.500000 0.669261 0.500000
O O2 0.406128 0.500000 0.528823
O O3 0.426267 0.771004 0.435856
O O4 0.340327 0.696437 0.756001
O O5 0.362627 0.500000 0.243605
O O6 0.430027 0.256752 0.210994
O O7 0.276067 0.309714 0.484294
O O8 0.326350 0.253277 0.200012
O O9 0.565081 0.186166 0.115741
O O10 0.449603 0.000000 0.269401
O O11 0.108553 0.500000 0.038164
O O12 0.169058 0.294732 0.824587
O O13 0.182214 0.293034 0.028216
O O14 0.036108 0.247311 0.146796
O O15 0.119970 0.757169 0.691076
O O16 0.040664 0.000000 0.770417
O O17 0.000000 0.832802 0.000000
O O18 0.835606 0.500000 0.313353
O O19 0.714179 0.239152 0.956218
O O20 0.678177 0.000000 0.898258
O O21 0.268213 0.500000 0.983571
#
# Coordination Sequence:
#
# PCOD9146432 Si02
#       8
#     4   4   4   4   4   4   4   4
#     4  10  19  33  55  79 105 137 177 222 262 308
#     4  11  23  38  58  79 101 135 183 229 266 311
#     4  11  23  37  54  77 108 141 177 221 272 324
#     4   9  17  31  53  80 110 139 170 210 257 311
#     4   9  17  29  49  79 112 141 169 202 251 314
#     4   9  18  34  55  80 108 136 170 213 263 312
#     4  11  24  39  53  73 105 143 181 222 271 319
#     4  10  20  35  55  79 106 141 183 222 263 312
#
# _framework density 17.964365000000001
#
# number of rings (size 3 to 8) (size 9 to 14) (size 15 to 20)
#    0.000    2.000    1.250    2.625    0.000    8.750 
#    0.000    2.500    0.000    0.750    0.000    5.250 
#    0.000    0.000    0.000    0.000    0.000    0.000 
#
# Total GULP energy -178690.282171 kJ/mol
# GULP energy per Si atom -5584.071318 kJ/mol
# Density = 1.792348 g / cm^3
# Si number density = 17.964365 Si / 1000 Ang^3
#
#
#
# Elastic Constant Matrix: (Units=GPa)
#
#
# Indices 1 2 3 4 5 6 
#
# 1 140.9364 75.0163 20.6119 0.0000 -2.3312 0.0000
# 2 75.0163 85.6706 28.3048 0.0000 3.3564 0.0000
# 3 20.6119 28.3048 13.5968 0.0000 7.3173 0.0000
# 4 0.0000 0.0000 0.0000 18.2755 0.0000 -1.9268
# 5 -2.3312 3.3564 7.3173 0.0000 21.4628 0.0000
# 6 0.0000 0.0000 0.0000 -1.9268 0.0000 15.1723
#
#
#
# Elastic Compliance Matrix: (Units=1/GPa)
#
#
# Indices 1 2 3 4 5 6 
#
# 1 0.014066 -0.017310 0.015225 0.000000 -0.000956 0.000000
# 2 -0.017310 0.074779 -0.149565 0.000000 0.037417 0.000000
# 3 0.015225 -0.149565 0.426619 0.000000 -0.120404 0.000000
# 4 0.000000 0.000000 0.000000 0.055461 0.000000 0.007043
# 5 -0.000956 0.037417 -0.120404 0.000000 0.081686 0.000000
# 6 0.000000 0.000000 0.000000 0.007043 0.000000 0.066804
#
#
# Mechanical properties :
#
#
# Convention : Reuss Voigt Hill
#
# Bulk Modulus (GPa) = 4.71335 54.22996 29.47165
# Shear Modulus (GPa) = 4.57274 18.73351 11.65312
#
# Velocity S-wave (km/s) = 1.59718 3.23277 2.54968
# Velocity P-wave (km/s) = 2.45575 6.64736 5.01090
#
# Compressibility (1/GPa) = 0.21216345
#
# Stress axis : x y z
#
# Youngs Moduli (GPa) = 71.09106 13.37277 2.34401
#
# Poissons Ratio (x) = 0.23148 -0.03569
# Poissons Ratio (y) = 1.23057 0.35058
# Poissons Ratio (z) = -1.08234 2.00010
#
# Static dielectric constant tensor:
#      x y z
#    x 1.604730 0.000000 -0.001730 
#    y 0.000000 1.600600 0.000000 
#    z -0.001730 0.000000 1.601830 
# 
# From -- ./inp_files/55204.got.cif
#   From: 2010.05.17/outbox.cif.g08.bks.cpg/sg10_28_cif.got.tgz:55204.got - 2010.06.03 11:33:40.
