data_PCOD9146862
_publ_section_title
;
Structure prediction by ZEFSAII (Michael W. Deem and Ramdas Pophale) SiO2 
 PCOD9146862
Probable space group: P 2/M
;
_chemical_formula_sum "Si O2"
_cell_formula_units_Z 24
_cell_length_a 5.511535
_cell_length_b 15.475510
_cell_length_c 13.274242
_cell_angle_alpha 90.000000
_cell_angle_beta 109.142941
_cell_angle_gamma 90.000000
_cell_volume 1069.603348
_symmetry_space_group_name_H-M "P 2/M"
_symmetry_group_IT_number 10
_symmetry_cell_setting 'monoclinic'
loop_
_space_group_symop_operation_xyz
x,y,z
-x,y,-z
-x,-y,-z
x,-y,z
loop_
_atom_site_type_symbol
_atom_site_label
_atom_site_fract_x
_atom_site_fract_y
_atom_site_fract_z
Si Si1 0.945847 0.594430 0.743287
Si Si2 0.336523 0.594324 0.606646
Si Si3 0.380553 0.905770 0.094401
Si Si4 0.817039 0.226352 0.795538
Si Si5 0.123564 0.902815 0.696153
Si Si6 0.640511 0.220939 0.420997
O O1 0.990698 0.500000 0.798470
O O2 0.645393 0.592290 0.667626
O O3 0.962401 0.682283 0.810867
O O4 0.156616 0.600509 0.682198
O O5 0.278246 0.500000 0.552064
O O6 0.273817 0.682067 0.538047
O O7 0.226417 0.820688 0.104671
O O8 0.608497 0.909635 0.207224
O O9 0.247362 0.000000 0.084475
O O10 0.500000 0.898901 0.000000
O O11 0.551532 0.239491 0.698613
O O12 0.950336 0.153322 0.746072
O O13 0.166756 0.845932 0.602995
O O14 0.028215 0.000000 0.664544
O O15 0.500000 0.183943 0.500000
#
# Coordination Sequence:
#
# PCOD9146862 Si02
#       6
#     4   4   4   4   4   4
#     4   9  17  31  54  79 108 144 185 227 274 328
#     4   9  17  32  52  78 107 142 185 232 280 326
#     4   9  19  35  56  83 109 133 169 223 283 337
#     4  10  19  34  54  76 108 141 181 223 275 326
#     4  10  20  35  54  76 103 139 181 223 272 327
#     4  10  21  35  50  73 108 146 185 228 270 319
#
# _framework density 22.438224999999999
#
# number of rings (size 3 to 8) (size 9 to 14) (size 15 to 20)
#    0.000    2.500    1.667    0.500    0.000    2.667 
#    0.000    3.333    0.000    5.500    0.000    1.167 
#    0.000    0.000    0.000    0.000    0.000    0.000 
#
# Total GULP energy -133818.225526 kJ/mol
# GULP energy per Si atom -5575.759397 kJ/mol
# Density = 2.238715 g / cm^3
# Si number density = 22.438225 Si / 1000 Ang^3
#
#
#
# Elastic Constant Matrix: (Units=GPa)
#
#
# Indices 1 2 3 4 5 6 
#
# 1 83.4705 18.3970 12.4644 0.0000 -8.2106 0.0000
# 2 18.3970 218.9074 42.8651 0.0000 -35.4338 0.0000
# 3 12.4644 42.8651 75.4940 0.0000 -14.2704 0.0000
# 4 0.0000 0.0000 0.0000 24.5293 0.0000 -21.0695
# 5 -8.2106 -35.4338 -14.2704 0.0000 37.7005 0.0000
# 6 0.0000 0.0000 0.0000 -21.0695 0.0000 26.9165
#
#
#
# Elastic Compliance Matrix: (Units=1/GPa)
#
#
# Indices 1 2 3 4 5 6 
#
# 1 0.012473 -0.000486 -0.001461 0.000000 0.001707 0.000000
# 2 -0.000486 0.005792 -0.002369 0.000000 0.004441 0.000000
# 3 -0.001461 -0.002369 0.015457 0.000000 0.003306 0.000000
# 4 0.000000 0.000000 0.000000 0.124429 0.000000 0.097400
# 5 0.001707 0.004441 0.003306 0.000000 0.032322 0.000000
# 6 0.000000 0.000000 0.000000 0.097400 0.000000 0.113394
#
#
# Mechanical properties :
#
#
# Convention : Reuss Voigt Hill
#
# Bulk Modulus (GPa) = 39.85464 58.36944 49.11204
# Shear Modulus (GPa) = 15.58301 38.10559 26.84430
#
# Velocity S-wave (km/s) = 2.63817 4.12545 3.46260
# Velocity P-wave (km/s) = 5.20388 6.98300 6.15803
#
# Compressibility (1/GPa) = 0.02509118
#
# Stress axis : x y z
#
# Youngs Moduli (GPa) = 80.17044 172.66176 64.69450
#
# Poissons Ratio (x) = 0.08390 0.09451
# Poissons Ratio (y) = 0.03896 0.15325
# Poissons Ratio (z) = 0.11712 0.40900
#
# Static dielectric constant tensor:
#      x y z
#    x 1.951610 0.000000 0.036450 
#    y 0.000000 1.928640 0.000000 
#    z 0.036450 0.000000 1.813830 
# 
# From -- ./inp_files/7238.got.cif
#   From: 2010.05.17/outbox.cif.g08.bks.cpg/sg10_4_cif.got.tgz:7238.got - 2010.06.03 11:33:40.
