data_PCOD9146729
_publ_section_title
;
Structure prediction by ZEFSAII (Michael W. Deem and Ramdas Pophale) SiO2 
 PCOD9146729
Probable space group: P 2/M
;
_chemical_formula_sum "Si O2"
_cell_formula_units_Z 24
_cell_length_a 15.225559
_cell_length_b 7.543461
_cell_length_c 9.751635
_cell_angle_alpha 90.000000
_cell_angle_beta 96.789015
_cell_angle_gamma 90.000000
_cell_volume 1112.155252
_symmetry_space_group_name_H-M "P 2/M"
_symmetry_group_IT_number 10
_symmetry_cell_setting 'monoclinic'
loop_
_space_group_symop_operation_xyz
x,y,z
-x,y,-z
-x,-y,-z
x,-y,z
loop_
_atom_site_type_symbol
_atom_site_label
_atom_site_fract_x
_atom_site_fract_y
_atom_site_fract_z
Si Si1 0.919873 0.289043 0.891486
Si Si2 0.548025 0.783600 0.368549
Si Si3 0.247339 0.211139 0.952158
Si Si4 0.914570 0.788767 0.567174
Si Si5 0.250253 0.782939 0.641540
Si Si6 0.571657 0.796785 0.893632
O O1 0.927091 0.500000 0.892626
O O2 0.920693 0.236806 0.731861
O O3 0.830556 0.240694 0.954865
O O4 0.000000 0.216363 0.000000
O O5 0.500000 0.740729 0.500000
O O6 0.649623 0.725398 0.374075
O O7 0.482466 0.713727 0.239857
O O8 0.551655 0.000000 0.356042
O O9 0.228438 0.274472 0.793773
O O10 0.260411 0.000000 0.938362
O O11 0.338653 0.284343 0.031311
O O12 0.823978 0.721885 0.480089
O O13 0.000000 0.718609 0.500000
O O14 0.913939 0.000000 0.545586
O O15 0.250097 0.000000 0.637861
O O16 0.594619 0.000000 0.855150
O O17 0.500000 0.807026 0.000000
#
# Coordination Sequence:
#
# PCOD9146729 Si02
#       6
#     4   4   4   4   4   4
#     4  11  25  42  58  79 108 144 186 228 274 331
#     4   9  16  24  39  70 114 150 175 211 262 321
#     4  10  19  33  58  86 113 144 183 230 275 320
#     4  10  21  37  59  86 113 139 175 225 279 330
#     4   9  17  30  49  80 116 145 175 219 275 326
#     4   9  15  26  45  77 114 146 178 217 268 321
#
# _framework density 21.579720999999999
#
# number of rings (size 3 to 8) (size 9 to 14) (size 15 to 20)
#    0.000    2.333    1.667    1.500    2.333    3.000 
#    0.000    0.833    0.000    0.500    0.000    1.167 
#    0.000    0.000    0.000    0.000    0.000    0.000 
#
# Total GULP energy -133938.293751 kJ/mol
# GULP energy per Si atom -5580.762240 kJ/mol
# Density = 2.153060 g / cm^3
# Si number density = 21.579721 Si / 1000 Ang^3
#
#
#
# Elastic Constant Matrix: (Units=GPa)
#
#
# Indices 1 2 3 4 5 6 
#
# 1 183.6311 0.7101 115.8172 0.0000 20.4271 0.0000
# 2 0.7101 52.0707 -0.0782 0.0000 6.7461 0.0000
# 3 115.8172 -0.0782 206.4260 0.0000 20.7644 0.0000
# 4 0.0000 0.0000 0.0000 -21.9319 0.0000 25.5590
# 5 20.4271 6.7461 20.7644 0.0000 44.5293 0.0000
# 6 0.0000 0.0000 0.0000 25.5590 0.0000 -216.1835
#
#
#
# Elastic Compliance Matrix: (Units=1/GPa)
#
#
# Indices 1 2 3 4 5 6 
#
# 1 0.008560 0.000108 -0.004623 0.000000 -0.001787 0.000000
# 2 0.000108 0.019611 0.000263 0.000000 -0.003143 0.000000
# 3 -0.004623 0.000263 0.007584 0.000000 -0.001456 0.000000
# 4 0.000000 0.000000 0.000000 -0.052882 0.000000 -0.006252
# 5 -0.001787 -0.003143 -0.001456 0.000000 0.024432 0.000000
# 6 0.000000 0.000000 0.000000 -0.006252 0.000000 -0.005365
#
#
# Mechanical properties :
#
#
# Convention : Reuss Voigt Hill
#
# Bulk Modulus (GPa) = 36.69511 75.00287 55.84899
# Shear Modulus (GPa) = 256.04809 -17.00530 119.52140
#
# Velocity S-wave (km/s) = 10.90458 -2.81022 7.45025
# Velocity P-wave (km/s) = 13.25095 4.92969 9.99724
#
# Compressibility (1/GPa) = 0.02725159
#
# Stress axis : x y z
#
# Youngs Moduli (GPa) = 116.82757 50.99228 131.84832
#
# Poissons Ratio (x) = -0.00550 0.60948
# Poissons Ratio (y) = -0.01260 -0.03469
# Poissons Ratio (z) = 0.54005 -0.01341
#
# Static dielectric constant tensor:
#      x y z
#    x 1.772910 0.000000 0.010990 
#    y 0.000000 1.828950 0.000000 
#    z 0.010990 0.000000 1.761080 
# 
# From -- ./inp_files/27235.got.cif
#   From: 2010.05.17/outbox.cif.g08.bks.cpg/sg10_14_cif.got.tgz:27235.got - 2010.06.03 11:33:40.
