data_PCOD9146649
_publ_section_title
;
Structure prediction by ZEFSAII (Michael W. Deem and Ramdas Pophale) SiO2 
 PCOD9146649
Probable space group: P 2/M
;
_chemical_formula_sum "Si O2"
_cell_formula_units_Z 32
_cell_length_a 25.379459
_cell_length_b 7.630330
_cell_length_c 16.664403
_cell_angle_alpha 90.000000
_cell_angle_beta 153.427245
_cell_angle_gamma 90.000000
_cell_volume 1443.601109
_symmetry_space_group_name_H-M "P 2/M"
_symmetry_group_IT_number 10
_symmetry_cell_setting 'monoclinic'
loop_
_space_group_symop_operation_xyz
x,y,z
-x,y,-z
-x,-y,-z
x,-y,z
loop_
_atom_site_type_symbol
_atom_site_label
_atom_site_fract_x
_atom_site_fract_y
_atom_site_fract_z
Si Si1 0.830367 0.710119 0.962498
Si Si2 0.261363 0.204996 0.854002
Si Si3 0.496460 0.205530 0.254297
Si Si4 0.284893 0.712394 0.553643
Si Si5 0.586202 0.789859 0.547568
Si Si6 0.954801 0.286246 0.852222
Si Si7 0.170610 0.297441 0.560999
Si Si8 0.907126 0.712886 0.235707
O O1 0.836622 0.500000 0.973835
O O2 0.719100 0.754530 0.756402
O O3 0.827490 0.769448 0.050993
O O4 0.951326 0.771927 0.086425
O O5 0.239214 0.289732 0.737886
O O6 0.148482 0.223938 0.757507
O O7 0.282158 0.000000 0.866649
O O8 0.373207 0.280293 0.054667
O O9 0.593898 0.221437 0.317822
O O10 0.548486 0.279134 0.408664
O O11 0.474160 0.000000 0.239027
O O12 0.293062 0.500000 0.564768
O O13 0.176980 0.766587 0.348934
O O14 0.245883 0.774190 0.589122
O O15 0.500000 0.722032 0.500000
O O16 0.574508 0.000000 0.529413
O O17 0.955216 0.500000 0.852911
O O18 0.000000 0.227151 0.000000
O O19 0.148497 0.500000 0.508098
O O20 0.039970 0.223669 0.399096
O O21 0.908767 0.500000 0.242339
#
# Coordination Sequence:
#
# PCOD9146649 Si02
#       8
#     4   4   4   4   4   4   4   4
#     4  10  19  33  56  86 114 143 183 230 281 337
#     4  11  24  40  59  83 112 152 199 241 287 341
#     4  10  23  41  57  79 116 156 195 241 289 335
#     4  10  20  37  61  86 114 150 191 233 284 348
#     4  10  21  38  57  78 112 157 196 233 283 337
#     4   9  16  29  52  82 112 141 176 222 274 328
#     4  10  21  39  61  87 118 149 185 235 295 347
#     4  10  20  37  60  87 120 150 183 234 294 348
#
# _framework density 22.166789000000001
#
# number of rings (size 3 to 8) (size 9 to 14) (size 15 to 20)
#    0.000    2.000    1.250    2.250    0.000    7.250 
#    0.000    3.125    0.000    2.250    0.000    0.000 
#    0.000    0.000    0.000    0.000    0.000    0.000 
#
# Total GULP energy -178805.302687 kJ/mol
# GULP energy per Si atom -5587.665709 kJ/mol
# Density = 2.211634 g / cm^3
# Si number density = 22.166789 Si / 1000 Ang^3
#
#
#
# Elastic Constant Matrix: (Units=GPa)
#
#
# Indices 1 2 3 4 5 6 
#
# 1 99.8032 -9.3140 21.3578 0.0000 -10.0426 0.0000
# 2 -9.3140 39.6941 -1.8767 0.0000 -1.6045 0.0000
# 3 21.3578 -1.8767 89.6763 0.0000 -7.2994 0.0000
# 4 0.0000 0.0000 0.0000 19.2969 0.0000 3.5567
# 5 -10.0426 -1.6045 -7.2994 0.0000 41.6307 0.0000
# 6 0.0000 0.0000 0.0000 3.5567 0.0000 13.6136
#
#
#
# Elastic Compliance Matrix: (Units=1/GPa)
#
#
# Indices 1 2 3 4 5 6 
#
# 1 0.011003 0.002564 -0.002377 0.000000 0.002336 0.000000
# 2 0.002564 0.025863 0.000063 0.000000 0.001626 0.000000
# 3 -0.002377 0.000063 0.011841 0.000000 0.001505 0.000000
# 4 0.000000 0.000000 0.000000 0.054443 0.000000 -0.014224
# 5 0.002336 0.001626 0.001505 0.000000 0.024911 0.000000
# 6 0.000000 0.000000 0.000000 -0.014224 0.000000 0.077172
#
#
# Mechanical properties :
#
#
# Convention : Reuss Voigt Hill
#
# Bulk Modulus (GPa) = 20.32228 27.72308 24.02268
# Shear Modulus (GPa) = 22.61061 29.50867 26.05964
#
# Velocity S-wave (km/s) = 3.19724 3.65253 3.43245
# Velocity P-wave (km/s) = 4.77678 5.50652 5.15458
#
# Compressibility (1/GPa) = 0.04920707
#
# Stress axis : x y z
#
# Youngs Moduli (GPa) = 90.88706 38.66534 84.45165
#
# Poissons Ratio (x) = -0.09913 0.20071
# Poissons Ratio (y) = -0.23302 -0.00532
# Poissons Ratio (z) = 0.21601 -0.00244
#
# Static dielectric constant tensor:
#      x y z
#    x 1.795750 0.000000 -0.009250 
#    y 0.000000 1.836510 0.000000 
#    z -0.009250 0.000000 1.810410 
# 
# From -- ./inp_files/71704.got.cif
#   From: 2010.05.17/outbox.cif.g08.bks.cpg/sg10_36_cif.got.tgz:71704.got - 2010.06.03 11:33:40.
