data_PCOD9146443
_publ_section_title
;
Structure prediction by ZEFSAII (Michael W. Deem and Ramdas Pophale) SiO2 
 PCOD9146443
Probable space group: P 2/M
;
_chemical_formula_sum "Si O2"
_cell_formula_units_Z 32
_cell_length_a 23.167557
_cell_length_b 8.570538
_cell_length_c 14.178947
_cell_angle_alpha 90.000000
_cell_angle_beta 140.568212
_cell_angle_gamma 90.000000
_cell_volume 1788.194895
_symmetry_space_group_name_H-M "P 2/M"
_symmetry_group_IT_number 10
_symmetry_cell_setting 'monoclinic'
loop_
_space_group_symop_operation_xyz
x,y,z
-x,y,-z
-x,-y,-z
x,-y,z
loop_
_atom_site_type_symbol
_atom_site_label
_atom_site_fract_x
_atom_site_fract_y
_atom_site_fract_z
Si Si1 0.973704 0.813323 0.359487
Si Si2 0.292403 0.187913 0.517923
Si Si3 0.717840 0.325873 0.211755
Si Si4 0.580415 0.822141 0.158987
Si Si5 0.407339 0.685780 0.498225
Si Si6 0.237045 0.187272 0.927952
Si Si7 0.867625 0.677533 0.558966
Si Si8 0.398238 0.813341 0.275364
O O1 0.870108 0.776142 0.199422
O O2 0.000000 0.755787 0.500000
O O3 0.040546 0.756563 0.361132
O O4 0.981913 0.000000 0.374713
O O5 0.373121 0.247221 0.689995
O O6 0.325589 0.247761 0.458884
O O7 0.197426 0.244739 0.443824
O O8 0.292131 0.000000 0.519547
O O9 0.677784 0.500000 0.174118
O O10 0.660113 0.187035 0.183722
O O11 0.731659 0.286850 0.121621
O O12 0.808741 0.324450 0.388242
O O13 0.552974 0.000000 0.147302
O O14 0.500000 0.742136 0.000000
O O15 0.410351 0.500000 0.509692
O O16 0.393343 0.736231 0.372141
O O17 0.507009 0.754431 0.651356
O O18 0.243432 0.000000 0.917329
O O19 0.307421 0.220784 0.101055
O O20 0.884664 0.500000 0.609929
O O21 0.405409 0.000000 0.295021
#
# Coordination Sequence:
#
# PCOD9146443 Si02
#       8
#     4   4   4   4   4   4   4   4
#     4  10  19  33  55  79 108 147 187 224 266 317
#     4  10  20  35  56  78 104 142 184 222 266 320
#     4  10  20  31  46  71 106 142 177 217 263 313
#     4   9  19  33  48  69  99 138 180 218 255 309
#     4  11  22  38  59  83 111 140 177 225 280 329
#     4  10  21  35  54  79 107 143 183 225 267 315
#     4  10  20  34  51  77 111 145 182 223 266 315
#     4  10  21  38  59  82 109 141 184 227 269 324
#
# _framework density 17.895142
#
# number of rings (size 3 to 8) (size 9 to 14) (size 15 to 20)
#    0.000    2.000    1.250    3.375    1.750    3.500 
#    0.000    0.000    0.000    0.750    0.000    5.250 
#    0.000    0.000    0.000    0.000    0.000    0.000 
#
# Total GULP energy -178187.651311 kJ/mol
# GULP energy per Si atom -5568.364103 kJ/mol
# Density = 1.785441 g / cm^3
# Si number density = 17.895142 Si / 1000 Ang^3
#
#
#
# Elastic Constant Matrix: (Units=GPa)
#
#
# Indices 1 2 3 4 5 6 
#
# 1 75.6458 13.9651 36.1777 0.0000 -15.6973 0.0000
# 2 13.9651 38.1196 28.2732 0.0000 -4.3494 0.0000
# 3 36.1777 28.2732 62.7512 0.0000 9.8538 0.0000
# 4 0.0000 0.0000 0.0000 19.7114 0.0000 -15.6856
# 5 -15.6973 -4.3494 9.8538 0.0000 14.2651 0.0000
# 6 0.0000 0.0000 0.0000 -15.6856 0.0000 28.4222
#
#
#
# Elastic Compliance Matrix: (Units=1/GPa)
#
#
# Indices 1 2 3 4 5 6 
#
# 1 0.271025 0.240181 -0.362074 0.000000 0.621573 0.000000
# 2 0.240181 0.264642 -0.349826 0.000000 0.586630 0.000000
# 3 -0.362074 -0.349826 0.517776 0.000000 -0.862747 0.000000
# 4 0.000000 0.000000 0.000000 0.090458 0.000000 0.049922
# 5 0.621573 0.586630 -0.862747 0.000000 1.528895 0.000000
# 6 0.000000 0.000000 0.000000 0.049922 0.000000 0.062735
#
#
# Mechanical properties :
#
#
# Convention : Reuss Voigt Hill
#
# Bulk Modulus (GPa) = 9.09059 37.03874 23.06466
# Shear Modulus (GPa) = 1.34566 19.01978 10.18272
#
# Velocity S-wave (km/s) = 0.86810 3.26367 2.38800
# Velocity P-wave (km/s) = 2.46896 5.91140 4.52992
#
# Compressibility (1/GPa) = 0.11000387
#
# Stress axis : x y z
#
# Youngs Moduli (GPa) = 3.68969 3.77869 1.93134
#
# Poissons Ratio (x) = -0.90757 0.69929
# Poissons Ratio (y) = -0.88619 0.67563
# Poissons Ratio (z) = 1.33594 1.32188
#
# Static dielectric constant tensor:
#      x y z
#    x 1.651040 0.000000 0.053320 
#    y 0.000000 1.641830 0.000000 
#    z 0.053320 0.000000 1.680220 
# 
# From -- ./inp_files/55389.got.cif
#   From: 2010.05.17/outbox.cif.g08.bks.cpg/sg10_28_cif.got.tgz:55389.got - 2010.06.03 11:33:40.
