data_PCOD9146674
_publ_section_title
;
Structure prediction by ZEFSAII (Michael W. Deem and Ramdas Pophale) SiO2 
 PCOD9146674
Probable space group: P 2/M
;
_chemical_formula_sum "Si O2"
_cell_formula_units_Z 24
_cell_length_a 11.573660
_cell_length_b 17.613838
_cell_length_c 8.954676
_cell_angle_alpha 90.000000
_cell_angle_beta 51.579527
_cell_angle_gamma 90.000000
_cell_volume 1430.203294
_symmetry_space_group_name_H-M "P 2/M"
_symmetry_group_IT_number 10
_symmetry_cell_setting 'monoclinic'
loop_
_space_group_symop_operation_xyz
x,y,z
-x,y,-z
-x,-y,-z
x,-y,z
loop_
_atom_site_type_symbol
_atom_site_label
_atom_site_fract_x
_atom_site_fract_y
_atom_site_fract_z
Si Si1 0.845672 0.231767 0.704230
Si Si2 0.588404 0.411216 0.273773
Si Si3 0.159190 0.287811 0.948486
Si Si4 0.662409 0.914737 0.941333
Si Si5 0.595415 0.829228 0.283900
Si Si6 0.426086 0.293545 0.218862
O O1 0.763109 0.151155 0.791222
O O2 0.745015 0.283494 0.676780
O O3 0.000000 0.221541 0.500000
O O4 0.854422 0.267876 0.863683
O O5 0.500000 0.401370 0.500000
O O6 0.615015 0.500000 0.228108
O O7 0.739163 0.362569 0.151860
O O8 0.482750 0.373461 0.234674
O O9 0.258145 0.219860 0.797458
O O10 0.000000 0.293992 0.000000
O O11 0.719854 0.000000 0.874077
O O12 0.500000 0.910656 0.000000
O O13 0.641387 0.894281 0.132161
O O14 0.500000 0.855777 0.500000
O O15 0.491195 0.769264 0.278780
O O16 0.500000 0.278705 0.000000
#
# Coordination Sequence:
#
# PCOD9146674 Si02
#       6
#     4   4   4   4   4   4
#     4  11  22  34  56  83 110 142 183 230 269 316
#     4  10  22  38  59  82 110 147 178 222 276 326
#     4  10  21  35  54  83 110 144 181 223 272 319
#     4  10  19  36  57  79 111 143 180 229 277 324
#     4  10  19  33  57  81 109 143 185 232 265 319
#     4  11  17  37  57  82 105 138 193 230 263 315
#
# _framework density 16.780830999999999
#
# number of rings (size 3 to 8) (size 9 to 14) (size 15 to 20)
#    0.000    1.667    6.667    2.000    4.667    1.333 
#    0.000    0.000    0.000    9.000    0.000    0.000 
#    0.000    0.000    0.000    0.000    0.000    0.000 
#
# Total GULP energy -133829.284299 kJ/mol
# GULP energy per Si atom -5576.220179 kJ/mol
# Density = 1.674264 g / cm^3
# Si number density = 16.780831 Si / 1000 Ang^3
#
#
#
# Elastic Constant Matrix: (Units=GPa)
#
#
# Indices 1 2 3 4 5 6 
#
# 1 121.9728 54.5023 36.0241 0.0000 -24.1289 0.0000
# 2 54.5023 102.0129 27.9533 0.0000 -12.8733 0.0000
# 3 36.0241 27.9533 81.5286 0.0000 -23.6744 0.0000
# 4 0.0000 0.0000 0.0000 2.3078 0.0000 -3.1740
# 5 -24.1289 -12.8733 -23.6744 0.0000 21.7314 0.0000
# 6 0.0000 0.0000 0.0000 -3.1740 0.0000 15.2391
#
#
#
# Elastic Compliance Matrix: (Units=1/GPa)
#
#
# Indices 1 2 3 4 5 6 
#
# 1 0.012856 -0.005342 -0.000911 0.000000 0.010117 0.000000
# 2 -0.005342 0.013220 -0.002370 0.000000 -0.000683 0.000000
# 3 -0.000911 -0.002370 0.018693 0.000000 0.017948 0.000000
# 4 0.000000 0.000000 0.000000 0.607267 0.000000 0.126481
# 5 0.010117 -0.000683 0.017948 0.000000 0.076399 0.000000
# 6 0.000000 0.000000 0.000000 0.126481 0.000000 0.091964
#
#
# Mechanical properties :
#
#
# Convention : Reuss Voigt Hill
#
# Bulk Modulus (GPa) = 36.33489 60.27486 48.30487
# Shear Modulus (GPa) = 5.90444 20.32464 13.11454
#
# Velocity S-wave (km/s) = 1.87782 3.48398 2.79860
# Velocity P-wave (km/s) = 5.13821 7.22364 6.26826
#
# Compressibility (1/GPa) = 0.02752175
#
# Stress axis : x y z
#
# Youngs Moduli (GPa) = 77.78331 75.64126 53.49658
#
# Poissons Ratio (x) = 0.40410 0.04874
# Poissons Ratio (y) = 0.41554 0.12681
# Poissons Ratio (z) = 0.07086 0.17930
#
# Static dielectric constant tensor:
#      x y z
#    x 1.591880 0.000000 0.004470 
#    y 0.000000 1.563310 0.000000 
#    z 0.004470 0.000000 1.568120 
# 
# From -- ./inp_files/19299.got.cif
#   From: 2010.05.17/outbox.cif.g08.bks.cpg/sg10_10_cif.got.tgz:19299.got - 2010.06.03 11:33:40.
