data_PCOD9146046
_publ_section_title
;
Structure prediction by ZEFSAII (Michael W. Deem and Ramdas Pophale) SiO2 
 PCOD9146046
Probable space group: P 2/M
;
_chemical_formula_sum "Si O2"
_cell_formula_units_Z 20
_cell_length_a 22.924223
_cell_length_b 8.895849
_cell_length_c 15.039353
_cell_angle_alpha 90.000000
_cell_angle_beta 160.129387
_cell_angle_gamma 90.000000
_cell_volume 1042.458579
_symmetry_space_group_name_H-M "P 2/M"
_symmetry_group_IT_number 10
_symmetry_cell_setting 'monoclinic'
loop_
_space_group_symop_operation_xyz
x,y,z
-x,y,-z
-x,-y,-z
x,-y,z
loop_
_atom_site_type_symbol
_atom_site_label
_atom_site_fract_x
_atom_site_fract_y
_atom_site_fract_z
Si Si1 0.775319 0.824590 0.955989
Si Si2 0.448192 0.320396 0.826061
Si Si3 0.442331 0.179215 0.188843
Si Si4 0.747776 0.322348 0.737468
Si Si5 0.920905 0.175348 0.725759
O O1 0.709012 0.784675 0.958071
O O2 0.696219 0.721519 0.765069
O O3 0.727071 0.000000 0.869987
O O4 0.978161 0.814729 0.224724
O O5 0.448206 0.500000 0.819926
O O6 0.571106 0.252742 0.926805
O O7 0.258314 0.258099 0.534463
O O8 0.500000 0.275992 0.000000
O O9 0.615812 0.242178 0.482886
O O10 0.453687 0.000000 0.196682
O O11 0.748720 0.500000 0.724966
O O12 0.939232 0.252985 0.009568
O O13 0.899431 0.000000 0.717083
#
# Coordination Sequence:
#
# PCOD9146046 Si02
#       5
#     4   4   4   4   4
#     4   8  18  35  56  86 119 149 183 227 274 332
#     4  11  25  43  59  80 111 146 189 240 287 332
#     4  11  21  36  59  86 116 152 191 228 274 332
#     4  10  19  32  56  89 123 151 180 224 282 336
#     4   9  19  38  60  83 114 150 187 228 278 333
#
# _framework density 19.185414999999999
#
# number of rings (size 3 to 8) (size 9 to 14) (size 15 to 20)
#    1.200    1.000    0.000    3.600    0.000    6.400 
#    0.000    5.000    0.000    6.000    0.000    0.000 
#    0.000    0.000    0.000    0.000    0.000    0.000 
#
# Total GULP energy -111483.939253 kJ/mol
# GULP energy per Si atom -5574.196963 kJ/mol
# Density = 1.914175 g / cm^3
# Si number density = 19.185415 Si / 1000 Ang^3
#
#
#
# Elastic Constant Matrix: (Units=GPa)
#
#
# Indices 1 2 3 4 5 6 
#
# 1 147.9946 43.8902 22.4880 0.0000 -9.2785 0.0000
# 2 43.8902 65.3009 -3.9673 0.0000 -1.9588 0.0000
# 3 22.4880 -3.9673 -26.1217 0.0000 25.9769 0.0000
# 4 0.0000 0.0000 0.0000 21.7534 0.0000 -2.4233
# 5 -9.2785 -1.9588 25.9769 0.0000 10.9114 0.0000
# 6 0.0000 0.0000 0.0000 -2.4233 0.0000 28.6075
#
#
#
# Elastic Compliance Matrix: (Units=1/GPa)
#
#
# Indices 1 2 3 4 5 6 
#
# 1 0.007419 -0.004863 0.003721 0.000000 -0.003423 0.000000
# 2 -0.004863 0.018583 -0.002317 0.000000 0.004718 0.000000
# 3 0.003721 -0.002317 -0.009501 0.000000 0.025367 0.000000
# 4 0.000000 0.000000 0.000000 0.046408 0.000000 0.003931
# 5 -0.003423 0.004718 0.025367 0.000000 0.029192 0.000000
# 6 0.000000 0.000000 0.000000 0.003931 0.000000 0.035289
#
#
# Mechanical properties :
#
#
# Convention : Reuss Voigt Hill
#
# Bulk Modulus (GPa) = 104.35346 34.66617 69.50981
# Shear Modulus (GPa) = 36.36272 20.57200 28.46736
#
# Velocity S-wave (km/s) = 4.35826 3.27811 3.85619
# Velocity P-wave (km/s) = 8.93511 5.69528 7.49241
#
# Compressibility (1/GPa) = 0.00958282
#
# Stress axis : x y z
#
# Youngs Moduli (GPa) = 134.78580 53.81231 -105.25543
#
# Poissons Ratio (x) = 0.26170 0.39169
# Poissons Ratio (y) = 0.65549 -0.24393
# Poissons Ratio (z) = -0.50158 0.12471
#
# Static dielectric constant tensor:
#      x y z
#    x 1.743390 0.000000 0.021380 
#    y 0.000000 1.636420 0.000000 
#    z 0.021380 0.000000 1.636040 
# 
# From -- ./inp_files/57949.got.cif
#   From: 2010.05.17/outbox.cif.g08.bks.cpg/sg10_29_cif.got.tgz:57949.got - 2010.06.03 11:33:40.
