data_PCOD9146408
_publ_section_title
;
Structure prediction by ZEFSAII (Michael W. Deem and Ramdas Pophale) SiO2 
 PCOD9146408
Probable space group: P 2/M
;
_chemical_formula_sum "Si O2"
_cell_formula_units_Z 32
_cell_length_a 31.434584
_cell_length_b 8.258641
_cell_length_c 13.373331
_cell_angle_alpha 90.000000
_cell_angle_beta 152.765649
_cell_angle_gamma 90.000000
_cell_volume 1588.807988
_symmetry_space_group_name_H-M "P 2/M"
_symmetry_group_IT_number 10
_symmetry_cell_setting 'monoclinic'
loop_
_space_group_symop_operation_xyz
x,y,z
-x,y,-z
-x,-y,-z
x,-y,z
loop_
_atom_site_type_symbol
_atom_site_label
_atom_site_fract_x
_atom_site_fract_y
_atom_site_fract_z
Si Si1 0.128716 0.695070 0.064085
Si Si2 0.399151 0.198745 0.331306
Si Si3 0.079647 0.694228 0.383308
Si Si4 0.650792 0.688704 0.119357
Si Si5 0.815972 0.304261 0.599579
Si Si6 0.750701 0.813890 0.140418
Si Si7 0.543831 0.689883 0.193143
Si Si8 0.688257 0.190507 0.645062
O O1 0.125963 0.500000 0.063435
O O2 0.155961 0.756440 0.232608
O O3 0.209113 0.739673 0.154619
O O4 0.025268 0.753577 0.821325
O O5 0.500000 0.251861 0.500000
O O6 0.371949 0.251793 0.386367
O O7 0.401335 0.000000 0.333372
O O8 0.313808 0.254192 0.082498
O O9 0.076895 0.500000 0.370861
O O10 0.120525 0.752071 0.361206
O O11 0.152412 0.736572 0.622415
O O12 0.673678 0.500000 0.143287
O O13 0.710592 0.728856 0.343551
O O14 0.686334 0.797671 0.104164
O O15 0.542256 0.700295 0.910624
O O16 0.825141 0.500000 0.623138
O O17 0.769483 0.000000 0.155963
O O18 0.566842 0.500000 0.223222
O O19 0.631638 0.771621 0.426026
O O20 0.500000 0.757652 0.000000
O O21 0.697107 0.000000 0.676407
#
# Coordination Sequence:
#
# PCOD9146408 Si02
#       8
#     4   4   4   4   4   4   4   4
#     4  10  19  34  55  76 104 143 180 214 258 313
#     4   9  19  37  58  77 100 135 175 213 260 319
#     4   9  18  33  54  79 106 138 178 220 257 301
#     4   9  17  30  50  76 104 132 167 214 259 302
#     4   8  14  28  52  78 102 135 177 210 243 298
#     4  10  19  33  55  78 101 132 171 216 266 316
#     4  10  20  35  54  75 104 143 179 207 245 308
#     4  11  23  37  54  78 107 136 173 223 269 311
#
# _framework density 20.140885000000001
#
# number of rings (size 3 to 8) (size 9 to 14) (size 15 to 20)
#    0.000    2.500    0.000    3.375    0.000    5.750 
#    0.000    8.125    0.000   12.000    0.000    0.000 
#    0.000    0.000    0.000    0.000    0.000    0.000 
#
# Total GULP energy -178461.685771 kJ/mol
# GULP energy per Si atom -5576.927680 kJ/mol
# Density = 2.009504 g / cm^3
# Si number density = 20.140885 Si / 1000 Ang^3
#
#
#
# Elastic Constant Matrix: (Units=GPa)
#
#
# Indices 1 2 3 4 5 6 
#
# 1 85.2470 6.2024 60.3430 0.0000 9.2118 0.0000
# 2 6.2024 5.7390 12.3752 0.0000 5.8703 0.0000
# 3 60.3430 12.3752 123.8114 0.0000 7.0920 0.0000
# 4 0.0000 0.0000 0.0000 19.6373 0.0000 2.0623
# 5 9.2118 5.8703 7.0920 0.0000 34.2232 0.0000
# 6 0.0000 0.0000 0.0000 2.0623 0.0000 20.5763
#
#
#
# Elastic Compliance Matrix: (Units=1/GPa)
#
#
# Indices 1 2 3 4 5 6 
#
# 1 0.018274 0.003480 -0.009046 0.000000 -0.003641 0.000000
# 2 0.003480 0.269896 -0.026279 0.000000 -0.041787 0.000000
# 3 -0.009046 -0.026279 0.014891 0.000000 0.003857 0.000000
# 4 0.000000 0.000000 0.000000 0.051465 0.000000 -0.005158
# 5 -0.003641 -0.041787 0.003857 0.000000 0.036569 0.000000
# 6 0.000000 0.000000 0.000000 -0.005158 0.000000 0.049117
#
#
# Mechanical properties :
#
#
# Convention : Reuss Voigt Hill
#
# Bulk Modulus (GPa) = 4.17760 41.40429 22.79094
# Shear Modulus (GPa) = 8.56617 23.94581 16.25599
#
# Velocity S-wave (km/s) = 2.06455 3.45181 2.84406
# Velocity P-wave (km/s) = 2.78601 6.04058 4.70374
#
# Compressibility (1/GPa) = 0.23937215
#
# Stress axis : x y z
#
# Youngs Moduli (GPa) = 54.72293 3.70513 67.15377
#
# Poissons Ratio (x) = -0.01290 0.60745
# Poissons Ratio (y) = -0.19046 1.76476
# Poissons Ratio (z) = 0.49500 0.09737
#
# Static dielectric constant tensor:
#      x y z
#    x 1.730650 0.000000 -0.007060 
#    y 0.000000 1.725430 0.000000 
#    z -0.007060 0.000000 1.721090 
# 
# From -- ./inp_files/58340.got.cif
#   From: 2010.05.17/outbox.cif.g08.bks.cpg/sg10_30_cif.got.tgz:58340.got - 2010.06.03 11:33:40.
