data_PCOD9146496
_publ_section_title
;
Structure prediction by ZEFSAII (Michael W. Deem and Ramdas Pophale) SiO2 
 PCOD9146496
Probable space group: P 2/M
;
_chemical_formula_sum "Si O2"
_cell_formula_units_Z 28
_cell_length_a 11.035153
_cell_length_b 8.269726
_cell_length_c 15.032768
_cell_angle_alpha 90.000000
_cell_angle_beta 100.383957
_cell_angle_gamma 90.000000
_cell_volume 1349.387425
_symmetry_space_group_name_H-M "P 2/M"
_symmetry_group_IT_number 10
_symmetry_cell_setting 'monoclinic'
loop_
_space_group_symop_operation_xyz
x,y,z
-x,y,-z
-x,-y,-z
x,-y,z
loop_
_atom_site_type_symbol
_atom_site_label
_atom_site_fract_x
_atom_site_fract_y
_atom_site_fract_z
Si Si1 0.137710 0.810490 0.542364
Si Si2 0.201692 0.697820 0.276769
Si Si3 0.215136 0.807419 0.888113
Si Si4 0.064940 0.310064 0.711508
Si Si5 0.254120 0.311778 0.090946
Si Si6 0.484964 0.816262 0.891178
Si Si7 0.634953 0.305626 0.545418
O O1 0.144671 0.783023 0.649219
O O2 0.254094 0.733648 0.507968
O O3 0.000000 0.744524 0.500000
O O4 0.138361 0.000000 0.521141
O O5 0.203276 0.500000 0.272997
O O6 0.198395 0.755691 0.174794
O O7 0.317012 0.751242 0.351428
O O8 0.076708 0.745456 0.309992
O O9 0.111583 0.721031 0.817316
O O10 0.346535 0.753874 0.863142
O O11 0.206945 0.000000 0.876140
O O12 0.216635 0.770517 0.993408
O O13 0.070711 0.500000 0.692239
O O14 0.223433 0.500000 0.077831
O O15 0.401322 0.290807 0.124144
O O16 0.496287 0.000000 0.857691
O O17 0.500000 0.827251 0.000000
O O18 0.500000 0.242800 0.500000
O O19 0.626058 0.500000 0.548794
#
# Coordination Sequence:
#
# PCOD9146496 Si02
#       7
#     4   4   4   4   4   4   4
#     4  11  23  40  63  91 123 159 199 247 307 368
#     4   9  20  37  56  83 117 152 193 246 300 352
#     4  10  21  37  54  80 118 151 193 246 297 355
#     4  11  22  38  62  85 112 154 203 247 296 357
#     4  10  19  33  55  81 114 154 197 242 292 351
#     4   8  16  32  51  72 105 148 186 231 291 345
#     4  10  21  40  66  94 124 160 205 255 306 363
#
# _framework density 20.750157000000002
#
# number of rings (size 3 to 8) (size 9 to 14) (size 15 to 20)
#    0.000    2.143    1.429    2.571    0.000    5.714 
#    0.000    8.571    0.000    0.000    0.000    0.000 
#    0.000    0.000    0.000    0.000    0.000    0.000 
#
# Total GULP energy -156179.632985 kJ/mol
# GULP energy per Si atom -5577.844035 kJ/mol
# Density = 2.070293 g / cm^3
# Si number density = 20.750157 Si / 1000 Ang^3
#
#
#
# Elastic Constant Matrix: (Units=GPa)
#
#
# Indices 1 2 3 4 5 6 
#
# 1 78.4545 -3.3375 29.1512 0.0000 12.8829 0.0000
# 2 -3.3375 15.4371 -5.0938 0.0000 3.9395 0.0000
# 3 29.1512 -5.0938 85.2505 0.0000 1.6490 0.0000
# 4 0.0000 0.0000 0.0000 68.5542 0.0000 -36.8266
# 5 12.8829 3.9395 1.6490 0.0000 37.0187 0.0000
# 6 0.0000 0.0000 0.0000 -36.8266 0.0000 48.7442
#
#
#
# Elastic Compliance Matrix: (Units=1/GPa)
#
#
# Indices 1 2 3 4 5 6 
#
# 1 0.015675 0.003137 -0.005065 0.000000 -0.005563 0.000000
# 2 0.003137 0.068693 0.003197 0.000000 -0.008545 0.000000
# 3 -0.005065 0.003197 0.013637 0.000000 0.000815 0.000000
# 4 0.000000 0.000000 0.000000 0.024551 0.000000 0.018549
# 5 -0.005563 -0.008545 0.000815 0.000000 0.029822 0.000000
# 6 0.000000 0.000000 0.000000 0.018549 0.000000 0.034529
#
#
# Mechanical properties :
#
#
# Convention : Reuss Voigt Hill
#
# Bulk Modulus (GPa) = 9.94586 24.50907 17.22747
# Shear Modulus (GPa) = 22.94799 41.42489 32.18644
#
# Velocity S-wave (km/s) = 3.32914 4.47292 3.94273
# Velocity P-wave (km/s) = 4.42506 6.20590 5.38954
#
# Compressibility (1/GPa) = 0.10054430
#
# Stress axis : x y z
#
# Youngs Moduli (GPa) = 63.79474 14.55754 73.32795
#
# Poissons Ratio (x) = -0.04567 0.37141
# Poissons Ratio (y) = -0.20015 -0.23442
# Poissons Ratio (z) = 0.32312 -0.04654
#
# Static dielectric constant tensor:
#      x y z
#    x 1.774140 0.000000 0.014500 
#    y 0.000000 1.719880 0.000000 
#    z 0.014500 0.000000 1.758110 
# 
# From -- ./inp_files/63213.got.cif
#   From: 2010.05.17/outbox.cif.g08.bks.cpg/sg10_32_cif.got.tgz:63213.got - 2010.06.03 11:33:40.
