data_PCOD9146260
_publ_section_title
;
Structure prediction by ZEFSAII (Michael W. Deem and Ramdas Pophale) SiO2 
 PCOD9146260
Probable space group: P 2/M
;
_chemical_formula_sum "Si O2"
_cell_formula_units_Z 28
_cell_length_a 13.304503
_cell_length_b 13.385950
_cell_length_c 8.961584
_cell_angle_alpha 90.000000
_cell_angle_beta 108.801485
_cell_angle_gamma 90.000000
_cell_volume 1510.838008
_symmetry_space_group_name_H-M "P 2/M"
_symmetry_group_IT_number 10
_symmetry_cell_setting 'monoclinic'
loop_
_space_group_symop_operation_xyz
x,y,z
-x,y,-z
-x,-y,-z
x,-y,z
loop_
_atom_site_type_symbol
_atom_site_label
_atom_site_fract_x
_atom_site_fract_y
_atom_site_fract_z
Si Si1 0.673192 0.384221 0.436494
Si Si2 0.550807 0.818586 0.361942
Si Si3 0.690114 0.391319 0.800671
Si Si4 0.597681 0.213344 0.949470
Si Si5 0.086523 0.386922 0.935544
Si Si6 0.742443 0.885313 0.274139
Si Si7 0.882653 0.701248 0.375194
O O1 0.645333 0.500000 0.388328
O O2 0.586749 0.298559 0.355756
O O3 0.684362 0.375546 0.620958
O O4 0.786210 0.357560 0.412623
O O5 0.500000 0.829142 0.500000
O O6 0.462898 0.854553 0.200680
O O7 0.659128 0.875001 0.371654
O O8 0.640361 0.500000 0.809364
O O9 0.644175 0.301911 0.874320
O O10 0.810550 0.395251 0.913094
O O11 0.500000 0.253278 0.000000
O O12 0.680420 0.161195 0.100372
O O13 0.049247 0.500000 0.879992
O O14 0.111665 0.334086 0.793092
O O15 0.000000 0.336127 0.000000
O O16 0.842604 0.815500 0.356686
O O17 0.768456 0.000000 0.260364
O O18 0.000000 0.687396 0.500000
#
# Coordination Sequence:
#
# PCOD9146260 Si02
#       7
#     4   4   4   4   4   4   4
#     4  10  21  35  55  87 124 157 188 225 271 329
#     4  10  20  35  59  86 116 149 191 231 275 333
#     4  10  19  33  53  80 116 154 188 222 265 326
#     4  10  20  36  56  79 112 150 188 229 276 335
#     4  10  20  34  55  84 115 151 190 223 265 331
#     4  10  23  42  61  82 108 144 190 243 299 344
#     4  11  22  38  61  85 112 149 185 239 288 341
#
# _framework density 18.532761000000001
#
# number of rings (size 3 to 8) (size 9 to 14) (size 15 to 20)
#    0.000    1.857    2.857    1.286    0.000    6.571 
#    0.000    0.000    0.000    0.429    0.000    0.000 
#    0.000    0.000    0.000    0.000    0.000    0.000 
#
# Total GULP energy -156057.764368 kJ/mol
# GULP energy per Si atom -5573.491585 kJ/mol
# Density = 1.849058 g / cm^3
# Si number density = 18.532761 Si / 1000 Ang^3
#
#
#
# Elastic Constant Matrix: (Units=GPa)
#
#
# Indices 1 2 3 4 5 6 
#
# 1 56.2109 6.4297 15.1378 0.0000 -16.3689 0.0000
# 2 6.4297 75.7975 4.8736 0.0000 -11.8400 0.0000
# 3 15.1378 4.8736 66.1235 0.0000 -5.4706 0.0000
# 4 0.0000 0.0000 0.0000 30.1355 0.0000 0.0106
# 5 -16.3689 -11.8400 -5.4706 0.0000 36.9590 0.0000
# 6 0.0000 0.0000 0.0000 0.0106 0.0000 5.0040
#
#
#
# Elastic Compliance Matrix: (Units=1/GPa)
#
#
# Indices 1 2 3 4 5 6 
#
# 1 0.021514 -0.000173 -0.004180 0.000000 0.008854 0.000000
# 2 -0.000173 0.013918 -0.000631 0.000000 0.004289 0.000000
# 3 -0.004180 -0.000631 0.016155 0.000000 0.000338 0.000000
# 4 0.000000 0.000000 0.000000 0.033184 0.000000 -0.000070
# 5 0.008854 0.004289 0.000338 0.000000 0.032402 0.000000
# 6 0.000000 0.000000 0.000000 -0.000070 0.000000 0.199841
#
#
# Mechanical properties :
#
#
# Convention : Reuss Voigt Hill
#
# Bulk Modulus (GPa) = 24.02809 27.89046 25.95928
# Shear Modulus (GPa) = 14.66897 25.86575 20.26736
#
# Velocity S-wave (km/s) = 2.81644 3.73993 3.31054
# Velocity P-wave (km/s) = 4.85487 5.80787 5.35262
#
# Compressibility (1/GPa) = 0.04161795
#
# Stress axis : x y z
#
# Youngs Moduli (GPa) = 46.48130 71.84816 61.90183
#
# Poissons Ratio (x) = 0.01244 0.25875
# Poissons Ratio (y) = 0.00805 0.03908
# Poissons Ratio (z) = 0.19429 0.04536
#
# Static dielectric constant tensor:
#      x y z
#    x 1.668700 0.000000 0.009020 
#    y 0.000000 1.668130 0.000000 
#    z 0.009020 0.000000 1.648770 
# 
# From -- ./inp_files/24922.got.cif
#   From: 2010.05.17/outbox.cif.g08.bks.cpg/sg10_13_cif.got.tgz:24922.got - 2010.06.03 11:33:40.
