data_PCOD9146427
_publ_section_title
;
Structure prediction by ZEFSAII (Michael W. Deem and Ramdas Pophale) SiO2 
 PCOD9146427
Probable space group: P 2/M
;
_chemical_formula_sum "Si O2"
_cell_formula_units_Z 32
_cell_length_a 28.925309
_cell_length_b 8.865841
_cell_length_c 17.599365
_cell_angle_alpha 90.000000
_cell_angle_beta 23.377100
_cell_angle_gamma 90.000000
_cell_volume 1790.794973
_symmetry_space_group_name_H-M "P 2/M"
_symmetry_group_IT_number 10
_symmetry_cell_setting 'monoclinic'
loop_
_space_group_symop_operation_xyz
x,y,z
-x,y,-z
-x,-y,-z
x,-y,z
loop_
_atom_site_type_symbol
_atom_site_label
_atom_site_fract_x
_atom_site_fract_y
_atom_site_fract_z
Si Si1 0.174367 0.182257 0.093311
Si Si2 0.224402 0.182470 0.190320
Si Si3 0.088515 0.817790 0.544668
Si Si4 0.480361 0.818922 0.762479
Si Si5 0.882489 0.320118 0.342373
Si Si6 0.083493 0.172233 0.948521
Si Si7 0.721742 0.319638 0.441430
Si Si8 0.416955 0.680837 0.695947
O O1 0.178174 0.227694 0.176877
O O2 0.048205 0.222681 0.251582
O O3 0.187586 0.000000 0.070069
O O4 0.285373 0.257405 0.885958
O O5 0.151033 0.235460 0.373067
O O6 0.217163 0.000000 0.202148
O O7 0.360786 0.222918 0.986279
O O8 0.144850 0.749392 0.534891
O O9 0.095481 0.000000 0.537083
O O10 0.594802 0.751541 0.627756
O O11 0.466056 0.754456 0.699035
O O12 0.487333 0.000000 0.748587
O O13 0.888253 0.500000 0.337507
O O14 0.788748 0.279415 0.418535
O O15 0.006914 0.255743 0.126847
O O16 0.199234 0.256292 0.746640
O O17 0.107973 0.000000 0.934013
O O18 0.000000 0.169824 0.000000
O O19 0.716122 0.500000 0.444725
O O20 0.500000 0.719210 0.500000
O O21 0.414463 0.500000 0.707778
#
# Coordination Sequence:
#
# PCOD9146427 Si02
#       8
#     4   4   4   4   4   4   4   4
#     4   9  18  33  55  80 103 132 172 215 260 311
#     4   8  16  33  55  78 102 130 169 218 267 311
#     4  10  19  33  55  79 104 135 172 218 268 312
#     4  10  20  35  57  80 102 134 178 222 260 306
#     4  10  21  35  50  74 109 142 173 213 261 312
#     4   9  17  31  52  75  98 128 169 213 253 298
#     4  10  20  35  54  75 104 142 177 212 259 313
#     4  10  21  36  53  76 109 144 173 206 253 309
#
# _framework density 17.869159
#
# number of rings (size 3 to 8) (size 9 to 14) (size 15 to 20)
#    0.000    2.500    0.000    3.000    0.000    7.000 
#    0.000    6.250    0.000    7.500    0.000    0.000 
#    0.000    0.000    0.000    0.000    0.000    0.000 
#
# Total GULP energy -178521.027377 kJ/mol
# GULP energy per Si atom -5578.782106 kJ/mol
# Density = 1.782849 g / cm^3
# Si number density = 17.869159 Si / 1000 Ang^3
#
#
#
# Elastic Constant Matrix: (Units=GPa)
#
#
# Indices 1 2 3 4 5 6 
#
# 1 64.1681 32.5651 62.8785 0.0000 -3.9335 0.0000
# 2 32.5651 45.3652 42.3721 0.0000 -5.8442 0.0000
# 3 62.8785 42.3721 115.1197 0.0000 1.4258 0.0000
# 4 0.0000 0.0000 0.0000 -107.4531 0.0000 9.4308
# 5 -3.9335 -5.8442 1.4258 0.0000 27.9219 0.0000
# 6 0.0000 0.0000 0.0000 9.4308 0.0000 24.4930
#
#
#
# Elastic Compliance Matrix: (Units=1/GPa)
#
#
# Indices 1 2 3 4 5 6 
#
# 1 0.037639 -0.011094 -0.016523 0.000000 0.003824 0.000000
# 2 -0.011094 0.038586 -0.008229 0.000000 0.006934 0.000000
# 3 -0.016523 -0.008229 0.020803 0.000000 -0.005112 0.000000
# 4 0.000000 0.000000 0.000000 -0.009002 0.000000 0.003466
# 5 0.003824 0.006934 -0.005112 0.000000 0.038065 0.000000
# 6 0.000000 0.000000 0.000000 0.003466 0.000000 0.039493
#
#
# Mechanical properties :
#
#
# Convention : Reuss Voigt Hill
#
# Bulk Modulus (GPa) = 39.46629 55.58715 47.52672
# Shear Modulus (GPa) = 20.34826 -5.21848 7.56489
#
# Velocity S-wave (km/s) = 3.37818 -1.71077 2.05978
# Velocity P-wave (km/s) = 6.11149 5.22237 5.68434
#
# Compressibility (1/GPa) = 0.02533808
#
# Stress axis : x y z
#
# Youngs Moduli (GPa) = 26.56813 25.91611 48.06929
#
# Poissons Ratio (x) = 0.28751 0.79423
# Poissons Ratio (y) = 0.29474 0.39555
# Poissons Ratio (z) = 0.43897 0.21326
#
# Static dielectric constant tensor:
#      x y z
#    x 1.609470 0.000000 0.001230 
#    y 0.000000 1.600030 0.000000 
#    z 0.001230 0.000000 1.601800 
# 
# From -- ./inp_files/71559.got.cif
#   From: 2010.05.17/outbox.cif.g08.bks.cpg/sg10_36_cif.got.tgz:71559.got - 2010.06.03 11:33:40.
