data_PCOD9146979
_publ_section_title
;
Structure prediction by ZEFSAII (Michael W. Deem and Ramdas Pophale) SiO2 
 PCOD9146979
Probable space group: P 2/M
;
_chemical_formula_sum "Si O2"
_cell_formula_units_Z 20
_cell_length_a 10.988327
_cell_length_b 11.438784
_cell_length_c 12.661326
_cell_angle_alpha 90.000000
_cell_angle_beta 36.245771
_cell_angle_gamma 90.000000
_cell_volume 940.939866
_symmetry_space_group_name_H-M "P 2/M"
_symmetry_group_IT_number 10
_symmetry_cell_setting 'monoclinic'
loop_
_space_group_symop_operation_xyz
x,y,z
-x,y,-z
-x,-y,-z
x,-y,z
loop_
_atom_site_type_symbol
_atom_site_label
_atom_site_fract_x
_atom_site_fract_y
_atom_site_fract_z
Si Si1 0.953779 0.135940 0.799759
Si Si2 0.510862 0.866962 0.866139
Si Si3 0.526610 0.375081 0.354376
Si Si4 0.312758 0.869520 0.715563
Si Si5 0.155049 0.294627 0.479764
O O1 0.108442 0.147123 0.789499
O O2 0.026620 0.216206 0.652390
O O3 0.959019 0.000000 0.761355
O O4 0.723925 0.162399 0.996781
O O5 0.685526 0.785928 0.696699
O O6 0.558366 0.000000 0.801345
O O7 0.500000 0.861276 0.000000
O O8 0.500000 0.377638 0.500000
O O9 0.627347 0.500000 0.253763
O O10 0.639222 0.251012 0.257529
O O11 0.308191 0.369607 0.446276
O O12 0.500000 0.877799 0.500000
O O13 0.302114 0.000000 0.774366
O O14 0.000000 0.347193 0.500000
#
# Coordination Sequence:
#
# PCOD9146979 Si02
#       5
#     4   4   4   4   4
#     4  10  19  34  55  86 126 162 197 250 307 360
#     4  10  21  34  52  88 131 165 203 249 303 371
#     4  10  21  39  63  91 122 161 209 255 306 371
#     4   9  16  31  59  87 116 156 200 247 300 358
#     4  12  22  35  62  89 117 163 209 251 308 365
#
# _framework density 21.255344999999998
#
# number of rings (size 3 to 8) (size 9 to 14) (size 15 to 20)
#    0.000    1.800    6.000    0.600    0.000    2.000 
#    0.000    1.000    0.000    7.800    0.000    0.000 
#    0.000    0.000    0.000    0.000    0.000    0.000 
#
# Total GULP energy -111566.876891 kJ/mol
# GULP energy per Si atom -5578.343845 kJ/mol
# Density = 2.120697 g / cm^3
# Si number density = 21.255345 Si / 1000 Ang^3
#
#
#
# Elastic Constant Matrix: (Units=GPa)
#
#
# Indices 1 2 3 4 5 6 
#
# 1 156.7594 55.5859 26.4246 0.0000 -16.3543 0.0000
# 2 55.5859 136.2716 35.9027 0.0000 -4.2701 0.0000
# 3 26.4246 35.9027 55.1708 0.0000 -15.7232 0.0000
# 4 0.0000 0.0000 0.0000 0.6168 0.0000 -7.6053
# 5 -16.3543 -4.2701 -15.7232 0.0000 37.6540 0.0000
# 6 0.0000 0.0000 0.0000 -7.6053 0.0000 -43.3405
#
#
#
# Elastic Compliance Matrix: (Units=1/GPa)
#
#
# Indices 1 2 3 4 5 6 
#
# 1 0.007845 -0.002804 -0.001194 0.000000 0.002591 0.000000
# 2 -0.002804 0.009944 -0.005850 0.000000 -0.002533 0.000000
# 3 -0.001194 -0.005850 0.025162 0.000000 0.009325 0.000000
# 4 0.000000 0.000000 0.000000 0.512457 0.000000 -0.089925
# 5 0.002591 -0.002533 0.009325 0.000000 0.031289 0.000000
# 6 0.000000 0.000000 0.000000 -0.089925 0.000000 -0.007293
#
#
# Mechanical properties :
#
#
# Convention : Reuss Voigt Hill
#
# Bulk Modulus (GPa) = 43.00310 64.89203 53.94756
# Shear Modulus (GPa) = 8.23924 14.33862 11.28893
#
# Velocity S-wave (km/s) = 1.97097 2.60010 2.30708
# Velocity P-wave (km/s) = 5.04532 6.29365 5.70374
#
# Compressibility (1/GPa) = 0.02325414
#
# Stress axis : x y z
#
# Youngs Moduli (GPa) = 127.46689 100.56292 39.74266
#
# Poissons Ratio (x) = 0.28200 0.04747
# Poissons Ratio (y) = 0.35745 0.23249
# Poissons Ratio (z) = 0.15224 0.58828
#
# Static dielectric constant tensor:
#      x y z
#    x 1.848770 0.000000 -0.003080 
#    y 0.000000 1.779080 0.000000 
#    z -0.003080 0.000000 1.691270 
# 
# From -- ./inp_files/50944.got.cif
#   From: 2010.05.17/outbox.cif.g08.bks.cpg/sg10_26_cif.got.tgz:50944.got - 2010.06.03 11:33:40.
