data_PCOD9146859
_publ_section_title
;
Structure prediction by ZEFSAII (Michael W. Deem and Ramdas Pophale) SiO2 
 PCOD9146859
Probable space group: P 2/M
;
_chemical_formula_sum "Si O2"
_cell_formula_units_Z 32
_cell_length_a 15.014787
_cell_length_b 7.383207
_cell_length_c 24.233406
_cell_angle_alpha 90.000000
_cell_angle_beta 149.609679
_cell_angle_gamma 90.000000
_cell_volume 1359.042698
_symmetry_space_group_name_H-M "P 2/M"
_symmetry_group_IT_number 10
_symmetry_cell_setting 'monoclinic'
loop_
_space_group_symop_operation_xyz
x,y,z
-x,y,-z
-x,-y,-z
x,-y,z
loop_
_atom_site_type_symbol
_atom_site_label
_atom_site_fract_x
_atom_site_fract_y
_atom_site_fract_z
Si Si1 0.931752 0.221600 0.213664
Si Si2 0.684286 0.794447 0.615170
Si Si3 0.887419 0.220465 0.315695
Si Si4 0.569170 0.220498 0.225199
Si Si5 0.556929 0.705668 0.662253
Si Si6 0.207752 0.221098 0.975978
Si Si7 0.098324 0.218371 0.107296
Si Si8 0.762019 0.793669 0.438280
O O1 0.887868 0.279826 0.252226
O O2 0.130759 0.282406 0.305197
O O3 0.931793 0.000000 0.213076
O O4 0.805836 0.276203 0.095524
O O5 0.500000 0.705829 0.500000
O O6 0.661752 0.798859 0.668677
O O7 0.681837 0.000000 0.591274
O O8 0.709996 0.265221 0.253031
O O9 0.056794 0.285856 0.441388
O O10 0.900221 0.000000 0.321104
O O11 0.377292 0.281352 0.101693
O O12 0.656819 0.285517 0.329611
O O13 0.556116 0.000000 0.223106
O O14 0.518173 0.500000 0.626502
O O15 0.703809 0.711385 0.787829
O O16 0.377567 0.793666 0.586262
O O17 0.210867 0.000000 0.978395
O O18 0.026563 0.276218 0.909022
O O19 0.108679 0.000000 0.113289
O O20 0.000000 0.274852 0.000000
O O21 0.805195 0.000000 0.445090
#
# Coordination Sequence:
#
# PCOD9146859 Si02
#       8
#     4   4   4   4   4   4   4   4
#     4   9  16  27  45  72 106 137 169 212 265 325
#     4  10  19  34  56  78 105 144 187 225 265 324
#     4   9  17  29  49  78 106 134 171 220 275 319
#     4   9  17  29  49  78 106 134 171 220 275 319
#     4  12  24  35  51  79 113 145 180 225 275 326
#     4   9  16  27  45  72 106 137 169 212 265 325
#     4  10  19  34  56  78 105 144 187 225 265 324
#     4  10  19  34  54  76 106 141 181 222 263 323
#
# _framework density 23.545985000000002
#
# number of rings (size 3 to 8) (size 9 to 14) (size 15 to 20)
#    0.000    2.250    1.250    3.000    0.000    6.500 
#    0.000    2.500    0.000    1.500    0.000    0.000 
#    0.000    1.000    0.000    0.000    0.000    0.000 
#
# Total GULP energy -178694.900878 kJ/mol
# GULP energy per Si atom -5584.215652 kJ/mol
# Density = 2.349239 g / cm^3
# Si number density = 23.545985 Si / 1000 Ang^3
#
#
#
# Elastic Constant Matrix: (Units=GPa)
#
#
# Indices 1 2 3 4 5 6 
#
# 1 83.0153 -1.9765 14.8980 0.0000 -5.4122 0.0000
# 2 -1.9765 83.0620 3.1771 0.0000 -4.4084 0.0000
# 3 14.8980 3.1771 119.7772 0.0000 -3.9444 0.0000
# 4 0.0000 0.0000 0.0000 -5.6717 0.0000 4.9226
# 5 -5.4122 -4.4084 -3.9444 0.0000 40.3103 0.0000
# 6 0.0000 0.0000 0.0000 4.9226 0.0000 -17.6900
#
#
#
# Elastic Compliance Matrix: (Units=1/GPa)
#
#
# Indices 1 2 3 4 5 6 
#
# 1 0.012429 0.000437 -0.001506 0.000000 0.001569 0.000000
# 2 0.000437 0.012134 -0.000332 0.000000 0.001353 0.000000
# 3 -0.001506 -0.000332 0.008565 0.000000 0.000600 0.000000
# 4 0.000000 0.000000 0.000000 -0.232458 0.000000 -0.064686
# 5 0.001569 0.001353 0.000600 0.000000 0.025225 0.000000
# 6 0.000000 0.000000 0.000000 -0.064686 0.000000 -0.074529
#
#
# Mechanical properties :
#
#
# Convention : Reuss Voigt Hill
#
# Bulk Modulus (GPa) = 32.97495 35.33909 34.15702
# Shear Modulus (GPa) = -21.21116 21.37347 0.08116
#
# Velocity S-wave (km/s) = -3.00466 3.01613 0.18586
# Velocity P-wave (km/s) = 1.41337 5.21253 3.81891
#
# Compressibility (1/GPa) = 0.03032605
#
# Stress axis : x y z
#
# Youngs Moduli (GPa) = 80.45764 82.41248 116.75871
#
# Poissons Ratio (x) = -0.03598 0.17582
# Poissons Ratio (y) = -0.03513 0.03872
# Poissons Ratio (z) = 0.12116 0.02733
#
# Static dielectric constant tensor:
#      x y z
#    x 1.885100 0.000000 -0.083370 
#    y 0.000000 1.979320 0.000000 
#    z -0.083370 0.000000 1.950370 
# 
# From -- ./inp_files/71525.got.cif
#   From: 2010.05.17/outbox.cif.g08.bks.cpg/sg10_36_cif.got.tgz:71525.got - 2010.06.03 11:33:40.
