data_PCOD9146691
_publ_section_title
;
Structure prediction by ZEFSAII (Michael W. Deem and Ramdas Pophale) SiO2 
 PCOD9146691
Probable space group: P 2/M
;
_chemical_formula_sum "Si O2"
_cell_formula_units_Z 32
_cell_length_a 20.895477
_cell_length_b 8.903902
_cell_length_c 12.489201
_cell_angle_alpha 90.000000
_cell_angle_beta 127.430968
_cell_angle_gamma 90.000000
_cell_volume 1845.164017
_symmetry_space_group_name_H-M "P 2/M"
_symmetry_group_IT_number 10
_symmetry_cell_setting 'monoclinic'
loop_
_space_group_symop_operation_xyz
x,y,z
-x,y,-z
-x,-y,-z
x,-y,z
loop_
_atom_site_type_symbol
_atom_site_label
_atom_site_fract_x
_atom_site_fract_y
_atom_site_fract_z
Si Si1 0.026984 0.679786 0.406118
Si Si2 0.768033 0.319927 0.852019
Si Si3 0.710460 0.820376 0.576414
Si Si4 0.122142 0.820253 0.862548
Si Si5 0.797170 0.818842 0.442157
Si Si6 0.269243 0.179558 0.851873
Si Si7 0.622744 0.680110 0.866050
Si Si8 0.534675 0.319377 0.416644
O O1 0.026367 0.500000 0.395451
O O2 0.115586 0.743689 0.475720
O O3 0.000000 0.718725 0.500000
O O4 0.962048 0.751471 0.260023
O O5 0.774060 0.500000 0.855167
O O6 0.756808 0.254082 0.722978
O O7 0.687699 0.280138 0.839412
O O8 0.842255 0.249989 0.992844
O O9 0.752344 0.781643 0.506564
O O10 0.619160 0.760932 0.485581
O O11 0.711249 0.000000 0.589425
O O12 0.188688 0.783462 0.838388
O O13 0.116963 0.000000 0.865855
O O14 0.745845 0.772928 0.285296
O O15 0.807151 0.000000 0.446852
O O16 0.278722 0.000000 0.864471
O O17 0.343537 0.252306 0.990090
O O18 0.622909 0.500000 0.873915
O O19 0.534353 0.727297 0.737701
O O20 0.500000 0.288695 0.500000
O O21 0.546162 0.500000 0.421406
#
# Coordination Sequence:
#
# PCOD9146691 Si02
#       8
#     4   4   4   4   4   4   4   4
#     4  11  22  35  56  87 115 143 186 233 275 326
#     4  10  19  35  56  80 114 148 181 227 281 332
#     4  11  23  37  56  83 113 147 189 231 275 331
#     4  10  19  33  57  85 112 144 184 229 276 328
#     4  10  22  40  57  78 113 153 187 225 277 334
#     4   9  18  33  54  79 108 144 182 221 273 327
#     4   9  18  32  54  81 108 140 180 227 275 325
#     4  10  19  36  57  80 110 147 186 227 280 332
#
# _framework density 17.342632999999999
#
# number of rings (size 3 to 8) (size 9 to 14) (size 15 to 20)
#    0.000    2.000    2.500    1.500    0.000    3.750 
#    0.000    1.250    0.000    7.500    0.000    0.000 
#    0.000    0.000    0.000    0.000    0.000    0.000 
#
# Total GULP energy -178639.574731 kJ/mol
# GULP energy per Si atom -5582.486710 kJ/mol
# Density = 1.730316 g / cm^3
# Si number density = 17.342633 Si / 1000 Ang^3
#
#
#
# Elastic Constant Matrix: (Units=GPa)
#
#
# Indices 1 2 3 4 5 6 
#
# 1 96.5573 47.2927 78.5725 0.0000 -5.4376 0.0000
# 2 47.2927 39.0920 58.9355 0.0000 -3.6282 0.0000
# 3 78.5725 58.9355 200.1981 0.0000 -4.5031 0.0000
# 4 0.0000 0.0000 0.0000 30.8705 0.0000 12.5888
# 5 -5.4376 -3.6282 -4.5031 0.0000 24.5355 0.0000
# 6 0.0000 0.0000 0.0000 12.5888 0.0000 6.0616
#
#
#
# Elastic Compliance Matrix: (Units=1/GPa)
#
#
# Indices 1 2 3 4 5 6 
#
# 1 0.025762 -0.028504 -0.001693 0.000000 0.001184 0.000000
# 2 -0.028504 0.077994 -0.011705 0.000000 0.003068 0.000000
# 3 -0.001693 -0.011705 0.009095 0.000000 -0.000437 0.000000
# 4 0.000000 0.000000 0.000000 0.211604 0.000000 -0.439462
# 5 0.001184 0.003068 -0.000437 0.000000 0.041393 0.000000
# 6 0.000000 0.000000 0.000000 -0.439462 0.000000 1.077654
#
#
# Mechanical properties :
#
#
# Convention : Reuss Voigt Hill
#
# Bulk Modulus (GPa) = 34.42457 78.38319 56.40388
# Shear Modulus (GPa) = 3.25312 22.36330 12.80821
#
# Velocity S-wave (km/s) = 1.37108 3.59485 2.72056
# Velocity P-wave (km/s) = 4.73279 7.90731 6.51632
#
# Compressibility (1/GPa) = 0.02904902
#
# Stress axis : x y z
#
# Youngs Moduli (GPa) = 38.81736 12.82145 109.94601
#
# Poissons Ratio (x) = 0.36546 0.18615
# Poissons Ratio (y) = 1.10643 1.28686
# Poissons Ratio (z) = 0.06572 0.15007
#
# Static dielectric constant tensor:
#      x y z
#    x 1.563080 0.000000 -0.006560 
#    y 0.000000 1.578610 0.000000 
#    z -0.006560 0.000000 1.583820 
# 
# From -- ./inp_files/49903.got.cif
#   From: 2010.05.17/outbox.cif.g08.bks.cpg/sg10_25_cif.got.tgz:49903.got - 2010.06.03 11:33:40.
