data_PCOD9146060
_publ_section_title
;
Structure prediction by ZEFSAII (Michael W. Deem and Ramdas Pophale) SiO2 
 PCOD9146060
Probable space group: P 2/M
;
_chemical_formula_sum "Si O2"
_cell_formula_units_Z 25
_cell_length_a 18.528270
_cell_length_b 7.881759
_cell_length_c 25.704858
_cell_angle_alpha 90.000000
_cell_angle_beta 20.522720
_cell_angle_gamma 90.000000
_cell_volume 1316.008994
_symmetry_space_group_name_H-M "P 2/M"
_symmetry_group_IT_number 10
_symmetry_cell_setting 'monoclinic'
loop_
_space_group_symop_operation_xyz
x,y,z
-x,y,-z
-x,-y,-z
x,-y,z
loop_
_atom_site_type_symbol
_atom_site_label
_atom_site_fract_x
_atom_site_fract_y
_atom_site_fract_z
Si Si1 0.238152 0.293565 0.847345
Si Si2 0.846898 0.193245 0.443023
Si Si3 0.222878 0.197186 0.329866
Si Si4 0.703883 0.697951 0.834480
Si Si5 0.532373 0.693158 0.737868
Si Si6 0.500000 0.500000 0.500000
Si Si7 0.437136 0.803869 0.458558
O O1 0.257678 0.500000 0.831447
O O2 0.338296 0.241666 0.835168
O O3 0.375490 0.214605 0.709098
O O4 0.000000 0.250493 0.000000
O O5 0.720189 0.304023 0.569674
O O6 0.765307 0.224985 0.440301
O O7 0.087801 0.215864 0.286761
O O8 0.789040 0.000000 0.495448
O O9 0.299259 0.284083 0.225737
O O10 0.385700 0.212773 0.266637
O O11 0.000000 0.264825 0.500000
O O12 0.189887 0.000000 0.338954
O O13 0.720483 0.500000 0.836846
O O14 0.500000 0.766830 0.000000
O O15 0.488417 0.500000 0.783137
O O16 0.458230 0.652216 0.484814
O O17 0.433089 0.000000 0.480766
#
# Coordination Sequence:
#
# PCOD9146060 Si02
#       7
#     4   4   4   4   4   1   4
#     4   9  18  36  61  90 122 159 196 243 311 367
#     4  10  20  36  59  87 116 150 195 246 298 358
#     4  11  22  36  57  87 118 153 195 245 298 346
#     4  11  24  39  59  86 118 158 202 243 296 361
#     4  10  19  32  58  89 117 150 196 247 293 350
#     4  12  22  40  62  86 118 162 202 256 306 350
#     4  10  22  38  62  93 119 153 206 252 300 366
#
# _framework density 18.996831
#
# number of rings (size 3 to 8) (size 9 to 14) (size 15 to 20)
#    0.000    1.760    2.400    2.160    2.240    2.880 
#    0.000    1.600    0.000    0.000    0.000    0.000 
#    0.000    0.000    0.000    0.000    0.000    0.000 
#
# Total GULP energy -139231.423671 kJ/mol
# GULP energy per Si atom -5569.256947 kJ/mol
# Density = 1.895359 g / cm^3
# Si number density = 18.996831 Si / 1000 Ang^3
#
#
#
# Elastic Constant Matrix: (Units=GPa)
#
#
# Indices 1 2 3 4 5 6 
#
# 1 142.5376 39.5182 59.0330 0.0000 -13.1067 0.0000
# 2 39.5182 73.6759 3.2391 0.0000 4.5016 0.0000
# 3 59.0330 3.2391 81.9261 0.0000 -19.6889 0.0000
# 4 0.0000 0.0000 0.0000 24.3392 0.0000 10.4460
# 5 -13.1067 4.5016 -19.6889 0.0000 26.9950 0.0000
# 6 0.0000 0.0000 0.0000 10.4460 0.0000 34.3190
#
#
#
# Elastic Compliance Matrix: (Units=1/GPa)
#
#
# Indices 1 2 3 4 5 6 
#
# 1 0.012333 -0.006299 -0.008422 0.000000 0.000895 0.000000
# 2 -0.006299 0.017050 0.002967 0.000000 -0.003738 0.000000
# 3 -0.008422 0.002967 0.020681 0.000000 0.010500 0.000000
# 4 0.000000 0.000000 0.000000 0.047260 0.000000 -0.014385
# 5 0.000895 -0.003738 0.010500 0.000000 0.045760 0.000000
# 6 0.000000 0.000000 0.000000 -0.014385 0.000000 0.033517
#
#
# Mechanical properties :
#
#
# Convention : Reuss Voigt Hill
#
# Bulk Modulus (GPa) = 37.65962 55.74669 46.70315
# Shear Modulus (GPa) = 23.92791 30.22060 27.07425
#
# Velocity S-wave (km/s) = 3.55290 3.99284 3.77928
# Velocity P-wave (km/s) = 6.05788 7.11800 6.60923
#
# Compressibility (1/GPa) = 0.02655364
#
# Stress axis : x y z
#
# Youngs Moduli (GPa) = 81.08561 58.65172 48.35367
#
# Poissons Ratio (x) = 0.36947 0.40724
# Poissons Ratio (y) = 0.51079 -0.14345
# Poissons Ratio (z) = 0.68292 -0.17400
#
# Static dielectric constant tensor:
#      x y z
#    x 1.658850 0.000000 -0.015790 
#    y 0.000000 1.664830 0.000000 
#    z -0.015790 0.000000 1.638620 
# 
# From -- ./inp_files/90033.got.cif
#   From: 2010.05.17/outbox.cif.g08.bks.cpg/sg10_46_cif.got.tgz:90033.got - 2010.06.03 11:33:40.
