data_PCOD9146058
_publ_section_title
;
Structure prediction by ZEFSAII (Michael W. Deem and Ramdas Pophale) SiO2 
 PCOD9146058
Probable space group: P 2/M
;
_chemical_formula_sum "Si O2"
_cell_formula_units_Z 32
_cell_length_a 13.943470
_cell_length_b 13.288197
_cell_length_c 19.627594
_cell_angle_alpha 90.000000
_cell_angle_beta 25.489272
_cell_angle_gamma 90.000000
_cell_volume 1565.012517
_symmetry_space_group_name_H-M "P 2/M"
_symmetry_group_IT_number 10
_symmetry_cell_setting 'monoclinic'
loop_
_space_group_symop_operation_xyz
x,y,z
-x,y,-z
-x,-y,-z
x,-y,z
loop_
_atom_site_type_symbol
_atom_site_label
_atom_site_fract_x
_atom_site_fract_y
_atom_site_fract_z
Si Si1 0.441156 0.880614 0.461970
Si Si2 0.242784 0.823124 0.867298
Si Si3 0.203436 0.114781 0.318310
Si Si4 0.011202 0.386659 0.143891
Si Si5 0.326602 0.616075 0.762847
Si Si6 0.148589 0.387974 0.601761
Si Si7 0.951023 0.178465 0.727945
Si Si8 0.332259 0.800362 0.959027
O O1 0.500000 0.838659 0.500000
O O2 0.591037 0.849047 0.301070
O O3 0.189025 0.853926 0.605158
O O4 0.465234 0.000000 0.450897
O O5 0.254039 0.701139 0.861786
O O6 0.288167 0.857277 0.915328
O O7 0.000000 0.856852 0.000000
O O8 0.000000 0.134264 0.500000
O O9 0.117302 0.122039 0.296435
O O10 0.283623 0.000000 0.279765
O O11 0.403533 0.192896 0.201218
O O12 0.097045 0.500000 0.077201
O O13 0.206273 0.306341 0.031270
O O14 0.826886 0.363417 0.204663
O O15 0.874966 0.388195 0.301791
O O16 0.286873 0.500000 0.807671
O O17 0.591008 0.627775 0.581638
O O18 0.084505 0.500000 0.617802
O O19 0.991286 0.295741 0.680940
O O20 0.776887 0.160491 0.900740
#
# Coordination Sequence:
#
# PCOD9146058 Si02
#       8
#     4   4   4   4   4   4   4   4
#     4  11  25  42  62  88 122 166 211 260 321 381
#     4  12  23  38  59  90 132 171 206 256 311 380
#     4  11  26  48  72  93 117 156 211 271 325 378
#     4   9  18  34  57  92 134 172 211 251 303 366
#     4  10  19  32  57  91 132 176 216 253 297 362
#     4   9  18  32  58  95 130 168 210 252 301 367
#     4  11  22  42  70  93 126 163 207 262 314 378
#     4  11  24  39  64  97 125 162 206 260 320 370
#
# _framework density 20.447122
#
# number of rings (size 3 to 8) (size 9 to 14) (size 15 to 20)
#    0.000    1.500    2.500    2.625    1.750    5.500 
#    0.000    0.625    0.000    3.750    0.000    0.000 
#    0.000    0.000    0.000    0.000    0.000    0.000 
#
# Total GULP energy -178573.836589 kJ/mol
# GULP energy per Si atom -5580.432393 kJ/mol
# Density = 2.040058 g / cm^3
# Si number density = 20.447122 Si / 1000 Ang^3
#
#
#
# Elastic Constant Matrix: (Units=GPa)
#
#
# Indices 1 2 3 4 5 6 
#
# 1 99.8446 2.3019 31.3253 0.0000 11.9345 0.0000
# 2 2.3019 43.2643 9.7791 0.0000 9.8936 0.0000
# 3 31.3253 9.7791 101.7808 0.0000 12.0914 0.0000
# 4 0.0000 0.0000 0.0000 3.7198 0.0000 -3.1325
# 5 11.9345 9.8936 12.0914 0.0000 27.8758 0.0000
# 6 0.0000 0.0000 0.0000 -3.1325 0.0000 20.5777
#
#
#
# Elastic Compliance Matrix: (Units=1/GPa)
#
#
# Indices 1 2 3 4 5 6 
#
# 1 0.011447 0.000993 -0.003157 0.000000 -0.003884 0.000000
# 2 0.000993 0.025440 -0.001715 0.000000 -0.008710 0.000000
# 3 -0.003157 -0.001715 0.011312 0.000000 -0.002946 0.000000
# 4 0.000000 0.000000 0.000000 0.308363 0.000000 0.046942
# 5 -0.003884 -0.008710 -0.002946 0.000000 0.041906 0.000000
# 6 0.000000 0.000000 0.000000 0.046942 0.000000 0.055742
#
#
# Mechanical properties :
#
#
# Convention : Reuss Voigt Hill
#
# Bulk Modulus (GPa) = 24.72778 36.85580 30.79179
# Shear Modulus (GPa) = 10.51637 23.86689 17.19163
#
# Velocity S-wave (km/s) = 2.27032 3.42021 2.90277
# Velocity P-wave (km/s) = 4.35801 5.80183 5.13096
#
# Compressibility (1/GPa) = 0.04044034
#
# Stress axis : x y z
#
# Youngs Moduli (GPa) = 87.35567 39.30750 88.40557
#
# Poissons Ratio (x) = -0.03902 0.27911
# Poissons Ratio (y) = -0.08672 0.15162
# Poissons Ratio (z) = 0.27580 0.06741
#
# Static dielectric constant tensor:
#      x y z
#    x 1.706580 0.000000 0.038360 
#    y 0.000000 1.797640 0.000000 
#    z 0.038360 0.000000 1.729010 
# 
# From -- ./inp_files/76997.got.cif
#   From: 2010.05.17/outbox.cif.g08.bks.cpg/sg10_39_cif.got.tgz:76997.got - 2010.06.03 11:33:40.
