data_PCOD9146760
_publ_section_title
;
Structure prediction by ZEFSAII (Michael W. Deem and Ramdas Pophale) SiO2 
 PCOD9146760
Probable space group: P 2/M
;
_chemical_formula_sum "Si O2"
_cell_formula_units_Z 24
_cell_length_a 15.946606
_cell_length_b 11.667732
_cell_length_c 21.040167
_cell_angle_alpha 90.000000
_cell_angle_beta 16.336065
_cell_angle_gamma 90.000000
_cell_volume 1101.104529
_symmetry_space_group_name_H-M "P 2/M"
_symmetry_group_IT_number 10
_symmetry_cell_setting 'monoclinic'
loop_
_space_group_symop_operation_xyz
x,y,z
-x,y,-z
-x,-y,-z
x,-y,z
loop_
_atom_site_type_symbol
_atom_site_label
_atom_site_fract_x
_atom_site_fract_y
_atom_site_fract_z
Si Si1 0.126507 0.623111 0.116334
Si Si2 0.715412 0.128009 0.289985
Si Si3 0.169739 0.675811 0.939321
Si Si4 0.167276 0.872683 0.272214
Si Si5 0.311734 0.372915 0.203466
Si Si6 0.272433 0.791003 0.513645
O O1 0.998793 0.500000 0.230619
O O2 0.939613 0.726099 0.282306
O O3 0.132636 0.622888 0.035744
O O4 0.453722 0.630964 0.909362
O O5 0.500000 0.181052 0.500000
O O6 0.506573 0.130424 0.380391
O O7 0.794355 0.000000 0.252003
O O8 0.003856 0.202550 0.069307
O O9 0.515529 0.695799 0.673071
O O10 0.000000 0.627041 0.000000
O O11 0.143790 0.749666 0.325447
O O12 0.927220 0.858497 0.390806
O O13 0.128384 0.000000 0.330842
O O14 0.500000 0.873457 0.000000
O O15 0.159897 0.500000 0.315539
O O16 0.500000 0.373327 0.000000
#
# Coordination Sequence:
#
# PCOD9146760 Si02
#       6
#     4   4   4   4   4   4
#     4  11  22  40  64  89 123 165 209 257 314 374
#     4  10  20  37  62  87 117 162 209 250 309 382
#     4  10  24  41  61  91 125 157 210 259 309 378
#     4  10  19  33  60  96 129 162 207 260 316 375
#     4   9  17  34  61  88 120 167 213 251 306 378
#     4  11  21  38  63  90 125 164 203 255 320 373
#
# _framework density 21.796296999999999
#
# number of rings (size 3 to 8) (size 9 to 14) (size 15 to 20)
#    0.000    1.833    5.000    0.500    0.000    4.667 
#    0.000    7.500    0.000    3.000    0.000    0.000 
#    0.000    0.000    0.000    0.000    0.000    0.000 
#
# Total GULP energy -133743.687039 kJ/mol
# GULP energy per Si atom -5572.653627 kJ/mol
# Density = 2.174669 g / cm^3
# Si number density = 21.796297 Si / 1000 Ang^3
#
#
#
# Elastic Constant Matrix: (Units=GPa)
#
#
# Indices 1 2 3 4 5 6 
#
# 1 100.1593 33.2718 34.6386 0.0000 -6.2965 0.0000
# 2 33.2718 147.2369 7.9987 0.0000 -2.0104 0.0000
# 3 34.6386 7.9987 51.8324 0.0000 -0.8848 0.0000
# 4 0.0000 0.0000 0.0000 -9.7884 0.0000 32.8317
# 5 -6.2965 -2.0104 -0.8848 0.0000 37.0943 0.0000
# 6 0.0000 0.0000 0.0000 32.8317 0.0000 -71.8241
#
#
#
# Elastic Compliance Matrix: (Units=1/GPa)
#
#
# Indices 1 2 3 4 5 6 
#
# 1 0.014105 -0.002672 -0.008979 0.000000 0.002035 0.000000
# 2 -0.002672 0.007360 0.000649 0.000000 -0.000039 0.000000
# 3 -0.008979 0.000649 0.025178 0.000000 -0.000888 0.000000
# 4 0.000000 0.000000 0.000000 0.191592 0.000000 0.087579
# 5 0.002035 -0.000039 -0.000888 0.000000 0.027280 0.000000
# 6 0.000000 0.000000 0.000000 0.087579 0.000000 0.026111
#
#
# Mechanical properties :
#
#
# Convention : Reuss Voigt Hill
#
# Bulk Modulus (GPa) = 40.58541 50.11629 45.35085
# Shear Modulus (GPa) = 15.53554 5.98433 10.75994
#
# Velocity S-wave (km/s) = 2.67265 1.65877 2.22425
# Velocity P-wave (km/s) = 5.30894 5.16833 5.23911
#
# Compressibility (1/GPa) = 0.02463940
#
# Stress axis : x y z
#
# Youngs Moduli (GPa) = 70.89791 135.87457 39.71709
#
# Poissons Ratio (x) = 0.36302 0.35662
# Poissons Ratio (y) = 0.18942 -0.02578
# Poissons Ratio (z) = 0.63659 -0.08819
#
# Static dielectric constant tensor:
#      x y z
#    x 1.802210 0.000000 0.019260 
#    y 0.000000 1.857160 0.000000 
#    z 0.019260 0.000000 1.765910 
# 
# From -- ./inp_files/85164.got.cif
#   From: 2010.05.17/outbox.cif.g08.bks.cpg/sg10_43_cif.got.tgz:85164.got - 2010.06.03 11:33:40.
