data_PCOD9146620
_publ_section_title
;
Structure prediction by ZEFSAII (Michael W. Deem and Ramdas Pophale) SiO2 
 PCOD9146620
Probable space group: P 2/M
;
_chemical_formula_sum "Si O2"
_cell_formula_units_Z 32
_cell_length_a 20.440420
_cell_length_b 7.530324
_cell_length_c 12.675284
_cell_angle_alpha 90.000000
_cell_angle_beta 45.231572
_cell_angle_gamma 90.000000
_cell_volume 1385.142290
_symmetry_space_group_name_H-M "P 2/M"
_symmetry_group_IT_number 10
_symmetry_cell_setting 'monoclinic'
loop_
_space_group_symop_operation_xyz
x,y,z
-x,y,-z
-x,-y,-z
x,-y,z
loop_
_atom_site_type_symbol
_atom_site_label
_atom_site_fract_x
_atom_site_fract_y
_atom_site_fract_z
Si Si1 0.893111 0.216734 0.121105
Si Si2 0.624067 0.712116 0.604149
Si Si3 0.080249 0.202800 0.479994
Si Si4 0.606792 0.285095 0.388832
Si Si5 0.458175 0.283115 0.934294
Si Si6 0.822729 0.213387 0.426837
Si Si7 0.750381 0.296796 0.850157
Si Si8 0.775075 0.204684 0.057874
O O1 0.848206 0.279546 0.281376
O O2 0.840241 0.278654 0.076562
O O3 0.887022 0.000000 0.127092
O O4 0.000000 0.264658 0.000000
O O5 0.614360 0.500000 0.606846
O O6 0.638417 0.778389 0.468648
O O7 0.530443 0.778876 0.763757
O O8 0.715215 0.748063 0.568359
O O9 0.110071 0.282897 0.558233
O O10 0.000000 0.286867 0.500000
O O11 0.049568 0.000000 0.537120
O O12 0.172942 0.200657 0.305608
O O13 0.500000 0.237025 0.500000
O O14 0.612824 0.500000 0.376342
O O15 0.672719 0.214201 0.223172
O O16 0.455887 0.500000 0.930891
O O17 0.353240 0.222700 0.040698
O O18 0.500000 0.235519 0.000000
O O19 0.832073 0.000000 0.415657
O O20 0.748573 0.500000 0.813693
O O21 0.777777 0.294887 0.941811
O O22 0.800844 0.000000 0.010592
#
# Coordination Sequence:
#
# PCOD9146620 Si02
#       8
#     4   4   4   4   4   4   4   4
#     4   9  19  35  59  86 112 151 196 237 286 345
#     4  10  19  33  56  83 113 149 190 236 286 343
#     4  10  23  41  63  88 116 153 198 244 291 344
#     4  10  20  35  55  80 115 158 199 236 283 341
#     4   9  18  34  57  83 110 150 197 235 280 342
#     4  10  20  37  60  87 117 148 191 243 290 342
#     4  11  23  40  62  87 120 154 194 242 293 352
#     4  11  22  37  60  87 119 153 195 243 291 349
#
# _framework density 23.102321
#
# number of rings (size 3 to 8) (size 9 to 14) (size 15 to 20)
#    0.000    2.000    1.250    2.250    1.750    4.000 
#    0.000    2.500    0.000    5.250    0.000    0.000 
#    0.000    0.000    0.000    0.000    0.000    0.000 
#
# Total GULP energy -178911.913285 kJ/mol
# GULP energy per Si atom -5590.997290 kJ/mol
# Density = 2.304974 g / cm^3
# Si number density = 23.102321 Si / 1000 Ang^3
#
#
#
# Elastic Constant Matrix: (Units=GPa)
#
#
# Indices 1 2 3 4 5 6 
#
# 1 147.2470 -3.2356 23.3617 0.0000 -1.4923 0.0000
# 2 -3.2356 62.5308 -8.5725 0.0000 1.8329 0.0000
# 3 23.3617 -8.5725 62.0715 0.0000 -0.7169 0.0000
# 4 0.0000 0.0000 0.0000 37.2929 0.0000 -14.2153
# 5 -1.4923 1.8329 -0.7169 0.0000 40.2176 0.0000
# 6 0.0000 0.0000 0.0000 -14.2153 0.0000 18.3953
#
#
#
# Elastic Compliance Matrix: (Units=1/GPa)
#
#
# Indices 1 2 3 4 5 6 
#
# 1 0.007225 -0.000005 -0.002717 0.000000 0.000220 0.000000
# 2 -0.000005 0.016321 0.002248 0.000000 -0.000704 0.000000
# 3 -0.002717 0.002248 0.017445 0.000000 0.000108 0.000000
# 4 0.000000 0.000000 0.000000 0.038011 0.000000 0.029374
# 5 0.000220 -0.000704 0.000108 0.000000 0.024907 0.000000
# 6 0.000000 0.000000 0.000000 0.029374 0.000000 0.077061
#
#
# Mechanical properties :
#
#
# Convention : Reuss Voigt Hill
#
# Bulk Modulus (GPa) = 24.97450 32.77293 28.87371
# Shear Modulus (GPa) = 25.60621 36.53423 31.07022
#
# Velocity S-wave (km/s) = 3.33285 3.98101 3.67126
# Velocity P-wave (km/s) = 5.06403 5.94542 5.52234
#
# Compressibility (1/GPa) = 0.04004085
#
# Stress axis : x y z
#
# Youngs Moduli (GPa) = 138.41716 61.27213 57.32355
#
# Poissons Ratio (x) = 0.00031 0.15576
# Poissons Ratio (y) = 0.00071 -0.12885
# Poissons Ratio (z) = 0.37612 -0.13773
#
# Static dielectric constant tensor:
#      x y z
#    x 1.886960 0.000000 0.009930 
#    y 0.000000 1.896640 0.000000 
#    z 0.009930 0.000000 1.818620 
# 
# From -- ./inp_files/55237.got.cif
#   From: 2010.05.17/outbox.cif.g08.bks.cpg/sg10_28_cif.got.tgz:55237.got - 2010.06.03 11:33:40.
