data_PCOD9146671
_publ_section_title
;
Structure prediction by ZEFSAII (Michael W. Deem and Ramdas Pophale) SiO2 
 PCOD9146671
Probable space group: P 2/M
;
_chemical_formula_sum "Si O2"
_cell_formula_units_Z 32
_cell_length_a 27.869592
_cell_length_b 14.093502
_cell_length_c 9.864402
_cell_angle_alpha 90.000000
_cell_angle_beta 152.703432
_cell_angle_gamma 90.000000
_cell_volume 1776.850406
_symmetry_space_group_name_H-M "P 2/M"
_symmetry_group_IT_number 10
_symmetry_cell_setting 'monoclinic'
loop_
_space_group_symop_operation_xyz
x,y,z
-x,y,-z
-x,-y,-z
x,-y,z
loop_
_atom_site_type_symbol
_atom_site_label
_atom_site_fract_x
_atom_site_fract_y
_atom_site_fract_z
Si Si1 0.612398 0.888078 0.837556
Si Si2 0.218300 0.888979 0.975307
Si Si3 0.638801 0.777501 0.469681
Si Si4 0.670217 0.388167 0.058836
Si Si5 0.917277 0.610601 0.671896
Si Si6 0.597409 0.772114 0.057368
Si Si7 0.691231 0.611956 0.802346
Si Si8 0.086323 0.707149 0.605860
O O1 0.500000 0.851764 0.500000
O O2 0.699599 0.874685 0.941805
O O3 0.600151 0.000000 0.830364
O O4 0.643082 0.839417 0.055298
O O5 0.279710 0.851281 0.261734
O O6 0.191389 0.000000 0.916175
O O7 0.124888 0.815522 0.715221
O O8 0.650705 0.768380 0.338199
O O9 0.651318 0.678172 0.581414
O O10 0.520342 0.806702 0.208304
O O11 0.652148 0.500000 0.027054
O O12 0.794666 0.369840 0.397345
O O13 0.603269 0.329438 0.997760
O O14 0.648263 0.362814 0.845595
O O15 0.919312 0.500000 0.631592
O O16 0.950813 0.680350 0.636621
O O17 0.000000 0.619489 0.000000
O O18 0.675954 0.500000 0.742931
O O19 0.813486 0.639427 0.119294
O O20 0.000000 0.687545 0.500000
#
# Coordination Sequence:
#
# PCOD9146671 Si02
#       8
#     4   4   4   4   4   4   4   4
#     4  10  19  33  57  80  95 128 175 216 260 308
#     4  10  21  39  58  76 104 137 178 222 260 315
#     4  10  22  34  49  78 108 144 171 210 273 318
#     4   9  19  34  53  76 103 143 185 217 253 304
#     4   9  18  33  54  80 108 137 173 217 262 306
#     4  11  21  33  51  76 112 138 171 220 266 314
#     4   9  19  36  54  74 105 141 182 221 253 303
#     4  10  20  34  55  81 105 136 175 212 264 316
#
# _framework density 18.009395000000001
#
# number of rings (size 3 to 8) (size 9 to 14) (size 15 to 20)
#    0.000    2.250    1.250    3.375    0.000    4.750 
#    0.000    5.000    0.000    0.375    0.000    0.000 
#    0.000    0.000    0.000    0.000    0.000    0.000 
#
# Total GULP energy -178468.569275 kJ/mol
# GULP energy per Si atom -5577.142790 kJ/mol
# Density = 1.796840 g / cm^3
# Si number density = 18.009395 Si / 1000 Ang^3
#
#
#
# Elastic Constant Matrix: (Units=GPa)
#
#
# Indices 1 2 3 4 5 6 
#
# 1 83.2754 18.6778 25.7725 0.0000 -24.0942 0.0000
# 2 18.6778 48.0777 20.9224 0.0000 -19.9524 0.0000
# 3 25.7725 20.9224 52.8912 0.0000 -27.4690 0.0000
# 4 0.0000 0.0000 0.0000 21.5069 0.0000 1.2949
# 5 -24.0942 -19.9524 -27.4690 0.0000 30.1911 0.0000
# 6 0.0000 0.0000 0.0000 1.2949 0.0000 7.6658
#
#
#
# Elastic Compliance Matrix: (Units=1/GPa)
#
#
# Indices 1 2 3 4 5 6 
#
# 1 0.015785 -0.001082 -0.002071 0.000000 0.009998 0.000000
# 2 -0.001082 0.028962 -0.002725 0.000000 0.015797 0.000000
# 3 -0.002071 -0.002725 0.036400 0.000000 0.029664 0.000000
# 4 0.000000 0.000000 0.000000 0.046974 0.000000 -0.007935
# 5 0.009998 0.015797 0.029664 0.000000 0.078530 0.000000
# 6 0.000000 0.000000 0.000000 -0.007935 0.000000 0.131790
#
#
# Mechanical properties :
#
#
# Convention : Reuss Voigt Hill
#
# Bulk Modulus (GPa) = 14.41128 34.99885 24.70507
# Shear Modulus (GPa) = 13.39304 19.79753 16.59529
#
# Velocity S-wave (km/s) = 2.72999 3.31915 3.03888
# Velocity P-wave (km/s) = 4.23752 5.84507 5.10497
#
# Compressibility (1/GPa) = 0.06939008
#
# Stress axis : x y z
#
# Youngs Moduli (GPa) = 63.35281 34.52831 27.47242
#
# Poissons Ratio (x) = 0.03735 0.05690
# Poissons Ratio (y) = 0.06854 0.07487
# Poissons Ratio (z) = 0.13122 0.09409
#
# Static dielectric constant tensor:
#      x y z
#    x 1.608020 0.000000 0.006970 
#    y 0.000000 1.630980 0.000000 
#    z 0.006970 0.000000 1.646980 
# 
# From -- ./inp_files/37739.got.cif
#   From: 2010.05.17/outbox.cif.g08.bks.cpg/sg10_19_cif.got.tgz:37739.got - 2010.06.03 11:33:40.
