data_PCOD9146975
_publ_section_title
;
Structure prediction by ZEFSAII (Michael W. Deem and Ramdas Pophale) SiO2 
 PCOD9146975
Probable space group: P 2/M
;
_chemical_formula_sum "Si O2"
_cell_formula_units_Z 28
_cell_length_a 15.172295
_cell_length_b 9.279117
_cell_length_c 20.418599
_cell_angle_alpha 90.000000
_cell_angle_beta 154.140430
_cell_angle_gamma 90.000000
_cell_volume 1253.824040
_symmetry_space_group_name_H-M "P 2/M"
_symmetry_group_IT_number 10
_symmetry_cell_setting 'monoclinic'
loop_
_space_group_symop_operation_xyz
x,y,z
-x,y,-z
-x,-y,-z
x,-y,z
loop_
_atom_site_type_symbol
_atom_site_label
_atom_site_fract_x
_atom_site_fract_y
_atom_site_fract_z
Si Si1 0.679121 0.155670 0.445721
Si Si2 0.906264 0.826555 0.008974
Si Si3 0.010224 0.661714 0.810329
Si Si4 0.440502 0.655344 0.534707
Si Si5 0.791687 0.826267 0.319614
Si Si6 0.851529 0.159881 0.209237
Si Si7 0.490674 0.669945 0.772910
O O1 0.523574 0.204294 0.398039
O O2 0.671569 0.287252 0.391063
O O3 0.906246 0.140469 0.622135
O O4 0.622904 0.000000 0.378929
O O5 0.692209 0.748593 0.881034
O O6 0.891115 0.000000 0.003926
O O7 0.030720 0.760292 0.153487
O O8 0.000000 0.792074 0.000000
O O9 0.071333 0.500000 0.870976
O O10 0.168531 0.735545 0.866383
O O11 0.801516 0.645703 0.631623
O O12 0.500000 0.671368 0.500000
O O13 0.521851 0.500000 0.613699
O O14 0.794002 0.789770 0.243716
O O15 0.605507 0.745204 0.228346
O O16 0.000000 0.792959 0.500000
O O17 0.771243 0.000000 0.310176
O O18 0.763015 0.000000 0.137484
O O19 0.511840 0.500000 0.793273
#
# Coordination Sequence:
#
# PCOD9146975 Si02
#       7
#     4   4   4   4   4   4   4
#     4  10  19  34  55  84 120 159 202 245 296 357
#     4  11  26  47  68  88 115 159 214 264 309 366
#     4  10  21  38  60  87 123 160 200 251 306 368
#     4   9  19  34  53  83 119 155 194 243 310 370
#     4  10  19  37  63  93 130 168 206 250 303 364
#     4   9  18  35  61  89 123 165 201 243 298 356
#     4  12  25  39  60  91 127 162 204 256 313 370
#
# _framework density 22.331682000000001
#
# number of rings (size 3 to 8) (size 9 to 14) (size 15 to 20)
#    0.000    1.857    1.429    2.571    2.000    3.429 
#    0.000    0.714    0.000    4.286    0.000    0.000 
#    0.000    0.000    0.000    0.000    0.000    0.000 
#
# Total GULP energy -156072.871503 kJ/mol
# GULP energy per Si atom -5574.031125 kJ/mol
# Density = 2.228085 g / cm^3
# Si number density = 22.331682 Si / 1000 Ang^3
#
#
#
# Elastic Constant Matrix: (Units=GPa)
#
#
# Indices 1 2 3 4 5 6 
#
# 1 180.5745 84.7858 -6.5797 0.0000 6.7854 0.0000
# 2 84.7858 102.7936 13.3904 0.0000 8.9220 0.0000
# 3 -6.5797 13.3904 28.8222 0.0000 8.6496 0.0000
# 4 0.0000 0.0000 0.0000 16.0598 0.0000 3.0765
# 5 6.7854 8.9220 8.6496 0.0000 22.9177 0.0000
# 6 0.0000 0.0000 0.0000 3.0765 0.0000 14.0784
#
#
#
# Elastic Compliance Matrix: (Units=1/GPa)
#
#
# Indices 1 2 3 4 5 6 
#
# 1 0.010178 -0.009147 0.007228 0.000000 -0.002180 0.000000
# 2 -0.009147 0.018704 -0.010607 0.000000 -0.000570 0.000000
# 3 0.007228 -0.010607 0.045872 0.000000 -0.015324 0.000000
# 4 0.000000 0.000000 0.000000 0.064988 0.000000 -0.014202
# 5 -0.002180 -0.000570 -0.015324 0.000000 0.050285 0.000000
# 6 0.000000 0.000000 0.000000 -0.014202 0.000000 0.074134
#
#
# Mechanical properties :
#
#
# Convention : Reuss Voigt Hill
#
# Bulk Modulus (GPa) = 20.12032 55.04258 37.58145
# Shear Modulus (GPa) = 16.35150 25.31743 20.83446
#
# Velocity S-wave (km/s) = 2.70887 3.37070 3.05775
# Velocity P-wave (km/s) = 4.33743 6.31269 5.41588
#
# Compressibility (1/GPa) = 0.04970099
#
# Stress axis : x y z
#
# Youngs Moduli (GPa) = 98.24960 53.46355 21.79982
#
# Poissons Ratio (x) = 0.48905 -0.15756
# Poissons Ratio (y) = 0.89873 0.23123
# Poissons Ratio (z) = -0.71011 0.56708
#
# Static dielectric constant tensor:
#      x y z
#    x 1.868360 0.000000 -0.025310 
#    y 0.000000 1.866100 0.000000 
#    z -0.025310 0.000000 1.952230 
# 
# From -- ./inp_files/84984.got.cif
#   From: 2010.05.17/outbox.cif.g08.bks.cpg/sg10_43_cif.got.tgz:84984.got - 2010.06.03 11:33:40.
