data_PCOD9146556
_publ_section_title
;
Structure prediction by ZEFSAII (Michael W. Deem and Ramdas Pophale) SiO2 
 PCOD9146556
Probable space group: P 2/M
;
_chemical_formula_sum "Si O2"
_cell_formula_units_Z 28
_cell_length_a 11.997479
_cell_length_b 10.086915
_cell_length_c 14.118734
_cell_angle_alpha 90.000000
_cell_angle_beta 115.142905
_cell_angle_gamma 90.000000
_cell_volume 1546.724897
_symmetry_space_group_name_H-M "P 2/M"
_symmetry_group_IT_number 10
_symmetry_cell_setting 'monoclinic'
loop_
_space_group_symop_operation_xyz
x,y,z
-x,y,-z
-x,-y,-z
x,-y,z
loop_
_atom_site_type_symbol
_atom_site_label
_atom_site_fract_x
_atom_site_fract_y
_atom_site_fract_z
Si Si1 0.365934 0.343096 0.500000
Si Si2 0.940535 0.243321 0.381069
Si Si3 0.614962 0.851706 0.111222
Si Si4 0.830466 0.851236 0.659100
Si Si5 0.829315 0.350792 0.158630
Si Si6 0.003740 0.148294 0.888778
Si Si7 0.671366 0.148764 0.340900
O O1 0.500000 0.332210 0.500000
O O2 0.337151 0.500000 0.500000
O O3 0.264076 0.263865 0.402135
O O4 0.361941 0.263865 0.597865
O O5 0.892680 0.346026 0.285361
O O6 0.816231 0.163863 0.364378
O O7 0.000000 0.294752 0.500000
O O8 0.048147 0.163863 0.364378
O O9 0.705688 0.733341 0.120183
O O10 0.592906 0.839987 0.215901
O O11 0.670883 0.000000 0.119733
O O12 0.500000 0.845665 0.000000
O O13 0.877004 0.839986 0.784099
O O14 0.780250 0.000000 0.626887
O O15 0.810634 0.500000 0.121267
O O16 0.914495 0.266659 0.120183
O O17 0.051149 0.000000 0.880266
O O18 0.000000 0.154335 0.000000
O O19 0.653364 0.000000 0.373113
#
# Coordination Sequence:
#
# PCOD9146556 Si02
#       7
#     4   4   4   4   4   4   4
#     4  11  25  42  55  74 114 159 190 229 280 333
#     4  10  19  33  55  89 120 145 172 224 286 341
#     4   9  19  38  60  82 111 146 185 231 283 331
#     4  10  20  36  61  89 111 142 187 235 280 333
#     4  10  21  34  52  84 118 148 184 225 275 331
#     4   9  19  38  60  82 111 146 185 231 283 331
#     4  10  20  36  61  89 111 142 187 235 280 333
#
# _framework density 18.102768000000001
#
# number of rings (size 3 to 8) (size 9 to 14) (size 15 to 20)
#    0.000    2.143    1.429    1.286    0.000   10.571 
#    2.571    0.000    0.000    0.000    0.000    0.000 
#    0.000    0.000    0.000    0.000    0.000    0.000 
#
# Total GULP energy -156014.509079 kJ/mol
# GULP energy per Si atom -5571.946753 kJ/mol
# Density = 1.806156 g / cm^3
# Si number density = 18.102768 Si / 1000 Ang^3
#
#
#
# Elastic Constant Matrix: (Units=GPa)
#
#
# Indices 1 2 3 4 5 6 
#
# 1 56.9836 58.6321 43.5445 0.0000 -0.7769 0.0000
# 2 58.6321 193.5528 61.7229 0.0000 -0.1804 0.0000
# 3 43.5445 61.7229 150.7663 0.0000 -4.6992 0.0000
# 4 0.0000 0.0000 0.0000 15.6715 0.0000 -0.0838
# 5 -0.7769 -0.1804 -4.6992 0.0000 13.6018 0.0000
# 6 0.0000 0.0000 0.0000 -0.0838 0.0000 14.2382
#
#
#
# Elastic Compliance Matrix: (Units=1/GPa)
#
#
# Indices 1 2 3 4 5 6 
#
# 1 0.028976 -0.007023 -0.005505 0.000000 -0.000340 0.000000
# 2 -0.007023 0.007652 -0.001126 0.000000 -0.000689 0.000000
# 3 -0.005505 -0.001126 0.008768 0.000000 0.002700 0.000000
# 4 0.000000 0.000000 0.000000 0.063812 0.000000 0.000375
# 5 -0.000340 -0.000689 0.002700 0.000000 0.074424 0.000000
# 6 0.000000 0.000000 0.000000 0.000375 0.000000 0.070236
#
#
# Mechanical properties :
#
#
# Convention : Reuss Voigt Hill
#
# Bulk Modulus (GPa) = 55.27886 81.01129 68.14508
# Shear Modulus (GPa) = 17.40918 24.52919 20.96919
#
# Velocity S-wave (km/s) = 3.10447 3.68502 3.40713
# Velocity P-wave (km/s) = 6.59187 7.93434 7.29406
#
# Compressibility (1/GPa) = 0.01809010
#
# Stress axis : x y z
#
# Youngs Moduli (GPa) = 34.51078 130.67928 114.05455
#
# Poissons Ratio (x) = 0.91772 0.62782
# Poissons Ratio (y) = 0.24236 0.12842
# Poissons Ratio (z) = 0.18997 0.14714
#
# Static dielectric constant tensor:
#      x y z
#    x 1.617990 0.000000 -0.001470 
#    y 0.000000 1.605490 0.000000 
#    z -0.001470 0.000000 1.643150 
# 
# From -- ./inp_files/63930.got.cif
#   From: 2010.05.17/outbox.cif.g08.bks.cpg/sg10_32_cif.got.tgz:63930.got - 2010.06.03 11:33:40.
