data_PCOD9146791
_publ_section_title
;
Structure prediction by ZEFSAII (Michael W. Deem and Ramdas Pophale) SiO2 
 PCOD9146791
Probable space group: P 2/M
;
_chemical_formula_sum "Si O2"
_cell_formula_units_Z 24
_cell_length_a 22.716017
_cell_length_b 8.845377
_cell_length_c 9.921403
_cell_angle_alpha 90.000000
_cell_angle_beta 43.759523
_cell_angle_gamma 90.000000
_cell_volume 1378.787693
_symmetry_space_group_name_H-M "P 2/M"
_symmetry_group_IT_number 10
_symmetry_cell_setting 'monoclinic'
loop_
_space_group_symop_operation_xyz
x,y,z
-x,y,-z
-x,-y,-z
x,-y,z
loop_
_atom_site_type_symbol
_atom_site_label
_atom_site_fract_x
_atom_site_fract_y
_atom_site_fract_z
Si Si1 0.634743 0.181353 0.060251
Si Si2 0.221122 0.681606 0.370058
Si Si3 0.759847 0.181163 0.086093
Si Si4 0.097292 0.182295 0.366214
Si Si5 0.721455 0.681791 0.433404
Si Si6 0.474130 0.317744 0.195945
O O1 0.697981 0.250345 0.843317
O O2 0.635904 0.000000 0.047798
O O3 0.676938 0.223412 0.133853
O O4 0.541478 0.244327 0.185866
O O5 0.225313 0.500000 0.354616
O O6 0.138453 0.742518 0.429715
O O7 0.228533 0.726847 0.513917
O O8 0.757745 0.253183 0.235713
O O9 0.760343 0.000000 0.098263
O O10 0.841294 0.224165 0.860367
O O11 0.000000 0.224598 0.500000
O O12 0.102026 0.000000 0.373246
O O13 0.722739 0.500000 0.424804
O O14 0.622697 0.728059 0.614870
O O15 0.480013 0.500000 0.195527
O O16 0.500000 0.275913 0.000000
#
# Coordination Sequence:
#
# PCOD9146791 Si02
#       6
#     4   4   4   4   4   4
#     4  10  20  34  52  77 105 140 184 223 263 307
#     4  10  19  34  55  79 107 139 177 217 260 312
#     4   9  20  36  53  76 107 138 171 216 265 315
#     4   9  19  38  61  83 106 134 172 215 260 317
#     4  10  21  35  52  76 107 143 177 217 265 310
#     4  10  19  34  52  73 105 142 184 225 259 302
#
# _framework density 17.406597000000001
#
# number of rings (size 3 to 8) (size 9 to 14) (size 15 to 20)
#    0.000    2.333    1.667    2.000    0.000    6.667 
#    0.000    4.167    0.000    5.000    0.000    0.000 
#    0.000    0.000    0.000    0.000    0.000    0.000 
#
# Total GULP energy -133910.072196 kJ/mol
# GULP energy per Si atom -5579.586341 kJ/mol
# Density = 1.736698 g / cm^3
# Si number density = 17.406597 Si / 1000 Ang^3
#
#
#
# Elastic Constant Matrix: (Units=GPa)
#
#
# Indices 1 2 3 4 5 6 
#
# 1 171.7660 45.3855 88.6305 0.0000 6.6454 0.0000
# 2 45.3855 23.7027 28.7553 0.0000 3.6400 0.0000
# 3 88.6305 28.7553 89.7245 0.0000 15.8123 0.0000
# 4 0.0000 0.0000 0.0000 26.8114 0.0000 1.8824
# 5 6.6454 3.6400 15.8123 0.0000 34.1557 0.0000
# 6 0.0000 0.0000 0.0000 1.8824 0.0000 37.5971
#
#
#
# Elastic Compliance Matrix: (Units=1/GPa)
#
#
# Indices 1 2 3 4 5 6 
#
# 1 0.015973 -0.018354 -0.010554 0.000000 0.003734 0.000000
# 2 -0.018354 0.090429 -0.010650 0.000000 -0.001135 0.000000
# 3 -0.010554 -0.010650 0.026591 0.000000 -0.009122 0.000000
# 4 0.000000 0.000000 0.000000 0.037429 0.000000 -0.001874
# 5 0.003734 -0.001135 -0.009122 0.000000 0.032895 0.000000
# 6 0.000000 0.000000 0.000000 -0.001874 0.000000 0.026692
#
#
# Mechanical properties :
#
#
# Convention : Reuss Voigt Hill
#
# Bulk Modulus (GPa) = 18.56122 67.85951 43.21036
# Shear Modulus (GPa) = 15.28652 27.87429 21.58041
#
# Velocity S-wave (km/s) = 2.96666 4.00605 3.52488
# Velocity P-wave (km/s) = 4.73511 7.77608 6.43773
#
# Compressibility (1/GPa) = 0.05387578
#
# Stress axis : x y z
#
# Youngs Moduli (GPa) = 62.60560 11.05841 37.60613
#
# Poissons Ratio (x) = 0.20297 0.39690
# Poissons Ratio (y) = 1.14909 0.40052
# Poissons Ratio (z) = 0.66074 0.11777
#
# Static dielectric constant tensor:
#      x y z
#    x 1.592580 0.000000 -0.000030 
#    y 0.000000 1.586840 0.000000 
#    z -0.000030 0.000000 1.569580 
# 
# From -- ./inp_files/31231.got.cif
#   From: 2010.05.17/outbox.cif.g08.bks.cpg/sg10_16_cif.got.tgz:31231.got - 2010.06.03 11:33:40.
