data_PCOD9146644
_publ_section_title
;
Structure prediction by ZEFSAII (Michael W. Deem and Ramdas Pophale) SiO2 
 PCOD9146644
Probable space group: P 2/M
;
_chemical_formula_sum "Si O2"
_cell_formula_units_Z 20
_cell_length_a 22.671931
_cell_length_b 7.822737
_cell_length_c 10.301254
_cell_angle_alpha 90.000000
_cell_angle_beta 37.784900
_cell_angle_gamma 90.000000
_cell_volume 1119.397570
_symmetry_space_group_name_H-M "P 2/M"
_symmetry_group_IT_number 10
_symmetry_cell_setting 'monoclinic'
loop_
_space_group_symop_operation_xyz
x,y,z
-x,y,-z
-x,-y,-z
x,-y,z
loop_
_atom_site_type_symbol
_atom_site_label
_atom_site_fract_x
_atom_site_fract_y
_atom_site_fract_z
Si Si1 0.436608 0.301177 0.727781
Si Si2 0.088833 0.500000 0.747865
Si Si3 0.091013 0.500000 0.436303
Si Si4 0.446934 0.793819 0.224074
Si Si5 0.762432 0.191452 0.814898
Si Si6 0.239067 0.198820 0.488605
O O1 0.500000 0.228504 0.500000
O O2 0.416149 0.500000 0.735239
O O3 0.501537 0.286849 0.742978
O O4 0.334551 0.214619 0.934129
O O5 0.063291 0.500000 0.638121
O O6 0.154162 0.332340 0.658432
O O7 0.000000 0.500000 0.000000
O O8 0.158468 0.334921 0.295122
O O9 0.000000 0.500000 0.500000
O O10 0.334113 0.756221 0.404568
O O11 0.457133 0.000000 0.216399
O O12 0.500000 0.739530 0.000000
O O13 0.734838 0.210282 0.710279
O O14 0.800856 0.000000 0.765958
O O15 0.213421 0.000000 0.558242
#
# Coordination Sequence:
#
# PCOD9146644 Si02
#       6
#     4   2   2   4   4   4
#     4  11  23  36  52  84 124 160 188 229 279 334
#     4  10  22  40  60  83 106 148 180 231 303 332
#     4  10  22  42  62  82 110 140 190 246 281 336
#     4  10  19  33  56  85 114 147 189 231 269 331
#     4  10  19  37  62  83 111 152 191 227 281 341
#     4   9  19  35  58  87 113 143 189 231 271 340
#
# _framework density 17.866752999999999
#
# number of rings (size 3 to 8) (size 9 to 14) (size 15 to 20)
#    0.000    2.000    3.000    0.600    1.400    2.800 
#    3.600    0.000    0.000    0.000    0.000    0.000 
#    0.000    0.000    0.000    0.000    0.000    0.000 
#
# Total GULP energy -111630.474103 kJ/mol
# GULP energy per Si atom -5581.523705 kJ/mol
# Density = 1.782609 g / cm^3
# Si number density = 17.866753 Si / 1000 Ang^3
#
#
#
# Elastic Constant Matrix: (Units=GPa)
#
#
# Indices 1 2 3 4 5 6 
#
# 1 92.3371 38.5279 40.1389 0.0000 -13.6406 0.0000
# 2 38.5279 92.0205 52.0609 0.0000 -16.0174 0.0000
# 3 40.1389 52.0609 142.6508 0.0000 -4.3401 0.0000
# 4 0.0000 0.0000 0.0000 16.9830 0.0000 -3.6437
# 5 -13.6406 -16.0174 -4.3401 0.0000 20.9011 0.0000
# 6 0.0000 0.0000 0.0000 -3.6437 0.0000 25.7376
#
#
#
# Elastic Compliance Matrix: (Units=1/GPa)
#
#
# Indices 1 2 3 4 5 6 
#
# 1 0.014301 -0.003462 -0.002574 0.000000 0.006146 0.000000
# 2 -0.003462 0.016714 -0.004835 0.000000 0.009545 0.000000
# 3 -0.002574 -0.004835 0.009394 0.000000 -0.003434 0.000000
# 4 0.000000 0.000000 0.000000 0.060727 0.000000 0.008597
# 5 0.006146 0.009545 -0.003434 0.000000 0.058457 0.000000
# 6 0.000000 0.000000 0.000000 0.008597 0.000000 0.040071
#
#
# Mechanical properties :
#
#
# Convention : Reuss Voigt Hill
#
# Bulk Modulus (GPa) = 53.56853 65.38486 59.47669
# Shear Modulus (GPa) = 21.96574 25.80972 23.88773
#
# Velocity S-wave (km/s) = 3.51011 3.80487 3.66046
# Velocity P-wave (km/s) = 6.81727 7.48184 7.15727
#
# Compressibility (1/GPa) = 0.01866768
#
# Stress axis : x y z
#
# Youngs Moduli (GPa) = 69.92526 59.83176 106.44645
#
# Poissons Ratio (x) = 0.20713 0.27395
# Poissons Ratio (y) = 0.24207 0.51469
# Poissons Ratio (z) = 0.17996 0.28930
#
# Static dielectric constant tensor:
#      x y z
#    x 1.581230 0.000000 0.013450 
#    y 0.000000 1.629320 0.000000 
#    z 0.013450 0.000000 1.596200 
# 
# From -- ./inp_files/31433.got.cif
#   From: 2010.05.17/outbox.cif.g08.bks.cpg/sg10_16_cif.got.tgz:31433.got - 2010.06.03 11:33:40.
