data_PCOD9146370
_publ_section_title
;
Structure prediction by ZEFSAII (Michael W. Deem and Ramdas Pophale) SiO2 
 PCOD9146370
Probable space group: P 2/M
;
_chemical_formula_sum "Si O2"
_cell_formula_units_Z 26
_cell_length_a 24.978837
_cell_length_b 10.081398
_cell_length_c 8.995998
_cell_angle_alpha 90.000000
_cell_angle_beta 145.952646
_cell_angle_gamma 90.000000
_cell_volume 1268.339880
_symmetry_space_group_name_H-M "P 2/M"
_symmetry_group_IT_number 10
_symmetry_cell_setting 'monoclinic'
loop_
_space_group_symop_operation_xyz
x,y,z
-x,y,-z
-x,-y,-z
x,-y,z
loop_
_atom_site_type_symbol
_atom_site_label
_atom_site_fract_x
_atom_site_fract_y
_atom_site_fract_z
Si Si1 0.969972 0.848237 0.754637
Si Si2 0.178851 0.648855 0.488440
Si Si3 0.116875 0.645388 0.016387
Si Si4 0.663667 0.143698 0.174993
Si Si5 0.500000 0.756913 0.000000
Si Si6 0.334455 0.650662 0.406292
Si Si7 0.605277 0.150224 0.703688
O O1 0.879211 0.749514 0.540977
O O2 0.951491 0.000000 0.666046
O O3 0.050679 0.773546 0.842743
O O4 0.000000 0.856233 0.000000
O O5 0.196799 0.500000 0.588293
O O6 0.118370 0.634065 0.198738
O O7 0.272537 0.727587 0.651060
O O8 0.083194 0.500000 0.881685
O O9 0.226559 0.663200 0.219560
O O10 0.562333 0.160608 0.024117
O O11 0.705662 0.000000 0.319068
O O12 0.654266 0.142302 0.976129
O O13 0.418846 0.678232 0.720422
O O14 0.346028 0.500000 0.379635
O O15 0.346273 0.755264 0.302174
O O16 0.500000 0.202270 0.500000
O O17 0.595974 0.000000 0.622292
#
# Coordination Sequence:
#
# PCOD9146370 Si02
#       7
#     4   4   4   4   2   4   4
#     4   9  17  30  50  80 112 145 184 227 277 339
#     4  10  19  33  54  81 114 148 182 231 288 338
#     4   9  18  33  51  79 114 147 182 229 285 336
#     4  11  23  38  58  83 114 152 194 237 282 337
#     4  12  22  38  58  88 116 150 188 242 288 328
#     4  11  23  38  58  85 116 152 193 236 281 337
#     4  10  22  41  57  77 112 155 196 235 282 337
#
# _framework density 20.499237999999998
#
# number of rings (size 3 to 8) (size 9 to 14) (size 15 to 20)
#    0.000    1.846    3.077    1.385    0.000    5.231 
#    0.000    0.000    0.000    0.923    0.000    6.462 
#    0.000    0.000    0.000    0.000    0.000    0.000 
#
# Total GULP energy -144864.189071 kJ/mol
# GULP energy per Si atom -5571.699580 kJ/mol
# Density = 2.045258 g / cm^3
# Si number density = 20.499238 Si / 1000 Ang^3
#
#
#
# Elastic Constant Matrix: (Units=GPa)
#
#
# Indices 1 2 3 4 5 6 
#
# 1 91.2939 78.3879 20.6025 0.0000 16.0462 0.0000
# 2 78.3879 184.8718 28.1547 0.0000 26.9631 0.0000
# 3 20.6025 28.1547 15.6442 0.0000 10.6281 0.0000
# 4 0.0000 0.0000 0.0000 20.4935 0.0000 6.4656
# 5 16.0462 26.9631 10.6281 0.0000 28.8749 0.0000
# 6 0.0000 0.0000 0.0000 6.4656 0.0000 24.4476
#
#
#
# Elastic Compliance Matrix: (Units=1/GPa)
#
#
# Indices 1 2 3 4 5 6 
#
# 1 0.019440 -0.006003 -0.015023 0.000000 0.000332 0.000000
# 2 -0.006003 0.009466 -0.007189 0.000000 -0.002857 0.000000
# 3 -0.015023 -0.007189 0.115224 0.000000 -0.027349 0.000000
# 4 0.000000 0.000000 0.000000 0.053238 0.000000 -0.014080
# 5 0.000332 -0.002857 -0.027349 0.000000 0.047182 0.000000
# 6 0.000000 0.000000 0.000000 -0.014080 0.000000 0.044627
#
#
# Mechanical properties :
#
#
# Convention : Reuss Voigt Hill
#
# Bulk Modulus (GPa) = 11.40259 60.67777 36.04018
# Shear Modulus (GPa) = 13.33894 25.74085 19.53989
#
# Velocity S-wave (km/s) = 2.55366 3.54743 3.09074
# Velocity P-wave (km/s) = 3.77749 6.81493 5.50966
#
# Compressibility (1/GPa) = 0.08769941
#
# Stress axis : x y z
#
# Youngs Moduli (GPa) = 51.43957 105.63843 8.67875
#
# Poissons Ratio (x) = 0.63420 0.13038
# Poissons Ratio (y) = 0.30882 0.06239
# Poissons Ratio (z) = 0.77278 0.75944
#
# Static dielectric constant tensor:
#      x y z
#    x 1.733500 0.000000 0.007440 
#    y 0.000000 1.778990 0.000000 
#    z 0.007440 0.000000 1.768110 
# 
# From -- ./inp_files/34282.got.cif
#   From: 2010.05.17/outbox.cif.g08.bks.cpg/sg10_18_cif.got.tgz:34282.got - 2010.06.03 11:33:40.
