data_PCOD9146985
_publ_section_title
;
Structure prediction by ZEFSAII (Michael W. Deem and Ramdas Pophale) SiO2 
 PCOD9146985
Probable space group: P 2/M
;
_chemical_formula_sum "Si O2"
_cell_formula_units_Z 32
_cell_length_a 24.237895
_cell_length_b 9.160851
_cell_length_c 17.926091
_cell_angle_alpha 90.000000
_cell_angle_beta 149.402448
_cell_angle_gamma 90.000000
_cell_volume 2025.993543
_symmetry_space_group_name_H-M "P 2/M"
_symmetry_group_IT_number 10
_symmetry_cell_setting 'monoclinic'
loop_
_space_group_symop_operation_xyz
x,y,z
-x,y,-z
-x,-y,-z
x,-y,z
loop_
_atom_site_type_symbol
_atom_site_label
_atom_site_fract_x
_atom_site_fract_y
_atom_site_fract_z
Si Si1 0.870419 0.332511 0.365907
Si Si2 0.857973 0.326741 0.939329
Si Si3 0.171316 0.173573 0.829342
Si Si4 0.299588 0.673135 0.104197
Si Si5 0.896336 0.326718 0.721745
Si Si6 0.753000 0.173759 0.675430
Si Si7 0.945177 0.324641 0.609164
Si Si8 0.471565 0.326563 0.553040
O O1 0.833918 0.500000 0.314175
O O2 0.817004 0.231366 0.241704
O O3 0.866126 0.289647 0.447815
O O4 0.000000 0.330321 0.500000
O O5 0.845937 0.500000 0.908911
O O6 0.781505 0.294310 0.921260
O O7 0.819335 0.236352 0.823445
O O8 0.982402 0.299593 0.105862
O O9 0.058200 0.241639 0.728088
O O10 0.166351 0.000000 0.825325
O O11 0.263360 0.235492 0.990784
O O12 0.287899 0.500000 0.074709
O O13 0.421305 0.700802 0.273567
O O14 0.874906 0.500000 0.705856
O O15 0.811163 0.235365 0.669638
O O16 0.898643 0.293156 0.636425
O O17 0.631909 0.236388 0.541801
O O18 0.753059 0.000000 0.676476
O O19 0.967225 0.500000 0.631009
O O20 0.500000 0.293233 0.500000
O O21 0.446445 0.500000 0.527197
#
# Coordination Sequence:
#
# PCOD9146985 Si02
#       8
#     4   4   4   4   4   4   4   4
#     4   8  15  28  47  68  96 132 170 206 242 289
#     4  10  19  35  56  74  96 132 176 214 247 292
#     4  11  20  28  44  73 109 137 161 198 250 310
#     4  10  19  34  56  76  96 128 173 215 251 292
#     4  10  20  35  55  74  98 134 177 213 245 293
#     4  12  25  36  49  73 107 136 165 208 257 307
#     4   9  17  32  51  71  96 133 175 212 245 286
#     4  10  20  38  60  75  91 125 175 219 252 295
#
# _framework density 15.79472
#
# number of rings (size 3 to 8) (size 9 to 14) (size 15 to 20)
#    0.000    2.000    2.500    3.375    0.000    6.000 
#    0.000    0.000    0.000    0.000    0.000    0.875 
#    0.000    7.000    0.000    0.000    0.000    0.000 
#
# Total GULP energy -178578.298423 kJ/mol
# GULP energy per Si atom -5580.571826 kJ/mol
# Density = 1.575877 g / cm^3
# Si number density = 15.794720 Si / 1000 Ang^3
#
#
#
# Elastic Constant Matrix: (Units=GPa)
#
#
# Indices 1 2 3 4 5 6 
#
# 1 105.5921 72.4288 77.7302 0.0000 -9.9817 0.0000
# 2 72.4288 79.4594 67.2654 0.0000 -13.2784 0.0000
# 3 77.7302 67.2654 86.5658 0.0000 -20.7257 0.0000
# 4 0.0000 0.0000 0.0000 5.9589 0.0000 5.3837
# 5 -9.9817 -13.2784 -20.7257 0.0000 26.7003 0.0000
# 6 0.0000 0.0000 0.0000 5.3837 0.0000 2.9402
#
#
#
# Elastic Compliance Matrix: (Units=1/GPa)
#
#
# Indices 1 2 3 4 5 6 
#
# 1 0.035797 -0.014556 -0.023781 0.000000 -0.012316 0.000000
# 2 -0.014556 0.043199 -0.020459 0.000000 0.000161 0.000000
# 3 -0.023781 -0.020459 0.054337 0.000000 0.023113 0.000000
# 4 0.000000 0.000000 0.000000 -0.256476 0.000000 0.469624
# 5 -0.012316 0.000161 0.023113 0.000000 0.050870 0.000000
# 6 0.000000 0.000000 0.000000 0.469624 0.000000 -0.519799
#
#
# Mechanical properties :
#
#
# Convention : Reuss Voigt Hill
#
# Bulk Modulus (GPa) = 63.52848 78.49622 71.01235
# Shear Modulus (GPa) = -10.65565 10.73277 0.03856
#
# Velocity S-wave (km/s) = -2.60019 2.60958 0.15641
# Velocity P-wave (km/s) = 5.59410 7.67369 6.71489
#
# Compressibility (1/GPa) = 0.01574097
#
# Stress axis : x y z
#
# Youngs Moduli (GPa) = 27.93564 23.14870 18.40368
#
# Poissons Ratio (x) = 0.33695 0.43766
# Poissons Ratio (y) = 0.40663 0.37652
# Poissons Ratio (z) = 0.66434 0.47360
#
# Static dielectric constant tensor:
#      x y z
#    x 1.526450 0.000000 -0.022500 
#    y 0.000000 1.518640 0.000000 
#    z -0.022500 0.000000 1.518970 
# 
# From -- ./inp_files/75972.got.cif
#   From: 2010.05.17/outbox.cif.g08.bks.cpg/sg10_38_cif.got.tgz:75972.got - 2010.06.03 11:33:40.
