data_PCOD9146057
_publ_section_title
;
Structure prediction by ZEFSAII (Michael W. Deem and Ramdas Pophale) SiO2 
 PCOD9146057
Probable space group: P 2/M
;
_chemical_formula_sum "Si O2"
_cell_formula_units_Z 25
_cell_length_a 14.000539
_cell_length_b 15.976164
_cell_length_c 8.158474
_cell_angle_alpha 90.000000
_cell_angle_beta 138.173686
_cell_angle_gamma 90.000000
_cell_volume 1216.943703
_symmetry_space_group_name_H-M "P 2/M"
_symmetry_group_IT_number 10
_symmetry_cell_setting 'monoclinic'
loop_
_space_group_symop_operation_xyz
x,y,z
-x,y,-z
-x,-y,-z
x,-y,z
loop_
_atom_site_type_symbol
_atom_site_label
_atom_site_fract_x
_atom_site_fract_y
_atom_site_fract_z
Si Si1 0.437655 0.094221 0.103961
Si Si2 0.431846 0.746729 0.584836
Si Si3 0.329173 0.652050 0.920560
Si Si4 0.934654 0.596636 0.230719
Si Si5 0.860481 0.096026 0.433259
Si Si6 0.848494 0.264954 0.592409
Si Si7 0.500000 0.500000 0.000000
O O1 0.528600 0.157041 0.329143
O O2 0.446268 0.000000 0.178105
O O3 0.500000 0.096989 0.000000
O O4 0.272105 0.116140 0.858515
O O5 0.500000 0.722653 0.500000
O O6 0.265242 0.729153 0.404877
O O7 0.528564 0.697738 0.838633
O O8 0.228333 0.625096 0.943963
O O9 0.238828 0.708861 0.682537
O O10 0.379990 0.571390 0.888556
O O11 0.943937 0.500000 0.181260
O O12 0.000000 0.595714 0.500000
O O13 0.022302 0.667542 0.242147
O O14 0.880910 0.167193 0.597859
O O15 0.000000 0.096531 0.500000
O O16 0.835614 0.000000 0.462562
#
# Coordination Sequence:
#
# PCOD9146057 Si02
#       7
#     4   4   4   4   4   4   1
#     4  10  19  36  61  85 112 146 190 237 280 328
#     4  12  24  37  54  82 119 156 191 228 281 340
#     4  11  20  37  60  85 111 142 190 233 289 330
#     4   9  19  32  58  88 110 135 184 239 288 336
#     4  10  19  32  57  91 115 138 180 237 290 333
#     4  11  20  35  58  84 111 146 185 238 282 332
#     4  12  20  32  68  88 108 146 182 244 290 340
#
# _framework density 20.543268999999999
#
# number of rings (size 3 to 8) (size 9 to 14) (size 15 to 20)
#    0.000    1.440    5.600    1.440    1.120    0.320 
#    0.000    1.200    0.000    0.960    0.000    3.360 
#    0.000    0.000    0.000    0.000    0.000    0.000 
#
# Total GULP energy -139178.756224 kJ/mol
# GULP energy per Si atom -5567.150249 kJ/mol
# Density = 2.049651 g / cm^3
# Si number density = 20.543269 Si / 1000 Ang^3
#
#
#
# Elastic Constant Matrix: (Units=GPa)
#
#
# Indices 1 2 3 4 5 6 
#
# 1 119.3775 37.8742 16.2310 0.0000 32.1455 0.0000
# 2 37.8742 131.3691 6.3334 0.0000 12.7850 0.0000
# 3 16.2310 6.3334 16.2802 0.0000 15.5679 0.0000
# 4 0.0000 0.0000 0.0000 5.8205 0.0000 13.7317
# 5 32.1455 12.7850 15.5679 0.0000 36.3763 0.0000
# 6 0.0000 0.0000 0.0000 13.7317 0.0000 9.8113
#
#
#
# Elastic Compliance Matrix: (Units=1/GPa)
#
#
# Indices 1 2 3 4 5 6 
#
# 1 0.011785 -0.002449 -0.002812 0.000000 -0.008350 0.000000
# 2 -0.002449 0.008396 -0.000122 0.000000 -0.000734 0.000000
# 3 -0.002812 -0.000122 0.104710 0.000000 -0.042285 0.000000
# 4 0.000000 0.000000 0.000000 -0.074638 0.000000 0.104462
# 5 -0.008350 -0.000734 -0.042285 0.000000 0.053224 0.000000
# 6 0.000000 0.000000 0.000000 0.104462 0.000000 -0.044279
#
#
# Mechanical properties :
#
#
# Convention : Reuss Voigt Hill
#
# Bulk Modulus (GPa) = 8.76239 43.10043 25.93141
# Shear Modulus (GPa) = 46.29385 24.17417 35.23401
#
# Velocity S-wave (km/s) = 4.75223 3.43409 4.14588
# Velocity P-wave (km/s) = 5.86398 6.06216 5.96389
#
# Compressibility (1/GPa) = 0.11412408
#
# Stress axis : x y z
#
# Youngs Moduli (GPa) = 84.85675 119.10966 9.55014
#
# Poissons Ratio (x) = 0.29174 0.02685
# Poissons Ratio (y) = 0.20785 0.00117
# Poissons Ratio (z) = 0.23858 0.01457
#
# Static dielectric constant tensor:
#      x y z
#    x 1.776080 0.000000 0.026150 
#    y 0.000000 1.767440 0.000000 
#    z 0.026150 0.000000 1.884950 
# 
# From -- ./inp_files/29712.got.cif
#   From: 2010.05.17/outbox.cif.g08.bks.cpg/sg10_15_cif.got.tgz:29712.got - 2010.06.03 11:33:40.
