data_PCOD9146240
_publ_section_title
;
Structure prediction by ZEFSAII (Michael W. Deem and Ramdas Pophale) SiO2 
 PCOD9146240
Probable space group: P 2/M
;
_chemical_formula_sum "Si O2"
_cell_formula_units_Z 28
_cell_length_a 17.676034
_cell_length_b 14.729294
_cell_length_c 9.733917
_cell_angle_alpha 90.000000
_cell_angle_beta 137.292811
_cell_angle_gamma 90.000000
_cell_volume 1718.879378
_symmetry_space_group_name_H-M "P 2/M"
_symmetry_group_IT_number 10
_symmetry_cell_setting 'monoclinic'
loop_
_space_group_symop_operation_xyz
x,y,z
-x,y,-z
-x,-y,-z
x,-y,z
loop_
_atom_site_type_symbol
_atom_site_label
_atom_site_fract_x
_atom_site_fract_y
_atom_site_fract_z
Si Si1 0.191495 0.890493 0.895919
Si Si2 0.805979 0.204521 0.388996
Si Si3 0.175835 0.399964 0.670292
Si Si4 0.938100 0.600031 0.193402
Si Si5 0.976305 0.790552 0.127756
Si Si6 0.401586 0.897104 0.757869
Si Si7 0.450458 0.889640 0.288105
O O1 0.159790 0.843593 0.708799
O O2 0.114414 0.853370 0.916071
O O3 0.183083 0.000000 0.874276
O O4 0.321527 0.865050 0.094344
O O5 0.769036 0.307724 0.307013
O O6 0.910378 0.202574 0.631755
O O7 0.702992 0.153434 0.319445
O O8 0.227112 0.500000 0.716555
O O9 0.057812 0.400330 0.430897
O O10 0.147892 0.390120 0.794642
O O11 0.922979 0.500000 0.109615
O O12 0.935274 0.686043 0.090381
O O13 0.000000 0.812033 0.000000
O O14 0.462984 0.854410 0.709353
O O15 0.365378 0.000000 0.675997
O O16 0.500000 0.902441 0.000000
O O17 0.500000 0.863904 0.500000
O O18 0.451803 0.000000 0.278866
#
# Coordination Sequence:
#
# PCOD9146240 Si02
#       7
#     4   4   4   4   4   4   4
#     4  11  22  37  54  73 102 142 178 208 250 307
#     4  11  20  34  55  76 104 139 171 210 258 307
#     4   8  14  27  50  76  98 128 170 211 252 298
#     4   8  14  29  51  71  97 132 170 213 253 295
#     4  11  24  35  47  77 112 138 171 208 256 319
#     4  10  19  33  53  78  99 125 175 223 251 286
#     4   9  19  35  55  75  97 128 172 221 259 291
#
# _framework density 16.289681999999999
#
# number of rings (size 3 to 8) (size 9 to 14) (size 15 to 20)
#    0.000    2.286    2.857    1.714    2.000    2.286 
#    0.000    0.000    0.000    0.429    0.000    0.000 
#    0.000    2.857    0.000    0.000    0.000    0.000 
#
# Total GULP energy -155949.781726 kJ/mol
# GULP energy per Si atom -5569.635062 kJ/mol
# Density = 1.625261 g / cm^3
# Si number density = 16.289682 Si / 1000 Ang^3
#
#
#
# Elastic Constant Matrix: (Units=GPa)
#
#
# Indices 1 2 3 4 5 6 
#
# 1 122.1861 54.6793 35.4632 0.0000 -12.7379 0.0000
# 2 54.6793 96.5472 25.8254 0.0000 2.3554 0.0000
# 3 35.4632 25.8254 54.1602 0.0000 -13.4105 0.0000
# 4 0.0000 0.0000 0.0000 5.7847 0.0000 -12.6372
# 5 -12.7379 2.3554 -13.4105 0.0000 27.0244 0.0000
# 6 0.0000 0.0000 0.0000 -12.6372 0.0000 9.1191
#
#
#
# Elastic Compliance Matrix: (Units=1/GPa)
#
#
# Indices 1 2 3 4 5 6 
#
# 1 0.012609 -0.006107 -0.004265 0.000000 0.004359 0.000000
# 2 -0.006107 0.015303 -0.004949 0.000000 -0.006668 0.000000
# 3 -0.004265 -0.004949 0.026479 0.000000 0.011561 0.000000
# 4 0.000000 0.000000 0.000000 -0.085267 0.000000 -0.118162
# 5 0.004359 -0.006668 0.011561 0.000000 0.045376 0.000000
# 6 0.000000 0.000000 0.000000 -0.118162 0.000000 -0.054088
#
#
# Mechanical properties :
#
#
# Convention : Reuss Voigt Hill
#
# Bulk Modulus (GPa) = 42.10763 56.09215 49.09989
# Shear Modulus (GPa) = -4861.98763 18.84735 -2421.57014
#
# Velocity S-wave (km/s) = -54.69171 3.40518 -38.59785
# Velocity P-wave (km/s) = 62.94711 7.06889 44.22878
#
# Compressibility (1/GPa) = 0.02374866
#
# Stress axis : x y z
#
# Youngs Moduli (GPa) = 79.30573 65.34765 37.76567
#
# Poissons Ratio (x) = 0.39906 0.16108
# Poissons Ratio (y) = 0.48430 0.18692
# Poissons Ratio (z) = 0.33825 0.32343
#
# Static dielectric constant tensor:
#      x y z
#    x 1.367770 0.000000 0.147990 
#    y 0.000000 1.581470 0.000000 
#    z 0.147990 0.000000 1.379450 
# 
# From -- ./inp_files/25040.got.cif
#   From: 2010.05.17/outbox.cif.g08.bks.cpg/sg10_13_cif.got.tgz:25040.got - 2010.06.03 11:33:40.
