data_PCOD9146628
_publ_section_title
;
Structure prediction by ZEFSAII (Michael W. Deem and Ramdas Pophale) SiO2 
 PCOD9146628
Probable space group: P 2/M
;
_chemical_formula_sum "Si O2"
_cell_formula_units_Z 32
_cell_length_a 19.735840
_cell_length_b 7.703885
_cell_length_c 12.670539
_cell_angle_alpha 90.000000
_cell_angle_beta 48.168513
_cell_angle_gamma 90.000000
_cell_volume 1435.425482
_symmetry_space_group_name_H-M "P 2/M"
_symmetry_group_IT_number 10
_symmetry_cell_setting 'monoclinic'
loop_
_space_group_symop_operation_xyz
x,y,z
-x,y,-z
-x,-y,-z
x,-y,z
loop_
_atom_site_type_symbol
_atom_site_label
_atom_site_fract_x
_atom_site_fract_y
_atom_site_fract_z
Si Si1 0.042669 0.787162 0.344067
Si Si2 0.138270 0.700035 0.886921
Si Si3 0.749457 0.211928 0.896284
Si Si4 0.601206 0.799227 0.883925
Si Si5 0.973997 0.800904 0.194623
Si Si6 0.593448 0.299093 0.661817
Si Si7 0.661682 0.709282 0.366724
Si Si8 0.399701 0.794337 0.790700
O O1 0.147152 0.728417 0.222619
O O2 0.000000 0.734249 0.500000
O O3 0.985251 0.731303 0.301035
O O4 0.042473 0.000000 0.341695
O O5 0.143330 0.500000 0.916062
O O6 0.090096 0.705571 0.822250
O O7 0.238496 0.773911 0.768719
O O8 0.073549 0.796223 0.036519
O O9 0.682288 0.271245 0.871853
O O10 0.754140 0.000000 0.889564
O O11 0.695668 0.263208 0.058377
O O12 0.624024 0.791750 0.736858
O O13 0.591917 0.000000 0.928019
O O14 0.500000 0.719089 0.000000
O O15 0.942690 0.000000 0.231704
O O16 0.620055 0.500000 0.643319
O O17 0.631772 0.225456 0.512179
O O18 0.484576 0.287335 0.762777
O O19 0.665202 0.500000 0.370778
O O20 0.597503 0.752742 0.335512
O O21 0.407071 0.000000 0.797481
#
# Coordination Sequence:
#
# PCOD9146628 Si02
#       8
#     4   4   4   4   4   4   4   4
#     4   9  18  32  51  79 112 143 174 216 275 330
#     4  10  20  36  57  78 107 148 185 220 274 336
#     4   9  18  33  54  78 108 142 176 223 275 320
#     4  10  19  36  58  80 108 141 184 230 272 324
#     4  10  19  33  56  84 111 137 181 235 274 320
#     4  11  23  38  55  78 112 148 182 226 279 329
#     4  10  23  39  53  77 113 148 182 225 276 333
#     4  11  21  36  58  82 108 142 185 228 277 330
#
# _framework density 22.293040000000001
#
# number of rings (size 3 to 8) (size 9 to 14) (size 15 to 20)
#    0.000    2.000    1.250    3.375    0.000    5.750 
#    0.000    1.250    0.000    3.000    0.000    0.000 
#    0.000    0.000    0.000    0.000    0.000    0.000 
#
# Total GULP energy -178800.224714 kJ/mol
# GULP energy per Si atom -5587.507022 kJ/mol
# Density = 2.224230 g / cm^3
# Si number density = 22.293040 Si / 1000 Ang^3
#
#
#
# Elastic Constant Matrix: (Units=GPa)
#
#
# Indices 1 2 3 4 5 6 
#
# 1 65.3691 -8.9558 34.7166 0.0000 21.7760 0.0000
# 2 -8.9558 41.4312 -9.0404 0.0000 -0.7369 0.0000
# 3 34.7166 -9.0404 93.7269 0.0000 29.4195 0.0000
# 4 0.0000 0.0000 0.0000 5.6915 0.0000 -9.8366
# 5 21.7760 -0.7369 29.4195 0.0000 40.3459 0.0000
# 6 0.0000 0.0000 0.0000 -9.8366 0.0000 4.0157
#
#
#
# Elastic Compliance Matrix: (Units=1/GPa)
#
#
# Indices 1 2 3 4 5 6 
#
# 1 0.020960 0.003289 -0.005076 0.000000 -0.007551 0.000000
# 2 0.003289 0.025258 0.002114 0.000000 -0.002855 0.000000
# 3 -0.005076 0.002114 0.015408 0.000000 -0.008457 0.000000
# 4 0.000000 0.000000 0.000000 -0.054336 0.000000 -0.133100
# 5 -0.007551 -0.002855 -0.008457 0.000000 0.034976 0.000000
# 6 0.000000 0.000000 0.000000 -0.133100 0.000000 -0.077012
#
#
# Mechanical properties :
#
#
# Convention : Reuss Voigt Hill
#
# Bulk Modulus (GPa) = 16.05664 25.99644 21.02654
# Shear Modulus (GPa) = -341.49632 22.26440 -159.61596
#
# Velocity S-wave (km/s) = -12.39023 3.16367 -8.47080
# Velocity P-wave (km/s) = 14.05248 5.00317 9.28549
#
# Compressibility (1/GPa) = 0.06227951
#
# Stress axis : x y z
#
# Youngs Moduli (GPa) = 47.71082 39.59160 64.90176
#
# Poissons Ratio (x) = -0.13021 0.32945
# Poissons Ratio (y) = -0.15691 -0.13723
# Poissons Ratio (z) = 0.24218 -0.08371
#
# Static dielectric constant tensor:
#      x y z
#    x 1.805410 0.000000 -0.007880 
#    y 0.000000 1.818050 0.000000 
#    z -0.007880 0.000000 1.820190 
# 
# From -- ./inp_files/55198.got.cif
#   From: 2010.05.17/outbox.cif.g08.bks.cpg/sg10_28_cif.got.tgz:55198.got - 2010.06.03 11:33:40.
