data_PCOD9146823
_publ_section_title
;
Structure prediction by ZEFSAII (Michael W. Deem and Ramdas Pophale) SiO2 
 PCOD9146823
Probable space group: P 2/M
;
_chemical_formula_sum "Si O2"
_cell_formula_units_Z 24
_cell_length_a 18.395488
_cell_length_b 15.254296
_cell_length_c 9.901065
_cell_angle_alpha 90.000000
_cell_angle_beta 29.421655
_cell_angle_gamma 90.000000
_cell_volume 1364.812287
_symmetry_space_group_name_H-M "P 2/M"
_symmetry_group_IT_number 10
_symmetry_cell_setting 'monoclinic'
loop_
_space_group_symop_operation_xyz
x,y,z
-x,y,-z
-x,-y,-z
x,-y,z
loop_
_atom_site_type_symbol
_atom_site_label
_atom_site_fract_x
_atom_site_fract_y
_atom_site_fract_z
Si Si1 0.171413 0.823776 0.195725
Si Si2 0.409862 0.598832 0.284978
Si Si3 0.561016 0.295176 0.251266
Si Si4 0.688951 0.218642 0.509284
Si Si5 0.231909 0.900730 0.385823
Si Si6 0.881511 0.900380 0.007308
O O1 0.228358 0.876104 0.234290
O O2 0.000000 0.802052 0.500000
O O3 0.272512 0.738344 0.016038
O O4 0.176159 0.879724 0.050439
O O5 0.352702 0.500000 0.385385
O O6 0.525104 0.619971 0.219375
O O7 0.291468 0.677711 0.490797
O O8 0.500000 0.609690 0.000000
O O9 0.500000 0.305898 0.500000
O O10 0.461316 0.221403 0.335772
O O11 0.679871 0.166623 0.663669
O O12 0.811661 0.170733 0.220354
O O13 0.283019 0.000000 0.322729
O O14 0.059391 0.895258 0.712012
O O15 0.841780 0.000000 0.112294
#
# Coordination Sequence:
#
# PCOD9146823 Si02
#       6
#     4   4   4   4   4   4
#     4  10  19  34  54  77 107 148 187 223 259 310
#     4   9  19  35  58  80 103 135 173 219 276 331
#     4  10  20  36  55  79 111 138 181 219 273 319
#     4  10  20  33  54  77 107 135 181 223 265 316
#     4  10  20  33  53  78 108 148 187 219 262 314
#     4  10  19  34  53  76 109 150 185 215 261 320
#
# _framework density 17.584835999999999
#
# number of rings (size 3 to 8) (size 9 to 14) (size 15 to 20)
#    1.000    1.167    1.667    2.500    0.000    3.667 
#    0.000    5.000    0.000    2.500    0.000    4.667 
#    0.000    0.000    0.000    0.000    0.000    0.000 
#
# Total GULP energy -133669.744217 kJ/mol
# GULP energy per Si atom -5569.572676 kJ/mol
# Density = 1.754481 g / cm^3
# Si number density = 17.584836 Si / 1000 Ang^3
#
#
#
# Elastic Constant Matrix: (Units=GPa)
#
#
# Indices 1 2 3 4 5 6 
#
# 1 102.3625 36.9676 17.0468 0.0000 27.2509 0.0000
# 2 36.9676 132.1845 51.4249 0.0000 21.3677 0.0000
# 3 17.0468 51.4249 50.8817 0.0000 14.0192 0.0000
# 4 0.0000 0.0000 0.0000 -22.5390 0.0000 14.7391
# 5 27.2509 21.3677 14.0192 0.0000 15.4210 0.0000
# 6 0.0000 0.0000 0.0000 14.7391 0.0000 12.0119
#
#
#
# Elastic Compliance Matrix: (Units=1/GPa)
#
#
# Indices 1 2 3 4 5 6 
#
# 1 0.019152 -0.001439 0.005088 0.000000 -0.036476 0.000000
# 2 -0.001439 0.013314 -0.011463 0.000000 -0.005483 0.000000
# 3 0.005088 -0.011463 0.036870 0.000000 -0.026627 0.000000
# 4 0.000000 0.000000 0.000000 -0.024616 0.000000 0.030204
# 5 -0.036476 -0.005483 -0.026627 0.000000 0.161110 0.000000
# 6 0.000000 0.000000 0.000000 0.030204 0.000000 0.046189
#
#
# Mechanical properties :
#
#
# Convention : Reuss Voigt Hill
#
# Bulk Modulus (GPa) = 18.61901 55.14526 36.88214
# Shear Modulus (GPa) = 17.51010 12.97805 15.24408
#
# Velocity S-wave (km/s) = 3.15897 2.71961 2.94749
# Velocity P-wave (km/s) = 4.89046 6.42568 5.70990
#
# Compressibility (1/GPa) = 0.05370854
#
# Stress axis : x y z
#
# Youngs Moduli (GPa) = 52.21298 75.11144 27.12208
#
# Poissons Ratio (x) = 0.10812 -0.13801
# Poissons Ratio (y) = 0.07516 0.31089
# Poissons Ratio (z) = -0.26568 0.86098
#
# Static dielectric constant tensor:
#      x y z
#    x 1.622930 0.000000 0.005040 
#    y 0.000000 1.586040 0.000000 
#    z 0.005040 0.000000 1.603780 
# 
# From -- ./inp_files/32964.got.cif
#   From: 2010.05.17/outbox.cif.g08.bks.cpg/sg10_17_cif.got.tgz:32964.got - 2010.06.03 11:33:40.
