data_PCOD9146389
_publ_section_title
;
Structure prediction by ZEFSAII (Michael W. Deem and Ramdas Pophale) SiO2 
 PCOD9146389
Probable space group: P 2/M
;
_chemical_formula_sum "Si O2"
_cell_formula_units_Z 28
_cell_length_a 13.679887
_cell_length_b 12.556980
_cell_length_c 9.016029
_cell_angle_alpha 90.000000
_cell_angle_beta 62.129278
_cell_angle_gamma 90.000000
_cell_volume 1369.107501
_symmetry_space_group_name_H-M "P 2/M"
_symmetry_group_IT_number 10
_symmetry_cell_setting 'monoclinic'
loop_
_space_group_symop_operation_xyz
x,y,z
-x,y,-z
-x,-y,-z
x,-y,z
loop_
_atom_site_type_symbol
_atom_site_label
_atom_site_fract_x
_atom_site_fract_y
_atom_site_fract_z
Si Si1 0.863985 0.618186 0.394016
Si Si2 0.771497 0.219693 0.881038
Si Si3 0.197795 0.624466 0.905170
Si Si4 0.544888 0.629001 0.309510
Si Si5 0.099204 0.000000 0.734649
Si Si6 0.897291 0.169927 0.496518
Si Si7 0.832572 0.000000 0.976513
Si Si8 0.350370 0.375786 0.234828
O O1 0.909205 0.500000 0.388203
O O2 0.849499 0.632559 0.227699
O O3 0.932058 0.715037 0.410889
O O4 0.746822 0.624543 0.568460
O O5 0.816004 0.184595 0.689382
O O6 0.678268 0.301732 0.884724
O O7 0.768678 0.106705 0.968616
O O8 0.844451 0.295631 0.938296
O O9 0.187581 0.500000 0.956495
O O10 0.327004 0.655880 0.798052
O O11 0.500000 0.667526 0.500000
O O12 0.540161 0.500000 0.315924
O O13 0.461233 0.660711 0.239145
O O14 0.140717 0.101991 0.614619
O O15 0.963613 0.000000 0.832819
O O16 0.150297 0.000000 0.859986
O O17 0.000000 0.114659 0.500000
O O18 0.360199 0.500000 0.180321
#
# Coordination Sequence:
#
# PCOD9146389 Si02
#       8
#     4   4   4   4   2   4   2   4
#     4   9  18  32  51  78 114 153 185 215 261 328
#     4  11  22  35  54  84 113 142 175 229 284 326
#     4  10  19  33  54  83 119 150 185 230 268 313
#     4   9  15  28  54  84 114 151 191 225 263 309
#     4  11  22  41  64  83  97 127 185 243 282 325
#     4  11  21  37  58  79 108 143 180 228 280 331
#     4  11  23  40  63  83 104 130 177 239 286 329
#     4   9  17  31  53  83 115 148 184 220 263 323
#
# _framework density 20.451280000000001
#
# number of rings (size 3 to 8) (size 9 to 14) (size 15 to 20)
#    0.000    2.000    2.857    1.929    0.000    1.429 
#    0.000    2.143    0.000    3.429    0.000    1.000 
#    0.000    0.000    0.000    0.000    0.000    0.000 
#
# Total GULP energy -156000.514965 kJ/mol
# GULP energy per Si atom -5571.446963 kJ/mol
# Density = 2.040473 g / cm^3
# Si number density = 20.451280 Si / 1000 Ang^3
#
#
#
# Elastic Constant Matrix: (Units=GPa)
#
#
# Indices 1 2 3 4 5 6 
#
# 1 51.4153 36.8973 24.4680 0.0000 26.9915 0.0000
# 2 36.8973 135.3336 51.2428 0.0000 35.1042 0.0000
# 3 24.4680 51.2428 110.2189 0.0000 28.2651 0.0000
# 4 0.0000 0.0000 0.0000 208.8759 0.0000 268.7686
# 5 26.9915 35.1042 28.2651 0.0000 37.4760 0.0000
# 6 0.0000 0.0000 0.0000 268.7686 0.0000 372.6645
#
#
#
# Elastic Compliance Matrix: (Units=1/GPa)
#
#
# Indices 1 2 3 4 5 6 
#
# 1 0.032639 -0.003576 -0.000513 0.000000 -0.019771 0.000000
# 2 -0.003576 0.010857 -0.002859 0.000000 -0.005438 0.000000
# 3 -0.000513 -0.002859 0.012069 0.000000 -0.006055 0.000000
# 4 0.000000 0.000000 0.000000 0.066499 0.000000 -0.047959
# 5 -0.019771 -0.005438 -0.006055 0.000000 0.050584 0.000000
# 6 0.000000 0.000000 0.000000 -0.047959 0.000000 0.037272
#
#
# Mechanical properties :
#
#
# Convention : Reuss Voigt Hill
#
# Bulk Modulus (GPa) = 23.99883 58.02046 41.00964
# Shear Modulus (GPa) = 21.03434 136.09393 78.56414
#
# Velocity S-wave (km/s) = 3.21052 8.16639 6.20473
# Velocity P-wave (km/s) = 5.05008 10.83289 8.45148
#
# Compressibility (1/GPa) = 0.04166871
#
# Stress axis : x y z
#
# Youngs Moduli (GPa) = 30.63801 92.10339 82.85837
#
# Poissons Ratio (x) = 0.32937 0.04250
# Poissons Ratio (y) = 0.10956 0.23692
# Poissons Ratio (z) = 0.01571 0.26336
#
# Static dielectric constant tensor:
#      x y z
#    x 1.736390 0.000000 -0.059780 
#    y 0.000000 1.750500 0.000000 
#    z -0.059780 0.000000 1.828430 
# 
# From -- ./inp_files/28266.got.cif
#   From: 2010.05.17/outbox.cif.g08.bks.cpg/sg10_15_cif.got.tgz:28266.got - 2010.06.03 11:33:40.
