data_PCOD9146845
_publ_section_title
;
Structure prediction by ZEFSAII (Michael W. Deem and Ramdas Pophale) SiO2 
 PCOD9146845
Probable space group: P 2/M
;
_chemical_formula_sum "Si O2"
_cell_formula_units_Z 32
_cell_length_a 15.963097
_cell_length_b 24.739965
_cell_length_c 8.943240
_cell_angle_alpha 90.000000
_cell_angle_beta 153.184913
_cell_angle_gamma 90.000000
_cell_volume 1593.294427
_symmetry_space_group_name_H-M "P 2/M"
_symmetry_group_IT_number 10
_symmetry_cell_setting 'monoclinic'
loop_
_space_group_symop_operation_xyz
x,y,z
-x,y,-z
-x,-y,-z
x,-y,z
loop_
_atom_site_type_symbol
_atom_site_label
_atom_site_fract_x
_atom_site_fract_y
_atom_site_fract_z
Si Si1 0.703347 0.744177 0.906694
Si Si2 0.858575 0.325919 0.899305
Si Si3 0.602350 0.440930 0.902782
Si Si4 0.459270 0.325919 0.100695
Si Si5 0.303105 0.867182 0.106211
Si Si6 0.959714 0.938427 0.104867
Si Si7 0.800432 0.559070 0.902782
Si Si8 0.354847 0.938427 0.895133
O O1 0.500000 0.744170 0.500000
O O2 0.839269 0.711718 0.013101
O O3 0.673832 0.711718 0.013101
O O4 0.762428 0.805871 0.024856
O O5 0.654667 0.327667 0.500000
O O6 0.907648 0.387406 0.024711
O O7 0.000000 0.305792 0.000000
O O8 0.632417 0.500000 0.021859
O O9 0.617063 0.387406 0.024711
O O10 0.395441 0.441331 0.500000
O O11 0.740040 0.435933 0.980080
O O12 0.500000 0.305792 0.000000
O O13 0.500000 0.863420 0.500000
O O14 0.169901 0.899916 0.005108
O O15 0.335207 0.899916 0.005108
O O16 0.155345 0.940988 0.500000
O O17 0.882608 0.000000 0.974113
O O18 0.000000 0.920026 0.000000
O O19 0.889442 0.500000 0.021859
O O20 0.408495 0.000000 0.025887
O O21 0.500000 0.920026 0.000000
#
# Coordination Sequence:
#
# PCOD9146845 Si02
#       8
#     4   4   4   4   4   4   4   4
#     4   9  20  38  55  73 103 143 184 221 260 310
#     4  10  19  34  54  75 101 135 174 219 266 316
#     4   8  13  24  47  75  98 127 169 212 256 314
#     4  10  19  34  54  75 101 135 174 219 266 316
#     4  11  22  36  57  83 112 149 190 231 274 324
#     4  10  21  38  60  87 118 149 182 223 272 326
#     4   8  13  24  47  75  98 127 169 212 256 314
#     4  10  21  38  60  87 118 149 182 223 272 326
#
# _framework density 20.084173
#
# number of rings (size 3 to 8) (size 9 to 14) (size 15 to 20)
#    0.000    2.500    1.250    2.250    0.000    4.500 
#    0.000    5.625    0.000    0.000    0.000    1.750 
#    0.000    0.000    0.000    0.000    0.000    0.000 
#
# Total GULP energy -178601.720111 kJ/mol
# GULP energy per Si atom -5581.303753 kJ/mol
# Density = 2.003846 g / cm^3
# Si number density = 20.084173 Si / 1000 Ang^3
#
#
#
# Elastic Constant Matrix: (Units=GPa)
#
#
# Indices 1 2 3 4 5 6 
#
# 1 183.3513 116.8815 12.6564 0.0000 4.0887 0.0000
# 2 116.8815 150.2244 17.7094 0.0000 3.5238 0.0000
# 3 12.6564 17.7094 20.7427 0.0000 1.6892 0.0000
# 4 0.0000 0.0000 0.0000 7.6838 0.0000 -0.5084
# 5 4.0887 3.5238 1.6892 0.0000 27.8980 0.0000
# 6 0.0000 0.0000 0.0000 -0.5084 0.0000 -6.6240
#
#
#
# Elastic Compliance Matrix: (Units=1/GPa)
#
#
# Indices 1 2 3 4 5 6 
#
# 1 0.010838 -0.008500 0.000690 0.000000 -0.000556 0.000000
# 2 -0.008500 0.014078 -0.006823 0.000000 -0.000119 0.000000
# 3 0.000690 -0.006823 0.053817 0.000000 -0.002498 0.000000
# 4 0.000000 0.000000 0.000000 0.129487 0.000000 -0.009937
# 5 -0.000556 -0.000119 -0.002498 0.000000 0.036093 0.000000
# 6 0.000000 0.000000 0.000000 -0.009937 0.000000 -0.150204
#
#
# Mechanical properties :
#
#
# Convention : Reuss Voigt Hill
#
# Bulk Modulus (GPa) = 20.21581 72.09032 46.15307
# Shear Modulus (GPa) = 35.74944 19.59630 27.67287
#
# Velocity S-wave (km/s) = 4.22356 3.12702 3.71596
# Velocity P-wave (km/s) = 5.81996 7.00069 6.43746
#
# Compressibility (1/GPa) = 0.04946625
#
# Stress axis : x y z
#
# Youngs Moduli (GPa) = 92.27152 71.03531 18.58146
#
# Poissons Ratio (x) = 0.60383 -0.01282
# Poissons Ratio (y) = 0.78435 0.12677
# Poissons Ratio (z) = -0.06367 0.48464
#
# Static dielectric constant tensor:
#      x y z
#    x 1.665820 0.000000 -0.001870 
#    y 0.000000 1.731710 0.000000 
#    z -0.001870 0.000000 1.718430 
# 
# From -- ./inp_files/30641.got.cif
#   From: 2010.05.17/outbox.cif.g08.bks.cpg/sg10_16_cif.got.tgz:30641.got - 2010.06.03 11:33:40.
