data_PCOD9146366
_publ_section_title
;
Structure prediction by ZEFSAII (Michael W. Deem and Ramdas Pophale) SiO2 
 PCOD9146366
Probable space group: P 2/M
;
_chemical_formula_sum "Si O2"
_cell_formula_units_Z 28
_cell_length_a 16.235515
_cell_length_b 10.961640
_cell_length_c 16.120412
_cell_angle_alpha 90.000000
_cell_angle_beta 35.930764
_cell_angle_gamma 90.000000
_cell_volume 1683.500241
_symmetry_space_group_name_H-M "P 2/M"
_symmetry_group_IT_number 10
_symmetry_cell_setting 'monoclinic'
loop_
_space_group_symop_operation_xyz
x,y,z
-x,y,-z
-x,-y,-z
x,-y,z
loop_
_atom_site_type_symbol
_atom_site_label
_atom_site_fract_x
_atom_site_fract_y
_atom_site_fract_z
Si Si1 0.495808 0.500000 0.360531
Si Si2 0.181953 0.142813 0.922771
Si Si3 0.552879 0.854039 0.864425
Si Si4 0.233193 0.856197 0.536318
Si Si5 0.471630 0.756121 0.758419
Si Si6 0.880261 0.243632 0.200553
Si Si7 0.264126 0.500000 0.694086
Si Si8 0.867358 0.147309 0.557459
O O1 0.505149 0.619905 0.295489
O O2 0.357768 0.500000 0.532801
O O3 0.625667 0.500000 0.319587
O O4 0.325162 0.192564 0.844266
O O5 0.181824 0.162242 0.823653
O O6 0.162906 0.000000 0.957543
O O7 0.046462 0.218159 0.064267
O O8 0.480299 0.776990 0.850432
O O9 0.719149 0.829081 0.722502
O O10 0.532002 0.000000 0.864610
O O11 0.500000 0.829053 0.000000
O O12 0.396733 0.832702 0.384590
O O13 0.184307 0.793233 0.659418
O O14 0.149364 0.809623 0.523566
O O15 0.208979 0.000000 0.563904
O O16 0.832691 0.381094 0.222194
O O17 0.000000 0.195102 0.500000
O O18 0.880793 0.000000 0.541989
#
# Coordination Sequence:
#
# PCOD9146366 Si02
#       8
#     2   4   4   4   4   4   2   4
#     4  11  22  39  59  83 108 145 206 246 271 323
#     4  11  23  37  54  83 119 148 181 230 293 352
#     4   9  18  33  54  82 114 144 180 227 286 348
#     4  10  19  33  54  81 111 145 187 234 285 338
#     4  11  21  37  57  82 111 151 190 238 279 332
#     4  11  22  37  54  78 113 148 189 231 284 331
#     4  11  22  40  59  80 109 150 204 243 273 320
#     4   8  15  28  48  75 105 138 177 217 268 332
#
# _framework density 16.632014999999999
#
# number of rings (size 3 to 8) (size 9 to 14) (size 15 to 20)
#    0.000    1.857    2.857    3.857    0.000    3.429 
#    0.000    4.643    0.000    0.000    0.000   12.500 
#    0.000    0.000    0.000    0.000    0.000    0.000 
#
# Total GULP energy -156158.689724 kJ/mol
# GULP energy per Si atom -5577.096062 kJ/mol
# Density = 1.659416 g / cm^3
# Si number density = 16.632015 Si / 1000 Ang^3
#
#
#
# Elastic Constant Matrix: (Units=GPa)
#
#
# Indices 1 2 3 4 5 6 
#
# 1 119.3943 19.3890 59.2376 0.0000 -8.4471 0.0000
# 2 19.3890 67.6980 14.7046 0.0000 -0.7558 0.0000
# 3 59.2376 14.7046 74.4794 0.0000 12.6706 0.0000
# 4 0.0000 0.0000 0.0000 24.4991 0.0000 -3.1587
# 5 -8.4471 -0.7558 12.6706 0.0000 33.7744 0.0000
# 6 0.0000 0.0000 0.0000 -3.1587 0.0000 11.1927
#
#
#
# Elastic Compliance Matrix: (Units=1/GPa)
#
#
# Indices 1 2 3 4 5 6 
#
# 1 0.016418 -0.001474 -0.014378 0.000000 0.009467 0.000000
# 2 -0.001474 0.015646 -0.002044 0.000000 0.000749 0.000000
# 3 -0.014378 -0.002044 0.027650 0.000000 -0.014015 0.000000
# 4 0.000000 0.000000 0.000000 0.042359 0.000000 0.011954
# 5 0.009467 0.000749 -0.014015 0.000000 0.037251 0.000000
# 6 0.000000 0.000000 0.000000 0.011954 0.000000 0.092718
#
#
# Mechanical properties :
#
#
# Convention : Reuss Voigt Hill
#
# Bulk Modulus (GPa) = 41.80189 49.80380 45.80284
# Shear Modulus (GPa) = 18.12852 25.10926 21.61889
#
# Velocity S-wave (km/s) = 3.30506 3.88969 3.60924
# Velocity P-wave (km/s) = 6.30496 7.08396 6.70578
#
# Compressibility (1/GPa) = 0.02392236
#
# Stress axis : x y z
#
# Youngs Moduli (GPa) = 60.90693 63.91436 36.16606
#
# Poissons Ratio (x) = 0.09418 0.52000
# Poissons Ratio (y) = 0.08975 0.07394
# Poissons Ratio (z) = 0.87573 0.13066
#
# Static dielectric constant tensor:
#      x y z
#    x 1.560120 0.000000 0.003380 
#    y 0.000000 1.544700 0.000000 
#    z 0.003380 0.000000 1.553030 
# 
# From -- ./inp_files/67119.got.cif
#   From: 2010.05.17/outbox.cif.g08.bks.cpg/sg10_34_cif.got.tgz:67119.got - 2010.06.03 11:33:40.
