data_PCOD9146960
_publ_section_title
;
Structure prediction by ZEFSAII (Michael W. Deem and Ramdas Pophale) SiO2 
 PCOD9146960
Probable space group: P 2/M
;
_chemical_formula_sum "Si O2"
_cell_formula_units_Z 28
_cell_length_a 16.363379
_cell_length_b 7.606744
_cell_length_c 17.813248
_cell_angle_alpha 90.000000
_cell_angle_beta 34.796515
_cell_angle_gamma 90.000000
_cell_volume 1265.304614
_symmetry_space_group_name_H-M "P 2/M"
_symmetry_group_IT_number 10
_symmetry_cell_setting 'monoclinic'
loop_
_space_group_symop_operation_xyz
x,y,z
-x,y,-z
-x,-y,-z
x,-y,z
loop_
_atom_site_type_symbol
_atom_site_label
_atom_site_fract_x
_atom_site_fract_y
_atom_site_fract_z
Si Si1 0.117320 0.208171 0.152042
Si Si2 0.815332 0.699601 0.455527
Si Si3 0.460895 0.296041 0.408297
Si Si4 0.714661 0.294953 0.305074
Si Si5 0.022895 0.800846 0.065751
Si Si6 0.832200 0.203198 0.610002
Si Si7 0.665795 0.215207 0.883383
O O1 0.243420 0.275326 0.111969
O O2 0.963805 0.226653 0.310389
O O3 0.105090 0.279674 0.075577
O O4 0.140857 0.000000 0.125240
O O5 0.810945 0.500000 0.428749
O O6 0.662325 0.785397 0.549996
O O7 0.816165 0.699084 0.544203
O O8 0.485085 0.500000 0.366833
O O9 0.618526 0.223671 0.308546
O O10 0.380733 0.294439 0.548678
O O11 0.748359 0.500000 0.264694
O O12 0.858056 0.194422 0.215714
O O13 0.077354 0.000000 0.012388
O O14 0.000000 0.718520 0.000000
O O15 0.748760 0.271128 0.745488
O O16 0.000000 0.202943 0.500000
O O17 0.787190 0.000000 0.631956
O O18 0.669801 0.000000 0.882410
O O19 0.500000 0.267537 0.000000
#
# Coordination Sequence:
#
# PCOD9146960 Si02
#       7
#     4   4   4   4   4   4   4
#     4  10  19  35  57  76 102 141 181 221 271 321
#     4  11  20  32  54  82 109 136 176 220 270 322
#     4   8  16  30  50  74 101 132 167 213 259 308
#     4   9  16  32  54  72  95 134 178 212 254 308
#     4  10  21  35  50  75 110 140 172 222 275 318
#     4  10  19  34  55  82 111 137 176 225 269 319
#     4   9  18  35  58  79 102 141 188 223 259 320
#
# _framework density 22.129059000000002
#
# number of rings (size 3 to 8) (size 9 to 14) (size 15 to 20)
#    0.000    2.429    2.857    1.286    0.000    0.571 
#    2.571    2.857    0.000    1.714    0.000    0.000 
#    0.000    0.000    0.000    0.000    0.000    0.000 
#
# Total GULP energy -155917.459534 kJ/mol
# GULP energy per Si atom -5568.480698 kJ/mol
# Density = 2.207869 g / cm^3
# Si number density = 22.129059 Si / 1000 Ang^3
#
#
#
# Elastic Constant Matrix: (Units=GPa)
#
#
# Indices 1 2 3 4 5 6 
#
# 1 204.6755 10.5949 47.7354 0.0000 3.6034 0.0000
# 2 10.5949 46.6602 2.2561 0.0000 -2.1321 0.0000
# 3 47.7354 2.2561 63.8906 0.0000 9.0971 0.0000
# 4 0.0000 0.0000 0.0000 11.3107 0.0000 4.8403
# 5 3.6034 -2.1321 9.0971 0.0000 36.5318 0.0000
# 6 0.0000 0.0000 0.0000 4.8403 0.0000 19.4297
#
#
#
# Elastic Compliance Matrix: (Units=1/GPa)
#
#
# Indices 1 2 3 4 5 6 
#
# 1 0.005985 -0.001120 -0.004498 0.000000 0.000464 0.000000
# 2 -0.001120 0.021757 -0.000133 0.000000 0.001413 0.000000
# 3 -0.004498 -0.000133 0.019652 0.000000 -0.004458 0.000000
# 4 0.000000 0.000000 0.000000 0.098962 0.000000 -0.024653
# 5 0.000464 0.001413 -0.004458 0.000000 0.028520 0.000000
# 6 0.000000 0.000000 0.000000 -0.024653 0.000000 0.057609
#
#
# Mechanical properties :
#
#
# Convention : Reuss Voigt Hill
#
# Bulk Modulus (GPa) = 27.86142 48.48879 38.17510
# Shear Modulus (GPa) = 19.53509 30.43044 24.98277
#
# Velocity S-wave (km/s) = 2.97438 3.71230 3.36364
# Velocity P-wave (km/s) = 4.94102 6.35093 5.68982
#
# Compressibility (1/GPa) = 0.03589193
#
# Stress axis : x y z
#
# Youngs Moduli (GPa) = 167.09485 45.96241 50.88603
#
# Poissons Ratio (x) = 0.05149 0.22888
# Poissons Ratio (y) = 0.18718 0.00674
# Poissons Ratio (z) = 0.75158 0.00609
#
# Static dielectric constant tensor:
#      x y z
#    x 2.053010 0.000000 -0.084040 
#    y 0.000000 1.853690 0.000000 
#    z -0.084040 0.000000 1.852360 
# 
# From -- ./inp_files/77726.got.cif
#   From: 2010.05.17/outbox.cif.g08.bks.cpg/sg10_39_cif.got.tgz:77726.got - 2010.06.03 11:33:40.
