data_PCOD9146618
_publ_section_title
;
Structure prediction by ZEFSAII (Michael W. Deem and Ramdas Pophale) SiO2 
 PCOD9146618
Probable space group: P 2/M
;
_chemical_formula_sum "Si O2"
_cell_formula_units_Z 32
_cell_length_a 32.317750
_cell_length_b 8.533800
_cell_length_c 12.891904
_cell_angle_alpha 90.000000
_cell_angle_beta 27.312458
_cell_angle_gamma 90.000000
_cell_volume 1631.415268
_symmetry_space_group_name_H-M "P 2/M"
_symmetry_group_IT_number 10
_symmetry_cell_setting 'monoclinic'
loop_
_space_group_symop_operation_xyz
x,y,z
-x,y,-z
-x,-y,-z
x,-y,z
loop_
_atom_site_type_symbol
_atom_site_label
_atom_site_fract_x
_atom_site_fract_y
_atom_site_fract_z
Si Si1 0.124667 0.313642 0.577490
Si Si2 0.402900 0.314505 0.677962
Si Si3 0.661031 0.683113 0.407281
Si Si4 0.599143 0.814196 0.758044
Si Si5 0.212443 0.186518 0.176332
Si Si6 0.068184 0.687486 0.079075
Si Si7 0.851312 0.812204 0.903437
Si Si8 0.790511 0.187645 0.400944
O O1 0.123900 0.500000 0.596126
O O2 0.182494 0.271892 0.347194
O O3 0.163743 0.234671 0.593149
O O4 0.022837 0.262476 0.776960
O O5 0.500000 0.258192 0.500000
O O6 0.394012 0.500000 0.723389
O O7 0.397877 0.300625 0.565074
O O8 0.315884 0.227460 0.917814
O O9 0.665238 0.500000 0.427171
O O10 0.623125 0.783024 0.585501
O O11 0.759646 0.741832 0.155299
O O12 0.686688 0.754494 0.625686
O O13 0.594596 0.000000 0.788903
O O14 0.500000 0.746023 0.000000
O O15 0.152060 0.234611 0.210256
O O16 0.203135 0.000000 0.210677
O O17 0.069608 0.500000 0.082118
O O18 0.073242 0.754366 0.184566
O O19 0.151985 0.743916 0.822680
O O20 0.848303 0.000000 0.913071
O O21 0.790455 0.000000 0.390266
#
# Coordination Sequence:
#
# PCOD9146618 Si02
#       8
#     4   4   4   4   4   4   4   4
#     4  11  25  42  60  85 122 162 198 245 302 358
#     4   9  19  36  58  85 117 154 196 241 294 355
#     4  10  19  33  56  83 112 149 192 240 290 347
#     4  10  22  39  58  84 118 154 192 240 298 353
#     4  10  22  39  59  86 120 156 199 247 299 354
#     4  11  23  39  62  90 118 155 200 245 298 358
#     4  10  20  36  60  87 116 152 192 242 295 349
#     4  11  23  40  63  88 118 158 201 247 297 352
#
# _framework density 19.614871000000001
#
# number of rings (size 3 to 8) (size 9 to 14) (size 15 to 20)
#    0.000    1.750    1.250    2.625    0.000    8.000 
#    0.000    5.000    0.000    0.000    0.000    0.000 
#    0.000    0.000    0.000    0.000    0.000    0.000 
#
# Total GULP energy -178711.972972 kJ/mol
# GULP energy per Si atom -5584.749155 kJ/mol
# Density = 1.957023 g / cm^3
# Si number density = 19.614871 Si / 1000 Ang^3
#
#
#
# Elastic Constant Matrix: (Units=GPa)
#
#
# Indices 1 2 3 4 5 6 
#
# 1 112.0089 6.5555 20.9996 0.0000 -24.4894 0.0000
# 2 6.5555 185.0435 61.6939 0.0000 66.9120 0.0000
# 3 20.9996 61.6939 71.4367 0.0000 14.2359 0.0000
# 4 0.0000 0.0000 0.0000 19.7314 0.0000 -3.2953
# 5 -24.4894 66.9120 14.2359 0.0000 68.6756 0.0000
# 6 0.0000 0.0000 0.0000 -3.2953 0.0000 23.1431
#
#
#
# Elastic Compliance Matrix: (Units=1/GPa)
#
#
# Indices 1 2 3 4 5 6 
#
# 1 0.010914 -0.001541 -0.003079 0.000000 0.006032 0.000000
# 2 -0.001541 0.011784 -0.007642 0.000000 -0.010447 0.000000
# 3 -0.003079 -0.007642 0.021111 0.000000 0.001972 0.000000
# 4 0.000000 0.000000 0.000000 0.051915 0.000000 0.007392
# 5 0.006032 -0.010447 0.001972 0.000000 0.026482 0.000000
# 6 0.000000 0.000000 0.000000 0.007392 0.000000 0.044262
#
#
# Mechanical properties :
#
#
# Convention : Reuss Voigt Hill
#
# Bulk Modulus (GPa) = 51.85741 60.77635 56.31688
# Shear Modulus (GPa) = 25.32649 40.92603 33.12626
#
# Velocity S-wave (km/s) = 3.59721 4.57276 4.11400
# Velocity P-wave (km/s) = 6.61426 7.67673 7.16522
#
# Compressibility (1/GPa) = 0.01928365
#
# Stress axis : x y z
#
# Youngs Moduli (GPa) = 91.62394 84.85848 47.36941
#
# Poissons Ratio (x) = 0.13077 0.14587
# Poissons Ratio (y) = 0.14120 0.36201
# Poissons Ratio (z) = 0.28216 0.64851
#
# Static dielectric constant tensor:
#      x y z
#    x 1.705130 0.000000 -0.037320 
#    y 0.000000 1.673780 0.000000 
#    z -0.037320 0.000000 1.676610 
# 
# From -- ./inp_files/58159.got.cif
#   From: 2010.05.17/outbox.cif.g08.bks.cpg/sg10_30_cif.got.tgz:58159.got - 2010.06.03 11:33:40.
