data_PCOD9146819
_publ_section_title
;
Structure prediction by ZEFSAII (Michael W. Deem and Ramdas Pophale) SiO2 
 PCOD9146819
Probable space group: P 2/M
;
_chemical_formula_sum "Si O2"
_cell_formula_units_Z 26
_cell_length_a 32.110670
_cell_length_b 7.896129
_cell_length_c 5.291999
_cell_angle_alpha 90.000000
_cell_angle_beta 59.541221
_cell_angle_gamma 90.000000
_cell_volume 1156.611856
_symmetry_space_group_name_H-M "P 2/M"
_symmetry_group_IT_number 10
_symmetry_cell_setting 'monoclinic'
loop_
_space_group_symop_operation_xyz
x,y,z
-x,y,-z
-x,-y,-z
x,-y,z
loop_
_atom_site_type_symbol
_atom_site_label
_atom_site_fract_x
_atom_site_fract_y
_atom_site_fract_z
Si Si1 0.192429 0.294037 0.215406
Si Si2 0.865536 0.705036 0.097216
Si Si3 0.303307 0.292663 0.842707
Si Si4 0.471521 0.707210 0.837766
Si Si5 0.360222 0.707169 0.167796
Si Si6 0.966968 0.500000 0.356492
Si Si7 0.057615 0.179315 0.786554
O O1 0.193013 0.500000 0.200495
O O2 0.161179 0.235577 0.071967
O O3 0.247778 0.236694 0.026545
O O4 0.168244 0.251447 0.556836
O O5 0.871031 0.500000 0.073826
O O6 0.916655 0.781303 0.028144
O O7 0.302742 0.500000 0.844355
O O8 0.330202 0.238849 0.505302
O O9 0.333383 0.239096 0.995409
O O10 0.500000 0.760886 0.500000
O O11 0.471168 0.500000 0.839454
O O12 0.500000 0.761545 0.000000
O O13 0.415852 0.762155 0.007204
O O14 0.360567 0.500000 0.166897
O O15 0.934425 0.335140 0.425369
O O16 0.000000 0.500000 0.500000
O O17 0.000000 0.500000 0.000000
O O18 0.074642 0.000000 0.634582
O O19 0.000000 0.169006 0.000000
#
# Coordination Sequence:
#
# PCOD9146819 Si02
#       7
#     4   4   4   4   4   2   4
#     4   9  18  30  48  70  95 125 160 206 263 325
#     4  10  19  34  53  76 103 135 170 209 264 323
#     4   9  15  24  36  54  76 101 140 190 248 309
#     4   9  15  21  27  38  60  93 136 185 241 303
#     4   9  15  21  32  47  68 100 139 190 250 306
#     4  10  22  40  62  86 116 150 186 228 274 322
#     4  10  22  41  63  89 118 151 189 230 275 330
#
# _framework density 22.47945
#
# number of rings (size 3 to 8) (size 9 to 14) (size 15 to 20)
#    0.000    2.615    0.769    1.846    0.000   10.154 
#    0.000    3.846    0.000    0.000    0.000    0.000 
#    0.000    0.000    0.000    0.000    0.000    0.000 
#
# Total GULP energy -145351.798410 kJ/mol
# GULP energy per Si atom -5590.453785 kJ/mol
# Density = 2.242829 g / cm^3
# Si number density = 22.479450 Si / 1000 Ang^3
#
#
#
# Elastic Constant Matrix: (Units=GPa)
#
#
# Indices 1 2 3 4 5 6 
#
# 1 202.1283 13.6833 87.2653 0.0000 1.6483 0.0000
# 2 13.6833 69.3167 0.8171 0.0000 9.8857 0.0000
# 3 87.2653 0.8171 148.3203 0.0000 4.1289 0.0000
# 4 0.0000 0.0000 0.0000 -1.7926 0.0000 3.9330
# 5 1.6483 9.8857 4.1289 0.0000 48.9840 0.0000
# 6 0.0000 0.0000 0.0000 3.9330 0.0000 -14.7402
#
#
#
# Elastic Compliance Matrix: (Units=1/GPa)
#
#
# Indices 1 2 3 4 5 6 
#
# 1 0.006751 -0.001340 -0.003975 0.000000 0.000378 0.000000
# 2 -0.001340 0.015120 0.000791 0.000000 -0.003073 0.000000
# 3 -0.003975 0.000791 0.009099 0.000000 -0.000793 0.000000
# 4 0.000000 0.000000 0.000000 -1.345535 0.000000 -0.359016
# 5 0.000378 -0.003073 -0.000793 0.000000 0.021089 0.000000
# 6 0.000000 0.000000 0.000000 -0.359016 0.000000 -0.163634
#
#
# Mechanical properties :
#
#
# Convention : Reuss Voigt Hill
#
# Bulk Modulus (GPa) = 45.61866 69.25517 57.43691
# Shear Modulus (GPa) = -3.47041 27.69020 12.10990
#
# Velocity S-wave (km/s) = -1.24385 3.51351 2.32353
# Velocity P-wave (km/s) = 4.27489 6.88003 5.72754
#
# Compressibility (1/GPa) = 0.02192086
#
# Stress axis : x y z
#
# Youngs Moduli (GPa) = 148.12133 66.13771 109.90507
#
# Poissons Ratio (x) = 0.08861 0.43690
# Poissons Ratio (y) = 0.19845 -0.08688
# Poissons Ratio (z) = 0.58882 -0.05228
#
# Static dielectric constant tensor:
#      x y z
#    x 1.784800 0.000000 -0.022560 
#    y 0.000000 1.880780 0.000000 
#    z -0.022560 0.000000 1.403570 
# 
# From -- ./inp_files/13536.got.cif
#   From: 2010.05.17/outbox.cif.g08.bks.cpg/sg10_7_cif.got.tgz:13536.got - 2010.06.03 11:33:40.
