data_PCOD9146025
_publ_section_title
;
Structure prediction by ZEFSAII (Michael W. Deem and Ramdas Pophale) SiO2 
 PCOD9146025
Probable space group: P 2/M
;
_chemical_formula_sum "Si O2"
_cell_formula_units_Z 28
_cell_length_a 14.950782
_cell_length_b 9.620848
_cell_length_c 21.174552
_cell_angle_alpha 90.000000
_cell_angle_beta 28.944786
_cell_angle_gamma 90.000000
_cell_volume 1474.031764
_symmetry_space_group_name_H-M "P 2/M"
_symmetry_group_IT_number 10
_symmetry_cell_setting 'monoclinic'
loop_
_space_group_symop_operation_xyz
x,y,z
-x,y,-z
-x,-y,-z
x,-y,z
loop_
_atom_site_type_symbol
_atom_site_label
_atom_site_fract_x
_atom_site_fract_y
_atom_site_fract_z
Si Si1 0.826361 0.153933 0.452362
Si Si2 0.049823 0.653847 0.727513
Si Si3 0.342361 0.659838 0.649423
Si Si4 0.170293 0.654486 0.440711
Si Si5 0.511582 0.832230 0.182568
Si Si6 0.384988 0.156280 0.745348
Si Si7 0.607457 0.660633 0.999220
O O1 0.864915 0.215260 0.360602
O O2 0.903111 0.269866 0.451702
O O3 0.607772 0.148848 0.599755
O O4 0.902801 0.000000 0.415072
O O5 0.108192 0.500000 0.666425
O O6 0.142865 0.660680 0.738749
O O7 0.829860 0.660922 0.855920
O O8 0.500000 0.706293 0.500000
O O9 0.392679 0.500000 0.633244
O O10 0.329777 0.745491 0.721821
O O11 0.247378 0.500000 0.406155
O O12 0.320142 0.756312 0.317766
O O13 0.000000 0.641497 0.500000
O O14 0.639661 0.801761 0.165645
O O15 0.494397 0.000000 0.189834
O O16 0.568456 0.764820 0.081063
O O17 0.310343 0.000000 0.783123
O O18 0.552436 0.500000 0.049100
O O19 0.500000 0.695385 0.000000
#
# Coordination Sequence:
#
# PCOD9146025 Si02
#       7
#     4   4   4   4   4   4   4
#     4  10  20  33  52  82 117 150 185 229 286 343
#     4  10  21  37  56  82 117 151 193 241 287 345
#     4  10  19  32  55  87 118 150 188 232 287 345
#     4  10  21  35  55  81 111 148 189 234 290 347
#     4  10  22  40  59  83 115 149 192 241 290 344
#     4   9  19  35  55  82 116 152 183 224 285 348
#     4  10  23  42  62  82 110 153 201 244 286 340
#
# _framework density 18.995521
#
# number of rings (size 3 to 8) (size 9 to 14) (size 15 to 20)
#    0.000    2.143    1.429    2.143    2.000    5.714 
#    0.000    0.714    0.000    4.286    0.000    0.000 
#    0.000    0.000    0.000    0.000    0.000    0.000 
#
# Total GULP energy -155879.685254 kJ/mol
# GULP energy per Si atom -5567.131616 kJ/mol
# Density = 1.895229 g / cm^3
# Si number density = 18.995521 Si / 1000 Ang^3
#
#
#
# Elastic Constant Matrix: (Units=GPa)
#
#
# Indices 1 2 3 4 5 6 
#
# 1 131.3797 62.4630 28.8730 0.0000 11.7047 0.0000
# 2 62.4630 107.8584 24.4843 0.0000 21.3035 0.0000
# 3 28.8730 24.4843 29.1187 0.0000 8.0381 0.0000
# 4 0.0000 0.0000 0.0000 -0.7349 0.0000 16.4884
# 5 11.7047 21.3035 8.0381 0.0000 29.6417 0.0000
# 6 0.0000 0.0000 0.0000 16.4884 0.0000 32.8366
#
#
#
# Elastic Compliance Matrix: (Units=1/GPa)
#
#
# Indices 1 2 3 4 5 6 
#
# 1 0.011660 -0.005306 -0.007438 0.000000 0.001226 0.000000
# 2 -0.005306 0.014984 -0.005344 0.000000 -0.007225 0.000000
# 3 -0.007438 -0.005344 0.047928 0.000000 -0.006219 0.000000
# 4 0.000000 0.000000 0.000000 -0.110935 0.000000 0.055704
# 5 0.001226 -0.007225 -0.006219 0.000000 0.040131 0.000000
# 6 0.000000 0.000000 0.000000 0.055704 0.000000 0.002483
#
#
# Mechanical properties :
#
#
# Convention : Reuss Voigt Hill
#
# Bulk Modulus (GPa) = 26.04471 55.55524 40.79998
# Shear Modulus (GPa) = 90.53845 22.51780 56.52813
#
# Velocity S-wave (km/s) = 6.91133 3.44674 5.46107
# Velocity P-wave (km/s) = 8.79940 6.71937 7.82877
#
# Compressibility (1/GPa) = 0.03839552
#
# Stress axis : x y z
#
# Youngs Moduli (GPa) = 85.76585 66.73630 20.86477
#
# Poissons Ratio (x) = 0.35411 0.15520
# Poissons Ratio (y) = 0.45508 0.11150
# Poissons Ratio (z) = 0.63795 0.35662
#
# Static dielectric constant tensor:
#      x y z
#    x 1.703220 0.000000 0.031140 
#    y 0.000000 1.683200 0.000000 
#    z 0.031140 0.000000 1.685860 
# 
# From -- ./inp_files/49328.got.cif
#   From: 2010.05.17/outbox.cif.g08.bks.cpg/sg10_25_cif.got.tgz:49328.got - 2010.06.03 11:33:40.
