data_PCOD9146616
_publ_section_title
;
Structure prediction by ZEFSAII (Michael W. Deem and Ramdas Pophale) SiO2 
 PCOD9146616
Probable space group: P 2/M
;
_chemical_formula_sum "Si O2"
_cell_formula_units_Z 32
_cell_length_a 21.051906
_cell_length_b 8.744230
_cell_length_c 12.510093
_cell_angle_alpha 90.000000
_cell_angle_beta 127.899267
_cell_angle_gamma 90.000000
_cell_volume 1817.193364
_symmetry_space_group_name_H-M "P 2/M"
_symmetry_group_IT_number 10
_symmetry_cell_setting 'monoclinic'
loop_
_space_group_symop_operation_xyz
x,y,z
-x,y,-z
-x,-y,-z
x,-y,z
loop_
_atom_site_type_symbol
_atom_site_label
_atom_site_fract_x
_atom_site_fract_y
_atom_site_fract_z
Si Si1 0.029388 0.184101 0.913111
Si Si2 0.292793 0.183344 0.933447
Si Si3 0.760421 0.683808 0.339172
Si Si4 0.375642 0.182588 0.645255
Si Si5 0.214526 0.815440 0.079434
Si Si6 0.119291 0.316904 0.354621
Si Si7 0.529197 0.683140 0.909577
Si Si8 0.267906 0.316848 0.354683
O O1 0.965239 0.242504 0.760918
O O2 0.027881 0.000000 0.911503
O O3 0.120902 0.232907 0.987084
O O4 0.000000 0.237237 0.000000
O O5 0.242691 0.250408 0.782466
O O6 0.295508 0.000000 0.927422
O O7 0.253668 0.224199 0.006562
O O8 0.382564 0.249713 0.017430
O O9 0.753189 0.500000 0.330018
O O10 0.684538 0.749686 0.326777
O O11 0.839283 0.724852 0.490019
O O12 0.463839 0.245743 0.762169
O O13 0.339705 0.241050 0.496029
O O14 0.374400 0.000000 0.648704
O O15 0.260066 0.740669 0.226248
O O16 0.217220 0.000000 0.094303
O O17 0.110973 0.500000 0.343155
O O18 0.185352 0.273760 0.332385
O O19 0.530743 0.500000 0.900535
O O20 0.500000 0.719646 0.000000
O O21 0.275465 0.500000 0.367761
#
# Coordination Sequence:
#
# PCOD9146616 Si02
#       8
#     4   4   4   4   4   4   4   4
#     4  10  19  33  56  83 111 145 188 232 278 330
#     4  11  23  38  58  83 114 151 189 230 281 339
#     4  10  20  36  55  81 115 148 187 232 280 333
#     4  11  21  34  58  87 115 145 184 233 282 330
#     4  10  22  39  56  82 117 150 188 234 281 334
#     4   9  19  33  53  82 112 142 183 235 279 325
#     4  11  22  37  59  85 115 146 184 236 280 326
#     4  10  20  35  56  83 115 150 188 229 281 335
#
# _framework density 17.609572
#
# number of rings (size 3 to 8) (size 9 to 14) (size 15 to 20)
#    0.000    1.750    2.500    3.375    0.000    4.750 
#    0.000    1.250    0.000    7.500    0.000    0.000 
#    0.000    0.000    0.000    0.000    0.000    0.000 
#
# Total GULP energy -178717.382013 kJ/mol
# GULP energy per Si atom -5584.918188 kJ/mol
# Density = 1.756949 g / cm^3
# Si number density = 17.609572 Si / 1000 Ang^3
#
#
#
# Elastic Constant Matrix: (Units=GPa)
#
#
# Indices 1 2 3 4 5 6 
#
# 1 104.1537 46.0819 76.2014 0.0000 -8.0001 0.0000
# 2 46.0819 56.6782 56.4144 0.0000 -6.5220 0.0000
# 3 76.2014 56.4144 173.0165 0.0000 -8.6496 0.0000
# 4 0.0000 0.0000 0.0000 36.2998 0.0000 0.2508
# 5 -8.0001 -6.5220 -8.6496 0.0000 26.8174 0.0000
# 6 0.0000 0.0000 0.0000 0.2508 0.0000 17.7198
#
#
#
# Elastic Compliance Matrix: (Units=1/GPa)
#
#
# Indices 1 2 3 4 5 6 
#
# 1 0.017054 -0.009324 -0.004401 0.000000 0.001400 0.000000
# 2 -0.009324 0.031578 -0.006042 0.000000 0.002949 0.000000
# 3 -0.004401 -0.006042 0.009706 0.000000 0.000348 0.000000
# 4 0.000000 0.000000 0.000000 0.027551 0.000000 -0.000390
# 5 0.001400 0.002949 0.000348 0.000000 0.038537 0.000000
# 6 0.000000 0.000000 0.000000 -0.000390 0.000000 0.056440
#
#
# Mechanical properties :
#
#
# Convention : Reuss Voigt Hill
#
# Bulk Modulus (GPa) = 53.18303 76.80487 64.99395
# Shear Modulus (GPa) = 22.05880 26.51077 24.28478
#
# Velocity S-wave (km/s) = 3.54313 3.88425 3.71761
# Velocity P-wave (km/s) = 6.85603 7.98916 7.44419
#
# Compressibility (1/GPa) = 0.01880299
#
# Stress axis : x y z
#
# Youngs Moduli (GPa) = 58.63792 31.66757 103.03324
#
# Poissons Ratio (x) = 0.29527 0.45342
# Poissons Ratio (y) = 0.54675 0.62257
# Poissons Ratio (z) = 0.25805 0.19135
#
# Static dielectric constant tensor:
#      x y z
#    x 1.578240 0.000000 -0.002500 
#    y 0.000000 1.589110 0.000000 
#    z -0.002500 0.000000 1.596840 
# 
# From -- ./inp_files/55197.got.cif
#   From: 2010.05.17/outbox.cif.g08.bks.cpg/sg10_28_cif.got.tgz:55197.got - 2010.06.03 11:33:40.
