data_PCOD9146034
_publ_section_title
;
Structure prediction by ZEFSAII (Michael W. Deem and Ramdas Pophale) SiO2 
 PCOD9146034
Probable space group: P 2/M
;
_chemical_formula_sum "Si O2"
_cell_formula_units_Z 30
_cell_length_a 7.033597
_cell_length_b 34.106480
_cell_length_c 5.439638
_cell_angle_alpha 90.000000
_cell_angle_beta 102.809465
_cell_angle_gamma 90.000000
_cell_volume 1272.445563
_symmetry_space_group_name_H-M "P 2/M"
_symmetry_group_IT_number 10
_symmetry_cell_setting 'monoclinic'
loop_
_space_group_symop_operation_xyz
x,y,z
-x,y,-z
-x,-y,-z
x,-y,z
loop_
_atom_site_type_symbol
_atom_site_label
_atom_site_fract_x
_atom_site_fract_y
_atom_site_fract_z
Si Si1 0.762818 0.242978 0.937849
Si Si2 0.239558 0.333263 0.072245
Si Si3 0.675489 0.882438 0.238801
Si Si4 0.000000 0.908930 0.000000
Si Si5 0.627240 0.543035 0.286601
Si Si6 0.236311 0.199406 0.556725
Si Si7 0.772752 0.372501 0.428799
Si Si8 0.215305 0.955685 0.438366
O O1 0.701941 0.288036 0.888034
O O2 0.702552 0.218859 0.680997
O O3 0.704143 0.223424 0.180270
O O4 0.000000 0.243101 0.000000
O O5 0.301917 0.359718 0.323641
O O6 0.307550 0.349231 0.828327
O O7 0.000000 0.334432 0.000000
O O8 0.688506 0.844941 0.413832
O O9 0.664460 0.924147 0.372703
O O10 0.885022 0.883056 0.161094
O O11 0.500000 0.878033 0.000000
O O12 0.165809 0.936720 0.162395
O O13 0.500000 0.541983 0.500000
O O14 0.725451 0.500000 0.295077
O O15 0.753993 0.581680 0.360264
O O16 0.500000 0.547410 0.000000
O O17 0.000000 0.199032 0.500000
O O18 0.000000 0.362260 0.500000
O O19 0.000000 0.957071 0.500000
O O20 0.287276 0.000000 0.448794
#
# Coordination Sequence:
#
# PCOD9146034 Si02
#       8
#     4   4   4   2   4   4   4   4
#     4   9  18  32  57  86 116 153 198 244 294 358
#     4   9  17  31  52  85 118 145 188 243 295 354
#     4  11  25  40  60  90 124 161 203 254 310 372
#     4  10  21  40  66  86 122 158 204 250 308 372
#     4  10  21  37  55  77 110 153 199 241 291 357
#     4  10  20  35  59  86 118 156 203 250 295 356
#     4  10  19  32  56  84 116 146 190 245 295 350
#     4   9  19  38  63  91 121 157 202 252 306 367
#
# _framework density 23.576646
#
# number of rings (size 3 to 8) (size 9 to 14) (size 15 to 20)
#    0.000    2.267    0.000    3.000    4.667    4.800 
#    0.000    0.667    0.000   12.800    0.000    0.000 
#    0.000    0.000    0.000    0.000    0.000    0.000 
#
# Total GULP energy -167870.205736 kJ/mol
# GULP energy per Si atom -5595.673525 kJ/mol
# Density = 2.352298 g / cm^3
# Si number density = 23.576646 Si / 1000 Ang^3
#
#
#
# Elastic Constant Matrix: (Units=GPa)
#
#
# Indices 1 2 3 4 5 6 
#
# 1 75.5554 12.4901 35.1717 0.0000 -8.1856 0.0000
# 2 12.4901 179.6968 95.8534 0.0000 1.2908 0.0000
# 3 35.1717 95.8534 189.8763 0.0000 -4.6673 0.0000
# 4 0.0000 0.0000 0.0000 20.1030 0.0000 -6.6776
# 5 -8.1856 1.2908 -4.6673 0.0000 43.1678 0.0000
# 6 0.0000 0.0000 0.0000 -6.6776 0.0000 -51.1820
#
#
#
# Elastic Compliance Matrix: (Units=1/GPa)
#
#
# Indices 1 2 3 4 5 6 
#
# 1 0.014786 0.000524 -0.002943 0.000000 0.002470 0.000000
# 2 0.000524 0.007652 -0.003974 0.000000 -0.000559 0.000000
# 3 -0.002943 -0.003974 0.007828 0.000000 0.000407 0.000000
# 4 0.000000 0.000000 0.000000 0.047678 0.000000 -0.006220
# 5 0.002470 -0.000559 0.000407 0.000000 0.023695 0.000000
# 6 0.000000 0.000000 0.000000 -0.006220 0.000000 -0.018727
#
#
# Mechanical properties :
#
#
# Convention : Reuss Voigt Hill
#
# Bulk Modulus (GPa) = 57.20386 81.35099 69.27743
# Shear Modulus (GPa) = 49.24952 22.52530 35.88741
#
# Velocity S-wave (km/s) = 4.57542 3.09432 3.90572
# Velocity P-wave (km/s) = 7.22691 6.88086 7.05601
#
# Compressibility (1/GPa) = 0.01748134
#
# Stress axis : x y z
#
# Youngs Moduli (GPa) = 67.63071 130.68082 127.74972
#
# Poissons Ratio (x) = -0.06852 0.37595
# Poissons Ratio (y) = -0.03546 0.50766
# Poissons Ratio (z) = 0.19903 0.51931
#
# Static dielectric constant tensor:
#      x y z
#    x 1.961360 0.000000 -0.001450 
#    y 0.000000 1.842770 0.000000 
#    z -0.001450 0.000000 1.903480 
# 
# From -- ./inp_files/5542.got.cif
#   From: 2010.05.17/outbox.cif.g08.bks.cpg/sg10_3_cif.got.tgz:5542.got - 2010.06.03 11:33:40.
