data_PCOD9146745
_publ_section_title
;
Structure prediction by ZEFSAII (Michael W. Deem and Ramdas Pophale) SiO2 
 PCOD9146745
Probable space group: P 2/M
;
_chemical_formula_sum "Si O2"
_cell_formula_units_Z 24
_cell_length_a 21.602109
_cell_length_b 13.849436
_cell_length_c 7.683239
_cell_angle_alpha 90.000000
_cell_angle_beta 30.580517
_cell_angle_gamma 90.000000
_cell_volume 1169.434478
_symmetry_space_group_name_H-M "P 2/M"
_symmetry_group_IT_number 10
_symmetry_cell_setting 'monoclinic'
loop_
_space_group_symop_operation_xyz
x,y,z
-x,y,-z
-x,-y,-z
x,-y,z
loop_
_atom_site_type_symbol
_atom_site_label
_atom_site_fract_x
_atom_site_fract_y
_atom_site_fract_z
Si Si1 0.690827 0.812868 0.861987
Si Si2 0.102274 0.000000 0.999152
Si Si3 0.138088 0.604935 0.089248
Si Si4 0.780287 0.801571 0.247604
Si Si5 0.649861 0.607923 0.127079
Si Si6 0.553437 0.890476 0.673219
Si Si7 0.171089 0.000000 0.418885
O O1 0.740300 0.807248 0.545044
O O2 0.763253 0.899099 0.780762
O O3 0.691552 0.704810 0.929765
O O4 0.554684 0.853385 0.182260
O O5 0.148061 0.899776 0.965636
O O6 0.149055 0.000000 0.683434
O O7 0.959083 0.000000 0.350435
O O8 0.147106 0.500000 0.976295
O O9 0.000000 0.607830 0.500000
O O10 0.152157 0.702120 0.946083
O O11 0.254932 0.606512 0.939032
O O12 0.660147 0.813021 0.421125
O O13 0.500000 0.615678 0.500000
O O14 0.668240 0.500000 0.002261
O O15 0.591680 0.000000 0.537949
O O16 0.500000 0.895255 0.000000
#
# Coordination Sequence:
#
# PCOD9146745 Si02
#       7
#     4   2   4   4   4   4   2
#     4  10  19  33  59  86 108 142 186 227 267 323
#     4   9  18  31  51  80 114 147 174 216 279 326
#     4  10  23  42  59  77 110 152 185 225 285 334
#     4  10  19  34  59  84 109 142 185 229 266 324
#     4  10  22  41  60  79 111 150 184 227 284 332
#     4   9  15  28  51  81 112 140 172 214 270 324
#     4   9  18  31  49  81 118 144 172 220 277 324
#
# _framework density 20.522739999999999
#
# number of rings (size 3 to 8) (size 9 to 14) (size 15 to 20)
#    0.000    2.333    1.667    1.000    2.333    0.667 
#    0.000    1.667    0.000    9.000    0.000    0.000 
#    0.000    0.000    0.000    0.000    0.000    0.000 
#
# Total GULP energy -133698.423337 kJ/mol
# GULP energy per Si atom -5570.767639 kJ/mol
# Density = 2.047603 g / cm^3
# Si number density = 20.522740 Si / 1000 Ang^3
#
#
#
# Elastic Constant Matrix: (Units=GPa)
#
#
# Indices 1 2 3 4 5 6 
#
# 1 34.5905 25.2702 32.2473 0.0000 -13.8016 0.0000
# 2 25.2702 224.7493 69.2873 0.0000 -5.7365 0.0000
# 3 32.2473 69.2873 68.3677 0.0000 -17.5463 0.0000
# 4 0.0000 0.0000 0.0000 25.9855 0.0000 -14.6373
# 5 -13.8016 -5.7365 -17.5463 0.0000 23.2394 0.0000
# 6 0.0000 0.0000 0.0000 -14.6373 0.0000 26.1928
#
#
#
# Elastic Compliance Matrix: (Units=1/GPa)
#
#
# Indices 1 2 3 4 5 6 
#
# 1 0.056660 0.001489 -0.024192 0.000000 0.015752 0.000000
# 2 0.001489 0.006852 -0.008664 0.000000 -0.003966 0.000000
# 3 -0.024192 -0.008664 0.037932 0.000000 0.012134 0.000000
# 4 0.000000 0.000000 0.000000 0.056162 0.000000 0.031385
# 5 0.015752 -0.003966 0.012134 0.000000 0.060568 0.000000
# 6 0.000000 0.000000 0.000000 0.031385 0.000000 0.055717
#
#
# Mechanical properties :
#
#
# Convention : Reuss Voigt Hill
#
# Bulk Modulus (GPa) = 25.83272 64.59079 45.21176
# Shear Modulus (GPa) = 14.30508 28.47706 21.39107
#
# Velocity S-wave (km/s) = 2.64301 3.72907 3.23199
# Velocity P-wave (km/s) = 4.68281 7.07689 6.00046
#
# Compressibility (1/GPa) = 0.03871059
#
# Stress axis : x y z
#
# Youngs Moduli (GPa) = 17.64929 145.94712 26.36283
#
# Poissons Ratio (x) = -0.21736 0.63776
# Poissons Ratio (y) = -0.02629 0.22841
# Poissons Ratio (z) = 0.42696 1.26452
#
# Static dielectric constant tensor:
#      x y z
#    x 1.762240 0.000000 0.014860 
#    y 0.000000 1.723330 0.000000 
#    z 0.014860 0.000000 1.772180 
# 
# From -- ./inp_files/36116.got.cif
#   From: 2010.05.17/outbox.cif.g08.bks.cpg/sg10_19_cif.got.tgz:36116.got - 2010.06.03 11:33:40.
