data_PCOD9146883
_publ_section_title
;
Structure prediction by ZEFSAII (Michael W. Deem and Ramdas Pophale) SiO2 
 PCOD9146883
Probable space group: P 2/M
;
_chemical_formula_sum "Si O2"
_cell_formula_units_Z 30
_cell_length_a 9.380752
_cell_length_b 12.990969
_cell_length_c 13.070044
_cell_angle_alpha 90.000000
_cell_angle_beta 86.012652
_cell_angle_gamma 90.000000
_cell_volume 1588.926235
_symmetry_space_group_name_H-M "P 2/M"
_symmetry_group_IT_number 10
_symmetry_cell_setting 'monoclinic'
loop_
_space_group_symop_operation_xyz
x,y,z
-x,y,-z
-x,-y,-z
x,-y,z
loop_
_atom_site_type_symbol
_atom_site_label
_atom_site_fract_x
_atom_site_fract_y
_atom_site_fract_z
Si Si1 0.765032 0.874229 0.575718
Si Si2 0.672723 0.883259 0.894530
Si Si3 0.965359 0.620922 0.118275
Si Si4 0.188461 0.885318 0.656334
Si Si5 0.500000 0.287196 0.000000
Si Si6 0.489969 0.820017 0.703447
Si Si7 0.370663 0.381085 0.807910
Si Si8 0.071708 0.798806 0.234661
O O1 0.812556 0.844378 0.459540
O O2 0.605563 0.835724 0.608698
O O3 0.860936 0.820741 0.657622
O O4 0.769355 0.000000 0.584852
O O5 0.569857 0.861171 0.801563
O O6 0.832972 0.866684 0.846228
O O7 0.652691 0.000000 0.931961
O O8 0.629869 0.792794 0.973821
O O9 0.997320 0.500000 0.122725
O O10 0.797487 0.633488 0.155815
O O11 0.065825 0.684525 0.190220
O O12 0.000000 0.654688 0.000000
O O13 0.350495 0.884430 0.684598
O O14 0.091885 0.829267 0.743428
O O15 0.129169 0.000000 0.652255
O O16 0.460757 0.356833 0.905867
O O17 0.431757 0.704359 0.726359
O O18 0.389113 0.500000 0.775056
#
# Coordination Sequence:
#
# PCOD9146883 Si02
#       8
#     4   4   4   4   2   4   4   4
#     4  10  21  36  56  83 118 152 184 225 273 329
#     4  10  20  34  52  77 117 153 180 225 279 329
#     4  10  21  38  60  81 108 145 187 234 284 331
#     4  11  20  33  57  85 113 149 190 226 270 334
#     4  10  20  34  58  80 106 148 190 224 270 344
#     4  10  19  34  54  80 109 148 185 227 273 329
#     4  10  20  36  56  81 107 139 184 237 284 321
#     4  11  20  35  56  82 114 147 187 228 280 323
#
# _framework density 18.880673999999999
#
# number of rings (size 3 to 8) (size 9 to 14) (size 15 to 20)
#    0.000    1.733    1.333    5.200    0.000    2.133 
#    0.000    7.333    0.000    8.400    0.000    0.000 
#    0.000    0.000    0.000    0.000    0.000    0.000 
#
# Total GULP energy -167312.465065 kJ/mol
# GULP energy per Si atom -5577.082169 kJ/mol
# Density = 1.883770 g / cm^3
# Si number density = 18.880674 Si / 1000 Ang^3
#
#
#
# Elastic Constant Matrix: (Units=GPa)
#
#
# Indices 1 2 3 4 5 6 
#
# 1 70.1021 28.1668 7.9585 0.0000 -14.0439 0.0000
# 2 28.1668 100.7296 31.8810 0.0000 -1.5608 0.0000
# 3 7.9585 31.8810 41.3747 0.0000 -10.3206 0.0000
# 4 0.0000 0.0000 0.0000 21.9254 0.0000 7.9151
# 5 -14.0439 -1.5608 -10.3206 0.0000 24.8149 0.0000
# 6 0.0000 0.0000 0.0000 7.9151 0.0000 14.5579
#
#
#
# Elastic Compliance Matrix: (Units=1/GPa)
#
#
# Indices 1 2 3 4 5 6 
#
# 1 0.018767 -0.006439 0.004351 0.000000 0.012026 0.000000
# 2 -0.006439 0.015663 -0.012824 0.000000 -0.007992 0.000000
# 3 0.004351 -0.012824 0.037520 0.000000 0.017260 0.000000
# 4 0.000000 0.000000 0.000000 0.056747 0.000000 -0.030854
# 5 0.012026 -0.007992 0.017260 0.000000 0.053780 0.000000
# 6 0.000000 0.000000 0.000000 -0.030854 0.000000 0.085466
#
#
# Mechanical properties :
#
#
# Convention : Reuss Voigt Hill
#
# Bulk Modulus (GPa) = 23.73813 38.69101 31.21457
# Shear Modulus (GPa) = 16.03544 21.87298 18.95421
#
# Velocity S-wave (km/s) = 2.91744 3.40735 3.17187
# Velocity P-wave (km/s) = 4.89374 6.00141 5.47565
#
# Compressibility (1/GPa) = 0.04212631
#
# Stress axis : x y z
#
# Youngs Moduli (GPa) = 53.28453 63.84454 26.65273
#
# Poissons Ratio (x) = 0.41107 -0.11597
# Poissons Ratio (y) = 0.34308 0.34180
# Poissons Ratio (z) = -0.23185 0.81876
#
# Static dielectric constant tensor:
#      x y z
#    x 1.688920 0.000000 -0.022770 
#    y 0.000000 1.639300 0.000000 
#    z -0.022770 0.000000 1.664160 
# 
# From -- ./inp_files/28292.got.cif
#   From: 2010.05.17/outbox.cif.g08.bks.cpg/sg10_15_cif.got.tgz:28292.got - 2010.06.03 11:33:40.
