data_PCOD9146131
_publ_section_title
;
Structure prediction by ZEFSAII (Michael W. Deem and Ramdas Pophale) SiO2 
 PCOD9146131
Probable space group: P 2/M
;
_chemical_formula_sum "Si O2"
_cell_formula_units_Z 20
_cell_length_a 5.152008
_cell_length_b 7.902000
_cell_length_c 23.583320
_cell_angle_alpha 90.000000
_cell_angle_beta 108.271705
_cell_angle_gamma 90.000000
_cell_volume 911.696423
_symmetry_space_group_name_H-M "P 2/M"
_symmetry_group_IT_number 10
_symmetry_cell_setting 'monoclinic'
loop_
_space_group_symop_operation_xyz
x,y,z
-x,y,-z
-x,-y,-z
x,-y,z
loop_
_atom_site_type_symbol
_atom_site_label
_atom_site_fract_x
_atom_site_fract_y
_atom_site_fract_z
Si Si1 0.285194 0.304639 0.440108
Si Si2 0.679302 0.193235 0.374230
Si Si3 0.927613 0.706749 0.827356
Si Si4 0.801534 0.292989 0.037104
Si Si5 0.323996 0.295241 0.756648
O O1 0.500000 0.229697 0.500000
O O2 0.237190 0.500000 0.452475
O O3 0.447901 0.297086 0.391765
O O4 0.986949 0.223165 0.417767
O O5 0.689150 0.233584 0.308400
O O6 0.601338 0.000000 0.377764
O O7 0.932896 0.500000 0.828236
O O8 0.612087 0.756981 0.803946
O O9 0.086333 0.763674 0.894371
O O10 0.079919 0.762383 0.780612
O O11 0.797505 0.500000 0.038741
O O12 0.500000 0.236069 0.000000
O O13 0.000000 0.242962 0.000000
O O14 0.316751 0.500000 0.754301
#
# Coordination Sequence:
#
# PCOD9146131 Si02
#       5
#     4   4   4   4   4
#     4  11  24  43  66  90 118 155 196 234 281 347
#     4  12  25  40  61  90 122 153 192 243 295 341
#     4   9  17  28  45  70  99 138 183 224 273 334
#     4   9  15  23  37  61  97 134 167 214 278 336
#     4  10  19  33  52  73 104 144 186 228 273 334
#
# _framework density 21.937127
#
# number of rings (size 3 to 8) (size 9 to 14) (size 15 to 20)
#    0.000    1.800    0.000    5.400    0.000   10.400 
#    0.000    0.000    0.000    0.000    0.000    0.000 
#    0.000   16.000    0.000    0.000    0.000    0.000 
#
# Total GULP energy -111836.791194 kJ/mol
# GULP energy per Si atom -5591.839560 kJ/mol
# Density = 2.188720 g / cm^3
# Si number density = 21.937127 Si / 1000 Ang^3
#
#
#
# Elastic Constant Matrix: (Units=GPa)
#
#
# Indices 1 2 3 4 5 6 
#
# 1 71.7186 -2.2632 -24.2294 0.0000 1.0586 0.0000
# 2 -2.2632 31.6051 -1.0484 0.0000 5.7856 0.0000
# 3 -24.2294 -1.0484 59.1647 0.0000 1.7429 0.0000
# 4 0.0000 0.0000 0.0000 -33.4563 0.0000 22.6998
# 5 1.0586 5.7856 1.7429 0.0000 41.3163 0.0000
# 6 0.0000 0.0000 0.0000 22.6998 0.0000 -4.2155
#
#
#
# Elastic Compliance Matrix: (Units=1/GPa)
#
#
# Indices 1 2 3 4 5 6 
#
# 1 0.016276 0.001557 0.006720 0.000000 -0.000918 0.000000
# 2 0.001557 0.032652 0.001354 0.000000 -0.004669 0.000000
# 3 0.006720 0.001354 0.019713 0.000000 -0.001193 0.000000
# 4 0.000000 0.000000 0.000000 0.011264 0.000000 0.060655
# 5 -0.000918 -0.004669 -0.001193 0.000000 0.024931 0.000000
# 6 0.000000 0.000000 0.000000 0.060655 0.000000 0.089397
#
#
# Mechanical properties :
#
#
# Convention : Reuss Voigt Hill
#
# Bulk Modulus (GPa) = 11.37631 11.93406 11.65518
# Shear Modulus (GPa) = 24.47702 13.39751 18.93727
#
# Velocity S-wave (km/s) = 3.34395 2.47396 2.94130
# Velocity P-wave (km/s) = 4.48403 3.68952 4.10604
#
# Compressibility (1/GPa) = 0.08790194
#
# Stress axis : x y z
#
# Youngs Moduli (GPa) = 61.43857 30.62645 50.72743
#
# Poissons Ratio (x) = -0.04767 -0.34090
# Poissons Ratio (y) = -0.09563 -0.06866
# Poissons Ratio (z) = -0.41288 -0.04146
#
# Static dielectric constant tensor:
#      x y z
#    x 1.741580 0.000000 0.001890 
#    y 0.000000 1.812300 0.000000 
#    z 0.001890 0.000000 1.781640 
# 
# From -- ./inp_files/80948.got.cif
#   From: 2010.05.17/outbox.cif.g08.bks.cpg/sg10_41_cif.got.tgz:80948.got - 2010.06.03 11:33:40.
