data_PCOD9146887
_publ_section_title
;
Structure prediction by ZEFSAII (Michael W. Deem and Ramdas Pophale) SiO2 
 PCOD9146887
Probable space group: P 2/M
;
_chemical_formula_sum "Si O2"
_cell_formula_units_Z 28
_cell_length_a 13.264026
_cell_length_b 24.260614
_cell_length_c 8.415251
_cell_angle_alpha 90.000000
_cell_angle_beta 147.667715
_cell_angle_gamma 90.000000
_cell_volume 1448.300935
_symmetry_space_group_name_H-M "P 2/M"
_symmetry_group_IT_number 10
_symmetry_cell_setting 'monoclinic'
loop_
_space_group_symop_operation_xyz
x,y,z
-x,y,-z
-x,-y,-z
x,-y,z
loop_
_atom_site_type_symbol
_atom_site_label
_atom_site_fract_x
_atom_site_fract_y
_atom_site_fract_z
Si Si1 0.845069 0.437281 0.162094
Si Si2 0.039703 0.140355 0.735764
Si Si3 0.206513 0.773430 0.191311
Si Si4 0.439021 0.558873 0.606697
Si Si5 0.379819 0.845887 0.689985
Si Si6 0.806255 0.650204 0.830408
Si Si7 0.614595 0.063414 0.818069
O O1 0.872146 0.500000 0.132056
O O2 0.000000 0.427920 0.500000
O O3 0.636197 0.437420 0.959003
O O4 0.843423 0.389349 0.029933
O O5 0.000000 0.153574 0.500000
O O6 0.833438 0.136564 0.542995
O O7 0.165543 0.187573 0.986904
O O8 0.173659 0.086740 0.922287
O O9 0.347111 0.802513 0.503247
O O10 0.266477 0.711276 0.228697
O O11 0.000000 0.771542 0.000000
O O12 0.500000 0.556331 0.500000
O O13 0.344713 0.500000 0.518372
O O14 0.322518 0.614143 0.459013
O O15 0.501458 0.897157 0.787478
O O16 0.500000 0.823460 0.000000
O O17 0.000000 0.657710 0.000000
O O18 0.500000 0.066321 0.500000
O O19 0.618948 0.000000 0.876574
#
# Coordination Sequence:
#
# PCOD9146887 Si02
#       7
#     4   4   4   4   4   4   4
#     4   9  18  34  53  76 111 148 185 235 290 344
#     4  11  22  41  63  88 122 162 200 244 302 358
#     4   9  21  39  58  81 118 154 195 248 294 348
#     4   8  15  30  49  73 105 140 180 222 275 337
#     4  11  22  42  64  87 124 162 197 248 307 352
#     4  10  19  34  54  81 109 141 190 240 281 340
#     4  11  24  42  65  95 123 155 203 248 293 363
#
# _framework density 19.332998
#
# number of rings (size 3 to 8) (size 9 to 14) (size 15 to 20)
#    0.000    2.143    2.857    1.286    0.000    2.857 
#    7.714    6.429    0.000    2.571    0.000    0.000 
#    0.000    0.000    0.000    0.000    0.000    0.000 
#
# Total GULP energy -156019.689408 kJ/mol
# GULP energy per Si atom -5572.131765 kJ/mol
# Density = 1.928900 g / cm^3
# Si number density = 19.332998 Si / 1000 Ang^3
#
#
#
# Elastic Constant Matrix: (Units=GPa)
#
#
# Indices 1 2 3 4 5 6 
#
# 1 33.1875 28.1558 18.7663 0.0000 4.1340 0.0000
# 2 28.1558 160.0247 67.5979 0.0000 -8.3096 0.0000
# 3 18.7663 67.5979 151.5828 0.0000 -7.1626 0.0000
# 4 0.0000 0.0000 0.0000 -72.7221 0.0000 31.4691
# 5 4.1340 -8.3096 -7.1626 0.0000 33.0130 0.0000
# 6 0.0000 0.0000 0.0000 31.4691 0.0000 14.9376
#
#
#
# Elastic Compliance Matrix: (Units=1/GPa)
#
#
# Indices 1 2 3 4 5 6 
#
# 1 0.037294 -0.005944 -0.002281 0.000000 -0.006661 0.000000
# 2 -0.005944 0.008695 -0.003034 0.000000 0.002275 0.000000
# 3 -0.002281 -0.003034 0.008295 0.000000 0.001322 0.000000
# 4 0.000000 0.000000 0.000000 -0.007193 0.000000 0.015154
# 5 -0.006661 0.002275 0.001322 0.000000 0.031985 0.000000
# 6 0.000000 0.000000 0.000000 0.015154 0.000000 0.035020
#
#
# Mechanical properties :
#
#
# Convention : Reuss Voigt Hill
#
# Bulk Modulus (GPa) = 31.48075 63.75944 47.62010
# Shear Modulus (GPa) = 33.96699 10.39737 22.18218
#
# Velocity S-wave (km/s) = 4.19614 2.32158 3.39097
# Velocity P-wave (km/s) = 6.30837 6.34330 6.32586
#
# Compressibility (1/GPa) = 0.03176544
#
# Stress axis : x y z
#
# Youngs Moduli (GPa) = 26.81373 115.01393 120.55604
#
# Poissons Ratio (x) = 0.68366 0.27500
# Poissons Ratio (y) = 0.15938 0.36576
# Poissons Ratio (z) = 0.06117 0.34895
#
# Static dielectric constant tensor:
#      x y z
#    x 1.713640 0.000000 0.018740 
#    y 0.000000 1.703750 0.000000 
#    z 0.018740 0.000000 1.711790 
# 
# From -- ./inp_files/30476.got.cif
#   From: 2010.05.17/outbox.cif.g08.bks.cpg/sg10_16_cif.got.tgz:30476.got - 2010.06.03 11:33:40.
