data_PCOD9146224
_publ_section_title
;
Structure prediction by ZEFSAII (Michael W. Deem and Ramdas Pophale) SiO2 
 PCOD9146224
Probable space group: P 2/M
;
_chemical_formula_sum "Si O2"
_cell_formula_units_Z 32
_cell_length_a 14.941405
_cell_length_b 7.705225
_cell_length_c 23.781194
_cell_angle_alpha 90.000000
_cell_angle_beta 36.498133
_cell_angle_gamma 90.000000
_cell_volume 1628.466731
_symmetry_space_group_name_H-M "P 2/M"
_symmetry_group_IT_number 10
_symmetry_cell_setting 'monoclinic'
loop_
_space_group_symop_operation_xyz
x,y,z
-x,y,-z
-x,-y,-z
x,-y,z
loop_
_atom_site_type_symbol
_atom_site_label
_atom_site_fract_x
_atom_site_fract_y
_atom_site_fract_z
Si Si1 0.881202 0.295505 0.513439
Si Si2 0.748358 0.713038 0.376525
Si Si3 0.500403 0.295440 0.585928
Si Si4 0.541306 0.803554 0.690862
Si Si5 0.434310 0.791308 0.200331
Si Si6 0.087089 0.297889 0.198288
Si Si7 0.123779 0.208942 0.305888
Si Si8 0.603379 0.290619 0.000010
O O1 0.853365 0.500000 0.536359
O O2 0.723014 0.201629 0.596353
O O3 0.000000 0.231672 0.500000
O O4 0.967720 0.270200 0.411322
O O5 0.757657 0.500000 0.373509
O O6 0.641501 0.768177 0.378667
O O7 0.655865 0.770606 0.478968
O O8 0.918631 0.777780 0.283385
O O9 0.503565 0.500000 0.573699
O O10 0.488969 0.272378 0.658127
O O11 0.506646 0.722561 0.769529
O O12 0.485606 0.000000 0.719277
O O13 0.264011 0.730982 0.273253
O O14 0.426170 0.000000 0.210174
O O15 0.531274 0.751772 0.096380
O O16 0.072388 0.500000 0.189665
O O17 0.142021 0.284230 0.234831
O O18 0.225706 0.223302 0.092619
O O19 0.125383 0.000000 0.302260
O O20 0.608536 0.500000 0.992452
O O21 0.500000 0.227230 0.000000
#
# Coordination Sequence:
#
# PCOD9146224 Si02
#       8
#     4   4   4   4   4   4   4   4
#     4  11  22  33  48  71 100 137 175 210 247 298
#     4   8  16  32  55  79 106 134 166 211 262 315
#     4   9  17  33  56  81 104 134 173 210 256 317
#     4  11  22  36  52  74 105 141 175 214 261 310
#     4  10  22  36  50  69 101 142 177 209 257 312
#     4  10  19  33  53  77 105 136 170 216 268 312
#     4  11  21  33  49  72 103 140 174 209 253 308
#     4  10  20  33  51  76 103 133 176 224 262 301
#
# _framework density 19.650386000000001
#
# number of rings (size 3 to 8) (size 9 to 14) (size 15 to 20)
#    0.000    2.000    2.500    2.625    0.000    3.750 
#    0.000    1.875    0.000    0.750    0.000    5.250 
#    0.000    0.000    0.000    0.000    0.000    0.000 
#
# Total GULP energy -178553.001428 kJ/mol
# GULP energy per Si atom -5579.781295 kJ/mol
# Density = 1.960566 g / cm^3
# Si number density = 19.650386 Si / 1000 Ang^3
#
#
#
# Elastic Constant Matrix: (Units=GPa)
#
#
# Indices 1 2 3 4 5 6 
#
# 1 99.5542 0.8458 53.7564 0.0000 8.4360 0.0000
# 2 0.8458 32.3373 -2.9867 0.0000 -7.4357 0.0000
# 3 53.7564 -2.9867 131.3898 0.0000 11.6158 0.0000
# 4 0.0000 0.0000 0.0000 22.2805 0.0000 10.7690
# 5 8.4360 -7.4357 11.6158 0.0000 31.1373 0.0000
# 6 0.0000 0.0000 0.0000 10.7690 0.0000 17.9770
#
#
#
# Elastic Compliance Matrix: (Units=1/GPa)
#
#
# Indices 1 2 3 4 5 6 
#
# 1 0.013016 -0.001254 -0.005187 0.000000 -0.001891 0.000000
# 2 -0.001254 0.032842 0.000555 0.000000 0.007976 0.000000
# 3 -0.005187 0.000555 0.009937 0.000000 -0.002169 0.000000
# 4 0.000000 0.000000 0.000000 0.063174 0.000000 -0.037844
# 5 -0.001891 0.007976 -0.002169 0.000000 0.035342 0.000000
# 6 0.000000 0.000000 0.000000 -0.037844 0.000000 0.078297
#
#
# Mechanical properties :
#
#
# Convention : Reuss Voigt Hill
#
# Bulk Modulus (GPa) = 22.71546 40.72359 31.71952
# Shear Modulus (GPa) = 19.30080 28.39000 23.84540
#
# Velocity S-wave (km/s) = 3.13742 3.80512 3.48729
# Velocity P-wave (km/s) = 4.97086 6.33042 5.69139
#
# Compressibility (1/GPa) = 0.04402288
#
# Stress axis : x y z
#
# Youngs Moduli (GPa) = 76.82604 30.44875 100.62926
#
# Poissons Ratio (x) = 0.03819 0.52195
# Poissons Ratio (y) = 0.09637 -0.05582
# Poissons Ratio (z) = 0.39848 -0.01689
#
# Static dielectric constant tensor:
#      x y z
#    x 1.703940 0.000000 0.012030 
#    y 0.000000 1.727340 0.000000 
#    z 0.012030 0.000000 1.704560 
# 
# From -- ./inp_files/70008.got.cif
#   From: 2010.05.17/outbox.cif.g08.bks.cpg/sg10_36_cif.got.tgz:70008.got - 2010.06.03 11:33:40.
