data_PCOD9146416
_publ_section_title
;
Structure prediction by ZEFSAII (Michael W. Deem and Ramdas Pophale) SiO2 
 PCOD9146416
Probable space group: P 2/M
;
_chemical_formula_sum "Si O2"
_cell_formula_units_Z 28
_cell_length_a 29.521943
_cell_length_b 9.264476
_cell_length_c 9.179366
_cell_angle_alpha 90.000000
_cell_angle_beta 140.724546
_cell_angle_gamma 90.000000
_cell_volume 1589.337072
_symmetry_space_group_name_H-M "P 2/M"
_symmetry_group_IT_number 10
_symmetry_cell_setting 'monoclinic'
loop_
_space_group_symop_operation_xyz
x,y,z
-x,y,-z
-x,-y,-z
x,-y,z
loop_
_atom_site_type_symbol
_atom_site_label
_atom_site_fract_x
_atom_site_fract_y
_atom_site_fract_z
Si Si1 0.128593 0.326285 0.479055
Si Si2 0.995206 0.831532 0.660252
Si Si3 0.713626 0.334584 0.103573
Si Si4 0.140498 0.171366 0.198411
Si Si5 0.426116 0.828891 0.892377
Si Si6 0.427898 0.170830 0.244904
Si Si7 0.283174 0.666716 0.533336
O O1 0.127692 0.500000 0.458347
O O2 0.206466 0.286812 0.740073
O O3 0.124101 0.249055 0.311073
O O4 0.063850 0.270219 0.414873
O O5 0.000000 0.809301 0.500000
O O6 0.975698 0.000000 0.638958
O O7 0.072428 0.807738 0.925441
O O8 0.703532 0.500000 0.033668
O O9 0.715128 0.330524 0.284744
O O10 0.645675 0.242879 0.886345
O O11 0.212802 0.243324 0.316969
O O12 0.151470 0.000000 0.248373
O O13 0.356929 0.740612 0.668481
O O14 0.414745 0.000000 0.837972
O O15 0.500000 0.785738 0.000000
O O16 0.433485 0.808479 0.084724
O O17 0.500000 0.226906 0.500000
O O18 0.423331 0.000000 0.261587
O O19 0.278154 0.500000 0.475891
#
# Coordination Sequence:
#
# PCOD9146416 Si02
#       7
#     4   4   4   4   4   4   4
#     4  10  20  34  54  79 103 128 165 210 251 296
#     4  10  22  38  53  73 103 136 168 203 247 299
#     4   8  16  30  47  69  95 123 156 195 238 283
#     4  10  19  33  55  78  99 128 168 210 250 295
#     4   9  17  30  48  69  95 127 161 197 240 291
#     4   9  17  29  46  69  94 121 156 196 236 279
#     4   9  17  30  49  73  99 125 160 206 248 288
#
# _framework density 17.617408999999999
#
# number of rings (size 3 to 8) (size 9 to 14) (size 15 to 20)
#    0.000    2.714    0.000    2.571    0.000    7.714 
#    0.000    1.429    0.000    6.857    0.000    0.000 
#    0.000    0.000    0.000    0.000    0.000    0.000 
#
# Total GULP energy -156097.037550 kJ/mol
# GULP energy per Si atom -5574.894198 kJ/mol
# Density = 1.757731 g / cm^3
# Si number density = 17.617409 Si / 1000 Ang^3
#
#
#
# Elastic Constant Matrix: (Units=GPa)
#
#
# Indices 1 2 3 4 5 6 
#
# 1 71.9937 57.8455 51.0635 0.0000 37.3116 0.0000
# 2 57.8455 90.8996 77.9484 0.0000 27.6014 0.0000
# 3 51.0635 77.9484 124.0004 0.0000 35.3675 0.0000
# 4 0.0000 0.0000 0.0000 16.8426 0.0000 14.0807
# 5 37.3116 27.6014 35.3675 0.0000 28.7369 0.0000
# 6 0.0000 0.0000 0.0000 14.0807 0.0000 22.3482
#
#
#
# Elastic Compliance Matrix: (Units=1/GPa)
#
#
# Indices 1 2 3 4 5 6 
#
# 1 0.070986 -0.033770 0.013919 0.000000 -0.076862 0.000000
# 2 -0.033770 0.040846 -0.020164 0.000000 0.029431 0.000000
# 3 0.013919 -0.020164 0.022557 0.000000 -0.026466 0.000000
# 4 0.000000 0.000000 0.000000 0.125457 0.000000 -0.079045
# 5 -0.076862 0.029431 -0.026466 0.000000 0.138900 0.000000
# 6 0.000000 0.000000 0.000000 -0.079045 0.000000 0.094550
#
#
# Mechanical properties :
#
#
# Convention : Reuss Voigt Hill
#
# Bulk Modulus (GPa) = 18.39653 73.40096 45.89874
# Shear Modulus (GPa) = 8.45388 20.25461 14.35425
#
# Velocity S-wave (km/s) = 2.19295 3.39439 2.85753
# Velocity P-wave (km/s) = 4.10815 7.55757 6.08251
#
# Compressibility (1/GPa) = 0.05435808
#
# Stress axis : x y z
#
# Youngs Moduli (GPa) = 14.08727 24.48243 44.33245
#
# Poissons Ratio (x) = 0.82677 -0.61705
# Poissons Ratio (y) = 0.47573 0.89392
# Poissons Ratio (z) = -0.19608 0.49367
#
# Static dielectric constant tensor:
#      x y z
#    x 1.592810 0.000000 0.009750 
#    y 0.000000 1.595560 0.000000 
#    z 0.009750 0.000000 1.596990 
# 
# From -- ./inp_files/37305.got.cif
#   From: 2010.05.17/outbox.cif.g08.bks.cpg/sg10_19_cif.got.tgz:37305.got - 2010.06.03 11:33:40.
