data_PCOD9146510
_publ_section_title
;
Structure prediction by ZEFSAII (Michael W. Deem and Ramdas Pophale) SiO2 
 PCOD9146510
Probable space group: P 2/M
;
_chemical_formula_sum "Si O2"
_cell_formula_units_Z 32
_cell_length_a 13.130782
_cell_length_b 8.139315
_cell_length_c 32.669572
_cell_angle_alpha 90.000000
_cell_angle_beta 26.627806
_cell_angle_gamma 90.000000
_cell_volume 1564.901246
_symmetry_space_group_name_H-M "P 2/M"
_symmetry_group_IT_number 10
_symmetry_cell_setting 'monoclinic'
loop_
_space_group_symop_operation_xyz
x,y,z
-x,y,-z
-x,-y,-z
x,-y,z
loop_
_atom_site_type_symbol
_atom_site_label
_atom_site_fract_x
_atom_site_fract_y
_atom_site_fract_z
Si Si1 0.046095 0.699520 0.074448
Si Si2 0.128257 0.689061 0.132846
Si Si3 0.254976 0.692167 0.402089
Si Si4 0.670837 0.803633 0.404201
Si Si5 0.549160 0.191935 0.226935
Si Si6 0.572813 0.300898 0.125055
Si Si7 0.361529 0.810063 0.676172
Si Si8 0.818747 0.697454 0.796168
O O1 0.038559 0.500000 0.079147
O O2 0.790837 0.761514 0.160368
O O3 0.163008 0.759006 0.074823
O O4 0.196779 0.746190 0.981305
O O5 0.206669 0.500000 0.103345
O O6 0.213122 0.762059 0.145599
O O7 0.854213 0.698098 0.235704
O O8 0.259194 0.500000 0.411470
O O9 0.349883 0.714035 0.322279
O O10 0.432566 0.782551 0.367472
O O11 0.000000 0.753966 0.500000
O O12 0.500000 0.738099 0.500000
O O13 0.571018 0.775023 0.394803
O O14 0.926930 0.736034 0.310474
O O15 0.691256 0.000000 0.402774
O O16 0.558680 0.233760 0.175718
O O17 0.510320 0.000000 0.246684
O O18 0.568089 0.500000 0.129197
O O19 0.366310 0.245493 0.170036
O O20 0.283790 0.000000 0.706301
O O21 0.797558 0.500000 0.806679
#
# Coordination Sequence:
#
# PCOD9146510 Si02
#       8
#     4   4   4   4   4   4   4   4
#     4  10  20  36  61  87 115 156 198 239 290 347
#     4   9  17  32  57  84 112 149 190 234 284 338
#     4  11  24  41  61  85 113 147 188 237 296 352
#     4   9  19  35  55  80 112 151 191 230 280 343
#     4  12  25  40  60  85 116 153 197 245 291 346
#     4  10  22  39  58  84 121 160 197 240 291 345
#     4  10  19  33  55  82 112 147 187 233 282 335
#     4   9  19  35  55  83 116 149 192 240 286 339
#
# _framework density 20.448574000000001
#
# number of rings (size 3 to 8) (size 9 to 14) (size 15 to 20)
#    0.000    2.000    1.250    2.250    0.000    5.750 
#    0.000    5.000    0.000    0.000    0.000    5.250 
#    0.000    0.000    0.000    0.000    0.000    0.000 
#
# Total GULP energy -178654.473882 kJ/mol
# GULP energy per Si atom -5582.952309 kJ/mol
# Density = 2.040203 g / cm^3
# Si number density = 20.448574 Si / 1000 Ang^3
#
#
#
# Elastic Constant Matrix: (Units=GPa)
#
#
# Indices 1 2 3 4 5 6 
#
# 1 98.1608 6.4647 33.7309 0.0000 9.9725 0.0000
# 2 6.4647 21.0131 -0.3143 0.0000 0.5935 0.0000
# 3 33.7309 -0.3143 84.6702 0.0000 9.1620 0.0000
# 4 0.0000 0.0000 0.0000 80.2325 0.0000 -51.1578
# 5 9.9725 0.5935 9.1620 0.0000 29.3922 0.0000
# 6 0.0000 0.0000 0.0000 -51.1578 0.0000 56.3460
#
#
#
# Elastic Compliance Matrix: (Units=1/GPa)
#
#
# Indices 1 2 3 4 5 6 
#
# 1 0.012295 -0.003777 -0.004625 0.000000 -0.002654 0.000000
# 2 -0.003777 0.048784 0.001711 0.000000 -0.000237 0.000000
# 3 -0.004625 0.001711 0.013964 0.000000 -0.002818 0.000000
# 4 0.000000 0.000000 0.000000 0.029599 0.000000 0.026874
# 5 -0.002654 -0.000237 -0.002818 0.000000 0.035806 0.000000
# 6 0.000000 0.000000 0.000000 0.026874 0.000000 0.042147
#
#
# Mechanical properties :
#
#
# Convention : Reuss Voigt Hill
#
# Bulk Modulus (GPa) = 16.21741 31.51187 23.86464
# Shear Modulus (GPa) = 23.09153 44.12498 33.60825
#
# Velocity S-wave (km/s) = 3.36408 4.65031 4.05847
# Velocity P-wave (km/s) = 4.79973 6.65414 5.80151
#
# Compressibility (1/GPa) = 0.06166214
#
# Stress axis : x y z
#
# Youngs Moduli (GPa) = 81.33415 20.49865 71.61105
#
# Poissons Ratio (x) = 0.07742 0.33120
# Poissons Ratio (y) = 0.30718 -0.12255
# Poissons Ratio (z) = 0.37617 -0.03508
#
# Static dielectric constant tensor:
#      x y z
#    x 1.738490 0.000000 0.025010 
#    y 0.000000 1.726840 0.000000 
#    z 0.025010 0.000000 1.712950 
# 
# From -- ./inp_files/94979.got.cif
#   From: 2010.05.17/outbox.cif.g08.bks.cpg/sg10_48_cif.got.tgz:94979.got - 2010.06.03 11:33:40.
