data_PCOD9146381
_publ_section_title
;
Structure prediction by ZEFSAII (Michael W. Deem and Ramdas Pophale) SiO2 
 PCOD9146381
Probable space group: P 2/M
;
_chemical_formula_sum "Si O2"
_cell_formula_units_Z 32
_cell_length_a 14.420494
_cell_length_b 13.941591
_cell_length_c 11.213165
_cell_angle_alpha 90.000000
_cell_angle_beta 137.431789
_cell_angle_gamma 90.000000
_cell_volume 1524.992124
_symmetry_space_group_name_H-M "P 2/M"
_symmetry_group_IT_number 10
_symmetry_cell_setting 'monoclinic'
loop_
_space_group_symop_operation_xyz
x,y,z
-x,y,-z
-x,-y,-z
x,-y,z
loop_
_atom_site_type_symbol
_atom_site_label
_atom_site_fract_x
_atom_site_fract_y
_atom_site_fract_z
Si Si1 0.642009 0.260864 0.595495
Si Si2 0.946527 0.891049 0.663579
Si Si3 0.093743 0.384937 0.203966
Si Si4 0.748509 0.214579 0.317950
Si Si5 0.900701 0.613823 0.519772
Si Si6 0.548686 0.111330 0.307601
Si Si7 0.251663 0.108957 0.921185
Si Si8 0.839705 0.890442 0.821423
O O1 0.500000 0.310062 0.500000
O O2 0.756855 0.335962 0.662695
O O3 0.582154 0.183564 0.445262
O O4 0.735147 0.190036 0.766126
O O5 0.105485 0.877932 0.846661
O O6 0.891254 0.824529 0.507952
O O7 0.850422 0.879506 0.687336
O O8 0.932008 0.000000 0.608151
O O9 0.104136 0.500000 0.205861
O O10 0.044008 0.361616 0.293113
O O11 0.000000 0.354701 0.000000
O O12 0.762218 0.325799 0.363786
O O13 0.631062 0.154808 0.273425
O O14 0.740573 0.188241 0.173466
O O15 0.875523 0.500000 0.497252
O O16 0.000000 0.632803 0.500000
O O17 0.586611 0.000000 0.366434
O O18 0.388363 0.112403 0.126375
O O19 0.247144 0.000000 0.863977
O O20 0.800089 0.000000 0.815088
O O21 0.000000 0.878760 0.000000
#
# Coordination Sequence:
#
# PCOD9146381 Si02
#       8
#     4   4   4   4   4   4   4   4
#     4  12  25  40  61  92 128 172 217 267 330 398
#     4  10  19  33  54  82 113 149 203 265 314 363
#     4  10  22  46  77 103 130 168 219 276 329 390
#     4  12  20  36  61  86 118 167 207 269 331 386
#     4  10  21  39  67 104 135 162 205 266 338 399
#     4  11  23  40  58  84 126 174 221 266 319 389
#     4  10  22  35  55  86 120 162 219 267 311 385
#     4  10  21  36  55  79 115 159 204 258 316 374
#
# _framework density 20.983713999999999
#
# number of rings (size 3 to 8) (size 9 to 14) (size 15 to 20)
#    0.000    1.375    2.500    3.375    1.750    3.250 
#    2.250    0.000    0.000    2.250    0.000    0.000 
#    0.000    0.000    0.000    0.000    0.000    0.000 
#
# Total GULP energy -178528.930509 kJ/mol
# GULP energy per Si atom -5579.029078 kJ/mol
# Density = 2.093595 g / cm^3
# Si number density = 20.983714 Si / 1000 Ang^3
#
#
#
# Elastic Constant Matrix: (Units=GPa)
#
#
# Indices 1 2 3 4 5 6 
#
# 1 92.9357 27.3964 35.9917 0.0000 3.6288 0.0000
# 2 27.3964 62.3526 27.6824 0.0000 -3.9441 0.0000
# 3 35.9917 27.6824 99.9484 0.0000 10.1480 0.0000
# 4 0.0000 0.0000 0.0000 24.1844 0.0000 3.4470
# 5 3.6288 -3.9441 10.1480 0.0000 37.3272 0.0000
# 6 0.0000 0.0000 0.0000 3.4470 0.0000 20.3748
#
#
#
# Elastic Compliance Matrix: (Units=1/GPa)
#
#
# Indices 1 2 3 4 5 6 
#
# 1 0.013460 -0.004389 -0.003549 0.000000 -0.000807 0.000000
# 2 -0.004389 0.020148 -0.004380 0.000000 0.003746 0.000000
# 3 -0.003549 -0.004380 0.012863 0.000000 -0.003615 0.000000
# 4 0.000000 0.000000 0.000000 0.042371 0.000000 -0.007168
# 5 -0.000807 0.003746 -0.003615 0.000000 0.028247 0.000000
# 6 0.000000 0.000000 0.000000 -0.007168 0.000000 0.050293
#
#
# Mechanical properties :
#
#
# Convention : Reuss Voigt Hill
#
# Bulk Modulus (GPa) = 45.80015 48.59753 47.19884
# Shear Modulus (GPa) = 25.08802 27.32168 26.20485
#
# Velocity S-wave (km/s) = 3.46149 3.61230 3.53770
# Velocity P-wave (km/s) = 6.15222 6.37245 6.26330
#
# Compressibility (1/GPa) = 0.02183399
#
# Stress axis : x y z
#
# Youngs Moduli (GPa) = 74.29320 49.63263 77.73949
#
# Poissons Ratio (x) = 0.21786 0.27593
# Poissons Ratio (y) = 0.32610 0.34051
# Poissons Ratio (z) = 0.26369 0.21740
#
# Static dielectric constant tensor:
#      x y z
#    x 1.828510 0.000000 -0.024350 
#    y 0.000000 1.769020 0.000000 
#    z -0.024350 0.000000 1.796880 
# 
# From -- ./inp_files/51656.got.cif
#   From: 2010.05.17/outbox.cif.g08.bks.cpg/sg10_26_cif.got.tgz:51656.got - 2010.06.03 11:33:40.
