data_PCOD9146449
_publ_section_title
;
Structure prediction by ZEFSAII (Michael W. Deem and Ramdas Pophale) SiO2 
 PCOD9146449
Probable space group: P 2/M
;
_chemical_formula_sum "Si O2"
_cell_formula_units_Z 32
_cell_length_a 10.715861
_cell_length_b 7.787813
_cell_length_c 18.945956
_cell_angle_alpha 90.000000
_cell_angle_beta 52.325167
_cell_angle_gamma 90.000000
_cell_volume 1251.427452
_symmetry_space_group_name_H-M "P 2/M"
_symmetry_group_IT_number 10
_symmetry_cell_setting 'monoclinic'
loop_
_space_group_symop_operation_xyz
x,y,z
-x,y,-z
-x,-y,-z
x,-y,z
loop_
_atom_site_type_symbol
_atom_site_label
_atom_site_fract_x
_atom_site_fract_y
_atom_site_fract_z
Si Si1 0.710238 0.710437 0.184485
Si Si2 0.533279 0.803837 0.904969
Si Si3 0.864918 0.798038 0.829236
Si Si4 0.028354 0.810398 0.406325
Si Si5 0.637189 0.292799 0.667293
Si Si6 0.806760 0.305941 0.008329
Si Si7 0.212965 0.296407 0.685555
Si Si8 0.696113 0.694661 0.489933
O O1 0.719558 0.500000 0.180336
O O2 0.526688 0.759022 0.241374
O O3 0.822912 0.770418 0.081703
O O4 0.753563 0.771582 0.247771
O O5 0.708246 0.725000 0.845819
O O6 0.385024 0.696249 0.929829
O O7 0.528345 0.000000 0.878201
O O8 0.500000 0.821017 0.000000
O O9 0.026024 0.728344 0.742448
O O10 0.856463 0.000000 0.820374
O O11 0.861196 0.772560 0.915512
O O12 0.211306 0.763281 0.340574
O O13 0.000000 0.819028 0.500000
O O14 0.887357 0.689877 0.430605
O O15 0.998405 0.000000 0.615046
O O16 0.643125 0.500000 0.660745
O O17 0.642567 0.228045 0.583509
O O18 0.867343 0.500000 0.986451
O O19 0.245715 0.500000 0.675658
O O20 0.316795 0.226543 0.584197
O O21 0.634299 0.500000 0.510005
#
# Coordination Sequence:
#
# PCOD9146449 Si02
#       8
#     4   4   4   4   4   4   4   4
#     4   9  20  36  53  76 105 136 173 217 260 303
#     4   8  16  32  52  75 104 133 163 205 258 312
#     4  10  21  37  55  77 106 138 170 210 261 309
#     4   9  17  30  50  77 108 139 171 209 256 310
#     4   9  17  33  55  78 106 137 171 213 259 307
#     4  10  19  33  55  80 105 135 170 210 257 308
#     4  10  21  37  54  75 103 136 178 219 256 304
#     4   9  18  32  54  80 104 135 173 214 258 305
#
# _framework density 25.570798
#
# number of rings (size 3 to 8) (size 9 to 14) (size 15 to 20)
#    0.000    2.750    0.000    1.875    0.000    6.750 
#    0.000   11.875    0.000    0.000    0.000    4.375 
#    0.000    0.000    0.000    0.000    0.000    0.000 
#
# Total GULP energy -178654.751965 kJ/mol
# GULP energy per Si atom -5582.960999 kJ/mol
# Density = 2.551260 g / cm^3
# Si number density = 25.570798 Si / 1000 Ang^3
#
#
#
# Elastic Constant Matrix: (Units=GPa)
#
#
# Indices 1 2 3 4 5 6 
#
# 1 30.4599 6.1896 16.8219 0.0000 -14.0064 0.0000
# 2 6.1896 53.3778 1.4973 0.0000 1.5712 0.0000
# 3 16.8219 1.4973 185.1745 0.0000 18.3960 0.0000
# 4 0.0000 0.0000 0.0000 11.7781 0.0000 -28.4410
# 5 -14.0064 1.5712 18.3960 0.0000 52.2496 0.0000
# 6 0.0000 0.0000 0.0000 -28.4410 0.0000 50.7837
#
#
#
# Elastic Compliance Matrix: (Units=1/GPa)
#
#
# Indices 1 2 3 4 5 6 
#
# 1 0.042981 -0.005236 -0.005205 0.000000 0.013512 0.000000
# 2 -0.005236 0.019391 0.000535 0.000000 -0.002175 0.000000
# 3 -0.005205 0.000535 0.006227 0.000000 -0.003604 0.000000
# 4 0.000000 0.000000 0.000000 -0.240964 0.000000 -0.134950
# 5 0.013512 -0.002175 -0.003604 0.000000 0.024095 0.000000
# 6 0.000000 0.000000 0.000000 -0.134950 0.000000 -0.055886
#
#
# Mechanical properties :
#
#
# Convention : Reuss Voigt Hill
#
# Bulk Modulus (GPa) = 20.49692 35.33664 27.91678
# Shear Modulus (GPa) = -29.74727 39.26253 4.75763
#
# Velocity S-wave (km/s) = -3.41446 3.92273 1.36551
# Velocity P-wave (km/s) = 2.74073 5.86227 3.66433
#
# Compressibility (1/GPa) = 0.04878782
#
# Stress axis : x y z
#
# Youngs Moduli (GPa) = 23.26588 51.57152 160.59663
#
# Poissons Ratio (x) = 0.27002 0.83583
# Poissons Ratio (y) = 0.12182 -0.08591
# Poissons Ratio (z) = 0.12109 -0.02759
#
# Static dielectric constant tensor:
#      x y z
#    x 2.144970 0.000000 0.037820 
#    y 0.000000 1.937430 0.000000 
#    z 0.037820 0.000000 2.029160 
# 
# From -- ./inp_files/83540.got.cif
#   From: 2010.05.17/outbox.cif.g08.bks.cpg/sg10_42_cif.got.tgz:83540.got - 2010.06.03 11:33:40.
