data_PCOD9146824
_publ_section_title
;
Structure prediction by ZEFSAII (Michael W. Deem and Ramdas Pophale) SiO2 
 PCOD9146824
Probable space group: P 2/M
;
_chemical_formula_sum "Si O2"
_cell_formula_units_Z 18
_cell_length_a 18.438263
_cell_length_b 8.062988
_cell_length_c 5.247023
_cell_angle_alpha 90.000000
_cell_angle_beta 91.057643
_cell_angle_gamma 90.000000
_cell_volume 779.928858
_symmetry_space_group_name_H-M "P 2/M"
_symmetry_group_IT_number 10
_symmetry_cell_setting 'monoclinic'
loop_
_space_group_symop_operation_xyz
x,y,z
-x,y,-z
-x,-y,-z
x,-y,z
loop_
_atom_site_type_symbol
_atom_site_label
_atom_site_fract_x
_atom_site_fract_y
_atom_site_fract_z
Si Si1 0.209841 0.201163 0.284170
Si Si2 0.956358 0.203031 0.747289
Si Si3 0.550253 0.000000 0.757389
Si Si4 0.586305 0.322005 0.548219
Si Si5 0.701127 0.200707 0.199182
O O1 0.126961 0.259131 0.260711
O O2 0.246062 0.238543 0.557111
O O3 0.208225 0.000000 0.263919
O O4 0.258552 0.259600 0.051182
O O5 0.000000 0.255106 0.500000
O O6 0.954933 0.000000 0.747138
O O7 0.000000 0.255337 0.000000
O O8 0.500000 0.000000 0.500000
O O9 0.597742 0.164726 0.731941
O O10 0.500000 0.000000 0.000000
O O11 0.500000 0.331169 0.500000
O O12 0.610491 0.500000 0.649317
O O13 0.626211 0.282551 0.286137
O O14 0.690495 0.000000 0.190298
#
# Coordination Sequence:
#
# PCOD9146824 Si02
#       5
#     4   4   2   4   4
#     4   9  18  30  48  75 109 150 191 232 287 345
#     4   9  15  24  41  68 105 145 183 228 279 333
#     4  10  22  40  62  86 116 150 188 240 300 350
#     4  10  22  41  63  89 118 154 202 252 298 353
#     4  10  19  34  53  76 110 150 190 237 289 345
#
# _framework density 23.079028000000001
#
# number of rings (size 3 to 8) (size 9 to 14) (size 15 to 20)
#    0.000    2.444    1.111    1.333    0.000    9.333 
#    0.000    5.556    0.000    0.000    0.000    0.000 
#    0.000   17.778    0.000    0.000    0.000    0.000 
#
# Total GULP energy -100676.397518 kJ/mol
# GULP energy per Si atom -5593.133195 kJ/mol
# Density = 2.302650 g / cm^3
# Si number density = 23.079028 Si / 1000 Ang^3
#
#
#
# Elastic Constant Matrix: (Units=GPa)
#
#
# Indices 1 2 3 4 5 6 
#
# 1 176.3613 5.5663 75.3352 0.0000 -22.4573 0.0000
# 2 5.5663 100.6996 28.5919 0.0000 -11.2642 0.0000
# 3 75.3352 28.5919 170.1300 0.0000 -22.1848 0.0000
# 4 0.0000 0.0000 0.0000 1.1040 0.0000 8.0111
# 5 -22.4573 -11.2642 -22.1848 0.0000 41.3709 0.0000
# 6 0.0000 0.0000 0.0000 8.0111 0.0000 -15.8786
#
#
#
# Elastic Compliance Matrix: (Units=1/GPa)
#
#
# Indices 1 2 3 4 5 6 
#
# 1 0.007252 0.000735 -0.003006 0.000000 0.002525 0.000000
# 2 0.000735 0.010666 -0.001814 0.000000 0.002330 0.000000
# 3 -0.003006 -0.001814 0.007781 0.000000 0.002047 0.000000
# 4 0.000000 0.000000 0.000000 0.194333 0.000000 0.098045
# 5 0.002525 0.002330 0.002047 0.000000 0.027274 0.000000
# 6 0.000000 0.000000 0.000000 0.098045 0.000000 -0.013512
#
#
# Mechanical properties :
#
#
# Convention : Reuss Voigt Hill
#
# Bulk Modulus (GPa) = 57.04798 74.01975 65.53386
# Shear Modulus (GPa) = 20.17700 27.83243 24.00472
#
# Velocity S-wave (km/s) = 2.95999 3.47646 3.22857
# Velocity P-wave (km/s) = 6.03774 6.94668 6.50809
#
# Compressibility (1/GPa) = 0.01752911
#
# Stress axis : x y z
#
# Youngs Moduli (GPa) = 137.88437 93.75918 128.52516
#
# Poissons Ratio (x) = -0.06891 0.38631
# Poissons Ratio (y) = -0.10134 0.23315
# Poissons Ratio (z) = 0.41444 0.17009
#
# Static dielectric constant tensor:
#      x y z
#    x 1.813610 0.000000 0.002860 
#    y 0.000000 1.901900 0.000000 
#    z 0.002860 0.000000 1.828350 
# 
# From -- ./inp_files/10549.got.cif
#   From: 2010.05.17/outbox.cif.g08.bks.cpg/sg10_6_cif.got.tgz:10549.got - 2010.06.03 11:33:40.
