data_PCOD9146807
_publ_section_title
;
Structure prediction by ZEFSAII (Michael W. Deem and Ramdas Pophale) SiO2 
 PCOD9146807
Probable space group: P 2/M
;
_chemical_formula_sum "Si O2"
_cell_formula_units_Z 32
_cell_length_a 15.295577
_cell_length_b 8.745109
_cell_length_c 36.812632
_cell_angle_alpha 90.000000
_cell_angle_beta 24.222114
_cell_angle_gamma 90.000000
_cell_volume 2020.240462
_symmetry_space_group_name_H-M "P 2/M"
_symmetry_group_IT_number 10
_symmetry_cell_setting 'monoclinic'
loop_
_space_group_symop_operation_xyz
x,y,z
-x,y,-z
-x,-y,-z
x,-y,z
loop_
_atom_site_type_symbol
_atom_site_label
_atom_site_fract_x
_atom_site_fract_y
_atom_site_fract_z
Si Si1 0.690552 0.183756 0.589152
Si Si2 0.487037 0.683064 0.059830
Si Si3 0.130481 0.818406 0.874127
Si Si4 0.324318 0.316854 0.934557
Si Si5 0.481701 0.317797 0.794953
Si Si6 0.845286 0.816484 0.612032
Si Si7 0.167926 0.817509 0.126668
Si Si8 0.764652 0.318410 0.244629
O O1 0.738383 0.220278 0.613403
O O2 0.477676 0.266433 0.657302
O O3 0.905792 0.224024 0.485905
O O4 0.662289 0.000000 0.597831
O O5 0.481784 0.500000 0.057032
O O6 0.531202 0.717854 0.085111
O O7 0.276043 0.755832 0.122461
O O8 0.826991 0.738844 0.180636
O O9 0.308329 0.764300 0.835195
O O10 0.683134 0.749527 0.961925
O O11 0.142115 0.000000 0.864717
O O12 0.899366 0.768743 0.976097
O O13 0.281645 0.500000 0.951200
O O14 0.434472 0.279271 0.854692
O O15 0.458924 0.500000 0.799175
O O16 0.711991 0.265445 0.693605
O O17 0.831072 0.000000 0.621687
O O18 0.931075 0.758758 0.209022
O O19 0.177836 0.000000 0.121671
O O20 0.785515 0.500000 0.238417
#
# Coordination Sequence:
#
# PCOD9146807 Si02
#       8
#     4   4   4   4   4   4   4   4
#     4   9  18  33  52  74 101 131 165 207 255 300
#     4  10  19  34  53  72  98 134 170 208 252 298
#     4  12  23  34  49  71 101 137 177 214 247 291
#     4  10  22  37  52  71 101 138 174 211 251 292
#     4  11  22  35  51  73 102 137 175 212 248 294
#     4   9  18  33  52  73 100 133 167 208 253 297
#     4  11  21  33  51  75 102 130 164 209 255 301
#     4  12  22  33  51  76 103 135 169 205 252 307
#
# _framework density 15.839698
#
# number of rings (size 3 to 8) (size 9 to 14) (size 15 to 20)
#    0.000    1.500    2.500    6.000    0.000    3.500 
#    0.000    1.250    0.000    0.000    0.000    0.875 
#    0.000    7.000    0.000    0.000    0.000    0.000 
#
# Total GULP energy -178739.921672 kJ/mol
# GULP energy per Si atom -5585.622552 kJ/mol
# Density = 1.580365 g / cm^3
# Si number density = 15.839698 Si / 1000 Ang^3
#
#
#
# Elastic Constant Matrix: (Units=GPa)
#
#
# Indices 1 2 3 4 5 6 
#
# 1 72.2893 40.3127 54.1762 0.0000 -11.0804 0.0000
# 2 40.3127 78.4361 45.2289 0.0000 -8.8406 0.0000
# 3 54.1762 45.2289 102.8919 0.0000 -12.8869 0.0000
# 4 0.0000 0.0000 0.0000 27.2160 0.0000 -12.9463
# 5 -11.0804 -8.8406 -12.8869 0.0000 23.6937 0.0000
# 6 0.0000 0.0000 0.0000 -12.9463 0.0000 4.6353
#
#
#
# Elastic Compliance Matrix: (Units=1/GPa)
#
#
# Indices 1 2 3 4 5 6 
#
# 1 0.025915 -0.007084 -0.010028 0.000000 0.004022 0.000000
# 2 -0.007084 0.019149 -0.004515 0.000000 0.001376 0.000000
# 3 -0.010028 -0.004515 0.017368 0.000000 0.003072 0.000000
# 4 0.000000 0.000000 0.000000 -0.111817 0.000000 -0.312307
# 5 0.004022 0.001376 0.003072 0.000000 0.046271 0.000000
# 6 0.000000 0.000000 0.000000 -0.312307 0.000000 -0.656539
#
#
# Mechanical properties :
#
#
# Convention : Reuss Voigt Hill
#
# Bulk Modulus (GPa) = 52.13942 59.22810 55.68376
# Shear Modulus (GPa) = -8.19662 18.70229 5.25283
#
# Velocity S-wave (km/s) = -2.27727 3.43989 1.82303
# Velocity P-wave (km/s) = 5.10625 7.29729 6.29779
#
# Compressibility (1/GPa) = 0.01917934
#
# Stress axis : x y z
#
# Youngs Moduli (GPa) = 38.58743 52.22316 57.57568
#
# Poissons Ratio (x) = 0.36993 0.57735
# Poissons Ratio (y) = 0.27334 0.25996
# Poissons Ratio (z) = 0.38694 0.23580
#
# Static dielectric constant tensor:
#      x y z
#    x 1.519200 0.000000 -0.009690 
#    y 0.000000 1.530080 0.000000 
#    z -0.009690 0.000000 1.521160 
# 
# From -- ./inp_files/95010.got.cif
#   From: 2010.05.17/outbox.cif.g08.bks.cpg/sg10_48_cif.got.tgz:95010.got - 2010.06.03 11:33:40.
