data_PCOD9146415
_publ_section_title
;
Structure prediction by ZEFSAII (Michael W. Deem and Ramdas Pophale) SiO2 
 PCOD9146415
Probable space group: P 2/M
;
_chemical_formula_sum "Si O2"
_cell_formula_units_Z 28
_cell_length_a 19.624972
_cell_length_b 8.640083
_cell_length_c 23.694165
_cell_angle_alpha 90.000000
_cell_angle_beta 22.667313
_cell_angle_gamma 90.000000
_cell_volume 1548.307350
_symmetry_space_group_name_H-M "P 2/M"
_symmetry_group_IT_number 10
_symmetry_cell_setting 'monoclinic'
loop_
_space_group_symop_operation_xyz
x,y,z
-x,y,-z
-x,-y,-z
x,-y,z
loop_
_atom_site_type_symbol
_atom_site_label
_atom_site_fract_x
_atom_site_fract_y
_atom_site_fract_z
Si Si1 0.310414 0.186691 0.123486
Si Si2 0.754660 0.314808 0.524967
Si Si3 0.539844 0.816188 0.594193
Si Si4 0.990177 0.313000 0.443137
Si Si5 0.137444 0.685480 0.727355
Si Si6 0.829735 0.313077 0.166895
Si Si7 0.922440 0.814318 0.797373
O O1 0.255279 0.226886 0.101154
O O2 0.157199 0.249692 0.281083
O O3 0.308777 0.000000 0.128049
O O4 0.500000 0.243017 0.000000
O O5 0.739643 0.500000 0.533242
O O6 0.589162 0.240310 0.619668
O O7 0.812537 0.269649 0.544094
O O8 0.921319 0.258557 0.360120
O O9 0.688866 0.746943 0.438133
O O10 0.348874 0.758912 0.720953
O O11 0.552196 0.000000 0.582394
O O12 0.998314 0.500000 0.436303
O O13 0.000000 0.259324 0.500000
O O14 0.136796 0.500000 0.723850
O O15 0.145288 0.730932 0.786726
O O16 0.965332 0.750255 0.826356
O O17 0.813257 0.500000 0.177282
O O18 0.000000 0.268303 0.000000
O O19 0.940355 0.000000 0.784185
#
# Coordination Sequence:
#
# PCOD9146415 Si02
#       7
#     4   4   4   4   4   4   4
#     4   9  18  32  49  71 100 134 168 201 243 295
#     4   9  16  29  50  72  98 130 164 204 246 288
#     4  11  21  33  53  79 103 127 162 206 246 289
#     4   9  18  32  50  74 101 129 165 208 249 288
#     4  10  19  33  55  78  98 125 165 207 245 291
#     4  10  22  39  55  72  99 134 166 198 243 296
#     4   9  16  28  48  72  99 128 162 206 248 286
#
# _framework density 18.084264000000001
#
# number of rings (size 3 to 8) (size 9 to 14) (size 15 to 20)
#    0.000    2.429    0.000    4.714    0.000    4.857 
#    0.000    1.429    0.000    5.143    0.000    0.000 
#    0.000    0.000    0.000    0.000    0.000    0.000 
#
# Total GULP energy -156061.449265 kJ/mol
# GULP energy per Si atom -5573.623188 kJ/mol
# Density = 1.804310 g / cm^3
# Si number density = 18.084264 Si / 1000 Ang^3
#
#
#
# Elastic Constant Matrix: (Units=GPa)
#
#
# Indices 1 2 3 4 5 6 
#
# 1 198.2598 40.1119 78.3914 0.0000 -33.3786 0.0000
# 2 40.1119 31.8926 24.6025 0.0000 -8.3405 0.0000
# 3 78.3914 24.6025 73.8462 0.0000 -22.8829 0.0000
# 4 0.0000 0.0000 0.0000 22.4664 0.0000 -5.0463
# 5 -33.3786 -8.3405 -22.8829 0.0000 29.0086 0.0000
# 6 0.0000 0.0000 0.0000 -5.0463 0.0000 20.8664
#
#
#
# Elastic Compliance Matrix: (Units=1/GPa)
#
#
# Indices 1 2 3 4 5 6 
#
# 1 0.009676 -0.005599 -0.007220 0.000000 0.003829 0.000000
# 2 -0.005599 0.045483 -0.009468 0.000000 -0.000834 0.000000
# 3 -0.007220 -0.009468 0.027717 0.000000 0.010835 0.000000
# 4 0.000000 0.000000 0.000000 0.047068 0.000000 0.011383
# 5 0.003829 -0.000834 0.010835 0.000000 0.047185 0.000000
# 6 0.000000 0.000000 0.000000 0.011383 0.000000 0.050677
#
#
# Mechanical properties :
#
#
# Convention : Reuss Voigt Hill
#
# Bulk Modulus (GPa) = 26.10749 65.57892 45.84320
# Shear Modulus (GPa) = 17.53488 25.19448 21.36468
#
# Velocity S-wave (km/s) = 3.11725 3.73657 3.44087
# Velocity P-wave (km/s) = 5.23682 7.41334 6.41802
#
# Compressibility (1/GPa) = 0.03830319
#
# Stress axis : x y z
#
# Youngs Moduli (GPa) = 103.34971 21.98637 36.07831
#
# Poissons Ratio (x) = 0.12310 0.26048
# Poissons Ratio (y) = 0.57864 0.34158
# Poissons Ratio (z) = 0.74616 0.20816
#
# Static dielectric constant tensor:
#      x y z
#    x 1.677390 0.000000 -0.022200 
#    y 0.000000 1.607840 0.000000 
#    z -0.022200 0.000000 1.598360 
# 
# From -- ./inp_files/93519.got.cif
#   From: 2010.05.17/outbox.cif.g08.bks.cpg/sg10_47_cif.got.tgz:93519.got - 2010.06.03 11:33:40.
