data_PCOD9146577
_publ_section_title
;
Structure prediction by ZEFSAII (Michael W. Deem and Ramdas Pophale) SiO2 
 PCOD9146577
Probable space group: P 2/M
;
_chemical_formula_sum "Si O2"
_cell_formula_units_Z 20
_cell_length_a 13.987254
_cell_length_b 7.525054
_cell_length_c 18.979935
_cell_angle_alpha 90.000000
_cell_angle_beta 152.591193
_cell_angle_gamma 90.000000
_cell_volume 919.627554
_symmetry_space_group_name_H-M "P 2/M"
_symmetry_group_IT_number 10
_symmetry_cell_setting 'monoclinic'
loop_
_space_group_symop_operation_xyz
x,y,z
-x,y,-z
-x,-y,-z
x,-y,z
loop_
_atom_site_type_symbol
_atom_site_label
_atom_site_fract_x
_atom_site_fract_y
_atom_site_fract_z
Si Si1 0.669655 0.782491 0.167999
Si Si2 0.475190 0.782576 0.771154
Si Si3 0.940167 0.215127 0.039257
Si Si4 0.277162 0.291908 0.378840
Si Si5 0.130446 0.206619 0.437242
O O1 0.602511 0.730185 0.202451
O O2 0.900904 0.718777 0.300359
O O3 0.670148 0.000000 0.166380
O O4 0.500000 0.724165 0.000000
O O5 0.313052 0.719484 0.605931
O O6 0.480411 0.000000 0.773023
O O7 0.709623 0.723788 0.909094
O O8 0.109954 0.269584 0.207705
O O9 0.938527 0.000000 0.037524
O O10 0.000000 0.275412 0.000000
O O11 0.500000 0.217689 0.500000
O O12 0.306657 0.500000 0.412468
O O13 0.193704 0.214145 0.397171
O O14 0.114613 0.000000 0.447480
#
# Coordination Sequence:
#
# PCOD9146577 Si02
#       5
#     4   4   4   4   4
#     4   9  16  27  48  80 113 141 171 212 263 314
#     4   9  17  30  51  82 113 138 171 217 267 314
#     4  10  20  35  57  83 108 136 175 221 263 308
#     4  11  24  39  54  75 106 142 177 215 264 320
#     4  10  19  33  56  81 106 139 178 220 261 306
#
# _framework density 21.747933
#
# number of rings (size 3 to 8) (size 9 to 14) (size 15 to 20)
#    0.000    2.200    0.000    3.600    0.000    9.200 
#    0.000    1.000    0.000    7.800    0.000    0.000 
#    0.000    0.000    0.000    0.000    0.000    0.000 
#
# Total GULP energy -111799.869476 kJ/mol
# GULP energy per Si atom -5589.993474 kJ/mol
# Density = 2.169843 g / cm^3
# Si number density = 21.747933 Si / 1000 Ang^3
#
#
#
# Elastic Constant Matrix: (Units=GPa)
#
#
# Indices 1 2 3 4 5 6 
#
# 1 184.6321 -14.6387 119.8333 0.0000 13.5550 0.0000
# 2 -14.6387 52.0697 -7.5391 0.0000 6.6432 0.0000
# 3 119.8333 -7.5391 229.9420 0.0000 12.6737 0.0000
# 4 0.0000 0.0000 0.0000 -7.6782 0.0000 7.3029
# 5 13.5550 6.6432 12.6737 0.0000 51.0511 0.0000
# 6 0.0000 0.0000 0.0000 7.3029 0.0000 -33.7624
#
#
#
# Elastic Compliance Matrix: (Units=1/GPa)
#
#
# Indices 1 2 3 4 5 6 
#
# 1 0.008436 0.001939 -0.004254 0.000000 -0.001436 0.000000
# 2 0.001939 0.020118 -0.000181 0.000000 -0.003088 0.000000
# 3 -0.004254 -0.000181 0.006586 0.000000 -0.000482 0.000000
# 4 0.000000 0.000000 0.000000 -0.163974 0.000000 -0.035468
# 5 -0.001436 -0.003088 -0.000482 0.000000 0.020491 0.000000
# 6 0.000000 0.000000 0.000000 -0.035468 0.000000 -0.037291
#
#
# Mechanical properties :
#
#
# Convention : Reuss Voigt Hill
#
# Bulk Modulus (GPa) = 33.16780 73.55055 53.35918
# Shear Modulus (GPa) = -38.28718 26.52133 -5.88293
#
# Velocity S-wave (km/s) = -4.20038 3.49590 -1.64649
# Velocity P-wave (km/s) = 2.87056 7.08436 4.57974
#
# Compressibility (1/GPa) = 0.03014972
#
# Stress axis : x y z
#
# Youngs Moduli (GPa) = 118.53661 49.70684 151.82809
#
# Poissons Ratio (x) = -0.09639 0.64584
# Poissons Ratio (y) = -0.22985 0.02744
# Poissons Ratio (z) = 0.50423 0.00898
#
# Static dielectric constant tensor:
#      x y z
#    x 1.727050 0.000000 0.020480 
#    y 0.000000 1.826410 0.000000 
#    z 0.020480 0.000000 1.752080 
# 
# From -- ./inp_files/22141.got.cif
#   From: 2010.05.17/outbox.cif.g08.bks.cpg/sg10_12_cif.got.tgz:22141.got - 2010.06.03 11:33:40.
