data_PCOD9146927
_publ_section_title
;
Structure prediction by ZEFSAII (Michael W. Deem and Ramdas Pophale) SiO2 
 PCOD9146927
Probable space group: P 2/M
;
_chemical_formula_sum "Si O2"
_cell_formula_units_Z 28
_cell_length_a 10.358134
_cell_length_b 7.459300
_cell_length_c 28.310574
_cell_angle_alpha 90.000000
_cell_angle_beta 144.616764
_cell_angle_gamma 90.000000
_cell_volume 1266.598089
_symmetry_space_group_name_H-M "P 2/M"
_symmetry_group_IT_number 10
_symmetry_cell_setting 'monoclinic'
loop_
_space_group_symop_operation_xyz
x,y,z
-x,y,-z
-x,-y,-z
x,-y,z
loop_
_atom_site_type_symbol
_atom_site_label
_atom_site_fract_x
_atom_site_fract_y
_atom_site_fract_z
Si Si1 0.131294 0.719170 0.492062
Si Si2 0.512272 0.283369 0.057381
Si Si3 0.628218 0.706188 0.652436
Si Si4 0.312491 0.207403 0.221937
Si Si5 0.098373 0.719778 0.758158
Si Si6 0.224947 0.282974 0.691127
Si Si7 0.964525 0.210917 0.041942
O O1 0.137153 0.500000 0.494887
O O2 0.385405 0.784753 0.568968
O O3 0.000000 0.775216 0.500000
O O4 0.984928 0.772170 0.403475
O O5 0.517355 0.500000 0.057845
O O6 0.732151 0.222661 0.150418
O O7 0.500000 0.218727 0.000000
O O8 0.290385 0.229867 0.018951
O O9 0.617173 0.500000 0.632978
O O10 0.664117 0.706483 0.719667
O O11 0.848367 0.783861 0.693924
O O12 0.546881 0.218870 0.264492
O O13 0.123786 0.285228 0.130802
O O14 0.258243 0.000000 0.215303
O O15 0.094811 0.500000 0.757736
O O16 0.190745 0.774438 0.734745
O O17 0.234248 0.500000 0.693165
O O18 0.023610 0.000000 0.056835
O O19 0.000000 0.286724 0.000000
#
# Coordination Sequence:
#
# PCOD9146927 Si02
#       7
#     4   4   4   4   4   4   4
#     4   9  16  29  52  82 106 133 175 214 254 307
#     4  10  20  35  54  78 108 138 175 217 259 314
#     4  10  19  35  57  78 107 140 172 213 260 308
#     4  11  22  35  53  79 105 135 179 219 259 312
#     4   9  19  33  53  82 107 136 176 216 262 310
#     4  10  19  34  55  78 108 139 174 218 260 309
#     4  10  22  38  54  75 104 137 176 220 263 311
#
# _framework density 22.106459999999998
#
# number of rings (size 3 to 8) (size 9 to 14) (size 15 to 20)
#    0.000    2.143    1.429    2.143    0.000    3.429 
#    0.000    5.714    0.000    0.000    0.000    2.000 
#    0.000    0.000    0.000    0.000    0.000    0.000 
#
# Total GULP energy -156512.051374 kJ/mol
# GULP energy per Si atom -5589.716120 kJ/mol
# Density = 2.205614 g / cm^3
# Si number density = 22.106460 Si / 1000 Ang^3
#
#
#
# Elastic Constant Matrix: (Units=GPa)
#
#
# Indices 1 2 3 4 5 6 
#
# 1 73.9179 -16.4934 -15.9001 0.0000 6.4819 0.0000
# 2 -16.4934 63.3950 -3.9063 0.0000 -6.5589 0.0000
# 3 -15.9001 -3.9063 81.9028 0.0000 10.7919 0.0000
# 4 0.0000 0.0000 0.0000 -1.2290 0.0000 -2.0591
# 5 6.4819 -6.5589 10.7919 0.0000 39.0839 0.0000
# 6 0.0000 0.0000 0.0000 -2.0591 0.0000 -18.8668
#
#
#
# Elastic Compliance Matrix: (Units=1/GPa)
#
#
# Indices 1 2 3 4 5 6 
#
# 1 0.015425 0.003935 0.003562 0.000000 -0.002881 0.000000
# 2 0.003935 0.017071 0.001335 0.000000 0.001844 0.000000
# 3 0.003562 0.001335 0.013504 0.000000 -0.004096 0.000000
# 4 0.000000 0.000000 0.000000 -0.995719 0.000000 0.108674
# 5 -0.002881 0.001844 -0.004096 0.000000 0.027504 0.000000
# 6 0.000000 0.000000 0.000000 0.108674 0.000000 -0.064864
#
#
# Mechanical properties :
#
#
# Convention : Reuss Voigt Hill
#
# Bulk Modulus (GPa) = 15.70759 16.29069 15.99914
# Shear Modulus (GPa) = -5.08378 20.83199 7.87411
#
# Velocity S-wave (km/s) = -1.51811 3.07310 1.88935
# Velocity P-wave (km/s) = 2.01195 4.46958 3.46591
#
# Compressibility (1/GPa) = 0.06366349
#
# Stress axis : x y z
#
# Youngs Moduli (GPa) = 64.82862 58.57969 74.04996
#
# Poissons Ratio (x) = -0.23048 -0.26376
# Poissons Ratio (y) = -0.25507 -0.09886
# Poissons Ratio (z) = -0.23091 -0.07821
#
# Static dielectric constant tensor:
#      x y z
#    x 1.745300 0.000000 -0.009490 
#    y 0.000000 1.266720 0.000000 
#    z -0.009490 0.000000 1.784250 
# 
# From -- ./inp_files/28196.got.cif
#   From: 2010.05.17/outbox.cif.g08.bks.cpg/sg10_15_cif.got.tgz:28196.got - 2010.06.03 11:33:40.
