data_PCOD9146930
_publ_section_title
;
Structure prediction by ZEFSAII (Michael W. Deem and Ramdas Pophale) SiO2 
 PCOD9146930
Probable space group: P 2/M
;
_chemical_formula_sum "Si O2"
_cell_formula_units_Z 22
_cell_length_a 10.208138
_cell_length_b 13.011605
_cell_length_c 11.518528
_cell_angle_alpha 90.000000
_cell_angle_beta 127.870710
_cell_angle_gamma 90.000000
_cell_volume 1207.731551
_symmetry_space_group_name_H-M "P 2/M"
_symmetry_group_IT_number 10
_symmetry_cell_setting 'monoclinic'
loop_
_space_group_symop_operation_xyz
x,y,z
-x,y,-z
-x,-y,-z
x,-y,z
loop_
_atom_site_type_symbol
_atom_site_label
_atom_site_fract_x
_atom_site_fract_y
_atom_site_fract_z
Si Si1 0.158365 0.337196 0.877276
Si Si2 0.244104 0.886950 0.945968
Si Si3 0.872229 0.500000 0.764259
Si Si4 0.304352 0.500000 0.561098
Si Si5 0.389335 0.112126 0.761961
Si Si6 0.661467 0.500000 0.878048
Si Si7 0.184707 0.699661 0.620568
O O1 0.200206 0.334239 0.763285
O O2 0.991591 0.402201 0.807194
O O3 0.145373 0.218583 0.909738
O O4 0.302510 0.399711 0.023362
O O5 0.414213 0.879908 0.111628
O O6 0.167480 0.000000 0.926199
O O7 0.305679 0.886942 0.845034
O O8 0.720805 0.500000 0.590613
O O9 0.800428 0.500000 0.853661
O O10 0.485282 0.500000 0.718337
O O11 0.211483 0.600365 0.557514
O O12 0.314435 0.211301 0.660641
O O13 0.351915 0.000000 0.689321
O O14 0.000000 0.741195 0.500000
#
# Coordination Sequence:
#
# PCOD9146930 Si02
#       7
#     4   4   2   2   4   2   4
#     4  10  19  34  55  79 102 134 166 209 255 298
#     4   8  14  27  48  75 104 131 162 203 246 296
#     4  11  22  39  53  69 104 136 170 217 254 293
#     4  12  22  36  52  75 104 135 168 207 264 305
#     4   8  15  27  44  71 108 140 163 190 238 306
#     4  11  24  36  55  74  93 136 184 213 241 303
#     4  11  20  31  51  76 110 137 159 207 261 309
#
# _framework density 18.215968
#
# number of rings (size 3 to 8) (size 9 to 14) (size 15 to 20)
#    0.000    2.182    1.818    4.909    0.000    3.273 
#    0.000    0.000    0.000    2.182    0.000    0.000 
#    0.000    7.273    0.000    0.000    0.000    0.000 
#
# Total GULP energy -122637.981852 kJ/mol
# GULP energy per Si atom -5574.453721 kJ/mol
# Density = 1.817451 g / cm^3
# Si number density = 18.215968 Si / 1000 Ang^3
#
#
#
# Elastic Constant Matrix: (Units=GPa)
#
#
# Indices 1 2 3 4 5 6 
#
# 1 20.4507 7.4203 3.7856 0.0000 -1.3158 0.0000
# 2 7.4203 142.7743 23.6356 0.0000 -1.0219 0.0000
# 3 3.7856 23.6356 76.4448 0.0000 3.0408 0.0000
# 4 0.0000 0.0000 0.0000 -39.9939 0.0000 -3.0258
# 5 -1.3158 -1.0219 3.0408 0.0000 22.4996 0.0000
# 6 0.0000 0.0000 0.0000 -3.0258 0.0000 -0.9814
#
#
#
# Elastic Compliance Matrix: (Units=1/GPa)
#
#
# Indices 1 2 3 4 5 6 
#
# 1 0.050276 -0.002275 -0.001910 0.000000 0.003095 0.000000
# 2 -0.002275 0.007494 -0.002225 0.000000 0.000508 0.000000
# 3 -0.001910 -0.002225 0.013947 0.000000 -0.002098 0.000000
# 4 0.000000 0.000000 0.000000 -0.032611 0.000000 0.100543
# 5 0.003095 0.000508 -0.002098 0.000000 0.044933 0.000000
# 6 0.000000 0.000000 0.000000 0.100543 0.000000 -1.328945
#
#
# Mechanical properties :
#
#
# Convention : Reuss Voigt Hill
#
# Bulk Modulus (GPa) = 16.97807 34.37255 25.67531
# Shear Modulus (GPa) = -4.12386 9.96010 2.91812
#
# Velocity S-wave (km/s) = -1.50625 2.34087 1.26706
# Velocity P-wave (km/s) = 2.51309 5.12022 4.03313
#
# Compressibility (1/GPa) = 0.05889953
#
# Stress axis : x y z
#
# Youngs Moduli (GPa) = 19.89024 133.43658 71.69922
#
# Poissons Ratio (x) = 0.30353 0.13691
# Poissons Ratio (y) = 0.04524 0.15951
# Poissons Ratio (z) = 0.03798 0.29685
#
# Static dielectric constant tensor:
#      x y z
#    x 1.593360 0.000000 0.018330 
#    y 0.000000 1.658280 0.000000 
#    z 0.018330 0.000000 1.638920 
# 
# From -- ./inp_files/46276.got.cif
#   From: 2010.05.17/outbox.cif.g08.bks.cpg/sg10_24_cif.got.tgz:46276.got - 2010.06.03 11:33:40.
