data_PCOD9146865
_publ_section_title
;
Structure prediction by ZEFSAII (Michael W. Deem and Ramdas Pophale) SiO2 
 PCOD9146865
Probable space group: P 2/M
;
_chemical_formula_sum "Si O2"
_cell_formula_units_Z 28
_cell_length_a 9.782734
_cell_length_b 15.018010
_cell_length_c 13.199208
_cell_angle_alpha 90.000000
_cell_angle_beta 120.387295
_cell_angle_gamma 90.000000
_cell_volume 1672.795992
_symmetry_space_group_name_H-M "P 2/M"
_symmetry_group_IT_number 10
_symmetry_cell_setting 'monoclinic'
loop_
_space_group_symop_operation_xyz
x,y,z
-x,y,-z
-x,-y,-z
x,-y,z
loop_
_atom_site_type_symbol
_atom_site_label
_atom_site_fract_x
_atom_site_fract_y
_atom_site_fract_z
Si Si1 0.813193 0.792098 0.956510
Si Si2 0.741589 0.208963 0.170483
Si Si3 0.369977 0.108213 0.530988
Si Si4 0.814649 0.595035 0.953450
Si Si5 0.016283 0.896750 0.384706
Si Si6 0.508782 0.106122 0.801241
Si Si7 0.327190 0.597331 0.883137
O O1 0.759360 0.692942 0.899162
O O2 0.691063 0.863035 0.865110
O O3 0.783699 0.795005 0.066895
O O4 0.000000 0.804676 0.000000
O O5 0.584568 0.155014 0.143436
O O6 0.712068 0.312156 0.189035
O O7 0.885540 0.163823 0.284061
O O8 0.500000 0.139089 0.500000
O O9 0.194662 0.135685 0.432356
O O10 0.419472 0.132188 0.663549
O O11 0.367171 0.000000 0.528894
O O12 0.744938 0.500000 0.889630
O O13 0.789835 0.594345 0.064775
O O14 0.000000 0.593861 0.000000
O O15 0.000000 0.896943 0.500000
O O16 0.996659 0.000000 0.343644
O O17 0.498228 0.000000 0.809287
O O18 0.322842 0.500000 0.830126
O O19 0.500000 0.607086 0.000000
#
# Coordination Sequence:
#
# PCOD9146865 Si02
#       7
#     4   4   4   4   4   4   4
#     4  10  22  34  47  76 107 133 168 205 253 313
#     4  11  20  33  54  76 103 135 169 208 255 306
#     4   9  19  35  54  73  93 124 171 219 254 287
#     4   8  14  28  48  67  93 125 158 200 243 289
#     4  10  19  34  54  76  97 127 175 217 249 295
#     4  11  22  36  51  70 102 139 170 205 252 307
#     4   9  17  30  49  74 102 131 166 206 249 299
#
# _framework density 16.738444000000001
#
# number of rings (size 3 to 8) (size 9 to 14) (size 15 to 20)
#    0.000    2.286    1.429    2.571    2.000    2.000 
#    0.000    0.000    0.000    0.429    0.000    0.000 
#    0.000    2.857    0.000    0.000    0.000    0.000 
#
# Total GULP energy -155880.614943 kJ/mol
# GULP energy per Si atom -5567.164819 kJ/mol
# Density = 1.670035 g / cm^3
# Si number density = 16.738444 Si / 1000 Ang^3
#
#
#
# Elastic Constant Matrix: (Units=GPa)
#
#
# Indices 1 2 3 4 5 6 
#
# 1 105.7444 42.7604 24.4007 0.0000 5.2057 0.0000
# 2 42.7604 118.5406 35.4435 0.0000 13.7731 0.0000
# 3 24.4007 35.4435 48.8210 0.0000 12.8771 0.0000
# 4 0.0000 0.0000 0.0000 1.4881 0.0000 -1.5900
# 5 5.2057 13.7731 12.8771 0.0000 25.5730 0.0000
# 6 0.0000 0.0000 0.0000 -1.5900 0.0000 21.7906
#
#
#
# Elastic Compliance Matrix: (Units=1/GPa)
#
#
# Indices 1 2 3 4 5 6 
#
# 1 0.011558 -0.003180 -0.003804 0.000000 0.001276 0.000000
# 2 -0.003180 0.011753 -0.006278 0.000000 -0.002521 0.000000
# 3 -0.003804 -0.006278 0.029805 0.000000 -0.010852 0.000000
# 4 0.000000 0.000000 0.000000 0.728803 0.000000 0.053179
# 5 0.001276 -0.002521 -0.010852 0.000000 0.045667 0.000000
# 6 0.000000 0.000000 0.000000 0.053179 0.000000 0.049772
#
#
# Mechanical properties :
#
#
# Convention : Reuss Voigt Hill
#
# Bulk Modulus (GPa) = 37.60751 53.14612 45.37681
# Shear Modulus (GPa) = 5.47798 21.13711 13.30754
#
# Velocity S-wave (km/s) = 1.81102 3.55743 2.82268
# Velocity P-wave (km/s) = 5.18552 6.97808 6.14749
#
# Compressibility (1/GPa) = 0.02659043
#
# Stress axis : x y z
#
# Youngs Moduli (GPa) = 86.52249 85.08370 33.55157
#
# Poissons Ratio (x) = 0.27055 0.12765
# Poissons Ratio (y) = 0.27512 0.21065
# Poissons Ratio (z) = 0.32917 0.53419
#
# Static dielectric constant tensor:
#      x y z
#    x 1.599890 0.000000 -0.007700 
#    y 0.000000 1.616180 0.000000 
#    z -0.007700 0.000000 1.536480 
# 
# From -- ./inp_files/29595.got.cif
#   From: 2010.05.17/outbox.cif.g08.bks.cpg/sg10_15_cif.got.tgz:29595.got - 2010.06.03 11:33:40.
