data_PCOD9146299
_publ_section_title
;
Structure prediction by ZEFSAII (Michael W. Deem and Ramdas Pophale) SiO2 
 PCOD9146299
Probable space group: P 2/M
;
_chemical_formula_sum "Si O2"
_cell_formula_units_Z 26
_cell_length_a 9.426358
_cell_length_b 13.081486
_cell_length_c 14.260922
_cell_angle_alpha 90.000000
_cell_angle_beta 35.942803
_cell_angle_gamma 90.000000
_cell_volume 1032.214484
_symmetry_space_group_name_H-M "P 2/M"
_symmetry_group_IT_number 10
_symmetry_cell_setting 'monoclinic'
loop_
_space_group_symop_operation_xyz
x,y,z
-x,y,-z
-x,-y,-z
x,-y,z
loop_
_atom_site_type_symbol
_atom_site_label
_atom_site_fract_x
_atom_site_fract_y
_atom_site_fract_z
Si Si1 0.266367 0.736599 0.551190
Si Si2 0.162417 0.877147 0.206034
Si Si3 0.000000 0.138785 0.500000
Si Si4 0.391383 0.384581 0.318275
Si Si5 0.305054 0.762585 0.950133
Si Si6 0.524061 0.111392 0.311465
Si Si7 0.145781 0.385650 0.790746
O O1 0.208817 0.684422 0.478732
O O2 0.509214 0.799303 0.396410
O O3 0.242567 0.643577 0.635685
O O4 0.093256 0.824815 0.681582
O O5 0.162242 0.845312 0.316010
O O6 0.178439 0.000000 0.192755
O O7 0.316541 0.825927 0.039907
O O8 0.756587 0.102840 0.573015
O O9 0.310498 0.500000 0.343620
O O10 0.483650 0.321624 0.179806
O O11 0.629852 0.388843 0.257568
O O12 0.323490 0.843472 0.855712
O O13 0.061348 0.695449 0.075258
O O14 0.605960 0.000000 0.298834
O O15 0.039245 0.500000 0.847511
#
# Coordination Sequence:
#
# PCOD9146299 Si02
#       7
#     4   4   2   4   4   4   4
#     4   9  18  30  51  80 106 135 165 212 264 300
#     4  10  19  34  54  77 106 134 167 208 251 304
#     4  10  19  34  58  82  99 126 169 216 256 294
#     4  10  19  33  54  78 102 131 175 224 257 287
#     4  10  21  32  49  77 107 138 162 205 263 308
#     4  10  19  34  54  77 106 134 167 208 251 304
#     4  10  19  33  54  78 102 131 175 224 257 287
#
# _framework density 25.188562999999998
#
# number of rings (size 3 to 8) (size 9 to 14) (size 15 to 20)
#    0.000    2.154    0.000    5.077    0.000    3.077 
#    0.000    1.538    0.000   64.615    0.000  254.154 
#    0.000    0.000    0.000    0.000    0.000    0.000 
#
# Total GULP energy -144749.242168 kJ/mol
# GULP energy per Si atom -5567.278545 kJ/mol
# Density = 2.513123 g / cm^3
# Si number density = 25.188563 Si / 1000 Ang^3
#
#
#
# Elastic Constant Matrix: (Units=GPa)
#
#
# Indices 1 2 3 4 5 6 
#
# 1 56.6721 11.2872 20.7244 0.0000 13.0784 0.0000
# 2 11.2872 207.8716 66.1522 0.0000 12.4753 0.0000
# 3 20.7244 66.1522 184.3749 0.0000 44.2033 0.0000
# 4 0.0000 0.0000 0.0000 16.1203 0.0000 18.7407
# 5 13.0784 12.4753 44.2033 0.0000 39.6308 0.0000
# 6 0.0000 0.0000 0.0000 18.7407 0.0000 -1.5297
#
#
#
# Elastic Compliance Matrix: (Units=1/GPa)
#
#
# Indices 1 2 3 4 5 6 
#
# 1 0.019249 -0.000503 -0.000680 0.000000 -0.005435 0.000000
# 2 -0.000503 0.005456 -0.002087 0.000000 0.000776 0.000000
# 3 -0.000680 -0.002087 0.008242 0.000000 -0.008311 0.000000
# 4 0.000000 0.000000 0.000000 0.004070 0.000000 0.049859
# 5 -0.005435 0.000776 -0.008311 0.000000 0.036052 0.000000
# 6 0.000000 0.000000 0.000000 0.049859 0.000000 -0.042887
#
#
# Mechanical properties :
#
#
# Convention : Reuss Voigt Hill
#
# Bulk Modulus (GPa) = 37.87018 71.69403 54.78211
# Shear Modulus (GPa) = 109.83872 34.22794 72.03333
#
# Velocity S-wave (km/s) = 6.61069 3.69028 5.35348
# Velocity P-wave (km/s) = 8.56362 6.83244 7.74655
#
# Compressibility (1/GPa) = 0.02640600
#
# Stress axis : x y z
#
# Youngs Moduli (GPa) = 51.95208 183.30036 121.33668
#
# Poissons Ratio (x) = 0.09211 0.08254
# Poissons Ratio (y) = 0.02611 0.25323
# Poissons Ratio (z) = 0.03534 0.38255
#
# Static dielectric constant tensor:
#      x y z
#    x 2.118230 0.000000 -0.042200 
#    y 0.000000 2.065380 0.000000 
#    z -0.042200 0.000000 2.132210 
# 
# From -- ./inp_files/78022.got.cif
#   From: 2010.05.17/outbox.cif.g08.bks.cpg/sg10_40_cif.got.tgz:78022.got - 2010.06.03 11:33:40.
