data_PCOD9146448
_publ_section_title
;
Structure prediction by ZEFSAII (Michael W. Deem and Ramdas Pophale) SiO2 
 PCOD9146448
Probable space group: P 2/M
;
_chemical_formula_sum "Si O2"
_cell_formula_units_Z 32
_cell_length_a 10.224149
_cell_length_b 13.801605
_cell_length_c 29.829805
_cell_angle_alpha 90.000000
_cell_angle_beta 28.485711
_cell_angle_gamma 90.000000
_cell_volume 2007.569275
_symmetry_space_group_name_H-M "P 2/M"
_symmetry_group_IT_number 10
_symmetry_cell_setting 'monoclinic'
loop_
_space_group_symop_operation_xyz
x,y,z
-x,y,-z
-x,-y,-z
x,-y,z
loop_
_atom_site_type_symbol
_atom_site_label
_atom_site_fract_x
_atom_site_fract_y
_atom_site_fract_z
Si Si1 0.540299 0.887028 0.639662
Si Si2 0.810099 0.297719 0.262842
Si Si3 0.747159 0.382463 0.046643
Si Si4 0.990270 0.887042 0.577818
Si Si5 0.756470 0.385190 0.541056
Si Si6 0.799441 0.716025 0.431477
Si Si7 0.191933 0.613726 0.074024
Si Si8 0.877160 0.383052 0.745726
O O1 0.292968 0.812903 0.707209
O O2 0.717543 0.864227 0.631031
O O3 0.755219 0.876585 0.533736
O O4 0.459966 0.000000 0.665787
O O5 0.529407 0.358724 0.349794
O O6 0.988525 0.326117 0.166243
O O7 0.979031 0.329453 0.255878
O O8 0.754076 0.500000 0.044366
O O9 0.445507 0.357922 0.155557
O O10 0.792825 0.352418 0.981694
O O11 0.000000 0.347049 0.000000
O O12 0.048623 0.815587 0.601139
O O13 0.977325 0.000000 0.594626
O O14 0.782845 0.500000 0.528108
O O15 0.766049 0.338368 0.489062
O O16 0.000000 0.349423 0.500000
O O17 0.500000 0.732670 0.500000
O O18 0.976271 0.652810 0.343538
O O19 0.108921 0.500000 0.100514
O O20 0.500000 0.618690 0.000000
O O21 0.906465 0.500000 0.742010
#
# Coordination Sequence:
#
# PCOD9146448 Si02
#       8
#     4   4   4   4   4   4   4   4
#     4   9  18  34  56  79 105 138 179 232 280 320
#     4  12  20  33  57  80 105 142 186 223 270 328
#     4   9  19  35  52  74 104 136 177 227 269 309
#     4   9  18  35  55  75 105 143 183 228 276 316
#     4  11  23  35  48  74 113 149 183 219 255 316
#     4  12  22  33  51  78 110 150 181 217 262 326
#     4  10  19  33  55  80 104 137 181 227 270 316
#     4  11  22  35  52  76 111 151 183 217 267 323
#
# _framework density 15.939674
#
# number of rings (size 3 to 8) (size 9 to 14) (size 15 to 20)
#    0.000    1.625    3.750    3.000    0.000    2.750 
#    0.000    3.125    0.000    0.375    0.000    0.000 
#    0.000    3.500    0.000    0.000    0.000    0.000 
#
# Total GULP energy -178557.847374 kJ/mol
# GULP energy per Si atom -5579.932730 kJ/mol
# Density = 1.590339 g / cm^3
# Si number density = 15.939674 Si / 1000 Ang^3
#
#
#
# Elastic Constant Matrix: (Units=GPa)
#
#
# Indices 1 2 3 4 5 6 
#
# 1 112.7233 45.6403 44.6538 0.0000 -8.6334 0.0000
# 2 45.6403 90.7879 34.8787 0.0000 -6.3995 0.0000
# 3 44.6538 34.8787 94.4691 0.0000 -3.4166 0.0000
# 4 0.0000 0.0000 0.0000 5.3688 0.0000 -8.3988
# 5 -8.6334 -6.3995 -3.4166 0.0000 26.2206 0.0000
# 6 0.0000 0.0000 0.0000 -8.3988 0.0000 18.8250
#
#
#
# Elastic Compliance Matrix: (Units=1/GPa)
#
#
# Indices 1 2 3 4 5 6 
#
# 1 0.012547 -0.004531 -0.004168 0.000000 0.002482 0.000000
# 2 -0.004531 0.014641 -0.003203 0.000000 0.001664 0.000000
# 3 -0.004168 -0.003203 0.013725 0.000000 -0.000366 0.000000
# 4 0.000000 0.000000 0.000000 0.616639 0.000000 0.275114
# 5 0.002482 0.001664 -0.000366 0.000000 0.039314 0.000000
# 6 0.000000 0.000000 0.000000 0.275114 0.000000 0.175863
#
#
# Mechanical properties :
#
#
# Convention : Reuss Voigt Hill
#
# Bulk Modulus (GPa) = 58.45439 60.92510 59.68975
# Shear Modulus (GPa) = 5.54178 21.60339 13.57258
#
# Velocity S-wave (km/s) = 1.86662 3.68546 2.92121
# Velocity P-wave (km/s) = 6.43409 7.51102 6.99332
#
# Compressibility (1/GPa) = 0.01710736
#
# Stress axis : x y z
#
# Youngs Moduli (GPa) = 79.69884 68.30311 72.85924
#
# Poissons Ratio (x) = 0.30951 0.30368
# Poissons Ratio (y) = 0.36115 0.23339
# Poissons Ratio (z) = 0.33219 0.21880
#
# Static dielectric constant tensor:
#      x y z
#    x 1.556370 0.000000 -0.006170 
#    y 0.000000 1.538620 0.000000 
#    z -0.006170 0.000000 1.508950 
# 
# From -- ./inp_files/61537.got.cif
#   From: 2010.05.17/outbox.cif.g08.bks.cpg/sg10_31_cif.got.tgz:61537.got - 2010.06.03 11:33:40.
