data_PCOD9146664
_publ_section_title
;
Structure prediction by ZEFSAII (Michael W. Deem and Ramdas Pophale) SiO2 
 PCOD9146664
Probable space group: P 2/M
;
_chemical_formula_sum "Si O2"
_cell_formula_units_Z 32
_cell_length_a 22.402734
_cell_length_b 14.051724
_cell_length_c 15.175127
_cell_angle_alpha 90.000000
_cell_angle_beta 161.034364
_cell_angle_gamma 90.000000
_cell_volume 1552.557431
_symmetry_space_group_name_H-M "P 2/M"
_symmetry_group_IT_number 10
_symmetry_cell_setting 'monoclinic'
loop_
_space_group_symop_operation_xyz
x,y,z
-x,y,-z
-x,-y,-z
x,-y,z
loop_
_atom_site_type_symbol
_atom_site_label
_atom_site_fract_x
_atom_site_fract_y
_atom_site_fract_z
Si Si1 0.667719 0.888980 0.375659
Si Si2 0.752913 0.109521 0.181611
Si Si3 0.962306 0.112746 0.647812
Si Si4 0.717392 0.610679 0.323018
Si Si5 0.600321 0.389840 0.351441
Si Si6 0.800850 0.680512 0.252859
Si Si7 0.213379 0.766151 0.291054
Si Si8 0.714285 0.112579 0.780544
O O1 0.792152 0.852358 0.469447
O O2 0.722614 0.834711 0.540262
O O3 0.708101 0.000000 0.446172
O O4 0.449105 0.884187 0.055132
O O5 0.913850 0.118363 0.478154
O O6 0.767725 0.215073 0.161806
O O7 0.758549 0.000000 0.151069
O O8 0.964451 0.000000 0.665223
O O9 0.156323 0.144928 0.957532
O O10 0.782303 0.500000 0.406212
O O11 0.715910 0.639868 0.424215
O O12 0.803302 0.673763 0.364182
O O13 0.500000 0.609474 0.000000
O O14 0.637212 0.500000 0.416477
O O15 0.664850 0.326775 0.523010
O O16 0.383379 0.376118 0.029994
O O17 0.000000 0.645348 0.500000
O O18 0.239138 0.823356 0.237519
O O19 0.000000 0.741594 0.000000
O O20 0.500000 0.121691 0.500000
O O21 0.748322 0.000000 0.809062
#
# Coordination Sequence:
#
# PCOD9146664 Si02
#       8
#     4   4   4   4   4   4   4   4
#     4  10  19  33  56  88 119 149 197 252 300 349
#     4  10  21  35  53  84 129 168 196 237 297 360
#     4   9  18  33  54  83 117 158 202 248 291 341
#     4   8  17  35  59  83 112 149 192 247 305 358
#     4  10  23  43  62  88 120 152 197 257 316 365
#     4  11  22  35  60  92 123 162 206 240 293 362
#     4  12  23  37  64  90 114 155 206 257 305 358
#     4  10  22  39  59  87 127 170 208 246 291 350
#
# _framework density 20.611153999999999
#
# number of rings (size 3 to 8) (size 9 to 14) (size 15 to 20)
#    0.000    2.000    2.500    1.875    1.750    5.500 
#    0.000    0.000    0.000    0.375    0.000    0.000 
#    0.000    0.000    0.000    0.000    0.000    0.000 
#
# Total GULP energy -178362.057015 kJ/mol
# GULP energy per Si atom -5573.814282 kJ/mol
# Density = 2.056424 g / cm^3
# Si number density = 20.611154 Si / 1000 Ang^3
#
#
#
# Elastic Constant Matrix: (Units=GPa)
#
#
# Indices 1 2 3 4 5 6 
#
# 1 33.8735 6.8051 23.1679 0.0000 6.1042 0.0000
# 2 6.8051 57.6961 24.4620 0.0000 5.1089 0.0000
# 3 23.1679 24.4620 89.1385 0.0000 2.6900 0.0000
# 4 0.0000 0.0000 0.0000 1044.2794 0.0000-2167.0749
# 5 6.1042 5.1089 2.6900 0.0000 31.2536 0.0000
# 6 0.0000 0.0000 0.0000-2167.0749 0.0000 4583.2495
#
#
#
# Elastic Compliance Matrix: (Units=1/GPa)
#
#
# Indices 1 2 3 4 5 6 
#
# 1 0.037157 0.000229 -0.009525 0.000000 -0.006475 0.000000
# 2 0.000229 0.019854 -0.005423 0.000000 -0.002824 0.000000
# 3 -0.009525 -0.005423 0.015139 0.000000 0.001444 0.000000
# 4 0.000000 0.000000 0.000000 0.050937 0.000000 0.024084
# 5 -0.006475 -0.002824 0.001444 0.000000 0.033598 0.000000
# 6 0.000000 0.000000 0.000000 0.024084 0.000000 0.011606
#
#
# Mechanical properties :
#
#
# Convention : Reuss Voigt Hill
#
# Bulk Modulus (GPa) = 23.41224 32.17534 27.79379
# Shear Modulus (GPa) = 23.58872 1140.17470 581.88171
#
# Velocity S-wave (km/s) = 3.38666 23.54537 16.82043
# Velocity P-wave (km/s) = 5.16491 27.47405 19.76740
#
# Compressibility (1/GPa) = 0.04271270
#
# Stress axis : x y z
#
# Youngs Moduli (GPa) = 26.91283 50.36666 66.05571
#
# Poissons Ratio (x) = -0.01154 0.62918
# Poissons Ratio (y) = -0.00617 0.35821
# Poissons Ratio (z) = 0.25634 0.27313
#
# Static dielectric constant tensor:
#      x y z
#    x 1.786870 0.000000 0.023460 
#    y 0.000000 1.768960 0.000000 
#    z 0.023460 0.000000 1.729270 
# 
# From -- ./inp_files/70772.got.cif
#   From: 2010.05.17/outbox.cif.g08.bks.cpg/sg10_36_cif.got.tgz:70772.got - 2010.06.03 11:33:40.
