data_PCOD9146719
_publ_section_title
;
Structure prediction by ZEFSAII (Michael W. Deem and Ramdas Pophale) SiO2 
 PCOD9146719
Probable space group: P 2/M
;
_chemical_formula_sum "Si O2"
_cell_formula_units_Z 17
_cell_length_a 8.277850
_cell_length_b 12.370057
_cell_length_c 8.056017
_cell_angle_alpha 90.000000
_cell_angle_beta 98.878432
_cell_angle_gamma 90.000000
_cell_volume 815.031697
_symmetry_space_group_name_H-M "P 2/M"
_symmetry_group_IT_number 10
_symmetry_cell_setting 'monoclinic'
loop_
_space_group_symop_operation_xyz
x,y,z
-x,y,-z
-x,-y,-z
x,-y,z
loop_
_atom_site_type_symbol
_atom_site_label
_atom_site_fract_x
_atom_site_fract_y
_atom_site_fract_z
Si Si1 0.000000 0.701767 0.000000
Si Si2 0.175081 0.879689 0.808122
Si Si3 0.500000 0.206373 0.000000
Si Si4 0.305717 0.674333 0.244934
Si Si5 0.301884 0.120388 0.455489
Si Si6 0.500000 0.500000 0.500000
O O1 0.851009 0.637967 0.889087
O O2 0.076997 0.781705 0.874078
O O3 0.214128 0.868281 0.619129
O O4 0.106764 0.000000 0.826033
O O5 0.350844 0.868059 0.923160
O O6 0.555947 0.284071 0.860119
O O7 0.249992 0.782350 0.331573
O O8 0.388109 0.593247 0.386672
O O9 0.500000 0.126963 0.500000
O O10 0.265040 0.000000 0.384692
#
# Coordination Sequence:
#
# PCOD9146719 Si02
#       6
#     2   4   2   4   4   1
#     4  10  25  39  56  90 138 160 197 259 324 372
#     4  10  19  33  57  91 131 175 207 246 300 368
#     4  10  19  35  60  88 126 158 211 257 300 364
#     4  11  23  42  64  94 121 163 207 260 313 369
#     4  10  19  35  61  94 127 163 212 256 292 352
#     4  12  24  44  74  86 112 158 226 260 302 378
#
# _framework density 20.858086
#
# number of rings (size 3 to 8) (size 9 to 14) (size 15 to 20)
#    0.000    1.647    3.529    0.706    0.000    6.588 
#    0.000    2.353    0.000   14.118    0.000    0.000 
#    0.000    0.000    0.000    0.000    0.000    0.000 
#
# Total GULP energy -94661.116774 kJ/mol
# GULP energy per Si atom -5568.300987 kJ/mol
# Density = 2.081061 g / cm^3
# Si number density = 20.858086 Si / 1000 Ang^3
#
#
#
# Elastic Constant Matrix: (Units=GPa)
#
#
# Indices 1 2 3 4 5 6 
#
# 1 91.9794 31.4486 44.9265 0.0000 31.4156 0.0000
# 2 31.4486 101.2768 58.5244 0.0000 18.8102 0.0000
# 3 44.9265 58.5244 84.6856 0.0000 10.2829 0.0000
# 4 0.0000 0.0000 0.0000 -19.8520 0.0000 -3.0935
# 5 31.4156 18.8102 10.2829 0.0000 51.8050 0.0000
# 6 0.0000 0.0000 0.0000 -3.0935 0.0000 -7.1510
#
#
#
# Elastic Compliance Matrix: (Units=1/GPa)
#
#
# Indices 1 2 3 4 5 6 
#
# 1 0.018425 0.001778 -0.009805 0.000000 -0.009873 0.000000
# 2 0.001778 0.017377 -0.012353 0.000000 -0.004936 0.000000
# 3 -0.009805 -0.012353 0.024880 0.000000 0.005493 0.000000
# 4 0.000000 0.000000 0.000000 -0.054014 0.000000 0.023366
# 5 -0.009873 -0.004936 0.005493 0.000000 0.025992 0.000000
# 6 0.000000 0.000000 0.000000 0.023366 0.000000 -0.149948
#
#
# Mechanical properties :
#
#
# Convention : Reuss Voigt Hill
#
# Bulk Modulus (GPa) = 50.19345 60.86009 55.52677
# Shear Modulus (GPa) = -71.54145 14.49657 -28.52244
#
# Velocity S-wave (km/s) = -5.86290 2.63916 -3.70192
# Velocity P-wave (km/s) = 4.65993 6.20713 2.89944
#
# Compressibility (1/GPa) = 0.01992292
#
# Stress axis : x y z
#
# Youngs Moduli (GPa) = 54.27370 57.54849 40.19368
#
# Poissons Ratio (x) = -0.10233 0.39409
# Poissons Ratio (y) = -0.09650 0.49650
# Poissons Ratio (z) = 0.53214 0.71087
#
# Static dielectric constant tensor:
#      x y z
#    x 1.788060 0.000000 0.000350 
#    y 0.000000 1.699650 0.000000 
#    z 0.000350 0.000000 1.804810 
# 
# From -- ./inp_files/17340.got.cif
#   From: 2010.05.17/outbox.cif.g08.bks.cpg/sg10_9_cif.got.tgz:17340.got - 2010.06.03 11:33:40.
