data_PCOD9146844
_publ_section_title
;
Structure prediction by ZEFSAII (Michael W. Deem and Ramdas Pophale) SiO2 
 PCOD9146844
Probable space group: P 2/M
;
_chemical_formula_sum "Si O2"
_cell_formula_units_Z 22
_cell_length_a 12.189732
_cell_length_b 9.542638
_cell_length_c 8.693897
_cell_angle_alpha 90.000000
_cell_angle_beta 85.249291
_cell_angle_gamma 90.000000
_cell_volume 1007.818903
_symmetry_space_group_name_H-M "P 2/M"
_symmetry_group_IT_number 10
_symmetry_cell_setting 'monoclinic'
loop_
_space_group_symop_operation_xyz
x,y,z
-x,y,-z
-x,-y,-z
x,-y,z
loop_
_atom_site_type_symbol
_atom_site_label
_atom_site_fract_x
_atom_site_fract_y
_atom_site_fract_z
Si Si1 0.191121 0.158586 0.038978
Si Si2 0.890671 0.336510 0.217608
Si Si3 0.000000 0.710089 0.500000
Si Si4 0.644827 0.341551 0.386264
Si Si5 0.433571 0.158238 0.864415
Si Si6 0.232166 0.656012 0.327978
O O1 0.216529 0.231283 0.197792
O O2 0.148176 0.000000 0.059539
O O3 0.116181 0.261173 0.945307
O O4 0.308042 0.149351 0.937523
O O5 0.931597 0.500000 0.210702
O O6 0.956857 0.241925 0.335168
O O7 0.764346 0.344093 0.289229
O O8 0.115418 0.644501 0.431145
O O9 0.602694 0.500000 0.388770
O O10 0.568885 0.242242 0.293787
O O11 0.676562 0.302368 0.556715
O O12 0.476320 0.000000 0.835766
O O13 0.500000 0.223375 0.000000
O O14 0.258033 0.500000 0.264088
#
# Coordination Sequence:
#
# PCOD9146844 Si02
#       6
#     4   4   2   4   4   4
#     4  10  21  35  50  73 104 133 162 202 253 299
#     4   9  16  31  53  74  97 127 167 208 245 286
#     4  10  19  34  57  78  95 130 179 212 235 284
#     4   8  16  30  50  75 100 127 160 203 251 294
#     4   9  18  34  55  75  96 128 169 205 241 296
#     4  10  19  34  54  75 101 132 169 207 244 288
#
# _framework density 21.829317
#
# number of rings (size 3 to 8) (size 9 to 14) (size 15 to 20)
#    0.000    2.727    0.000    3.273    0.000    2.545 
#    0.000    8.182    0.000    5.455    0.000    0.000 
#    0.000    0.000    0.000    0.000    0.000    0.000 
#
# Total GULP energy -122480.482267 kJ/mol
# GULP energy per Si atom -5567.294648 kJ/mol
# Density = 2.177963 g / cm^3
# Si number density = 21.829317 Si / 1000 Ang^3
#
#
#
# Elastic Constant Matrix: (Units=GPa)
#
#
# Indices 1 2 3 4 5 6 
#
# 1 63.0586 16.8423 10.7478 0.0000 6.8156 0.0000
# 2 16.8423 85.1146 95.2775 0.0000 21.2278 0.0000
# 3 10.7478 95.2775 160.9058 0.0000 45.0699 0.0000
# 4 0.0000 0.0000 0.0000 50.4652 0.0000 10.8801
# 5 6.8156 21.2278 45.0699 0.0000 41.2138 0.0000
# 6 0.0000 0.0000 0.0000 10.8801 0.0000 3.8619
#
#
#
# Elastic Compliance Matrix: (Units=1/GPa)
#
#
# Indices 1 2 3 4 5 6 
#
# 1 0.017454 -0.007072 0.004050 0.000000 -0.003673 0.000000
# 2 -0.007072 0.039025 -0.024986 0.000000 0.008393 0.000000
# 3 0.004050 -0.024986 0.024971 0.000000 -0.015108 0.000000
# 4 0.000000 0.000000 0.000000 0.050472 0.000000 -0.142194
# 5 -0.003673 0.008393 -0.015108 0.000000 0.037069 0.000000
# 6 0.000000 0.000000 0.000000 -0.142194 0.000000 0.659535
#
#
# Mechanical properties :
#
#
# Convention : Reuss Voigt Hill
#
# Bulk Modulus (GPa) = 39.31675 61.64600 50.48138
# Shear Modulus (GPa) = 5.59898 31.52229 18.56064
#
# Velocity S-wave (km/s) = 1.60327 3.80417 2.91909
# Velocity P-wave (km/s) = 4.63437 6.89905 5.87683
#
# Compressibility (1/GPa) = 0.02543445
#
# Stress axis : x y z
#
# Youngs Moduli (GPa) = 57.29446 25.62483 40.04607
#
# Poissons Ratio (x) = 0.18121 -0.16220
# Poissons Ratio (y) = 0.40516 1.00061
# Poissons Ratio (z) = -0.23207 0.64027
#
# Static dielectric constant tensor:
#      x y z
#    x 1.833200 0.000000 -0.016250 
#    y 0.000000 1.781090 0.000000 
#    z -0.016250 0.000000 1.829790 
# 
# From -- ./inp_files/27305.got.cif
#   From: 2010.05.17/outbox.cif.g08.bks.cpg/sg10_14_cif.got.tgz:27305.got - 2010.06.03 11:33:40.
