data_PCOD9146445
_publ_section_title
;
Structure prediction by ZEFSAII (Michael W. Deem and Ramdas Pophale) SiO2 
 PCOD9146445
Probable space group: P 2/M
;
_chemical_formula_sum "Si O2"
_cell_formula_units_Z 32
_cell_length_a 27.451329
_cell_length_b 9.268892
_cell_length_c 20.198819
_cell_angle_alpha 90.000000
_cell_angle_beta 160.656283
_cell_angle_gamma 90.000000
_cell_volume 1702.364822
_symmetry_space_group_name_H-M "P 2/M"
_symmetry_group_IT_number 10
_symmetry_cell_setting 'monoclinic'
loop_
_space_group_symop_operation_xyz
x,y,z
-x,y,-z
-x,-y,-z
x,-y,z
loop_
_atom_site_type_symbol
_atom_site_label
_atom_site_fract_x
_atom_site_fract_y
_atom_site_fract_z
Si Si1 0.641052 0.832550 0.782165
Si Si2 0.168104 0.164682 0.836100
Si Si3 0.409278 0.324325 0.818655
Si Si4 0.587864 0.333025 0.920637
Si Si5 0.895481 0.667802 0.039550
Si Si6 0.392535 0.667804 0.536581
Si Si7 0.093255 0.834770 0.186555
Si Si8 0.922491 0.333027 0.589697
O O1 0.490850 0.749398 0.607643
O O2 0.616036 0.000000 0.732113
O O3 0.736391 0.831858 0.972870
O O4 0.742662 0.749407 0.859478
O O5 0.017307 0.244601 0.659105
O O6 0.143349 0.000000 0.786602
O O7 0.266505 0.244601 0.908301
O O8 0.403824 0.500000 0.807760
O O9 0.492956 0.275567 0.860115
O O10 0.241196 0.275537 0.608431
O O11 0.500000 0.284837 0.000000
O O12 0.626493 0.500000 0.983177
O O13 0.487990 0.330562 0.726620
O O14 0.871120 0.500000 0.990239
O O15 0.994346 0.750237 0.112894
O O16 0.989199 0.669509 0.227851
O O17 0.366979 0.500000 0.486061
O O18 0.242655 0.750226 0.361216
O O19 0.123603 0.000000 0.247276
O O20 0.000000 0.840875 0.000000
O O21 0.913338 0.500000 0.556655
#
# Coordination Sequence:
#
# PCOD9146445 Si02
#       8
#     4   4   4   4   4   4   4   4
#     4   9  17  31  52  79 108 133 163 207 256 305
#     4   9  17  29  48  75 102 130 165 204 248 299
#     4   9  17  30  49  73 100 131 170 212 250 293
#     4   9  17  31  52  77 102 129 164 208 254 296
#     4  10  19  33  55  80 104 132 169 212 256 302
#     4  10  19  33  55  80 104 132 169 212 256 302
#     4  11  24  39  53  73 104 139 172 208 252 301
#     4   9  17  31  52  77 102 129 164 208 254 296
#
# _framework density 18.797381000000001
#
# number of rings (size 3 to 8) (size 9 to 14) (size 15 to 20)
#    0.000    2.500    0.000    2.625    0.000    7.000 
#    0.000    1.875    0.000    9.000    0.000    0.000 
#    0.000    0.000    0.000    0.000    0.000    0.000 
#
# Total GULP energy -178553.023206 kJ/mol
# GULP energy per Si atom -5579.781975 kJ/mol
# Density = 1.875460 g / cm^3
# Si number density = 18.797381 Si / 1000 Ang^3
#
#
#
# Elastic Constant Matrix: (Units=GPa)
#
#
# Indices 1 2 3 4 5 6 
#
# 1 61.8032 76.3934 97.0011 0.0000 62.3863 0.0000
# 2 76.3934 154.6752 67.9891 0.0000 51.4534 0.0000
# 3 97.0011 67.9891 43.3158 0.0000 50.8656 0.0000
# 4 0.0000 0.0000 0.0000 -8.0210 0.0000 -18.6098
# 5 62.3863 51.4534 50.8656 0.0000 47.8661 0.0000
# 6 0.0000 0.0000 0.0000 -18.6098 0.0000 -11.0739
#
#
#
# Elastic Compliance Matrix: (Units=1/GPa)
#
#
# Indices 1 2 3 4 5 6 
#
# 1 0.020445 -0.008363 0.048099 0.000000 -0.068769 0.000000
# 2 -0.008363 0.012052 -0.008976 0.000000 0.007484 0.000000
# 3 0.048099 -0.008976 0.033286 0.000000 -0.088413 0.000000
# 4 0.000000 0.000000 0.000000 0.043005 0.000000 -0.072271
# 5 -0.068769 0.007484 -0.088413 0.000000 0.196430 0.000000
# 6 0.000000 0.000000 0.000000 -0.072271 0.000000 0.031150
#
#
# Mechanical properties :
#
#
# Convention : Reuss Voigt Hill
#
# Bulk Modulus (GPa) = 7.85539 82.50681 45.18110
# Shear Modulus (GPa) = 15.75874 6.98162 11.37018
#
# Velocity S-wave (km/s) = 2.89856 1.92930 2.46210
# Velocity P-wave (km/s) = 3.92305 6.99650 5.67191
#
# Compressibility (1/GPa) = 0.12730118
#
# Stress axis : x y z
#
# Youngs Moduli (GPa) = 48.91174 82.97561 30.04227
#
# Poissons Ratio (x) = 0.69396 -1.44499
# Poissons Ratio (y) = 0.40907 0.26966
# Poissons Ratio (z) = -2.35259 0.74480
#
# Static dielectric constant tensor:
#      x y z
#    x 1.625000 0.000000 -0.008900 
#    y 0.000000 1.642220 0.000000 
#    z -0.008900 0.000000 1.626410 
# 
# From -- ./inp_files/26092.got.cif
#   From: 2010.05.17/outbox.cif.g08.bks.cpg/sg10_14_cif.got.tgz:26092.got - 2010.06.03 11:33:40.
