data_PCOD9146660
_publ_section_title
;
Structure prediction by ZEFSAII (Michael W. Deem and Ramdas Pophale) SiO2 
 PCOD9146660
Probable space group: P 2/M
;
_chemical_formula_sum "Si O2"
_cell_formula_units_Z 32
_cell_length_a 30.875693
_cell_length_b 11.271452
_cell_length_c 9.515364
_cell_angle_alpha 90.000000
_cell_angle_beta 149.886288
_cell_angle_gamma 90.000000
_cell_volume 1661.427788
_symmetry_space_group_name_H-M "P 2/M"
_symmetry_group_IT_number 10
_symmetry_cell_setting 'monoclinic'
loop_
_space_group_symop_operation_xyz
x,y,z
-x,y,-z
-x,-y,-z
x,-y,z
loop_
_atom_site_type_symbol
_atom_site_label
_atom_site_fract_x
_atom_site_fract_y
_atom_site_fract_z
Si Si1 0.902786 0.863014 0.249582
Si Si2 0.429524 0.640464 0.150408
Si Si3 0.101881 0.362245 0.264221
Si Si4 0.613472 0.641346 0.580394
Si Si5 0.802601 0.206803 0.696070
Si Si6 0.687268 0.871126 0.121083
Si Si7 0.790877 0.751881 0.183972
Si Si8 0.351366 0.636901 0.624848
O O1 0.849003 0.793811 0.217202
O O2 0.000000 0.815936 0.500000
O O3 0.909566 0.000000 0.314415
O O4 0.854725 0.857551 0.964711
O O5 0.413582 0.500000 0.151364
O O6 0.530686 0.673697 0.442398
O O7 0.369119 0.749209 0.032497
O O8 0.409861 0.638802 0.927473
O O9 0.120384 0.500000 0.287445
O O10 0.134967 0.284015 0.227686
O O11 0.153145 0.323488 0.547977
O O12 0.000000 0.346648 0.000000
O O13 0.609932 0.500000 0.570340
O O14 0.605150 0.683131 0.395576
O O15 0.706781 0.682168 0.893722
O O16 0.745498 0.132634 0.425299
O O17 0.734325 0.291232 0.581977
O O18 0.750163 0.857267 0.163795
O O19 0.642050 0.000000 0.988051
O O20 0.327799 0.500000 0.534587
#
# Coordination Sequence:
#
# PCOD9146660 Si02
#       8
#     4   4   4   4   4   4   4   4
#     4  11  23  39  59  83 111 145 193 249 302 356
#     4   9  19  35  59  87 117 155 197 239 287 345
#     4  10  21  37  57  84 118 154 193 240 295 359
#     4  10  19  33  56  87 119 150 190 238 289 347
#     4  10  19  36  60  81 111 150 197 237 294 346
#     4  10  22  39  60  84 118 158 200 242 287 352
#     4  11  22  38  58  84 118 154 192 238 302 352
#     4   9  16  30  55  84 114 147 188 233 281 340
#
# _framework density 19.260542000000001
#
# number of rings (size 3 to 8) (size 9 to 14) (size 15 to 20)
#    0.000    2.000    1.250    2.625    0.000    5.500 
#    0.000    3.125    0.000   10.500    0.000    0.000 
#    0.000    0.000    0.000    0.000    0.000    0.000 
#
# Total GULP energy -178455.705697 kJ/mol
# GULP energy per Si atom -5576.740803 kJ/mol
# Density = 1.921670 g / cm^3
# Si number density = 19.260542 Si / 1000 Ang^3
#
#
#
# Elastic Constant Matrix: (Units=GPa)
#
#
# Indices 1 2 3 4 5 6 
#
# 1 130.7838 41.3177 25.9515 0.0000 4.7591 0.0000
# 2 41.3177 79.6162 19.1930 0.0000 13.8306 0.0000
# 3 25.9515 19.1930 82.7848 0.0000 5.0584 0.0000
# 4 0.0000 0.0000 0.0000 10.9812 0.0000 10.2695
# 5 4.7591 13.8306 5.0584 0.0000 30.7003 0.0000
# 6 0.0000 0.0000 0.0000 10.2695 0.0000 2.6480
#
#
#
# Elastic Compliance Matrix: (Units=1/GPa)
#
#
# Indices 1 2 3 4 5 6 
#
# 1 0.009452 -0.004595 -0.001954 0.000000 0.000927 0.000000
# 2 -0.004595 0.016541 -0.002003 0.000000 -0.006410 0.000000
# 3 -0.001954 -0.002003 0.013216 0.000000 -0.000972 0.000000
# 4 0.000000 0.000000 0.000000 -0.034667 0.000000 0.134445
# 5 0.000927 -0.006410 -0.000972 0.000000 0.035477 0.000000
# 6 0.000000 0.000000 0.000000 0.134445 0.000000 -0.143764
#
#
# Mechanical properties :
#
#
# Convention : Reuss Voigt Hill
#
# Bulk Modulus (GPa) = 45.23942 51.78989 48.51466
# Shear Modulus (GPa) = -63.07430 22.64742 -20.21344
#
# Velocity S-wave (km/s) = -5.72879 3.43278 -3.24307
# Velocity P-wave (km/s) = 4.49662 6.53142 3.34962
#
# Compressibility (1/GPa) = 0.02210461
#
# Stress axis : x y z
#
# Youngs Moduli (GPa) = 105.79809 60.45511 75.66645
#
# Poissons Ratio (x) = 0.27780 0.14788
# Poissons Ratio (y) = 0.48615 0.15155
# Poissons Ratio (z) = 0.20676 0.12108
#
# Static dielectric constant tensor:
#      x y z
#    x 1.684870 0.000000 -0.024140 
#    y 0.000000 1.651520 0.000000 
#    z -0.024140 0.000000 1.692920 
# 
# From -- ./inp_files/38245.got.cif
#   From: 2010.05.17/outbox.cif.g08.bks.cpg/sg10_20_cif.got.tgz:38245.got - 2010.06.03 11:33:40.
