data_PCOD9146684
_publ_section_title
;
Structure prediction by ZEFSAII (Michael W. Deem and Ramdas Pophale) SiO2 
 PCOD9146684
Probable space group: P 2/M
;
_chemical_formula_sum "Si O2"
_cell_formula_units_Z 28
_cell_length_a 14.695561
_cell_length_b 7.649123
_cell_length_c 18.137217
_cell_angle_alpha 90.000000
_cell_angle_beta 140.910582
_cell_angle_gamma 90.000000
_cell_volume 1285.511358
_symmetry_space_group_name_H-M "P 2/M"
_symmetry_group_IT_number 10
_symmetry_cell_setting 'monoclinic'
loop_
_space_group_symop_operation_xyz
x,y,z
-x,y,-z
-x,-y,-z
x,-y,z
loop_
_atom_site_type_symbol
_atom_site_label
_atom_site_fract_x
_atom_site_fract_y
_atom_site_fract_z
Si Si1 0.688715 0.792563 0.329003
Si Si2 0.913647 0.799912 0.734661
Si Si3 0.869486 0.793212 0.867302
Si Si4 0.243043 0.294973 0.946437
Si Si5 0.064360 0.785869 0.411252
Si Si6 0.386932 0.291128 0.187633
Si Si7 0.726600 0.210402 0.194260
O O1 0.833598 0.724454 0.458699
O O2 0.552378 0.764369 0.295572
O O3 0.656815 0.724011 0.226467
O O4 0.710529 0.000000 0.333739
O O5 0.866296 0.718491 0.782510
O O6 0.877865 0.722918 0.632073
O O7 0.088372 0.798869 0.845880
O O8 0.860448 0.000000 0.699671
O O9 0.720907 0.773122 0.817408
O O10 0.900683 0.000000 0.877859
O O11 0.000000 0.720617 0.000000
O O12 0.213139 0.500000 0.938425
O O13 0.319260 0.274409 0.915214
O O14 0.328094 0.228375 0.070997
O O15 0.896064 0.740422 0.310716
O O16 0.067325 0.000000 0.412722
O O17 0.381941 0.500000 0.184921
O O18 0.714402 0.000000 0.182503
#
# Coordination Sequence:
#
# PCOD9146684 Si02
#       7
#     4   4   4   4   4   4   4
#     4  10  20  35  55  77 103 139 178 216 256 304
#     4   9  17  32  56  83 106 129 165 217 265 304
#     4  10  19  33  57  84 105 130 170 217 261 308
#     4  10  20  33  50  75 106 139 173 210 257 311
#     4   8  15  31  56  82 105 130 168 216 262 305
#     4  11  24  37  50  73 109 146 175 209 257 313
#     4   9  18  33  56  81 103 131 173 221 264 304
#
# _framework density 21.781215
#
# number of rings (size 3 to 8) (size 9 to 14) (size 15 to 20)
#    0.000    2.429    1.429    2.143    0.000    5.429 
#    0.000    6.429    0.000    8.571    0.000    0.000 
#    0.000    0.000    0.000    0.000    0.000    0.000 
#
# Total GULP energy -156245.990237 kJ/mol
# GULP energy per Si atom -5580.213937 kJ/mol
# Density = 2.173164 g / cm^3
# Si number density = 21.781215 Si / 1000 Ang^3
#
#
#
# Elastic Constant Matrix: (Units=GPa)
#
#
# Indices 1 2 3 4 5 6 
#
# 1 103.9363 -8.8072 15.0633 0.0000 -26.1470 0.0000
# 2 -8.8072 44.5835 -4.2201 0.0000 -7.8210 0.0000
# 3 15.0633 -4.2201 14.3161 0.0000 -8.9932 0.0000
# 4 0.0000 0.0000 0.0000 -3.6030 0.0000 -55.4728
# 5 -26.1470 -7.8210 -8.9932 0.0000 27.8355 0.0000
# 6 0.0000 0.0000 0.0000 -55.4728 0.0000 -107.0531
#
#
#
# Elastic Compliance Matrix: (Units=1/GPa)
#
#
# Indices 1 2 3 4 5 6 
#
# 1 0.013959 0.004451 -0.005462 0.000000 0.012598 0.000000
# 2 0.004451 0.027463 0.013658 0.000000 0.016310 0.000000
# 3 -0.005462 0.013658 0.098881 0.000000 0.030654 0.000000
# 4 0.000000 0.000000 0.000000 0.039774 0.000000 -0.020610
# 5 0.012598 0.016310 0.030654 0.000000 0.062246 0.000000
# 6 0.000000 0.000000 0.000000 -0.020610 0.000000 0.001339
#
#
# Mechanical properties :
#
#
# Convention : Reuss Voigt Hill
#
# Bulk Modulus (GPa) = 6.03874 18.54533 12.29203
# Shear Modulus (GPa) = 18.27703 -5.84413 6.21645
#
# Velocity S-wave (km/s) = 2.89990 -1.63980 1.69122
# Velocity P-wave (km/s) = 3.74046 2.22432 3.07722
#
# Compressibility (1/GPa) = 0.16559754
#
# Stress axis : x y z
#
# Youngs Moduli (GPa) = 71.63663 36.41273 10.11315
#
# Poissons Ratio (x) = -0.16206 0.05524
# Poissons Ratio (y) = -0.31883 -0.13813
# Poissons Ratio (z) = 0.39126 -0.49733
#
# Static dielectric constant tensor:
#      x y z
#    x 1.812110 0.000000 -0.045800 
#    y 0.000000 1.820970 0.000000 
#    z -0.045800 0.000000 1.795830 
# 
# From -- ./inp_files/68568.got.cif
#   From: 2010.05.17/outbox.cif.g08.bks.cpg/sg10_35_cif.got.tgz:68568.got - 2010.06.03 11:33:40.
