data_PCOD9146193
_publ_section_title
;
Structure prediction by ZEFSAII (Michael W. Deem and Ramdas Pophale) SiO2 
 PCOD9146193
Probable space group: P 2/M
;
_chemical_formula_sum "Si O2"
_cell_formula_units_Z 32
_cell_length_a 9.764144
_cell_length_b 16.655179
_cell_length_c 14.486518
_cell_angle_alpha 90.000000
_cell_angle_beta 133.936715
_cell_angle_gamma 90.000000
_cell_volume 1696.462649
_symmetry_space_group_name_H-M "P 2/M"
_symmetry_group_IT_number 10
_symmetry_cell_setting 'monoclinic'
loop_
_space_group_symop_operation_xyz
x,y,z
-x,y,-z
-x,-y,-z
x,-y,z
loop_
_atom_site_type_symbol
_atom_site_label
_atom_site_fract_x
_atom_site_fract_y
_atom_site_fract_z
Si Si1 0.946682 0.594994 0.765308
Si Si2 0.481285 0.824522 0.382604
Si Si3 0.541089 0.909091 0.116759
Si Si4 0.565570 0.640106 0.698260
Si Si5 0.222573 0.904177 0.607830
Si Si6 0.786650 0.134571 0.905483
Si Si7 0.182625 0.679144 0.023861
Si Si8 0.129177 0.405297 0.476835
O O1 0.993183 0.500000 0.789719
O O2 0.739949 0.604085 0.719417
O O3 0.922621 0.625587 0.649363
O O4 0.113413 0.645493 0.893814
O O5 0.500000 0.840032 0.500000
O O6 0.458185 0.730348 0.351459
O O7 0.669166 0.858436 0.421883
O O8 0.308958 0.862463 0.240958
O O9 0.695934 0.871856 0.257020
O O10 0.352550 0.911015 0.090676
O O11 0.608092 0.000000 0.127731
O O12 0.500000 0.868584 0.000000
O O13 0.638472 0.642185 0.838486
O O14 0.356179 0.603183 0.595647
O O15 0.000000 0.894521 0.500000
O O16 0.267124 0.000000 0.622732
O O17 0.796731 0.224967 0.953473
O O18 0.000000 0.103584 0.000000
O O19 0.000000 0.656341 0.000000
O O20 0.087444 0.500000 0.453444
O O21 0.000000 0.371034 0.500000
#
# Coordination Sequence:
#
# PCOD9146193 Si02
#       8
#     4   4   4   4   4   4   4   4
#     4  10  19  33  55  78  98 128 170 209 248 297
#     4  10  20  33  51  77 105 131 165 208 251 298
#     4   9  18  33  52  74 100 130 168 211 248 291
#     4  10  19  33  53  75 100 131 166 205 250 300
#     4   9  19  36  54  73 101 136 173 211 250 294
#     4   9  18  33  50  71 102 134 161 199 252 299
#     4   8  17  32  50  74 100 125 161 209 250 290
#     4  10  21  35  49  70 102 134 164 203 249 296
#
# _framework density 18.862779
#
# number of rings (size 3 to 8) (size 9 to 14) (size 15 to 20)
#    0.000    2.625    0.000    2.250    0.000    5.750 
#    0.000    4.375    0.000    2.250    0.000    0.000 
#    0.000    0.000    0.000    0.000    0.000    0.000 
#
# Total GULP energy -178176.929417 kJ/mol
# GULP energy per Si atom -5568.029044 kJ/mol
# Density = 1.881985 g / cm^3
# Si number density = 18.862779 Si / 1000 Ang^3
#
#
#
# Elastic Constant Matrix: (Units=GPa)
#
#
# Indices 1 2 3 4 5 6 
#
# 1 64.4035 12.3837 72.6853 0.0000 -10.6022 0.0000
# 2 12.3837 25.0472 34.0117 0.0000 -4.5247 0.0000
# 3 72.6853 34.0117 164.0370 0.0000 -22.2832 0.0000
# 4 0.0000 0.0000 0.0000 -131.6032 0.0000 -183.5311
# 5 -10.6022 -4.5247 -22.2832 0.0000 22.5086 0.0000
# 6 0.0000 0.0000 0.0000 -183.5311 0.0000 -235.2374
#
#
#
# Elastic Compliance Matrix: (Units=1/GPa)
#
#
# Indices 1 2 3 4 5 6 
#
# 1 0.031477 0.004694 -0.014764 0.000000 0.001154 0.000000
# 2 0.004694 0.056272 -0.013761 0.000000 -0.000100 0.000000
# 3 -0.014764 -0.013761 0.016373 0.000000 0.006488 0.000000
# 4 0.000000 0.000000 0.000000 0.086304 0.000000 -0.067334
# 5 0.001154 -0.000100 0.006488 0.000000 0.051374 0.000000
# 6 0.000000 0.000000 0.000000 -0.067334 0.000000 0.048283
#
#
# Mechanical properties :
#
#
# Convention : Reuss Voigt Hill
#
# Bulk Modulus (GPa) = 17.71179 54.62768 36.16973
# Shear Modulus (GPa) = 14.02265 -59.90594 -22.94165
#
# Velocity S-wave (km/s) = 2.72950 -5.64161 -3.49125
# Velocity P-wave (km/s) = 4.39815 3.66245 1.72194
#
# Compressibility (1/GPa) = 0.05645956
#
# Stress axis : x y z
#
# Youngs Moduli (GPa) = 31.76896 17.77083 61.07669
#
# Poissons Ratio (x) = -0.08342 0.90175
# Poissons Ratio (y) = -0.14912 0.84048
# Poissons Ratio (z) = 0.46904 0.24455
#
# Static dielectric constant tensor:
#      x y z
#    x 1.638450 0.000000 -0.022390 
#    y 0.000000 1.675010 0.000000 
#    z -0.022390 0.000000 1.699650 
# 
# From -- ./inp_files/43618.got.cif
#   From: 2010.05.17/outbox.cif.g08.bks.cpg/sg10_22_cif.got.tgz:43618.got - 2010.06.03 11:33:40.
