data_PCOD9146912
_publ_section_title
;
Structure prediction by ZEFSAII (Michael W. Deem and Ramdas Pophale) SiO2 
 PCOD9146912
Probable space group: P 2/M
;
_chemical_formula_sum "Si O2"
_cell_formula_units_Z 28
_cell_length_a 9.784098
_cell_length_b 8.023859
_cell_length_c 33.516752
_cell_angle_alpha 90.000000
_cell_angle_beta 30.165520
_cell_angle_gamma 90.000000
_cell_volume 1322.214310
_symmetry_space_group_name_H-M "P 2/M"
_symmetry_group_IT_number 10
_symmetry_cell_setting 'monoclinic'
loop_
_space_group_symop_operation_xyz
x,y,z
-x,y,-z
-x,-y,-z
x,-y,z
loop_
_atom_site_type_symbol
_atom_site_label
_atom_site_fract_x
_atom_site_fract_y
_atom_site_fract_z
Si Si1 0.314918 0.202351 0.921577
Si Si2 0.872145 0.693410 0.162571
Si Si3 0.168543 0.303283 0.252779
Si Si4 0.639327 0.194134 0.003621
Si Si5 0.829582 0.296592 0.262005
Si Si6 0.199663 0.298629 0.414750
Si Si7 0.265061 0.807438 0.312477
O O1 0.516324 0.268957 0.837379
O O2 0.322527 0.000000 0.918425
O O3 0.421737 0.265134 0.937695
O O4 0.000000 0.252528 0.000000
O O5 0.948337 0.500000 0.139890
O O6 0.936921 0.756640 0.191232
O O7 0.548495 0.707065 0.239989
O O8 0.040563 0.792658 0.087126
O O9 0.123198 0.500000 0.266788
O O10 0.107399 0.227433 0.311377
O O11 0.995574 0.237669 0.258651
O O12 0.561800 0.000000 0.024858
O O13 0.500000 0.272469 0.000000
O O14 0.838593 0.500000 0.259213
O O15 0.512273 0.247097 0.343879
O O16 0.195982 0.500000 0.415331
O O17 0.121804 0.239204 0.390094
O O18 0.000000 0.240236 0.500000
O O19 0.341141 0.000000 0.294647
#
# Coordination Sequence:
#
# PCOD9146912 Si02
#       7
#     4   4   4   4   4   4   4
#     4  10  21  35  49  68 100 140 180 224 271 317
#     4  10  19  34  55  77 102 136 184 232 272 319
#     4  11  21  35  55  78 107 141 181 225 267 317
#     4  10  20  32  47  71 104 140 177 220 274 329
#     4   8  17  33  54  82 110 137 173 220 269 313
#     4   9  18  37  64  89 112 139 174 215 259 313
#     4  11  22  36  55  79 109 142 176 215 263 320
#
# _framework density 21.176597000000001
#
# number of rings (size 3 to 8) (size 9 to 14) (size 15 to 20)
#    0.000    2.143    0.000    4.714    0.000    2.571 
#    0.000    7.143    0.000    4.286    0.000    0.000 
#    0.000    0.000    0.000    0.000    0.000    0.000 
#
# Total GULP energy -156381.117827 kJ/mol
# GULP energy per Si atom -5585.039922 kJ/mol
# Density = 2.112840 g / cm^3
# Si number density = 21.176597 Si / 1000 Ang^3
#
#
#
# Elastic Constant Matrix: (Units=GPa)
#
#
# Indices 1 2 3 4 5 6 
#
# 1 98.1191 6.4783 28.3348 0.0000 33.4500 0.0000
# 2 6.4783 34.1115 1.2991 0.0000 3.2648 0.0000
# 3 28.3348 1.2991 98.4270 0.0003 30.5700 0.0000
# 4 0.0000 0.0000 0.0003 92.4249 -0.0001 1.2345
# 5 33.4500 3.2648 30.5700 -0.0001 34.7611 0.0000
# 6 0.0000 0.0000 0.0000 1.2345 0.0000 12.4046
#
#
#
# Elastic Compliance Matrix: (Units=1/GPa)
#
#
# Indices 1 2 3 4 5 6 
#
# 1 0.015246 -0.001496 0.000198 0.000000 -0.014705 0.000000
# 2 -0.001496 0.029759 0.000631 0.000000 -0.001911 0.000000
# 3 0.000198 0.000631 0.013995 0.000000 -0.012557 0.000000
# 4 0.000000 0.000000 0.000000 0.010834 0.000000 -0.001078
# 5 -0.014705 -0.001911 -0.012557 0.000000 0.054140 0.000000
# 6 0.000000 0.000000 0.000000 -0.001078 0.000000 0.080723
#
#
# Mechanical properties :
#
#
# Convention : Reuss Voigt Hill
#
# Bulk Modulus (GPa) = 17.34122 33.65357 25.49740
# Shear Modulus (GPa) = 22.19738 40.88781 31.54260
#
# Velocity S-wave (km/s) = 3.24111 4.39886 3.86359
# Velocity P-wave (km/s) = 4.71307 6.45959 5.65417
#
# Compressibility (1/GPa) = 0.05766608
#
# Stress axis : x y z
#
# Youngs Moduli (GPa) = 65.58941 33.60383 71.45657
#
# Poissons Ratio (x) = 0.05026 -0.01413
# Poissons Ratio (y) = 0.09810 -0.04511
# Poissons Ratio (z) = -0.01297 -0.02121
#
# Static dielectric constant tensor:
#      x y z
#    x 1.834520 0.000000 -0.000670 
#    y 0.000000 1.734910 0.000000 
#    z -0.000670 0.000000 1.742670 
# 
# From -- ./inp_files/91988.got.cif
#   From: 2010.05.17/outbox.cif.g08.bks.cpg/sg10_46_cif.got.tgz:91988.got - 2010.06.03 11:33:40.
