data_PCOD9146402
_publ_section_title
;
Structure prediction by ZEFSAII (Michael W. Deem and Ramdas Pophale) SiO2 
 PCOD9146402
Probable space group: P 2/M
;
_chemical_formula_sum "Si O2"
_cell_formula_units_Z 32
_cell_length_a 14.627075
_cell_length_b 14.631875
_cell_length_c 12.976635
_cell_angle_alpha 90.000000
_cell_angle_beta 141.477391
_cell_angle_gamma 90.000000
_cell_volume 1729.754564
_symmetry_space_group_name_H-M "P 2/M"
_symmetry_group_IT_number 10
_symmetry_cell_setting 'monoclinic'
loop_
_space_group_symop_operation_xyz
x,y,z
-x,y,-z
-x,-y,-z
x,-y,z
loop_
_atom_site_type_symbol
_atom_site_label
_atom_site_fract_x
_atom_site_fract_y
_atom_site_fract_z
Si Si1 0.623111 0.401337 0.195521
Si Si2 0.003982 0.776029 0.247702
Si Si3 0.462760 0.891859 0.666700
Si Si4 0.145234 0.736966 0.682212
Si Si5 0.521802 0.392447 0.708371
Si Si6 0.262198 0.234343 0.126777
Si Si7 0.193090 0.893824 0.572818
Si Si8 0.296675 0.261231 0.399595
O O1 0.700933 0.500000 0.267448
O O2 0.724543 0.321171 0.247319
O O3 0.555470 0.385423 0.248201
O O4 0.500000 0.406901 0.000000
O O5 0.890686 0.732298 0.229660
O O6 0.082861 0.854099 0.387511
O O7 0.145949 0.722562 0.329894
O O8 0.896136 0.793844 0.057026
O O9 0.619070 0.841142 0.806658
O O10 0.359482 0.881405 0.676787
O O11 0.371386 0.833568 0.502538
O O12 0.474920 0.000000 0.655595
O O13 0.169099 0.837985 0.656373
O O14 0.000000 0.700115 0.500000
O O15 0.542836 0.500000 0.703085
O O16 0.670387 0.332893 0.847100
O O17 0.413435 0.340220 0.532489
O O18 0.262228 0.246003 0.250032
O O19 0.166033 0.000000 0.563046
#
# Coordination Sequence:
#
# PCOD9146402 Si02
#       8
#     4   4   4   4   4   4   4   4
#     4  10  20  34  54  81 111 139 169 214 270 320
#     4  10  21  35  52  77 109 141 174 218 268 312
#     4   9  18  34  55  78 103 133 173 217 262 316
#     4  10  19  33  55  77 105 141 176 212 256 317
#     4  10  20  36  58  81 105 138 181 220 259 316
#     4  11  21  34  55  79 106 137 175 225 272 311
#     4   9  19  36  57  80 108 142 177 214 261 321
#     4  10  21  37  54  74 104 142 182 221 262 310
#
# _framework density 18.499735000000001
#
# number of rings (size 3 to 8) (size 9 to 14) (size 15 to 20)
#    0.000    2.125    0.000    5.625    0.000    5.000 
#    0.000    1.250    0.000    7.875    0.000    0.000 
#    0.000    0.000    0.000    0.000    0.000    0.000 
#
# Total GULP energy -178212.623227 kJ/mol
# GULP energy per Si atom -5569.144476 kJ/mol
# Density = 1.845763 g / cm^3
# Si number density = 18.499735 Si / 1000 Ang^3
#
#
#
# Elastic Constant Matrix: (Units=GPa)
#
#
# Indices 1 2 3 4 5 6 
#
# 1 70.0971 34.4134 10.9475 0.0000 -1.3599 0.0000
# 2 34.4134 87.6187 1.2586 0.0000 11.8125 0.0000
# 3 10.9475 1.2586 53.7599 0.0000 0.0398 0.0000
# 4 0.0000 0.0000 0.0000 12.6781 0.0000 -5.2964
# 5 -1.3599 11.8125 0.0398 0.0000 19.7482 0.0000
# 6 0.0000 0.0000 0.0000 -5.2964 0.0000 20.5549
#
#
#
# Elastic Compliance Matrix: (Units=1/GPa)
#
#
# Indices 1 2 3 4 5 6 
#
# 1 0.019018 -0.008260 -0.003684 0.000000 0.006258 0.000000
# 2 -0.008260 0.016006 0.001315 0.000000 -0.010146 0.000000
# 3 -0.003684 0.001315 0.019321 0.000000 -0.001079 0.000000
# 4 0.000000 0.000000 0.000000 0.088391 0.000000 0.022776
# 5 0.006258 -0.010146 -0.001079 0.000000 0.057139 0.000000
# 6 0.000000 0.000000 0.000000 0.022776 0.000000 0.054519
#
#
# Mechanical properties :
#
#
# Convention : Reuss Voigt Hill
#
# Bulk Modulus (GPa) = 30.22342 33.85718 32.04030
# Shear Modulus (GPa) = 17.44088 21.58666 19.51377
#
# Velocity S-wave (km/s) = 3.07378 3.41964 3.25131
# Velocity P-wave (km/s) = 5.38239 5.82521 5.60818
#
# Compressibility (1/GPa) = 0.03308692
#
# Stress axis : x y z
#
# Youngs Moduli (GPa) = 52.58177 62.47512 51.75595
#
# Poissons Ratio (x) = 0.51606 0.19067
# Poissons Ratio (y) = 0.43434 -0.06805
# Poissons Ratio (z) = 0.19371 -0.08215
#
# Static dielectric constant tensor:
#      x y z
#    x 1.665120 0.000000 -0.017840 
#    y 0.000000 1.652870 0.000000 
#    z -0.017840 0.000000 1.668040 
# 
# From -- ./inp_files/51644.got.cif
#   From: 2010.05.17/outbox.cif.g08.bks.cpg/sg10_26_cif.got.tgz:51644.got - 2010.06.03 11:33:40.
