data_PCOD9146561
_publ_section_title
;
Structure prediction by ZEFSAII (Michael W. Deem and Ramdas Pophale) SiO2 
 PCOD9146561
Probable space group: P 2/M
;
_chemical_formula_sum "Si O2"
_cell_formula_units_Z 28
_cell_length_a 18.807261
_cell_length_b 7.512791
_cell_length_c 15.827483
_cell_angle_alpha 90.000000
_cell_angle_beta 144.218141
_cell_angle_gamma 90.000000
_cell_volume 1307.592549
_symmetry_space_group_name_H-M "P 2/M"
_symmetry_group_IT_number 10
_symmetry_cell_setting 'monoclinic'
loop_
_space_group_symop_operation_xyz
x,y,z
-x,y,-z
-x,-y,-z
x,-y,z
loop_
_atom_site_type_symbol
_atom_site_label
_atom_site_fract_x
_atom_site_fract_y
_atom_site_fract_z
Si Si1 0.672180 0.216428 0.724593
Si Si2 0.411124 0.784447 0.537912
Si Si3 0.989472 0.207339 0.720990
Si Si4 0.368973 0.204661 0.850434
Si Si5 0.062089 0.217875 0.972955
Si Si6 0.717403 0.295133 0.412001
Si Si7 0.890274 0.218653 0.331436
O O1 0.663106 0.270582 0.617519
O O2 0.549711 0.272637 0.653984
O O3 0.670227 0.000000 0.722155
O O4 0.797022 0.271135 0.887357
O O5 0.356108 0.719347 0.571885
O O6 0.408285 0.000000 0.537954
O O7 0.851058 0.217798 0.556470
O O8 0.003011 0.281172 0.828535
O O9 0.074376 0.280271 0.728472
O O10 0.022828 0.000000 0.760160
O O11 0.350143 0.206506 0.731575
O O12 0.243094 0.279312 0.767517
O O13 0.373339 0.000000 0.885153
O O14 0.500000 0.285899 0.000000
O O15 0.055203 0.000000 0.967879
O O16 0.000000 0.278032 0.000000
O O17 0.732993 0.500000 0.404093
O O18 0.000000 0.272277 0.500000
O O19 0.890178 0.000000 0.333039
#
# Coordination Sequence:
#
# PCOD9146561 Si02
#       7
#     4   4   4   4   4   4   4
#     4   8  15  29  51  82 110 135 175 229 277 318
#     4   9  17  32  56  79 105 141 181 223 269 324
#     4  10  19  33  56  78 102 143 186 225 270 320
#     4  10  21  38  61  86 109 136 176 227 279 330
#     4   9  16  26  47  82 115 136 167 220 274 318
#     4  12  24  36  52  77 110 143 181 222 269 328
#     4   9  16  31  56  83 109 134 174 226 271 319
#
# _framework density 21.413398999999998
#
# number of rings (size 3 to 8) (size 9 to 14) (size 15 to 20)
#    0.000    2.429    1.429    3.000    0.000    3.714 
#    0.000    7.143    0.000    6.429    0.000    0.000 
#    0.000    0.000    0.000    0.000    0.000    0.000 
#
# Total GULP energy -156320.735671 kJ/mol
# GULP energy per Si atom -5582.883417 kJ/mol
# Density = 2.136466 g / cm^3
# Si number density = 21.413399 Si / 1000 Ang^3
#
#
#
# Elastic Constant Matrix: (Units=GPa)
#
#
# Indices 1 2 3 4 5 6 
#
# 1 163.4700 -1.6744 75.4494 0.0000 -7.1595 0.0000
# 2 -1.6744 54.3107 -6.4838 0.0000 -3.9030 0.0000
# 3 75.4494 -6.4838 154.1184 0.0000 2.0115 0.0000
# 4 0.0000 0.0000 0.0000 -29.9370 0.0000 4.0709
# 5 -7.1595 -3.9030 2.0115 0.0000 25.8773 0.0000
# 6 0.0000 0.0000 0.0000 4.0709 0.0000 -85.8873
#
#
#
# Elastic Compliance Matrix: (Units=1/GPa)
#
#
# Indices 1 2 3 4 5 6 
#
# 1 0.008067 -0.000045 -0.003984 0.000000 0.002535 0.000000
# 2 -0.000045 0.018701 0.000773 0.000000 0.002748 0.000000
# 3 -0.003984 0.000773 0.008493 0.000000 -0.001646 0.000000
# 4 0.000000 0.000000 0.000000 -0.033620 0.000000 -0.001594
# 5 0.002535 0.002748 -0.001646 0.000000 0.039888 0.000000
# 6 0.000000 0.000000 0.000000 -0.001594 0.000000 -0.011719
#
#
# Mechanical properties :
#
#
# Convention : Reuss Voigt Hill
#
# Bulk Modulus (GPa) = 34.78436 56.27569 45.53003
# Shear Modulus (GPa) = 108.92197 2.31779 55.61988
#
# Velocity S-wave (km/s) = 7.13980 1.04151 5.10203
# Velocity P-wave (km/s) = 9.17869 5.27105 7.48440
#
# Compressibility (1/GPa) = 0.02874855
#
# Stress axis : x y z
#
# Youngs Moduli (GPa) = 123.96596 53.47320 117.74493
#
# Poissons Ratio (x) = 0.00239 0.46910
# Poissons Ratio (y) = 0.00555 -0.09099
# Poissons Ratio (z) = 0.49389 -0.04132
#
# Static dielectric constant tensor:
#      x y z
#    x 1.756280 0.000000 -0.001350 
#    y 0.000000 1.813310 0.000000 
#    z -0.001350 0.000000 1.750960 
# 
# From -- ./inp_files/68718.got.cif
#   From: 2010.05.17/outbox.cif.g08.bks.cpg/sg10_35_cif.got.tgz:68718.got - 2010.06.03 11:33:40.
