data_PCOD9146657
_publ_section_title
;
Structure prediction by ZEFSAII (Michael W. Deem and Ramdas Pophale) SiO2 
 PCOD9146657
Probable space group: P 2/M
;
_chemical_formula_sum "Si O2"
_cell_formula_units_Z 24
_cell_length_a 7.234191
_cell_length_b 9.139045
_cell_length_c 19.746105
_cell_angle_alpha 90.000000
_cell_angle_beta 124.478004
_cell_angle_gamma 90.000000
_cell_volume 1076.169018
_symmetry_space_group_name_H-M "P 2/M"
_symmetry_group_IT_number 10
_symmetry_cell_setting 'monoclinic'
loop_
_space_group_symop_operation_xyz
x,y,z
-x,y,-z
-x,-y,-z
x,-y,z
loop_
_atom_site_type_symbol
_atom_site_label
_atom_site_fract_x
_atom_site_fract_y
_atom_site_fract_z
Si Si1 0.151466 0.328144 0.200348
Si Si2 0.333788 0.671608 0.854055
Si Si3 0.817100 0.332227 0.523706
Si Si4 0.477514 0.168604 0.362903
Si Si5 0.753163 0.170581 0.917910
Si Si6 0.841377 0.168390 0.315776
O O1 0.204650 0.500000 0.216186
O O2 0.259784 0.244444 0.286148
O O3 0.246672 0.258378 0.152146
O O4 0.883520 0.310469 0.144205
O O5 0.385598 0.500000 0.859489
O O6 0.554078 0.760153 0.920435
O O7 0.250922 0.734875 0.764664
O O8 0.783449 0.500000 0.538080
O O9 0.595237 0.260103 0.446559
O O10 0.000000 0.334103 0.500000
O O11 0.933226 0.235885 0.605688
O O12 0.658333 0.169539 0.338435
O O13 0.439791 0.000000 0.374174
O O14 0.706402 0.000000 0.895575
O O15 0.000000 0.184092 0.000000
O O16 0.871749 0.000000 0.300699
#
# Coordination Sequence:
#
# PCOD9146657 Si02
#       6
#     4   4   4   4   4   4
#     4  11  24  41  64  94 127 164 206 253 306 366
#     4  11  24  41  64  94 127 164 206 253 306 366
#     4   9  17  29  50  81 118 162 209 257 307 358
#     4  10  19  33  56  86 121 162 208 257 308 362
#     4  11  25  45  69  96 125 160 201 249 307 369
#     4  10  19  33  56  86 121 162 208 257 308 362
#
# _framework density 22.301327000000001
#
# number of rings (size 3 to 8) (size 9 to 14) (size 15 to 20)
#    0.000    1.667    1.667    3.000    0.000    8.000 
#    0.000    4.167    0.000    5.000    0.000    0.000 
#    0.000    0.000    0.000    0.000    0.000    0.000 
#
# Total GULP energy -134370.654304 kJ/mol
# GULP energy per Si atom -5598.777263 kJ/mol
# Density = 2.225057 g / cm^3
# Si number density = 22.301327 Si / 1000 Ang^3
#
#
#
# Elastic Constant Matrix: (Units=GPa)
#
#
# Indices 1 2 3 4 5 6 
#
# 1 67.6112 44.0176 19.9553 0.0000 18.4277 0.0000
# 2 44.0176 138.6301 31.3932 0.0000 32.3862 0.0000
# 3 19.9553 31.3932 45.8579 0.0000 23.9136 0.0000
# 4 0.0000 0.0000 0.0000 28.7048 0.0000 12.1474
# 5 18.4277 32.3862 23.9136 0.0000 36.8480 0.0000
# 6 0.0000 0.0000 0.0000 12.1474 0.0000 27.4728
#
#
#
# Elastic Compliance Matrix: (Units=1/GPa)
#
#
# Indices 1 2 3 4 5 6 
#
# 1 0.019847 -0.004670 -0.003634 0.000000 -0.003463 0.000000
# 2 -0.004670 0.010478 -0.002353 0.000000 -0.005347 0.000000
# 3 -0.003634 -0.002353 0.034724 0.000000 -0.018650 0.000000
# 4 0.000000 0.000000 0.000000 0.042856 0.000000 -0.018949
# 5 -0.003463 -0.005347 -0.018650 0.000000 0.045673 0.000000
# 6 0.000000 0.000000 0.000000 -0.018949 0.000000 0.044778
#
#
# Mechanical properties :
#
#
# Convention : Reuss Voigt Hill
#
# Bulk Modulus (GPa) = 22.86439 49.20350 36.03395
# Shear Modulus (GPa) = 21.34482 29.05400 25.19941
#
# Velocity S-wave (km/s) = 3.09708 3.61334 3.36512
# Velocity P-wave (km/s) = 4.80249 6.28643 5.59389
#
# Compressibility (1/GPa) = 0.04373614
#
# Stress axis : x y z
#
# Youngs Moduli (GPa) = 50.38516 95.43644 28.79874
#
# Poissons Ratio (x) = 0.44568 0.10465
# Poissons Ratio (y) = 0.23530 0.06775
# Poissons Ratio (z) = 0.18310 0.22452
#
# Static dielectric constant tensor:
#      x y z
#    x 1.878720 0.000000 0.010770 
#    y 0.000000 1.745140 0.000000 
#    z 0.010770 0.000000 1.777050 
# 
# From -- ./inp_files/87731.got.cif
#   From: 2010.05.17/outbox.cif.g08.bks.cpg/sg10_44_cif.got.tgz:87731.got - 2010.06.03 11:33:40.
