data_PCOD9146936
_publ_section_title
;
Structure prediction by ZEFSAII (Michael W. Deem and Ramdas Pophale) SiO2 
 PCOD9146936
Probable space group: P 2/M
;
_chemical_formula_sum "Si O2"
_cell_formula_units_Z 28
_cell_length_a 16.047304
_cell_length_b 19.891059
_cell_length_c 9.388356
_cell_angle_alpha 90.000000
_cell_angle_beta 150.720125
_cell_angle_gamma 90.000000
_cell_volume 1465.635527
_symmetry_space_group_name_H-M "P 2/M"
_symmetry_group_IT_number 10
_symmetry_cell_setting 'monoclinic'
loop_
_space_group_symop_operation_xyz
x,y,z
-x,y,-z
-x,-y,-z
x,-y,z
loop_
_atom_site_type_symbol
_atom_site_label
_atom_site_fract_x
_atom_site_fract_y
_atom_site_fract_z
Si Si1 0.242387 0.796793 0.548411
Si Si2 0.584449 0.798589 0.897878
Si Si3 0.024089 0.074251 0.204088
Si Si4 0.159706 0.343845 0.328163
Si Si5 0.320657 0.422475 0.819579
Si Si6 0.811793 0.923879 0.146647
Si Si7 0.483036 0.657348 0.311830
O O1 0.391368 0.813084 0.658083
O O2 0.140115 0.864282 0.422462
O O3 0.134286 0.734439 0.330742
O O4 0.326648 0.774578 0.822646
O O5 0.580152 0.734913 0.787300
O O6 0.683944 0.864602 0.996199
O O7 0.851557 0.079104 0.037436
O O8 0.096894 0.000000 0.345568
O O9 0.000000 0.078781 0.000000
O O10 0.192210 0.384452 0.522111
O O11 0.332719 0.345929 0.491862
O O12 0.000000 0.368960 0.000000
O O13 0.272745 0.500000 0.769390
O O14 0.500000 0.420979 0.000000
O O15 0.357485 0.385714 0.023922
O O16 0.000000 0.915425 0.500000
O O17 0.753453 0.000000 0.094935
O O18 0.500000 0.634660 0.500000
#
# Coordination Sequence:
#
# PCOD9146936 Si02
#       7
#     4   4   4   4   4   4   4
#     4  10  19  34  55  79 109 147 188 232 281 336
#     4  10  20  34  55  80 109 145 188 236 280 335
#     4  10  21  36  53  76 108 143 182 231 284 338
#     4  10  20  36  59  86 116 150 190 235 280 333
#     4   9  18  36  62  86 115 156 192 224 274 340
#     4  10  20  35  53  77 108 143 186 236 287 339
#     4  10  21  38  57  85 118 149 191 234 280 334
#
# _framework density 19.104340000000001
#
# number of rings (size 3 to 8) (size 9 to 14) (size 15 to 20)
#    0.000    2.143    2.857    0.429    0.000    4.571 
#    0.000    2.143    0.000    3.857    0.000    0.000 
#    0.000    0.000    0.000    0.000    0.000    0.000 
#
# Total GULP energy -156141.716546 kJ/mol
# GULP energy per Si atom -5576.489877 kJ/mol
# Density = 1.906086 g / cm^3
# Si number density = 19.104340 Si / 1000 Ang^3
#
#
#
# Elastic Constant Matrix: (Units=GPa)
#
#
# Indices 1 2 3 4 5 6 
#
# 1 76.9921 42.4353 23.2114 0.0000 -30.1654 0.0000
# 2 42.4353 129.4090 57.8986 0.0000 -6.8830 0.0000
# 3 23.2114 57.8986 86.6403 0.0000 -20.9040 0.0000
# 4 0.0000 0.0000 0.0000 7.6318 0.0000 -2.9708
# 5 -30.1654 -6.8830 -20.9040 0.0000 25.7361 0.0000
# 6 0.0000 0.0000 0.0000 -2.9708 0.0000 11.9212
#
#
#
# Elastic Compliance Matrix: (Units=1/GPa)
#
#
# Indices 1 2 3 4 5 6 
#
# 1 0.036405 -0.014570 0.011615 0.000000 0.048208 0.000000
# 2 -0.014570 0.017158 -0.013153 0.000000 -0.023173 0.000000
# 3 0.011615 -0.013153 0.024447 0.000000 0.029953 0.000000
# 4 0.000000 0.000000 0.000000 0.145107 0.000000 0.036161
# 5 0.048208 -0.023173 0.029953 0.000000 0.113492 0.000000
# 6 0.000000 0.000000 0.000000 0.036161 0.000000 0.092896
#
#
# Mechanical properties :
#
#
# Convention : Reuss Voigt Hill
#
# Bulk Modulus (GPa) = 21.83769 60.01465 40.92617
# Shear Modulus (GPa) = 10.48248 20.35757 15.42003
#
# Velocity S-wave (km/s) = 2.34497 3.26789 2.84412
# Velocity P-wave (km/s) = 4.33444 6.76174 5.67929
#
# Compressibility (1/GPa) = 0.04579240
#
# Stress axis : x y z
#
# Youngs Moduli (GPa) = 27.46862 58.28266 40.90462
#
# Poissons Ratio (x) = 0.84920 -0.47511
# Poissons Ratio (y) = 0.40023 0.53804
# Poissons Ratio (z) = -0.31905 0.76662
#
# Static dielectric constant tensor:
#      x y z
#    x 1.676310 0.000000 -0.029650 
#    y 0.000000 1.663050 0.000000 
#    z -0.029650 0.000000 1.679300 
# 
# From -- ./inp_files/30375.got.cif
#   From: 2010.05.17/outbox.cif.g08.bks.cpg/sg10_16_cif.got.tgz:30375.got - 2010.06.03 11:33:40.
