data_PCOD9146086
_publ_section_title
;
Structure prediction by ZEFSAII (Michael W. Deem and Ramdas Pophale) SiO2 
 PCOD9146086
Probable space group: P 2/M
;
_chemical_formula_sum "Si O2"
_cell_formula_units_Z 32
_cell_length_a 16.313193
_cell_length_b 14.898502
_cell_length_c 13.296199
_cell_angle_alpha 90.000000
_cell_angle_beta 35.916017
_cell_angle_gamma 90.000000
_cell_volume 1895.615452
_symmetry_space_group_name_H-M "P 2/M"
_symmetry_group_IT_number 10
_symmetry_cell_setting 'monoclinic'
loop_
_space_group_symop_operation_xyz
x,y,z
-x,y,-z
-x,-y,-z
x,-y,z
loop_
_atom_site_type_symbol
_atom_site_label
_atom_site_fract_x
_atom_site_fract_y
_atom_site_fract_z
Si Si1 0.417127 0.395458 0.186147
Si Si2 0.620924 0.160901 0.311363
Si Si3 0.548947 0.682596 0.248511
Si Si4 0.823171 0.400350 0.063175
Si Si5 0.930471 0.102777 0.960408
Si Si6 0.702255 0.672757 0.373818
Si Si7 0.957476 0.275406 0.247697
Si Si8 0.084278 0.394968 0.520103
O O1 0.434732 0.500000 0.200446
O O2 0.486411 0.333138 0.201513
O O3 0.250882 0.380609 0.339774
O O4 0.500000 0.384010 0.000000
O O5 0.500000 0.115050 0.500000
O O6 0.562285 0.213831 0.271803
O O7 0.668902 0.242925 0.335502
O O8 0.762639 0.110582 0.141082
O O9 0.696457 0.634502 0.119263
O O10 0.439373 0.639012 0.435629
O O11 0.865265 0.500000 0.993217
O O12 0.773762 0.396203 0.227543
O O13 0.946453 0.331045 0.924485
O O14 0.989907 0.173809 0.820473
O O15 0.966977 0.000000 0.899883
O O16 0.000000 0.124921 0.000000
O O17 0.801295 0.708454 0.363469
O O18 0.968916 0.324376 0.343688
O O19 0.066477 0.500000 0.570306
O O20 0.000000 0.384407 0.500000
#
# Coordination Sequence:
#
# PCOD9146086 Si02
#       8
#     4   4   4   4   4   4   4   4
#     4  10  21  35  52  74 102 137 184 231 266 315
#     4   9  18  33  53  76 108 142 178 222 267 319
#     4  10  19  34  51  72 102 147 181 220 269 314
#     4  11  22  30  47  76 107 146 183 215 257 319
#     4  11  21  35  57  83 111 147 186 225 273 328
#     4  10  19  33  50  72 107 143 182 218 258 320
#     4  12  20  37  55  75 111 143 181 227 271 323
#     4  10  23  39  56  80 109 145 185 228 277 322
#
# _framework density 16.881060999999999
#
# number of rings (size 3 to 8) (size 9 to 14) (size 15 to 20)
#    0.000    1.625    5.000    2.250    1.750    3.250 
#    0.000    0.000    0.000    0.375    0.000    0.000 
#    0.000    2.000    0.000    0.000    0.000    0.000 
#
# Total GULP energy -178413.021656 kJ/mol
# GULP energy per Si atom -5575.406927 kJ/mol
# Density = 1.684264 g / cm^3
# Si number density = 16.881061 Si / 1000 Ang^3
#
#
#
# Elastic Constant Matrix: (Units=GPa)
#
#
# Indices 1 2 3 4 5 6 
#
# 1 89.5951 25.3794 21.6283 0.0000 -1.3100 0.0000
# 2 25.3794 77.9361 28.4126 0.0000 3.9717 0.0000
# 3 21.6283 28.4126 61.4085 0.0000 -1.1433 0.0000
# 4 0.0000 0.0000 0.0000 14.5753 0.0000 3.4012
# 5 -1.3100 3.9717 -1.1433 0.0000 19.9614 0.0000
# 6 0.0000 0.0000 0.0000 3.4012 0.0000 10.9069
#
#
#
# Elastic Compliance Matrix: (Units=1/GPa)
#
#
# Indices 1 2 3 4 5 6 
#
# 1 0.012799 -0.003126 -0.003037 0.000000 0.001288 0.000000
# 2 -0.003126 0.016444 -0.006579 0.000000 -0.003854 0.000000
# 3 -0.003037 -0.006579 0.020441 0.000000 0.002280 0.000000
# 4 0.000000 0.000000 0.000000 0.073994 0.000000 -0.023074
# 5 0.001288 -0.003854 0.002280 0.000000 0.051079 0.000000
# 6 0.000000 0.000000 0.000000 -0.023074 0.000000 0.098880
#
#
# Mechanical properties :
#
#
# Convention : Reuss Voigt Hill
#
# Bulk Modulus (GPa) = 41.32531 42.19782 41.76157
# Shear Modulus (GPa) = 16.27673 19.32337 17.80005
#
# Velocity S-wave (km/s) = 3.10853 3.38698 3.25074
# Velocity P-wave (km/s) = 6.11697 6.35192 6.23555
#
# Compressibility (1/GPa) = 0.02419824
#
# Stress axis : x y z
#
# Youngs Moduli (GPa) = 78.13147 60.81283 48.92227
#
# Poissons Ratio (x) = 0.19011 0.14860
# Poissons Ratio (y) = 0.24426 0.32186
# Poissons Ratio (z) = 0.23732 0.40009
#
# Static dielectric constant tensor:
#      x y z
#    x 1.584900 0.000000 -0.022000 
#    y 0.000000 1.564110 0.000000 
#    z -0.022000 0.000000 1.603940 
# 
# From -- ./inp_files/51616.got.cif
#   From: 2010.05.17/outbox.cif.g08.bks.cpg/sg10_26_cif.got.tgz:51616.got - 2010.06.03 11:33:40.
