data_PCOD9146334
_publ_section_title
;
Structure prediction by ZEFSAII (Michael W. Deem and Ramdas Pophale) SiO2 
 PCOD9146334
Probable space group: P 2/M
;
_chemical_formula_sum "Si O2"
_cell_formula_units_Z 32
_cell_length_a 12.672681
_cell_length_b 7.436287
_cell_length_c 30.257352
_cell_angle_alpha 90.000000
_cell_angle_beta 30.811141
_cell_angle_gamma 90.000000
_cell_volume 1460.506562
_symmetry_space_group_name_H-M "P 2/M"
_symmetry_group_IT_number 10
_symmetry_cell_setting 'monoclinic'
loop_
_space_group_symop_operation_xyz
x,y,z
-x,y,-z
-x,-y,-z
x,-y,z
loop_
_atom_site_type_symbol
_atom_site_label
_atom_site_fract_x
_atom_site_fract_y
_atom_site_fract_z
Si Si1 0.277892 0.289569 0.594049
Si Si2 0.696951 0.780272 0.669310
Si Si3 0.871876 0.217205 0.446051
Si Si4 0.705816 0.206681 0.946881
Si Si5 0.882765 0.780245 0.975085
Si Si6 0.520014 0.217618 0.638545
Si Si7 0.692106 0.218814 0.135890
Si Si8 0.907193 0.291587 0.248602
O O1 0.500000 0.211018 0.500000
O O2 0.314342 0.500000 0.590963
O O3 0.136836 0.274319 0.601602
O O4 0.173697 0.213728 0.675641
O O5 0.621848 0.723927 0.647872
O O6 0.524810 0.722856 0.766451
O O7 0.923958 0.721665 0.601866
O O8 0.700817 0.000000 0.667297
O O9 0.666722 0.277544 0.545574
O O10 0.871365 0.000000 0.446979
O O11 0.792530 0.285794 0.961377
O O12 0.892091 0.206410 0.845079
O O13 0.651930 0.000000 0.977391
O O14 0.500000 0.288761 0.000000
O O15 0.116912 0.724863 0.901751
O O16 0.887909 0.000000 0.972199
O O17 0.746281 0.726860 0.066527
O O18 0.287536 0.278215 0.714197
O O19 0.516152 0.000000 0.640142
O O20 0.691082 0.000000 0.136445
O O21 0.960081 0.500000 0.236368
#
# Coordination Sequence:
#
# PCOD9146334 Si02
#       8
#     4   4   4   4   4   4   4   4
#     4  10  21  39  57  73 103 145 188 231 273 321
#     4   9  17  29  47  77 114 144 170 213 275 329
#     4  10  20  32  52  81 109 139 178 226 276 326
#     4  10  21  36  55  81 111 139 171 220 277 328
#     4   8  14  26  45  71 100 131 168 207 252 304
#     4  10  19  33  54  79 110 142 176 221 273 328
#     4   8  13  23  43  69  99 135 170 203 245 309
#     4  11  23  38  58  80 104 143 190 231 273 323
#
# _framework density 21.910208000000001
#
# number of rings (size 3 to 8) (size 9 to 14) (size 15 to 20)
#    0.000    2.500    1.250    2.250    0.000    6.000 
#    0.000    3.125    0.000    1.500    0.000    7.000 
#    0.000    0.000    0.000    0.000    0.000    0.000 
#
# Total GULP energy -178757.434377 kJ/mol
# GULP energy per Si atom -5586.169824 kJ/mol
# Density = 2.186034 g / cm^3
# Si number density = 21.910208 Si / 1000 Ang^3
#
#
#
# Elastic Constant Matrix: (Units=GPa)
#
#
# Indices 1 2 3 4 5 6 
#
# 1 131.8625 -6.1565 73.2703 0.0000 -1.2206 0.0000
# 2 -6.1565 67.5771 -2.8801 0.0000 1.4658 0.0000
# 3 73.2703 -2.8801 111.9930 0.0000 -11.5884 0.0000
# 4 0.0000 0.0000 0.0000 -7.9453 0.0000 1.9795
# 5 -1.2206 1.4658 -11.5884 0.0000 28.2736 0.0000
# 6 0.0000 0.0000 0.0000 1.9795 0.0000 8.9831
#
#
#
# Elastic Compliance Matrix: (Units=1/GPa)
#
#
# Indices 1 2 3 4 5 6 
#
# 1 0.012177 0.000821 -0.008245 0.000000 -0.002896 0.000000
# 2 0.000821 0.014881 -0.000241 0.000000 -0.000835 0.000000
# 3 -0.008245 -0.000241 0.014914 0.000000 0.005769 0.000000
# 4 0.000000 0.000000 0.000000 -0.119310 0.000000 0.026291
# 5 -0.002896 -0.000835 0.005769 0.000000 0.037652 0.000000
# 6 0.000000 0.000000 0.000000 0.026291 0.000000 0.105527
#
#
# Mechanical properties :
#
#
# Convention : Reuss Voigt Hill
#
# Bulk Modulus (GPa) = 37.53548 48.87778 43.20663
# Shear Modulus (GPa) = 55.52472 22.34218 38.93345
#
# Velocity S-wave (km/s) = 5.03954 3.19676 4.21997
# Velocity P-wave (km/s) = 7.14362 5.99853 6.59597
#
# Compressibility (1/GPa) = 0.02664146
#
# Stress axis : x y z
#
# Youngs Moduli (GPa) = 82.12514 67.20185 67.05067
#
# Poissons Ratio (x) = -0.05516 0.55283
# Poissons Ratio (y) = -0.06740 0.01614
# Poissons Ratio (z) = 0.67712 0.01617
#
# Static dielectric constant tensor:
#      x y z
#    x 1.781560 0.000000 0.007840 
#    y 0.000000 1.865550 0.000000 
#    z 0.007840 0.000000 1.768970 
# 
# From -- ./inp_files/94954.got.cif
#   From: 2010.05.17/outbox.cif.g08.bks.cpg/sg10_48_cif.got.tgz:94954.got - 2010.06.03 11:33:40.
