data_PCOD9146451
_publ_section_title
;
Structure prediction by ZEFSAII (Michael W. Deem and Ramdas Pophale) SiO2 
 PCOD9146451
Probable space group: P 2/M
;
_chemical_formula_sum "Si O2"
_cell_formula_units_Z 24
_cell_length_a 14.954316
_cell_length_b 13.348115
_cell_length_c 8.174573
_cell_angle_alpha 90.000000
_cell_angle_beta 41.102334
_cell_angle_gamma 90.000000
_cell_volume 1072.717079
_symmetry_space_group_name_H-M "P 2/M"
_symmetry_group_IT_number 10
_symmetry_cell_setting 'monoclinic'
loop_
_space_group_symop_operation_xyz
x,y,z
-x,y,-z
-x,-y,-z
x,-y,z
loop_
_atom_site_type_symbol
_atom_site_label
_atom_site_fract_x
_atom_site_fract_y
_atom_site_fract_z
Si Si1 0.133974 0.111353 0.706164
Si Si2 0.429768 0.113870 0.420651
Si Si3 0.915925 0.383826 0.966243
Si Si4 0.830829 0.689361 0.533285
Si Si5 0.562886 0.675931 0.739971
Si Si6 0.693628 0.382732 0.049793
O O1 0.265498 0.117744 0.643779
O O2 0.142570 0.196328 0.556226
O O3 0.137068 0.000000 0.627498
O O4 0.000000 0.119808 0.000000
O O5 0.500000 0.131152 0.500000
O O6 0.462564 0.205546 0.254427
O O7 0.468207 0.000000 0.316201
O O8 0.894052 0.500000 0.035991
O O9 0.772744 0.343061 0.099954
O O10 0.028466 0.370425 0.668982
O O11 0.000000 0.336862 0.000000
O O12 0.721628 0.652274 0.545618
O O13 0.757450 0.675641 0.807300
O O14 0.500000 0.643837 0.000000
O O15 0.468658 0.626040 0.733859
O O16 0.728418 0.500000 0.982607
#
# Coordination Sequence:
#
# PCOD9146451 Si02
#       6
#     4   4   4   4   4   4
#     4   9  18  33  53  79 111 143 174 213 263 313
#     4   9  18  33  53  77 105 138 175 213 257 311
#     4  10  21  36  54  77 103 134 176 222 267 316
#     4  10  19  33  55  80 105 138 176 215 261 313
#     4   9  20  34  51  78 106 137 175 215 260 310
#     4  10  21  37  55  76 106 142 177 218 268 317
#
# _framework density 22.373093999999998
#
# number of rings (size 3 to 8) (size 9 to 14) (size 15 to 20)
#    0.000    2.500    0.000    1.500    0.000    9.333 
#    0.000    2.500    0.000    5.500    0.000    0.000 
#    0.000    0.000    0.000    0.000    0.000    0.000 
#
# Total GULP energy -133832.835222 kJ/mol
# GULP energy per Si atom -5576.368134 kJ/mol
# Density = 2.232217 g / cm^3
# Si number density = 22.373094 Si / 1000 Ang^3
#
#
#
# Elastic Constant Matrix: (Units=GPa)
#
#
# Indices 1 2 3 4 5 6 
#
# 1 145.3260 15.9531 17.0726 0.0000 -19.2006 0.0000
# 2 15.9531 88.0678 3.5510 0.0000 1.7858 0.0000
# 3 17.0726 3.5510 32.5089 0.0000 -7.9023 0.0000
# 4 0.0000 0.0000 0.0000 18.8136 0.0000 -8.2545
# 5 -19.2006 1.7858 -7.9023 0.0000 35.2994 0.0000
# 6 0.0000 0.0000 0.0000 -8.2545 0.0000 17.3751
#
#
#
# Elastic Compliance Matrix: (Units=1/GPa)
#
#
# Indices 1 2 3 4 5 6 
#
# 1 0.007880 -0.001377 -0.003098 0.000000 0.003662 0.000000
# 2 -0.001377 0.011673 -0.000928 0.000000 -0.001547 0.000000
# 3 -0.003098 -0.000928 0.033938 0.000000 0.005959 0.000000
# 4 0.000000 0.000000 0.000000 0.067150 0.000000 0.031901
# 5 0.003662 -0.001547 0.005959 0.000000 0.031734 0.000000
# 6 0.000000 0.000000 0.000000 0.031901 0.000000 0.072709
#
#
# Mechanical properties :
#
#
# Convention : Reuss Voigt Hill
#
# Bulk Modulus (GPa) = 23.42715 37.67292 30.55004
# Shear Modulus (GPa) = 19.99065 29.58601 24.78833
#
# Velocity S-wave (km/s) = 2.99241 3.64042 3.33220
# Velocity P-wave (km/s) = 4.73637 5.87752 5.33753
#
# Compressibility (1/GPa) = 0.04268551
#
# Stress axis : x y z
#
# Youngs Moduli (GPa) = 126.90334 85.66716 29.46582
#
# Poissons Ratio (x) = 0.11795 0.09128
# Poissons Ratio (y) = 0.17472 0.02735
# Poissons Ratio (z) = 0.39311 0.07951
#
# Static dielectric constant tensor:
#      x y z
#    x 1.892890 0.000000 -0.011160 
#    y 0.000000 1.830690 0.000000 
#    z -0.011160 0.000000 1.849500 
# 
# From -- ./inp_files/29257.got.cif
#   From: 2010.05.17/outbox.cif.g08.bks.cpg/sg10_15_cif.got.tgz:29257.got - 2010.06.03 11:33:40.
