data_PCOD9146177
_publ_section_title
;
Structure prediction by ZEFSAII (Michael W. Deem and Ramdas Pophale) SiO2 
 PCOD9146177
Probable space group: P 2/M
;
_chemical_formula_sum "Si O2"
_cell_formula_units_Z 32
_cell_length_a 23.164894
_cell_length_b 7.471451
_cell_length_c 11.285363
_cell_angle_alpha 90.000000
_cell_angle_beta 49.190610
_cell_angle_gamma 90.000000
_cell_volume 1478.367474
_symmetry_space_group_name_H-M "P 2/M"
_symmetry_group_IT_number 10
_symmetry_cell_setting 'monoclinic'
loop_
_space_group_symop_operation_xyz
x,y,z
-x,y,-z
-x,-y,-z
x,-y,z
loop_
_atom_site_type_symbol
_atom_site_label
_atom_site_fract_x
_atom_site_fract_y
_atom_site_fract_z
Si Si1 0.819977 0.280133 0.010923
Si Si2 0.759729 0.716099 0.703493
Si Si3 0.913240 0.288225 0.111437
Si Si4 0.613234 0.284480 0.779641
Si Si5 0.048469 0.298901 0.329729
Si Si6 0.467871 0.715553 0.856574
Si Si7 0.910819 0.795695 0.373821
Si Si8 0.681016 0.718345 0.056367
O O1 0.821327 0.500000 0.008380
O O2 0.875905 0.221191 0.828974
O O3 0.858726 0.218478 0.080722
O O4 0.733917 0.225839 0.094882
O O5 0.759709 0.500000 0.702914
O O6 0.699298 0.779442 0.684356
O O7 0.844421 0.774460 0.558957
O O8 0.726694 0.770256 0.875291
O O9 0.919931 0.500000 0.080830
O O10 0.880531 0.261259 0.286491
O O11 0.000000 0.215175 0.000000
O O12 0.617240 0.500000 0.759893
O O13 0.554186 0.216579 0.759515
O O14 0.573191 0.253845 0.961232
O O15 0.068713 0.500000 0.344756
O O16 0.000000 0.210197 0.500000
O O17 0.986571 0.309682 0.307562
O O18 0.473259 0.500000 0.835414
O O19 0.406398 0.780271 0.842624
O O20 0.934652 0.000000 0.335957
O O21 0.678523 0.500000 0.060165
#
# Coordination Sequence:
#
# PCOD9146177 Si02
#       8
#     4   4   4   4   4   4   4   4
#     4   9  16  27  45  68  88 112 148 187 226 265
#     4   9  16  28  46  67  94 125 156 182 215 269
#     4  10  19  35  54  66  82 112 156 202 233 268
#     4   7  10  17  33  59  90 123 149 172 207 261
#     4  10  19  33  53  72  92 120 153 183 217 272
#     4   7   9  15  30  59  97 122 138 169 218 265
#     4  12  24  34  46  66  94 121 152 193 238 275
#     4   8  13  22  41  71  99 118 141 181 227 272
#
# _framework density 21.645499000000001
#
# number of rings (size 3 to 8) (size 9 to 14) (size 15 to 20)
#    0.000    3.000    1.250    4.125    0.000    2.500 
#    0.000    0.000    0.000    0.750    0.000    7.875 
#    0.000    7.000    0.000    0.000    0.000    0.000 
#
# Total GULP energy -178328.121964 kJ/mol
# GULP energy per Si atom -5572.753811 kJ/mol
# Density = 2.159623 g / cm^3
# Si number density = 21.645499 Si / 1000 Ang^3
#
#
#
# Elastic Constant Matrix: (Units=GPa)
#
#
# Indices 1 2 3 4 5 6 
#
# 1 172.9979 16.1164 5.2498 0.0000 -7.8481 0.0000
# 2 16.1164 62.4752 -3.7977 0.0000 -2.0919 0.0000
# 3 5.2498 -3.7977 5.6644 0.0000 4.4997 0.0000
# 4 0.0000 0.0000 0.0000 28.9795 0.0000 15.6655
# 5 -7.8481 -2.0919 4.4997 0.0000 32.2855 0.0000
# 6 0.0000 0.0000 0.0000 15.6655 0.0000 -32.3274
#
#
#
# Elastic Compliance Matrix: (Units=1/GPa)
#
#
# Indices 1 2 3 4 5 6 
#
# 1 0.006394 -0.002137 -0.009539 0.000000 0.002745 0.000000
# 2 -0.002137 0.017409 0.014809 0.000000 -0.001456 0.000000
# 3 -0.009539 0.014809 0.220842 0.000000 -0.032138 0.000000
# 4 0.000000 0.000000 0.000000 0.027344 0.000000 0.013251
# 5 0.002745 -0.001456 -0.032138 0.000000 0.036026 0.000000
# 6 0.000000 0.000000 0.000000 0.013251 0.000000 -0.024512
#
#
# Mechanical properties :
#
#
# Convention : Reuss Voigt Hill
#
# Bulk Modulus (GPa) = 3.98550 30.69716 17.34133
# Shear Modulus (GPa) = 13.85529 20.69213 17.27371
#
# Velocity S-wave (km/s) = 2.53276 3.09521 2.82800
# Velocity P-wave (km/s) = 3.22466 5.19483 4.32347
#
# Compressibility (1/GPa) = 0.25090950
#
# Stress axis : x y z
#
# Youngs Moduli (GPa) = 156.40799 57.44101 4.52813
#
# Poissons Ratio (x) = 0.12277 0.04319
# Poissons Ratio (y) = 0.33428 -0.06706
# Poissons Ratio (z) = 1.49201 -0.85065
#
# Static dielectric constant tensor:
#      x y z
#    x 1.879770 0.000000 0.012870 
#    y 0.000000 1.846840 0.000000 
#    z 0.012870 0.000000 1.749110 
# 
# From -- ./inp_files/56431.got.cif
#   From: 2010.05.17/outbox.cif.g08.bks.cpg/sg10_29_cif.got.tgz:56431.got - 2010.06.03 11:33:40.
