data_PCOD9146600
_publ_section_title
;
Structure prediction by ZEFSAII (Michael W. Deem and Ramdas Pophale) SiO2 
 PCOD9146600
Probable space group: P 2/M
;
_chemical_formula_sum "Si O2"
_cell_formula_units_Z 30
_cell_length_a 18.492409
_cell_length_b 15.018013
_cell_length_c 13.284372
_cell_angle_alpha 90.000000
_cell_angle_beta 21.897371
_cell_angle_gamma 90.000000
_cell_volume 1375.916335
_symmetry_space_group_name_H-M "P 2/M"
_symmetry_group_IT_number 10
_symmetry_cell_setting 'monoclinic'
loop_
_space_group_symop_operation_xyz
x,y,z
-x,y,-z
-x,-y,-z
x,-y,z
loop_
_atom_site_type_symbol
_atom_site_label
_atom_site_fract_x
_atom_site_fract_y
_atom_site_fract_z
Si Si1 0.821740 0.099000 0.924228
Si Si2 0.553103 0.599085 0.660309
Si Si3 0.220152 0.193488 0.832486
Si Si4 0.500000 0.649230 0.500000
Si Si5 0.219526 0.598076 0.257406
Si Si6 0.135627 0.783942 0.425325
Si Si7 0.238668 0.783664 0.585670
Si Si8 0.544677 0.102630 0.087349
O O1 0.984755 0.174096 0.697447
O O2 0.908559 0.000000 0.807240
O O3 0.732254 0.118281 0.148327
O O4 0.668280 0.105252 0.032218
O O5 0.628821 0.500000 0.585887
O O6 0.509094 0.601743 0.596841
O O7 0.696017 0.680814 0.498281
O O8 0.364228 0.613333 0.975667
O O9 0.316012 0.285330 0.743780
O O10 0.294301 0.177965 0.623978
O O11 0.989906 0.205291 0.124918
O O12 0.266808 0.500000 0.240164
O O13 0.219429 0.684263 0.329907
O O14 0.000000 0.592771 0.500000
O O15 0.000000 0.780072 0.500000
O O16 0.310494 0.851385 0.178160
O O17 0.356787 0.838006 0.350394
O O18 0.501676 0.000000 0.120234
#
# Coordination Sequence:
#
# PCOD9146600 Si02
#       8
#     4   4   4   2   4   4   4   4
#     4  10  20  34  55  84 111 144 189 237 282 324
#     4  10  19  35  59  85 115 147 186 229 275 330
#     4  10  22  37  58  76 112 147 187 227 278 332
#     4  10  21  36  57  86 112 142 185 234 281 320
#     4   9  17  28  51  85 113 143 182 223 269 324
#     4   9  17  30  53  78 114 145 181 227 279 324
#     4  10  21  39  54  80 110 152 185 224 278 341
#     4  10  19  33  56  82 108 143 186 230 279 334
#
# _framework density 21.803652
#
# number of rings (size 3 to 8) (size 9 to 14) (size 15 to 20)
#    0.000    2.267    1.333    2.200    3.733    2.667 
#    0.000    9.667    0.000    2.400    0.000    1.867 
#    0.000    0.000    0.000    0.000    0.000    0.000 
#
# Total GULP energy -167502.982328 kJ/mol
# GULP energy per Si atom -5583.432744 kJ/mol
# Density = 2.175403 g / cm^3
# Si number density = 21.803652 Si / 1000 Ang^3
#
#
#
# Elastic Constant Matrix: (Units=GPa)
#
#
# Indices 1 2 3 4 5 6 
#
# 1 63.8079 23.0721 8.6207 0.0000 11.9887 0.0000
# 2 23.0721 127.1036 32.4324 0.0000 11.1918 0.0000
# 3 8.6207 32.4324 76.7596 0.0000 7.4700 0.0000
# 4 0.0000 0.0000 0.0000 9.1306 0.0000 13.9325
# 5 11.9887 11.1918 7.4700 0.0000 26.0304 0.0000
# 6 0.0000 0.0000 0.0000 13.9325 0.0000 -4.3508
#
#
#
# Elastic Compliance Matrix: (Units=1/GPa)
#
#
# Indices 1 2 3 4 5 6 
#
# 1 0.017970 -0.002576 -0.000239 0.000000 -0.007100 0.000000
# 2 -0.002576 0.009391 -0.003499 0.000000 -0.001847 0.000000
# 3 -0.000239 -0.003499 0.014789 0.000000 -0.002630 0.000000
# 4 0.000000 0.000000 0.000000 0.018606 0.000000 0.059581
# 5 -0.007100 -0.001847 -0.002630 0.000000 0.043236 0.000000
# 6 0.000000 0.000000 0.000000 0.059581 0.000000 -0.039047
#
#
# Mechanical properties :
#
#
# Convention : Reuss Voigt Hill
#
# Bulk Modulus (GPa) = 33.87260 43.99127 38.93194
# Shear Modulus (GPa) = 57.20107 19.73179 38.46643
#
# Velocity S-wave (km/s) = 5.12753 3.01155 4.20482
# Velocity P-wave (km/s) = 7.11509 5.68440 6.43960
#
# Compressibility (1/GPa) = 0.02952239
#
# Stress axis : x y z
#
# Youngs Moduli (GPa) = 55.64919 106.49030 67.61940
#
# Poissons Ratio (x) = 0.27429 0.01615
# Poissons Ratio (y) = 0.14334 0.23658
# Poissons Ratio (z) = 0.01329 0.37257
#
# Static dielectric constant tensor:
#      x y z
#    x 1.841580 0.000000 0.004070 
#    y 0.000000 1.788410 0.000000 
#    z 0.004070 0.000000 1.754930 
# 
# From -- ./inp_files/70704.got.cif
#   From: 2010.05.17/outbox.cif.g08.bks.cpg/sg10_36_cif.got.tgz:70704.got - 2010.06.03 11:33:40.
