data_PCOD9146806
_publ_section_title
;
Structure prediction by ZEFSAII (Michael W. Deem and Ramdas Pophale) SiO2 
 PCOD9146806
Probable space group: P 2/M
;
_chemical_formula_sum "Si O2"
_cell_formula_units_Z 28
_cell_length_a 21.922086
_cell_length_b 12.811738
_cell_length_c 18.357729
_cell_angle_alpha 90.000000
_cell_angle_beta 17.473762
_cell_angle_gamma 90.000000
_cell_volume 1548.172724
_symmetry_space_group_name_H-M "P 2/M"
_symmetry_group_IT_number 10
_symmetry_cell_setting 'monoclinic'
loop_
_space_group_symop_operation_xyz
x,y,z
-x,y,-z
-x,-y,-z
x,-y,z
loop_
_atom_site_type_symbol
_atom_site_label
_atom_site_fract_x
_atom_site_fract_y
_atom_site_fract_z
Si Si1 0.552521 0.299458 0.018497
Si Si2 0.148276 0.116745 0.899935
Si Si3 0.500000 0.285234 0.500000
Si Si4 0.209173 0.878728 0.404664
Si Si5 0.000000 0.788558 0.500000
Si Si6 0.977246 0.213604 0.238494
Si Si7 0.636731 0.615153 0.621138
Si Si8 0.327918 0.382858 0.839510
O O1 0.411081 0.194184 0.177494
O O2 0.473156 0.365051 0.176792
O O3 0.500000 0.349742 0.000000
O O4 0.792526 0.275711 0.753059
O O5 0.311291 0.207697 0.703233
O O6 0.237637 0.000000 0.803106
O O7 0.000000 0.118703 0.000000
O O8 0.030476 0.141768 0.109110
O O9 0.450792 0.354299 0.626418
O O10 0.073710 0.852237 0.487479
O O11 0.080715 0.849724 0.623062
O O12 0.264552 0.000000 0.341064
O O13 0.792020 0.291020 0.432169
O O14 0.164090 0.292312 0.037997
O O15 0.733525 0.500000 0.511653
O O16 0.475708 0.617520 0.739880
O O17 0.241453 0.500000 0.930737
#
# Coordination Sequence:
#
# PCOD9146806 Si02
#       8
#     4   4   2   4   2   4   4   4
#     4   9  20  35  51  74 102 130 164 206 248 295
#     4  10  20  34  53  76 103 136 170 204 246 295
#     4  10  20  34  52  76 106 134 166 208 250 294
#     4  10  20  33  51  75 101 131 167 205 247 296
#     4  10  19  34  53  72 102 134 163 202 249 296
#     4  10  20  35  53  74 102 133 167 208 250 294
#     4  10  20  35  54  75 100 131 167 207 251 297
#     4  10  20  34  53  76 101 132 169 208 251 297
#
# _framework density 18.085837000000001
#
# number of rings (size 3 to 8) (size 9 to 14) (size 15 to 20)
#    0.000    2.143    0.000    3.214    0.000    3.429 
#    0.000    0.357    0.000   16.286    0.000    0.000 
#    0.000    0.000    0.000    0.000    0.000    0.000 
#
# Total GULP energy -156149.721992 kJ/mol
# GULP energy per Si atom -5576.775785 kJ/mol
# Density = 1.804467 g / cm^3
# Si number density = 18.085837 Si / 1000 Ang^3
#
#
#
# Elastic Constant Matrix: (Units=GPa)
#
#
# Indices 1 2 3 4 5 6 
#
# 1 95.2442 27.1217 27.6585 0.0000 -4.6736 0.0000
# 2 27.1217 58.9299 -1.5050 0.0000 -12.5372 0.0000
# 3 27.6585 -1.5050 68.8417 0.0000 -6.1106 0.0000
# 4 0.0000 0.0000 0.0000 9.9296 0.0000 -52.6634
# 5 -4.6736 -12.5372 -6.1106 0.0000 18.3097 0.0000
# 6 0.0000 0.0000 0.0000 -52.6634 0.0000 -370.3774
#
#
#
# Elastic Compliance Matrix: (Units=1/GPa)
#
#
# Indices 1 2 3 4 5 6 
#
# 1 0.014256 -0.007475 -0.006206 0.000000 -0.003551 0.000000
# 2 -0.007475 0.023975 0.004962 0.000000 0.016165 0.000000
# 3 -0.006206 0.004962 0.017817 0.000000 0.007760 0.000000
# 4 0.000000 0.000000 0.000000 0.057413 0.000000 -0.008163
# 5 -0.003551 0.016165 0.007760 0.000000 0.067368 0.000000
# 6 0.000000 0.000000 0.000000 -0.008163 0.000000 -0.001539
#
#
# Mechanical properties :
#
#
# Convention : Reuss Voigt Hill
#
# Bulk Modulus (GPa) = 25.89996 36.61844 31.25920
# Shear Modulus (GPa) = 23.85524 -57.11158 -16.62817
#
# Velocity S-wave (km/s) = 3.63575 -5.62553 -3.03545
# Velocity P-wave (km/s) = 5.65478 4.68023 2.24410
#
# Compressibility (1/GPa) = 0.03861010
#
# Stress axis : x y z
#
# Youngs Moduli (GPa) = 70.14629 41.70950 56.12682
#
# Poissons Ratio (x) = 0.31178 0.34833
# Poissons Ratio (y) = 0.52434 -0.27851
# Poissons Ratio (z) = 0.43534 -0.20697
#
# Static dielectric constant tensor:
#      x y z
#    x 1.589940 0.000000 0.012790 
#    y 0.000000 1.599800 0.000000 
#    z 0.012790 0.000000 1.616870 
# 
# From -- ./inp_files/79549.got.cif
#   From: 2010.05.17/outbox.cif.g08.bks.cpg/sg10_40_cif.got.tgz:79549.got - 2010.06.03 11:33:40.
