data_PCOD9146139
_publ_section_title
;
Structure prediction by ZEFSAII (Michael W. Deem and Ramdas Pophale) SiO2 
 PCOD9146139
Probable space group: P 2/M
;
_chemical_formula_sum "Si O2"
_cell_formula_units_Z 24
_cell_length_a 22.365054
_cell_length_b 9.193801
_cell_length_c 9.836254
_cell_angle_alpha 90.000000
_cell_angle_beta 135.743956
_cell_angle_gamma 90.000000
_cell_volume 1411.454348
_symmetry_space_group_name_H-M "P 2/M"
_symmetry_group_IT_number 10
_symmetry_cell_setting 'monoclinic'
loop_
_space_group_symop_operation_xyz
x,y,z
-x,y,-z
-x,-y,-z
x,-y,z
loop_
_atom_site_type_symbol
_atom_site_label
_atom_site_fract_x
_atom_site_fract_y
_atom_site_fract_z
Si Si1 0.023787 0.673577 0.693881
Si Si2 0.868186 0.173459 0.564011
Si Si3 0.734850 0.826352 0.577769
Si Si4 0.598974 0.673260 0.164744
Si Si5 0.732275 0.327493 0.150780
Si Si6 0.223546 0.326838 0.076230
O O1 0.009972 0.500000 0.682240
O O2 0.000000 0.715652 0.500000
O O3 0.960363 0.755160 0.692669
O O4 0.123036 0.703321 0.885373
O O5 0.819462 0.209404 0.625243
O O6 0.806904 0.238428 0.346769
O O7 0.873586 0.000000 0.560987
O O8 0.655085 0.757394 0.367124
O O9 0.744170 0.760083 0.741680
O O10 0.726734 0.000000 0.568575
O O11 0.602856 0.500000 0.199829
O O12 0.646317 0.696453 0.097330
O O13 0.500000 0.717442 0.000000
O O14 0.754219 0.500000 0.195131
O O15 0.728096 0.290612 0.985503
O O16 0.232377 0.500000 0.115178
#
# Coordination Sequence:
#
# PCOD9146139 Si02
#       6
#     4   4   4   4   4   4
#     4  10  19  33  52  75 103 136 180 222 256 299
#     4  10  20  33  50  74 103 139 179 215 256 303
#     4  10  22  37  52  75 109 142 171 210 260 312
#     4   9  18  35  61  86 103 128 170 215 259 312
#     4   9  17  33  55  77 104 135 171 215 259 306
#     4  10  20  34  53  76 103 139 176 215 260 303
#
# _framework density 17.003737999999998
#
# number of rings (size 3 to 8) (size 9 to 14) (size 15 to 20)
#    0.000    2.333    1.667    1.000    0.000    4.667 
#    0.000    4.167    0.000    5.000    0.000    0.000 
#    0.000    0.000    0.000    0.000    0.000    0.000 
#
# Total GULP energy -133904.850488 kJ/mol
# GULP energy per Si atom -5579.368770 kJ/mol
# Density = 1.696504 g / cm^3
# Si number density = 17.003738 Si / 1000 Ang^3
#
#
#
# Elastic Constant Matrix: (Units=GPa)
#
#
# Indices 1 2 3 4 5 6 
#
# 1 110.8573 51.8257 75.1735 0.0000 -5.8930 0.0000
# 2 51.8257 38.1752 48.1629 0.0000 -6.1317 0.0000
# 3 75.1735 48.1629 101.0014 0.0000 -17.3757 0.0000
# 4 0.0000 0.0000 0.0000 3.6877 0.0000 4.2912
# 5 -5.8930 -6.1317 -17.3757 0.0000 30.3027 0.0000
# 6 0.0000 0.0000 0.0000 4.2912 0.0000 19.5272
#
#
#
# Elastic Compliance Matrix: (Units=1/GPa)
#
#
# Indices 1 2 3 4 5 6 
#
# 1 0.026828 -0.027515 -0.007663 0.000000 -0.004744 0.000000
# 2 -0.027515 0.094715 -0.024751 0.000000 -0.000378 0.000000
# 3 -0.007663 -0.024751 0.029166 0.000000 0.010226 0.000000
# 4 0.000000 0.000000 0.000000 0.364337 0.000000 -0.080065
# 5 -0.004744 -0.000378 0.010226 0.000000 0.037865 0.000000
# 6 0.000000 0.000000 0.000000 -0.080065 0.000000 0.068805
#
#
# Mechanical properties :
#
#
# Convention : Reuss Voigt Hill
#
# Bulk Modulus (GPa) = 32.41465 66.70646 49.56055
# Shear Modulus (GPa) = 6.65018 15.69497 11.17257
#
# Velocity S-wave (km/s) = 1.97977 3.04144 2.56611
# Velocity P-wave (km/s) = 4.93261 7.18675 6.16360
#
# Compressibility (1/GPa) = 0.03085025
#
# Stress axis : x y z
#
# Youngs Moduli (GPa) = 37.27418 10.55799 34.28604
#
# Poissons Ratio (x) = 0.29050 0.26274
# Poissons Ratio (y) = 1.02560 0.84862
# Poissons Ratio (z) = 0.28564 0.26132
#
# Static dielectric constant tensor:
#      x y z
#    x 1.587270 0.000000 -0.007160 
#    y 0.000000 1.562590 0.000000 
#    z -0.007160 0.000000 1.537740 
# 
# From -- ./inp_files/27331.got.cif
#   From: 2010.05.17/outbox.cif.g08.bks.cpg/sg10_14_cif.got.tgz:27331.got - 2010.06.03 11:33:40.
