data_PCOD9146103
_publ_section_title
;
Structure prediction by ZEFSAII (Michael W. Deem and Ramdas Pophale) SiO2 
 PCOD9146103
Probable space group: P 2/M
;
_chemical_formula_sum "Si O2"
_cell_formula_units_Z 28
_cell_length_a 9.997923
_cell_length_b 8.475662
_cell_length_c 29.461984
_cell_angle_alpha 90.000000
_cell_angle_beta 141.254852
_cell_angle_gamma 90.000000
_cell_volume 1562.502843
_symmetry_space_group_name_H-M "P 2/M"
_symmetry_group_IT_number 10
_symmetry_cell_setting 'monoclinic'
loop_
_space_group_symop_operation_xyz
x,y,z
-x,y,-z
-x,-y,-z
x,-y,z
loop_
_atom_site_type_symbol
_atom_site_label
_atom_site_fract_x
_atom_site_fract_y
_atom_site_fract_z
Si Si1 0.251155 0.812771 0.317184
Si Si2 0.130949 0.185684 0.597989
Si Si3 0.420354 0.690785 0.754772
Si Si4 0.820323 0.690836 0.803020
Si Si5 0.215602 0.690783 0.793316
Si Si6 0.702444 0.314588 0.453298
Si Si7 0.299139 0.692167 0.917834
O O1 0.250523 0.760592 0.264099
O O2 0.459472 0.738812 0.395525
O O3 0.025148 0.752919 0.276465
O O4 0.263483 0.000000 0.323183
O O5 0.246267 0.242028 0.673858
O O6 0.234845 0.274215 0.582301
O O7 0.879774 0.225511 0.529997
O O8 0.162812 0.000000 0.599621
O O9 0.410075 0.500000 0.750350
O O10 0.652573 0.737902 0.797187
O O11 0.363697 0.740376 0.790737
O O12 0.814410 0.500000 0.797039
O O13 0.066696 0.737015 0.875977
O O14 0.205733 0.500000 0.791452
O O15 0.298003 0.742070 0.864763
O O16 0.724453 0.500000 0.466361
O O17 0.307046 0.500000 0.920144
O O18 0.500000 0.749633 0.000000
#
# Coordination Sequence:
#
# PCOD9146103 Si02
#       7
#     4   4   4   4   4   4   4
#     4  11  20  32  51  76 102 133 176 224 263 306
#     4  11  21  32  49  76 106 135 172 220 264 303
#     4  10  19  33  51  73 103 140 179 215 260 315
#     4   9  17  30  51  75 101 136 175 214 256 311
#     4   9  19  34  52  74 103 140 176 214 261 315
#     4  11  20  33  52  74 102 137 176 217 260 308
#     4   8  14  28  51  78 106 136 172 215 258 301
#
# _framework density 17.919968000000001
#
# number of rings (size 3 to 8) (size 9 to 14) (size 15 to 20)
#    0.000    2.143    1.429    5.571    0.000    0.571 
#    0.000    1.429    0.000   15.429    0.000    0.000 
#    0.000   10.286    0.000    0.000    0.000    0.000 
#
# Total GULP energy -156232.623393 kJ/mol
# GULP energy per Si atom -5579.736550 kJ/mol
# Density = 1.787918 g / cm^3
# Si number density = 17.919968 Si / 1000 Ang^3
#
#
#
# Elastic Constant Matrix: (Units=GPa)
#
#
# Indices 1 2 3 4 5 6 
#
# 1 120.2709 12.2959 51.4893 0.0000 9.1265 0.0000
# 2 12.2959 21.6247 2.0153 0.0000 0.2151 0.0000
# 3 51.4893 2.0153 122.1636 0.0000 12.4801 0.0000
# 4 0.0000 0.0000 0.0000 -18.8215 0.0000 10.7129
# 5 9.1265 0.2151 12.4801 0.0000 16.2295 0.0000
# 6 0.0000 0.0000 0.0000 10.7129 0.0000 -11.5321
#
#
#
# Elastic Compliance Matrix: (Units=1/GPa)
#
#
# Indices 1 2 3 4 5 6 
#
# 1 0.010928 -0.005792 -0.004222 0.000000 -0.002822 0.000000
# 2 -0.005792 0.049385 0.001477 0.000000 0.001467 0.000000
# 3 -0.004222 0.001477 0.010527 0.000000 -0.005741 0.000000
# 4 0.000000 0.000000 0.000000 -0.112744 0.000000 -0.104734
# 5 -0.002822 0.001467 -0.005741 0.000000 0.067598 0.000000
# 6 0.000000 0.000000 0.000000 -0.104734 0.000000 -0.184008
#
#
# Mechanical properties :
#
#
# Convention : Reuss Voigt Hill
#
# Bulk Modulus (GPa) = 18.59948 43.96224 31.28086
# Shear Modulus (GPa) = -40.54632 10.39241 -15.07696
#
# Velocity S-wave (km/s) = -4.76188 2.41080 -2.90375
# Velocity P-wave (km/s) = 4.45334 5.68639 2.50028
#
# Compressibility (1/GPa) = 0.05376494
#
# Stress axis : x y z
#
# Youngs Moduli (GPa) = 91.50394 20.24914 94.98994
#
# Poissons Ratio (x) = 0.11729 0.40107
# Poissons Ratio (y) = 0.53003 -0.14028
# Poissons Ratio (z) = 0.38635 -0.02990
#
# Static dielectric constant tensor:
#      x y z
#    x 1.621530 0.000000 0.018090 
#    y 0.000000 1.595480 0.000000 
#    z 0.018090 0.000000 1.604100 
# 
# From -- ./inp_files/94542.got.cif
#   From: 2010.05.17/outbox.cif.g08.bks.cpg/sg10_48_cif.got.tgz:94542.got - 2010.06.03 11:33:40.
