data_PCOD9146675
_publ_section_title
;
Structure prediction by ZEFSAII (Michael W. Deem and Ramdas Pophale) SiO2 
 PCOD9146675
Probable space group: P 2/M
;
_chemical_formula_sum "Si O2"
_cell_formula_units_Z 28
_cell_length_a 11.351510
_cell_length_b 7.487938
_cell_length_c 15.336230
_cell_angle_alpha 90.000000
_cell_angle_beta 112.156724
_cell_angle_gamma 90.000000
_cell_volume 1207.309162
_symmetry_space_group_name_H-M "P 2/M"
_symmetry_group_IT_number 10
_symmetry_cell_setting 'monoclinic'
loop_
_space_group_symop_operation_xyz
x,y,z
-x,y,-z
-x,-y,-z
x,-y,z
loop_
_atom_site_type_symbol
_atom_site_label
_atom_site_fract_x
_atom_site_fract_y
_atom_site_fract_z
Si Si1 0.351238 0.281436 0.950883
Si Si2 0.086796 0.207540 0.335870
Si Si3 0.147995 0.281576 0.044836
Si Si4 0.468042 0.717895 0.587618
Si Si5 0.186686 0.705778 0.745689
Si Si6 0.818292 0.284927 0.449671
Si Si7 0.289796 0.706220 0.255010
O O1 0.352104 0.500000 0.951672
O O2 0.286981 0.219743 0.842133
O O3 0.500000 0.226583 0.000000
O O4 0.249762 0.228837 0.998012
O O5 0.098794 0.230664 0.443708
O O6 0.208446 0.288253 0.321246
O O7 0.958080 0.290096 0.260823
O O8 0.085413 0.000000 0.315708
O O9 0.143519 0.500000 0.040981
O O10 0.208379 0.219020 0.153156
O O11 0.000000 0.223264 0.000000
O O12 0.500000 0.779559 0.500000
O O13 0.474607 0.500000 0.589676
O O14 0.325066 0.764888 0.567255
O O15 0.572693 0.784489 0.684925
O O16 0.225863 0.500000 0.743500
O O17 0.170194 0.787318 0.645168
O O18 0.834386 0.500000 0.450713
O O19 0.311557 0.500000 0.237084
#
# Coordination Sequence:
#
# PCOD9146675 Si02
#       7
#     4   4   4   4   4   4   4
#     4   9  18  32  53  88 123 144 177 234 287 329
#     4  12  24  37  54  79 112 146 186 235 282 324
#     4   9  17  29  50  81 115 146 178 222 277 330
#     4   9  16  29  51  79 107 137 175 224 269 320
#     4  10  21  36  58  82 112 149 184 222 273 334
#     4  10  20  35  56  82 111 146 187 223 270 336
#     4  10  19  33  57  81 109 146 184 222 273 336
#
# _framework density 23.192070000000001
#
# number of rings (size 3 to 8) (size 9 to 14) (size 15 to 20)
#    0.000    2.143    1.429    2.571    2.000    4.571 
#    0.000    1.429    0.000    4.286    0.000    0.000 
#    0.000    0.000    0.000    0.000    0.000    0.000 
#
# Total GULP energy -156301.893360 kJ/mol
# GULP energy per Si atom -5582.210477 kJ/mol
# Density = 2.313928 g / cm^3
# Si number density = 23.192070 Si / 1000 Ang^3
#
#
#
# Elastic Constant Matrix: (Units=GPa)
#
#
# Indices 1 2 3 4 5 6 
#
# 1 136.9629 -5.0580 88.9599 0.0000 29.5977 0.0000
# 2 -5.0580 68.1806 4.2839 0.0000 1.8485 0.0000
# 3 88.9599 4.2839 193.6708 0.0000 40.8779 0.0000
# 4 0.0000 0.0000 0.0000 -495.0149 0.0000 -201.4449
# 5 29.5977 1.8485 40.8779 0.0000 44.1667 0.0000
# 6 0.0000 0.0000 0.0000 -201.4449 0.0000 -107.1617
#
#
#
# Elastic Compliance Matrix: (Units=1/GPa)
#
#
# Indices 1 2 3 4 5 6 
#
# 1 0.010867 0.001168 -0.004313 0.000000 -0.003340 0.000000
# 2 0.001168 0.014818 -0.000706 0.000000 -0.000749 0.000000
# 3 -0.004313 -0.000706 0.008132 0.000000 -0.004607 0.000000
# 4 0.000000 0.000000 0.000000 -0.008596 0.000000 0.016159
# 5 -0.003340 -0.000749 -0.004607 0.000000 0.029175 0.000000
# 6 0.000000 0.000000 0.000000 0.016159 0.000000 -0.039707
#
#
# Mechanical properties :
#
#
# Convention : Reuss Voigt Hill
#
# Bulk Modulus (GPa) = 38.29052 63.90954 51.10003
# Shear Modulus (GPa) = 160.78755 -90.89341 34.94707
#
# Velocity S-wave (km/s) = 8.33542 -6.26711 3.88603
# Velocity P-wave (km/s) = 10.44916 4.97518 6.49740
#
# Compressibility (1/GPa) = 0.02611612
#
# Stress axis : x y z
#
# Youngs Moduli (GPa) = 92.01974 67.48449 122.96509
#
# Poissons Ratio (x) = -0.07880 0.53030
# Poissons Ratio (y) = -0.10745 0.08681
# Poissons Ratio (z) = 0.39684 0.04764
#
# Static dielectric constant tensor:
#      x y z
#    x 1.856650 0.000000 -0.015110 
#    y 0.000000 1.860330 0.000000 
#    z -0.015110 0.000000 1.861050 
# 
# From -- ./inp_files/63920.got.cif
#   From: 2010.05.17/outbox.cif.g08.bks.cpg/sg10_32_cif.got.tgz:63920.got - 2010.06.03 11:33:40.
