data_PCOD9146594
_publ_section_title
;
Structure prediction by ZEFSAII (Michael W. Deem and Ramdas Pophale) SiO2 
 PCOD9146594
Probable space group: P 2/M
;
_chemical_formula_sum "Si O2"
_cell_formula_units_Z 32
_cell_length_a 12.453562
_cell_length_b 8.544204
_cell_length_c 19.394646
_cell_angle_alpha 90.000000
_cell_angle_beta 130.701706
_cell_angle_gamma 90.000000
_cell_volume 1564.523521
_symmetry_space_group_name_H-M "P 2/M"
_symmetry_group_IT_number 10
_symmetry_cell_setting 'monoclinic'
loop_
_space_group_symop_operation_xyz
x,y,z
-x,y,-z
-x,-y,-z
x,-y,z
loop_
_atom_site_type_symbol
_atom_site_label
_atom_site_fract_x
_atom_site_fract_y
_atom_site_fract_z
Si Si1 0.159556 0.680680 0.638147
Si Si2 0.063742 0.187209 0.809742
Si Si3 0.669000 0.320153 0.144184
Si Si4 0.083736 0.808669 0.967850
Si Si5 0.562079 0.688124 0.311275
Si Si6 0.903092 0.811702 0.606207
Si Si7 0.421458 0.189335 0.537241
Si Si8 0.589381 0.187312 0.888223
O O1 0.131577 0.500000 0.610132
O O2 0.247595 0.686567 0.747232
O O3 0.274928 0.745411 0.632825
O O4 0.011043 0.762123 0.591208
O O5 0.227794 0.227416 0.863381
O O6 0.022239 0.243473 0.868353
O O7 0.970710 0.247268 0.706854
O O8 0.050463 0.000000 0.803599
O O9 0.660139 0.500000 0.119056
O O10 0.514561 0.253942 0.096467
O O11 0.080223 0.000000 0.967234
O O12 0.248152 0.762323 0.038211
O O13 0.000000 0.753777 0.000000
O O14 0.563243 0.500000 0.306329
O O15 0.512803 0.742572 0.365438
O O16 0.470329 0.756407 0.210553
O O17 0.742182 0.757524 0.533258
O O18 0.901632 0.000000 0.607436
O O19 0.500000 0.235836 0.500000
O O20 0.425156 0.000000 0.542713
O O21 0.582537 0.000000 0.888463
#
# Coordination Sequence:
#
# PCOD9146594 Si02
#       8
#     4   4   4   4   4   4   4   4
#     4   8  16  31  51  75 103 134 168 209 260 319
#     4   9  17  32  54  78 105 137 175 218 263 314
#     4   9  17  31  51  77 109 140 172 212 262 319
#     4   9  19  34  53  79 107 138 181 225 263 309
#     4  10  21  37  56  79 108 141 175 214 264 318
#     4   9  18  32  53  79 105 135 171 216 264 309
#     4  10  22  38  54  77 107 139 180 223 261 307
#     4  10  19  33  56  82 108 139 174 217 265 311
#
# _framework density 20.453512
#
# number of rings (size 3 to 8) (size 9 to 14) (size 15 to 20)
#    0.000    2.750    0.000    1.875    0.000    6.250 
#    0.000   10.000    0.000    6.375    0.000    0.000 
#    0.000    0.000    0.000    0.000    0.000    0.000 
#
# Total GULP energy -178582.086248 kJ/mol
# GULP energy per Si atom -5580.690195 kJ/mol
# Density = 2.040696 g / cm^3
# Si number density = 20.453512 Si / 1000 Ang^3
#
#
#
# Elastic Constant Matrix: (Units=GPa)
#
#
# Indices 1 2 3 4 5 6 
#
# 1 68.9728 -4.3955 17.4231 0.0000 -20.3971 0.0000
# 2 -4.3955 7.6053 -1.6456 0.0000 1.8181 0.0000
# 3 17.4231 -1.6456 55.5349 0.0000 -7.2598 0.0000
# 4 0.0000 0.0000 0.0000 -6.6520 0.0000 -14.0754
# 5 -20.3971 1.8181 -7.2598 0.0000 34.6609 0.0000
# 6 0.0000 0.0000 0.0000 -14.0754 0.0000 0.7242
#
#
#
# Elastic Compliance Matrix: (Units=1/GPa)
#
#
# Indices 1 2 3 4 5 6 
#
# 1 0.019029 0.007677 -0.004453 0.000000 0.009863 0.000000
# 2 0.007677 0.136781 0.001334 0.000000 -0.002378 0.000000
# 3 -0.004453 0.001334 0.019629 0.000000 0.001421 0.000000
# 4 0.000000 0.000000 0.000000 -0.003569 0.000000 -0.069359
# 5 0.009863 -0.002378 0.001421 0.000000 0.035077 0.000000
# 6 0.000000 0.000000 0.000000 -0.069359 0.000000 0.032779
#
#
# Mechanical properties :
#
#
# Convention : Reuss Voigt Hill
#
# Bulk Modulus (GPa) = 5.41846 17.20856 11.31351
# Shear Modulus (GPa) = 17.11559 13.79533 15.45546
#
# Velocity S-wave (km/s) = 2.89590 2.59988 2.75187
# Velocity P-wave (km/s) = 3.71975 4.17663 3.95479
#
# Compressibility (1/GPa) = 0.18455414
#
# Stress axis : x y z
#
# Youngs Moduli (GPa) = 52.55036 7.31094 50.94474
#
# Poissons Ratio (x) = -0.05612 0.22687
# Poissons Ratio (y) = -0.40341 -0.06795
# Poissons Ratio (z) = 0.23402 -0.00975
#
# Static dielectric constant tensor:
#      x y z
#    x 1.725280 0.000000 -0.014000 
#    y 0.000000 1.693610 0.000000 
#    z -0.014000 0.000000 1.774210 
# 
# From -- ./inp_files/83633.got.cif
#   From: 2010.05.17/outbox.cif.g08.bks.cpg/sg10_42_cif.got.tgz:83633.got - 2010.06.03 11:33:40.
