data_PCOD9146126
_publ_section_title
;
Structure prediction by ZEFSAII (Michael W. Deem and Ramdas Pophale) SiO2 
 PCOD9146126
Probable space group: P 2/M
;
_chemical_formula_sum "Si O2"
_cell_formula_units_Z 28
_cell_length_a 32.051596
_cell_length_b 7.669487
_cell_length_c 32.055501
_cell_angle_alpha 90.000000
_cell_angle_beta 170.409789
_cell_angle_gamma 90.000000
_cell_volume 1312.787064
_symmetry_space_group_name_H-M "P 2/M"
_symmetry_group_IT_number 10
_symmetry_cell_setting 'monoclinic'
loop_
_space_group_symop_operation_xyz
x,y,z
-x,y,-z
-x,-y,-z
x,-y,z
loop_
_atom_site_type_symbol
_atom_site_label
_atom_site_fract_x
_atom_site_fract_y
_atom_site_fract_z
Si Si1 0.762020 0.713246 0.238031
Si Si2 0.957562 0.200952 0.055748
Si Si3 0.657760 0.712804 0.326148
Si Si4 0.887195 0.701118 0.079521
Si Si5 0.366160 0.285651 0.600876
Si Si6 0.516889 0.291368 0.469220
Si Si7 0.182040 0.286692 0.802679
O O1 0.761690 0.500000 0.237816
O O2 0.787355 0.768387 0.215040
O O3 0.000000 0.768780 0.500000
O O4 0.500000 0.769084 0.000000
O O5 0.927941 0.298159 0.070257
O O6 0.224062 0.236007 0.296884
O O7 0.945065 0.000000 0.054738
O O8 0.727919 0.240761 0.798405
O O9 0.657379 0.500000 0.325257
O O10 0.641959 0.765186 0.358793
O O11 0.917671 0.769265 0.561425
O O12 0.416643 0.769609 0.062048
O O13 0.876317 0.500000 0.082686
O O14 0.124508 0.778381 0.337411
O O15 0.620325 0.776816 0.829523
O O16 0.363569 0.500000 0.596712
O O17 0.500000 0.223751 0.500000
O O18 0.521231 0.500000 0.475221
O O19 0.181956 0.500000 0.802757
#
# Coordination Sequence:
#
# PCOD9146126 Si02
#       7
#     4   4   4   4   4   4   4
#     4   9  15  21  27  36  53  82 124 169 218 282
#     4  12  25  40  61  90 122 153 188 234 284 329
#     4   9  15  23  34  51  73  95 129 179 240 297
#     4  10  19  33  52  73 100 135 173 210 257 316
#     4   9  17  28  45  67  89 118 157 203 252 308
#     4  11  24  43  66  90 118 155 196 234 276 331
#     4   9  15  21  30  43  63  92 124 172 237 293
#
# _framework density 21.328669000000001
#
# number of rings (size 3 to 8) (size 9 to 14) (size 15 to 20)
#    0.000    2.143    0.000    4.714    0.000   10.857 
#    0.000    0.000    0.000    0.000    0.000    0.000 
#    0.000    0.000    0.000    0.000    0.000    0.000 
#
# Total GULP energy -156487.084016 kJ/mol
# GULP energy per Si atom -5588.824429 kJ/mol
# Density = 2.128012 g / cm^3
# Si number density = 21.328669 Si / 1000 Ang^3
#
#
#
# Elastic Constant Matrix: (Units=GPa)
#
#
# Indices 1 2 3 4 5 6 
#
# 1 67.1042 -16.3238 -8.3500 0.0000 -11.9677 0.0000
# 2 -16.3238 42.1447 0.9545 0.0000 1.5542 0.0000
# 3 -8.3500 0.9545 93.7732 0.0000 -14.6148 0.0000
# 4 0.0000 0.0000 0.0000 6.9915 0.0000 1.7095
# 5 -11.9677 1.5542 -14.6148 0.0000 48.2330 0.0000
# 6 0.0000 0.0000 0.0000 1.7095 0.0000 -25.9172
#
#
#
# Elastic Compliance Matrix: (Units=1/GPa)
#
#
# Indices 1 2 3 4 5 6 
#
# 1 0.017657 0.006609 0.002261 0.000000 0.004853 0.000000
# 2 0.006609 0.026242 0.000467 0.000000 0.000936 0.000000
# 3 0.002261 0.000467 0.011488 0.000000 0.004027 0.000000
# 4 0.000000 0.000000 0.000000 0.140761 0.000000 0.009285
# 5 0.004853 0.000936 0.004027 0.000000 0.023127 0.000000
# 6 0.000000 0.000000 0.000000 0.009285 0.000000 -0.037972
#
#
# Mechanical properties :
#
#
# Convention : Reuss Voigt Hill
#
# Bulk Modulus (GPa) = 13.50218 17.28707 15.39463
# Shear Modulus (GPa) = 26.69284 20.97755 23.83520
#
# Velocity S-wave (km/s) = 3.54149 3.13954 3.34656
# Velocity P-wave (km/s) = 4.80283 4.61140 4.70809
#
# Compressibility (1/GPa) = 0.07406209
#
# Stress axis : x y z
#
# Youngs Moduli (GPa) = 56.63542 38.10623 87.04540
#
# Poissons Ratio (x) = -0.25183 -0.19684
# Poissons Ratio (y) = -0.37429 -0.04067
# Poissons Ratio (z) = -0.12807 -0.01780
#
# Static dielectric constant tensor:
#      x y z
#    x 1.719370 0.000000 0.001400 
#    y 0.000000 1.802550 0.000000 
#    z 0.001400 0.000000 1.842580 
# 
# From -- ./inp_files/94279.got.cif
#   From: 2010.05.17/outbox.cif.g08.bks.cpg/sg10_48_cif.got.tgz:94279.got - 2010.06.03 11:33:40.
