data_PCOD9146714
_publ_section_title
;
Structure prediction by ZEFSAII (Michael W. Deem and Ramdas Pophale) SiO2 
 PCOD9146714
Probable space group: P 2/M
;
_chemical_formula_sum "Si O2"
_cell_formula_units_Z 32
_cell_length_a 15.234932
_cell_length_b 17.188420
_cell_length_c 12.043217
_cell_angle_alpha 90.000000
_cell_angle_beta 28.975027
_cell_angle_gamma 90.000000
_cell_volume 1527.736837
_symmetry_space_group_name_H-M "P 2/M"
_symmetry_group_IT_number 10
_symmetry_cell_setting 'monoclinic'
loop_
_space_group_symop_operation_xyz
x,y,z
-x,y,-z
-x,-y,-z
x,-y,z
loop_
_atom_site_type_symbol
_atom_site_label
_atom_site_fract_x
_atom_site_fract_y
_atom_site_fract_z
Si Si1 0.073692 0.091969 0.292267
Si Si2 0.747577 0.588541 0.561900
Si Si3 0.650816 0.749013 0.571801
Si Si4 0.429465 0.166315 0.971083
Si Si5 0.216847 0.673143 0.248623
Si Si6 0.337339 0.728044 0.765721
Si Si7 0.999406 0.159296 0.124115
Si Si8 0.182705 0.412556 0.057789
O O1 0.285909 0.115227 0.063162
O O2 0.006454 0.122261 0.242739
O O3 0.000000 0.117864 0.500000
O O4 0.045163 0.000000 0.321263
O O5 0.680101 0.500000 0.623426
O O6 0.673616 0.657257 0.566235
O O7 0.721401 0.622058 0.714856
O O8 0.964344 0.586965 0.302708
O O9 0.452690 0.760150 0.740324
O O10 0.822789 0.784846 0.320779
O O11 0.620141 0.802022 0.712441
O O12 0.321701 0.246166 0.121196
O O13 0.500000 0.120298 0.000000
O O14 0.243589 0.623009 0.107962
O O15 0.000000 0.687191 0.500000
O O16 0.500000 0.719778 0.500000
O O17 0.177313 0.787295 0.921465
O O18 0.251159 0.645285 0.888370
O O19 0.000000 0.116788 0.000000
O O20 0.247822 0.500000 0.971423
#
# Coordination Sequence:
#
# PCOD9146714 Si02
#       8
#     4   4   4   4   4   4   4   4
#     4  11  26  48  76 112 152 187 222 281 356 427
#     4  10  21  36  57  92 138 182 232 296 360 413
#     4  12  23  39  66  99 131 183 241 288 345 411
#     4  12  22  37  65 103 139 183 236 282 343 425
#     4  10  19  33  57  88 126 177 228 287 345 416
#     4  12  24  42  66  95 129 173 240 295 347 413
#     4  12  25  47  78 104 142 186 237 292 343 423
#     4  10  20  36  57  85 130 182 230 293 366 421
#
# _framework density 20.946017000000001
#
# number of rings (size 3 to 8) (size 9 to 14) (size 15 to 20)
#    0.000    0.875    6.250    1.500    1.750    2.750 
#    0.000    1.250    0.000    3.375    0.000    0.000 
#    0.000    0.000    0.000    0.000    0.000    0.000 
#
# Total GULP energy -178239.633115 kJ/mol
# GULP energy per Si atom -5569.988535 kJ/mol
# Density = 2.089834 g / cm^3
# Si number density = 20.946017 Si / 1000 Ang^3
#
#
#
# Elastic Constant Matrix: (Units=GPa)
#
#
# Indices 1 2 3 4 5 6 
#
# 1 81.8622 32.4429 29.9308 0.0000 4.9093 0.0000
# 2 32.4429 69.6072 41.8740 0.0000 9.5806 0.0000
# 3 29.9308 41.8740 96.9074 0.0000 13.3162 0.0000
# 4 0.0000 0.0000 0.0000 12.5508 0.0000 -2.6212
# 5 4.9093 9.5806 13.3162 0.0000 36.5968 0.0000
# 6 0.0000 0.0000 0.0000 -2.6212 0.0000 6.5339
#
#
#
# Elastic Compliance Matrix: (Units=1/GPa)
#
#
# Indices 1 2 3 4 5 6 
#
# 1 0.015334 -0.005829 -0.002257 0.000000 0.000290 0.000000
# 2 -0.005829 0.021788 -0.007303 0.000000 -0.002265 0.000000
# 3 -0.002257 -0.007303 0.014598 0.000000 -0.003097 0.000000
# 4 0.000000 0.000000 0.000000 0.086962 0.000000 0.034887
# 5 0.000290 -0.002265 -0.003097 0.000000 0.029006 0.000000
# 6 0.000000 0.000000 0.000000 0.034887 0.000000 0.167043
#
#
# Mechanical properties :
#
#
# Convention : Reuss Voigt Hill
#
# Bulk Modulus (GPa) = 47.75365 50.76358 49.25861
# Shear Modulus (GPa) = 13.42320 20.74489 17.08405
#
# Velocity S-wave (km/s) = 2.53424 3.15047 2.85901
# Velocity P-wave (km/s) = 5.60456 6.12552 5.87082
#
# Compressibility (1/GPa) = 0.02094081
#
# Stress axis : x y z
#
# Youngs Moduli (GPa) = 65.21651 45.89622 68.50440
#
# Poissons Ratio (x) = 0.26752 0.15462
# Poissons Ratio (y) = 0.38014 0.50031
# Poissons Ratio (z) = 0.14720 0.33519
#
# Static dielectric constant tensor:
#      x y z
#    x 2.242130 0.000000 0.276850 
#    y 0.000000 1.697200 0.000000 
#    z 0.276850 0.000000 1.904990 
# 
# From -- ./inp_files/51952.got.cif
#   From: 2010.05.17/outbox.cif.g08.bks.cpg/sg10_26_cif.got.tgz:51952.got - 2010.06.03 11:33:40.
