data_PCOD9146154
_publ_section_title
;
Structure prediction by ZEFSAII (Michael W. Deem and Ramdas Pophale) SiO2 
 PCOD9146154
Probable space group: P 2/M
;
_chemical_formula_sum "Si O2"
_cell_formula_units_Z 28
_cell_length_a 9.643511
_cell_length_b 7.712620
_cell_length_c 27.926916
_cell_angle_alpha 90.000000
_cell_angle_beta 42.274233
_cell_angle_gamma 90.000000
_cell_volume 1397.231899
_symmetry_space_group_name_H-M "P 2/M"
_symmetry_group_IT_number 10
_symmetry_cell_setting 'monoclinic'
loop_
_space_group_symop_operation_xyz
x,y,z
-x,y,-z
-x,-y,-z
x,-y,z
loop_
_atom_site_type_symbol
_atom_site_label
_atom_site_fract_x
_atom_site_fract_y
_atom_site_fract_z
Si Si1 0.161450 0.205921 0.920259
Si Si2 0.381617 0.302096 0.296754
Si Si3 0.765134 0.288133 0.564618
Si Si4 0.939415 0.701607 0.266086
Si Si5 0.125942 0.304048 0.822642
Si Si6 0.567602 0.288171 0.429256
Si Si7 0.371085 0.197516 0.195340
O O1 0.079151 0.227821 0.886996
O O2 0.396309 0.274339 0.867465
O O3 0.180505 0.000000 0.922976
O O4 0.000000 0.276991 0.000000
O O5 0.302339 0.500000 0.311114
O O6 0.305867 0.226248 0.365571
O O7 0.626777 0.311081 0.239175
O O8 0.327712 0.200214 0.263119
O O9 0.755148 0.500000 0.567921
O O10 0.613712 0.235760 0.560930
O O11 0.000000 0.236336 0.500000
O O12 0.876434 0.500000 0.275997
O O13 0.924426 0.779317 0.216106
O O14 0.781612 0.768250 0.347846
O O15 0.176626 0.711155 0.221155
O O16 0.040530 0.500000 0.844584
O O17 0.500000 0.229903 0.500000
O O18 0.577064 0.500000 0.429598
O O19 0.373447 0.000000 0.176978
#
# Coordination Sequence:
#
# PCOD9146154 Si02
#       7
#     4   4   4   4   4   4   4
#     4   9  19  37  58  78 101 130 167 209 251 300
#     4   9  16  30  50  72  98 129 167 212 255 294
#     4   9  16  25  42  72 101 124 162 213 257 294
#     4  10  19  33  52  76 107 139 171 209 252 300
#     4   9  17  31  52  77 104 132 165 204 250 304
#     4   9  17  28  44  72 105 134 168 212 256 293
#     4  10  21  34  51  76 102 130 169 208 249 303
#
# _framework density 20.039622999999999
#
# number of rings (size 3 to 8) (size 9 to 14) (size 15 to 20)
#    0.000    2.714    1.429    0.429    2.000    1.429 
#    0.000    0.714    0.000    5.143    0.000    0.000 
#    0.000    0.000    0.000    0.000    0.000    0.000 
#
# Total GULP energy -155889.332309 kJ/mol
# GULP energy per Si atom -5567.476154 kJ/mol
# Density = 1.999401 g / cm^3
# Si number density = 20.039623 Si / 1000 Ang^3
#
#
#
# Elastic Constant Matrix: (Units=GPa)
#
#
# Indices 1 2 3 4 5 6 
#
# 1 116.2076 0.6521 71.2500 0.0000 6.7432 0.0000
# 2 0.6521 30.0836 5.3059 0.0000 -0.1202 0.0000
# 3 71.2500 5.3059 153.9135 0.0000 23.3382 0.0000
# 4 0.0000 0.0000 0.0000 3.9664 0.0000 -7.4933
# 5 6.7432 -0.1202 23.3382 0.0000 24.4189 0.0000
# 6 0.0000 0.0000 0.0000 -7.4933 0.0000 -9.1974
#
#
#
# Elastic Compliance Matrix: (Units=1/GPa)
#
#
# Indices 1 2 3 4 5 6 
#
# 1 0.012150 0.000807 -0.006016 0.000000 0.002399 0.000000
# 2 0.000807 0.033544 -0.001779 0.000000 0.001643 0.000000
# 3 -0.006016 -0.001779 0.010634 0.000000 -0.008511 0.000000
# 4 0.000000 0.000000 0.000000 0.099292 0.000000 -0.080895
# 5 0.002399 0.001643 -0.008511 0.000000 0.048432 0.000000
# 6 0.000000 0.000000 0.000000 -0.080895 0.000000 -0.042820
#
#
# Mechanical properties :
#
#
# Convention : Reuss Voigt Hill
#
# Bulk Modulus (GPa) = 23.61171 50.51339 37.06255
# Shear Modulus (GPa) = 26.40966 18.70403 22.55685
#
# Velocity S-wave (km/s) = 3.63419 3.05840 3.35865
# Velocity P-wave (km/s) = 5.42382 6.14274 5.79444
#
# Compressibility (1/GPa) = 0.04235187
#
# Stress axis : x y z
#
# Youngs Moduli (GPa) = 82.30293 29.81195 94.03793
#
# Poissons Ratio (x) = -0.02407 0.56575
# Poissons Ratio (y) = -0.06644 0.16731
# Poissons Ratio (z) = 0.49515 0.05304
#
# Static dielectric constant tensor:
#      x y z
#    x 1.685430 0.000000 0.018060 
#    y 0.000000 1.821900 0.000000 
#    z 0.018060 0.000000 1.745780 
# 
# From -- ./inp_files/37315.got.cif
#   From: 2010.05.17/outbox.cif.g08.bks.cpg/sg10_19_cif.got.tgz:37315.got - 2010.06.03 11:33:40.
