data_PCOD9146023
_publ_section_title
;
Structure prediction by ZEFSAII (Michael W. Deem and Ramdas Pophale) SiO2 
 PCOD9146023
Probable space group: P 2/M
;
_chemical_formula_sum "Si O2"
_cell_formula_units_Z 26
_cell_length_a 11.908112
_cell_length_b 12.938770
_cell_length_c 17.544697
_cell_angle_alpha 90.000000
_cell_angle_beta 153.887549
_cell_angle_gamma 90.000000
_cell_volume 1189.780923
_symmetry_space_group_name_H-M "P 2/M"
_symmetry_group_IT_number 10
_symmetry_cell_setting 'monoclinic'
loop_
_space_group_symop_operation_xyz
x,y,z
-x,y,-z
-x,-y,-z
x,-y,z
loop_
_atom_site_type_symbol
_atom_site_label
_atom_site_fract_x
_atom_site_fract_y
_atom_site_fract_z
Si Si1 0.051304 0.327814 0.862602
Si Si2 0.234478 0.300109 0.810040
Si Si3 0.586657 0.388379 0.238173
Si Si4 0.500000 0.294242 0.500000
Si Si5 0.416617 0.890310 0.551195
Si Si6 0.987683 0.885400 0.082177
Si Si7 0.837236 0.187733 0.468620
O O1 0.112646 0.349042 0.811206
O O2 0.747214 0.349715 0.688365
O O3 0.103626 0.208081 0.920255
O O4 0.278609 0.383397 0.047093
O O5 0.310733 0.374320 0.786140
O O6 0.044408 0.218036 0.658262
O O7 0.500000 0.251755 0.000000
O O8 0.668251 0.500000 0.318239
O O9 0.705780 0.292164 0.356477
O O10 0.639128 0.217457 0.524619
O O11 0.715209 0.896782 0.717210
O O12 0.368240 0.877924 0.611454
O O13 0.295889 0.000000 0.453392
O O14 0.868097 0.000000 0.017022
O O15 0.000000 0.855723 0.000000
O O16 0.000000 0.138717 0.500000
#
# Coordination Sequence:
#
# PCOD9146023 Si02
#       7
#     4   4   4   2   4   4   4
#     4  10  19  35  58  87 119 150 194 244 297 340
#     4   9  19  35  57  84 116 146 188 244 292 345
#     4  10  22  39  62  86 111 152 203 249 297 355
#     4  10  19  34  59  84 120 162 189 238 287 340
#     4  10  19  32  55  86 117 155 198 231 278 345
#     4   9  18  32  54  85 117 156 200 237 279 343
#     4  10  20  36  58  86 122 154 193 244 301 346
#
# _framework density 21.852761999999998
#
# number of rings (size 3 to 8) (size 9 to 14) (size 15 to 20)
#    0.000    2.308    1.538    1.154    0.000    6.462 
#    0.000    0.385    0.000   21.692    0.000    0.000 
#    0.000    0.000    0.000    0.000    0.000    0.000 
#
# Total GULP energy -144736.237661 kJ/mol
# GULP energy per Si atom -5566.778372 kJ/mol
# Density = 2.180302 g / cm^3
# Si number density = 21.852762 Si / 1000 Ang^3
#
#
#
# Elastic Constant Matrix: (Units=GPa)
#
#
# Indices 1 2 3 4 5 6 
#
# 1 93.7810 26.7250 6.8661 0.0000 4.8735 0.0000
# 2 26.7250 71.8503 6.9150 0.0000 6.8721 0.0000
# 3 6.8661 6.9150 86.1939 0.0000 4.4031 0.0000
# 4 0.0000 0.0000 0.0000 9.0964 0.0000 -3.1068
# 5 4.8735 6.8721 4.4031 0.0000 32.0717 0.0000
# 6 0.0000 0.0000 0.0000 -3.1068 0.0000 7.1304
#
#
#
# Elastic Compliance Matrix: (Units=1/GPa)
#
#
# Indices 1 2 3 4 5 6 
#
# 1 0.011979 -0.004323 -0.000566 0.000000 -0.000816 0.000000
# 2 -0.004323 0.015854 -0.000793 0.000000 -0.002631 0.000000
# 3 -0.000566 -0.000793 0.011780 0.000000 -0.001361 0.000000
# 4 0.000000 0.000000 0.000000 0.129154 0.000000 0.056274
# 5 -0.000816 -0.002631 -0.001361 0.000000 0.032055 0.000000
# 6 0.000000 0.000000 0.000000 0.056274 0.000000 0.164764
#
#
# Mechanical properties :
#
#
# Convention : Reuss Voigt Hill
#
# Bulk Modulus (GPa) = 35.39957 36.98193 36.19075
# Shear Modulus (GPa) = 12.94111 23.74764 18.34438
#
# Velocity S-wave (km/s) = 2.43615 3.30011 2.90048
# Velocity P-wave (km/s) = 4.91400 5.61078 5.27391
#
# Compressibility (1/GPa) = 0.02824893
#
# Stress axis : x y z
#
# Youngs Moduli (GPa) = 83.47986 63.07632 84.88974
#
# Poissons Ratio (x) = 0.27268 0.04802
# Poissons Ratio (y) = 0.36089 0.06733
# Poissons Ratio (z) = 0.04723 0.05003
#
# Static dielectric constant tensor:
#      x y z
#    x 1.844300 0.000000 -0.010520 
#    y 0.000000 1.885410 0.000000 
#    z -0.010520 0.000000 1.865040 
# 
# From -- ./inp_files/76849.got.cif
#   From: 2010.05.17/outbox.cif.g08.bks.cpg/sg10_39_cif.got.tgz:76849.got - 2010.06.03 11:33:40.
