data_PCOD9146580
_publ_section_title
;
Structure prediction by ZEFSAII (Michael W. Deem and Ramdas Pophale) SiO2 
 PCOD9146580
Probable space group: P 2/M
;
_chemical_formula_sum "Si O2"
_cell_formula_units_Z 24
_cell_length_a 20.130227
_cell_length_b 15.257693
_cell_length_c 11.243846
_cell_angle_alpha 90.000000
_cell_angle_beta 20.135018
_cell_angle_gamma 90.000000
_cell_volume 1188.791452
_symmetry_space_group_name_H-M "P 2/M"
_symmetry_group_IT_number 10
_symmetry_cell_setting 'monoclinic'
loop_
_space_group_symop_operation_xyz
x,y,z
-x,y,-z
-x,-y,-z
x,-y,z
loop_
_atom_site_type_symbol
_atom_site_label
_atom_site_fract_x
_atom_site_fract_y
_atom_site_fract_z
Si Si1 0.514714 0.690258 0.778264
Si Si2 0.045731 0.097859 0.285436
Si Si3 0.771997 0.399635 0.907925
Si Si4 0.794720 0.275840 0.084641
Si Si5 0.314890 0.851398 0.251613
Si Si6 0.858835 0.695856 0.344461
O O1 0.653863 0.719358 0.434987
O O2 0.656830 0.653816 0.643105
O O3 0.358951 0.624817 0.985054
O O4 0.400917 0.772978 0.024704
O O5 0.840916 0.097183 0.561391
O O6 0.000000 0.118200 0.500000
O O7 0.132230 0.000000 0.132854
O O8 0.168011 0.176705 0.022445
O O9 0.737432 0.500000 0.000841
O O10 0.000000 0.388651 0.500000
O O11 0.721503 0.333585 0.098869
O O12 0.004411 0.316393 0.771268
O O13 0.198211 0.798614 0.549797
O O14 0.500000 0.896039 0.000000
O O15 0.000000 0.676454 0.000000
#
# Coordination Sequence:
#
# PCOD9146580 Si02
#       6
#     4   4   4   4   4   4
#     4  10  19  33  56  81 106 141 178 218 268 318
#     4  10  20  34  53  77 107 144 183 222 265 312
#     4  11  23  37  55  80 108 140 179 221 267 320
#     4  10  19  35  57  78 109 144 178 221 267 316
#     4   9  17  31  53  77 106 140 180 218 261 314
#     4   8  16  31  54  80 104 139 179 215 262 316
#
# _framework density 20.188571
#
# number of rings (size 3 to 8) (size 9 to 14) (size 15 to 20)
#    0.000    2.333    0.000    4.000    0.000    1.667 
#    0.000    1.667    0.000   58.500    0.000    0.000 
#    0.000    0.000    0.000    0.000    0.000    0.000 
#
# Total GULP energy -133670.318116 kJ/mol
# GULP energy per Si atom -5569.596588 kJ/mol
# Density = 2.014262 g / cm^3
# Si number density = 20.188571 Si / 1000 Ang^3
#
#
#
# Elastic Constant Matrix: (Units=GPa)
#
#
# Indices 1 2 3 4 5 6 
#
# 1 70.8931 17.5158 13.2822 0.0000 -24.7477 0.0000
# 2 17.5158 69.1286 32.3741 0.0000 -0.8441 0.0000
# 3 13.2822 32.3741 83.4007 0.0000 -4.2263 0.0000
# 4 0.0000 0.0000 0.0000 -37.8177 0.0000 50.6603
# 5 -24.7477 -0.8441 -4.2263 0.0000 39.4572 0.0000
# 6 0.0000 0.0000 0.0000 50.6603 0.0000 -134.0487
#
#
#
# Elastic Compliance Matrix: (Units=1/GPa)
#
#
# Indices 1 2 3 4 5 6 
#
# 1 0.019574 -0.004448 -0.000778 0.000000 0.012098 0.000000
# 2 -0.004448 0.018695 -0.006706 0.000000 -0.003108 0.000000
# 3 -0.000778 -0.006706 0.014766 0.000000 0.000950 0.000000
# 4 0.000000 0.000000 0.000000 -0.053556 0.000000 -0.020240
# 5 0.012098 -0.003108 0.000950 0.000000 0.032967 0.000000
# 6 0.000000 0.000000 0.000000 -0.020240 0.000000 -0.015109
#
#
# Mechanical properties :
#
#
# Convention : Reuss Voigt Hill
#
# Bulk Modulus (GPa) = 34.28021 38.86296 36.57159
# Shear Modulus (GPa) = 98.18712 -15.79848 41.19432
#
# Velocity S-wave (km/s) = 6.98145 -2.80044 4.52206
# Velocity P-wave (km/s) = 9.05562 2.97240 6.73942
#
# Compressibility (1/GPa) = 0.02917135
#
# Stress axis : x y z
#
# Youngs Moduli (GPa) = 51.08914 53.48899 67.72528
#
# Poissons Ratio (x) = 0.23790 0.05267
# Poissons Ratio (y) = 0.22723 0.45418
# Poissons Ratio (z) = 0.03973 0.35871
#
# Static dielectric constant tensor:
#      x y z
#    x 1.756670 0.000000 -0.027400 
#    y 0.000000 1.672490 0.000000 
#    z -0.027400 0.000000 1.766340 
# 
# From -- ./inp_files/29290.got.cif
#   From: 2010.05.17/outbox.cif.g08.bks.cpg/sg10_15_cif.got.tgz:29290.got - 2010.06.03 11:33:40.
