data_PCOD9146759
_publ_section_title
;
Structure prediction by ZEFSAII (Michael W. Deem and Ramdas Pophale) SiO2 
 PCOD9146759
Probable space group: P 2/M
;
_chemical_formula_sum "Si O2"
_cell_formula_units_Z 20
_cell_length_a 17.621290
_cell_length_b 7.645166
_cell_length_c 9.477738
_cell_angle_alpha 90.000000
_cell_angle_beta 50.420105
_cell_angle_gamma 90.000000
_cell_volume 984.091431
_symmetry_space_group_name_H-M "P 2/M"
_symmetry_group_IT_number 10
_symmetry_cell_setting 'monoclinic'
loop_
_space_group_symop_operation_xyz
x,y,z
-x,y,-z
-x,-y,-z
x,-y,z
loop_
_atom_site_type_symbol
_atom_site_label
_atom_site_fract_x
_atom_site_fract_y
_atom_site_fract_z
Si Si1 0.049296 0.207803 0.592773
Si Si2 0.912340 0.800407 0.993221
Si Si3 0.277234 0.297282 0.351560
Si Si4 0.393460 0.000000 0.050240
Si Si5 0.294221 0.697447 0.658030
Si Si6 0.602109 0.000000 0.295316
O O1 0.158788 0.282676 0.475283
O O2 0.000000 0.224549 0.500000
O O3 0.966739 0.281042 0.795443
O O4 0.060115 0.000000 0.613516
O O5 0.878684 0.000000 0.999667
O O6 0.821136 0.701564 0.167267
O O7 0.000000 0.812371 0.000000
O O8 0.305352 0.500000 0.297474
O O9 0.332053 0.167802 0.179474
O O10 0.303296 0.246969 0.483067
O O11 0.500000 0.000000 0.000000
O O12 0.403727 0.000000 0.867887
O O13 0.332363 0.500000 0.625593
O O14 0.343403 0.828822 0.709131
O O15 0.500000 0.000000 0.500000
#
# Coordination Sequence:
#
# PCOD9146759 Si02
#       6
#     4   4   4   2   4   2
#     4  10  21  35  59  94 139 186 229 269 321 388
#     4  10  19  33  60  95 134 187 227 267 317 384
#     4  11  24  43  70 103 138 180 225 274 335 400
#     4  12  28  50  76  98 130 173 216 282 347 407
#     4  11  24  42  70 104 139 177 226 278 330 398
#     4  12  28  50  76 100 128 170 220 282 349 400
#
# _framework density 20.323315000000001
#
# number of rings (size 3 to 8) (size 9 to 14) (size 15 to 20)
#    0.000    1.200    4.000    1.800    2.800    3.200 
#    0.000    0.000    0.000    0.000    0.000    0.000 
#    0.000    0.000    0.000    0.000    0.000    0.000 
#
# Total GULP energy -111716.888792 kJ/mol
# GULP energy per Si atom -5585.844440 kJ/mol
# Density = 2.027706 g / cm^3
# Si number density = 20.323315 Si / 1000 Ang^3
#
#
#
# Elastic Constant Matrix: (Units=GPa)
#
#
# Indices 1 2 3 4 5 6 
#
# 1 90.7979 42.9343 49.9558 0.0000 14.0786 0.0000
# 2 42.9343 98.3722 51.9929 0.0000 18.6882 0.0000
# 3 49.9558 51.9929 158.8321 0.0000 18.3151 0.0000
# 4 0.0000 0.0000 0.0000 -3.7376 0.0000 9.3901
# 5 14.0786 18.6882 18.3151 0.0000 27.9594 0.0000
# 6 0.0000 0.0000 0.0000 9.3901 0.0000 -0.2020
#
#
#
# Elastic Compliance Matrix: (Units=1/GPa)
#
#
# Indices 1 2 3 4 5 6 
#
# 1 0.015227 -0.004560 -0.002990 0.000000 -0.002661 0.000000
# 2 -0.004560 0.014678 -0.002709 0.000000 -0.005740 0.000000
# 3 -0.002990 -0.002709 0.008373 0.000000 -0.002169 0.000000
# 4 0.000000 0.000000 0.000000 0.002310 0.000000 0.107415
# 5 -0.002661 -0.005740 -0.002169 0.000000 0.042364 0.000000
# 6 0.000000 0.000000 0.000000 0.107415 0.000000 0.042755
#
#
# Mechanical properties :
#
#
# Convention : Reuss Voigt Hill
#
# Bulk Modulus (GPa) = 56.30238 70.86314 63.58276
# Shear Modulus (GPa) = 32.86359 18.34526 25.60442
#
# Velocity S-wave (km/s) = 4.02560 3.00771 3.55329
# Velocity P-wave (km/s) = 7.02644 6.85604 6.94176
#
# Compressibility (1/GPa) = 0.01776124
#
# Stress axis : x y z
#
# Youngs Moduli (GPa) = 65.67165 68.12997 119.43159
#
# Poissons Ratio (x) = 0.31069 0.35706
# Poissons Ratio (y) = 0.29948 0.32348
# Poissons Ratio (z) = 0.19634 0.18453
#
# Static dielectric constant tensor:
#      x y z
#    x 1.933700 0.000000 0.109990 
#    y 0.000000 1.769190 0.000000 
#    z 0.109990 0.000000 1.727670 
# 
# From -- ./inp_files/31432.got.cif
#   From: 2010.05.17/outbox.cif.g08.bks.cpg/sg10_16_cif.got.tgz:31432.got - 2010.06.03 11:33:40.
