data_PCOD9146991
_publ_section_title
;
Structure prediction by ZEFSAII (Michael W. Deem and Ramdas Pophale) SiO2 
 PCOD9146991
Probable space group: P 2/M
;
_chemical_formula_sum "Si O2"
_cell_formula_units_Z 18
_cell_length_a 7.978344
_cell_length_b 22.665062
_cell_length_c 9.432777
_cell_angle_alpha 90.000000
_cell_angle_beta 32.528137
_cell_angle_gamma 90.000000
_cell_volume 917.192202
_symmetry_space_group_name_H-M "P 2/M"
_symmetry_group_IT_number 10
_symmetry_cell_setting 'monoclinic'
loop_
_space_group_symop_operation_xyz
x,y,z
-x,y,-z
-x,-y,-z
x,-y,z
loop_
_atom_site_type_symbol
_atom_site_label
_atom_site_fract_x
_atom_site_fract_y
_atom_site_fract_z
Si Si1 0.198816 0.810261 0.111285
Si Si2 0.371511 0.371532 0.251005
Si Si3 0.429167 0.745289 0.385181
Si Si4 0.627647 0.500000 0.749918
Si Si5 0.127881 0.064666 0.250279
O O1 0.066482 0.876977 0.203250
O O2 0.925358 0.769395 0.368820
O O3 0.500000 0.808509 0.000000
O O4 0.333227 0.788419 0.866033
O O5 0.464700 0.317424 0.282866
O O6 0.466638 0.436211 0.243625
O O7 0.000000 0.371015 0.500000
O O8 0.500000 0.364383 0.000000
O O9 0.500000 0.741105 0.500000
O O10 0.000000 0.500000 0.500000
O O11 0.500000 0.500000 0.000000
O O12 0.000000 0.074489 0.500000
O O13 0.015171 0.000000 0.280508
O O14 0.500000 0.061267 0.000000
#
# Coordination Sequence:
#
# PCOD9146991 Si02
#       5
#     4   4   4   2   4
#     4  11  21  37  59  80 105 142 184 221 263 320
#     4  10  19  34  56  78 103 137 179 218 260 316
#     4  12  24  36  52  80 115 145 176 221 271 313
#     4   8  16  30  51  78 101 128 171 222 261 302
#     4   9  17  30  52  82 107 128 169 228 272 305
#
# _framework density 19.625112000000001
#
# number of rings (size 3 to 8) (size 9 to 14) (size 15 to 20)
#    0.000    1.778    0.000    7.333    0.000    0.000 
#    0.000    0.556    0.000    4.000    0.000   12.444 
#    0.000    0.000    0.000    0.000    0.000    0.000 
#
# Total GULP energy -100420.461843 kJ/mol
# GULP energy per Si atom -5578.914547 kJ/mol
# Density = 1.958044 g / cm^3
# Si number density = 19.625112 Si / 1000 Ang^3
#
#
#
# Elastic Constant Matrix: (Units=GPa)
#
#
# Indices 1 2 3 4 5 6 
#
# 1 41.4717 46.4072 21.5993 0.0000 15.9252 0.0000
# 2 46.4072 214.2109 62.4571 0.0000 30.0688 0.0000
# 3 21.5993 62.4571 167.3201 0.0000 13.3908 0.0000
# 4 0.0000 0.0000 0.0000 33.5163 0.0000 0.8489
# 5 15.9252 30.0688 13.3908 0.0000 29.7390 0.0000
# 6 0.0000 0.0000 0.0000 0.8489 0.0000 -5.6647
#
#
#
# Elastic Compliance Matrix: (Units=1/GPa)
#
#
# Indices 1 2 3 4 5 6 
#
# 1 0.036135 -0.005545 -0.001551 0.000000 -0.013045 0.000000
# 2 -0.005545 0.006769 -0.001557 0.000000 -0.003174 0.000000
# 3 -0.001551 -0.001557 0.006811 0.000000 -0.000662 0.000000
# 4 0.000000 0.000000 0.000000 0.029723 0.000000 0.004454
# 5 -0.013045 -0.003174 -0.000662 0.000000 0.044119 0.000000
# 6 0.000000 0.000000 0.000000 0.004454 0.000000 -0.175866
#
#
# Mechanical properties :
#
#
# Convention : Reuss Voigt Hill
#
# Bulk Modulus (GPa) = 30.85526 75.99219 53.42373
# Shear Modulus (GPa) = -206.60988 31.02073 -87.79457
#
# Velocity S-wave (km/s) = -10.27165 3.98007 -6.69574
# Velocity P-wave (km/s) = 11.17673 7.74127 5.70053
#
# Compressibility (1/GPa) = 0.03240938
#
# Stress axis : x y z
#
# Youngs Moduli (GPa) = 27.67412 147.73177 146.82295
#
# Poissons Ratio (x) = 0.81917 0.22769
# Poissons Ratio (y) = 0.15345 0.22859
# Poissons Ratio (z) = 0.04292 0.23001
#
# Static dielectric constant tensor:
#      x y z
#    x 1.650460 0.000000 -0.017020 
#    y 0.000000 1.796760 0.000000 
#    z -0.017020 0.000000 1.654210 
# 
# From -- ./inp_files/20537.got.cif
#   From: 2010.05.17/outbox.cif.g08.bks.cpg/sg10_11_cif.got.tgz:20537.got - 2010.06.03 11:33:40.
