data_PCOD9146625
_publ_section_title
;
Structure prediction by ZEFSAII (Michael W. Deem and Ramdas Pophale) SiO2 
 PCOD9146625
Probable space group: P 2/M
;
_chemical_formula_sum "Si O2"
_cell_formula_units_Z 28
_cell_length_a 13.036676
_cell_length_b 7.391718
_cell_length_c 13.747923
_cell_angle_alpha 90.000000
_cell_angle_beta 67.744161
_cell_angle_gamma 90.000000
_cell_volume 1226.102204
_symmetry_space_group_name_H-M "P 2/M"
_symmetry_group_IT_number 10
_symmetry_cell_setting 'monoclinic'
loop_
_space_group_symop_operation_xyz
x,y,z
-x,y,-z
-x,-y,-z
x,-y,z
loop_
_atom_site_type_symbol
_atom_site_label
_atom_site_fract_x
_atom_site_fract_y
_atom_site_fract_z
Si Si1 0.489865 0.781316 0.273027
Si Si2 0.396331 0.291142 0.095939
Si Si3 0.124267 0.220748 0.429265
Si Si4 0.149927 0.208948 0.202866
Si Si5 0.677966 0.779437 0.502417
Si Si6 0.718236 0.779253 0.267338
Si Si7 0.964996 0.221599 0.120374
O O1 0.426716 0.721470 0.198961
O O2 0.426165 0.723913 0.394107
O O3 0.617727 0.723780 0.233089
O O4 0.486520 0.000000 0.272421
O O5 0.387467 0.500000 0.070789
O O6 0.275292 0.212470 0.119402
O O7 0.500000 0.210404 0.000000
O O8 0.151454 0.286261 0.311110
O O9 0.213544 0.278253 0.476621
O O10 0.000000 0.273033 0.500000
O O11 0.129764 0.000000 0.428109
O O12 0.057531 0.284816 0.164058
O O13 0.117319 0.000000 0.227265
O O14 0.686883 0.721074 0.387976
O O15 0.675079 0.000000 0.500679
O O16 0.840922 0.720861 0.193059
O O17 0.719680 0.000000 0.266866
O O18 0.964967 0.000000 0.120819
O O19 0.000000 0.277610 0.000000
#
# Coordination Sequence:
#
# PCOD9146625 Si02
#       7
#     4   4   4   4   4   4   4
#     4  10  19  33  56  84 108 137 181 224 267 320
#     4  11  25  41  56  76 106 143 183 228 280 326
#     4   9  15  24  44  77 112 141 170 212 262 312
#     4  10  19  34  57  83 109 138 179 224 266 321
#     4   9  15  26  44  75 112 138 171 214 263 316
#     4   9  17  28  47  79 117 147 170 214 271 319
#     4   9  18  30  46  77 115 144 171 214 271 319
#
# _framework density 22.836594999999999
#
# number of rings (size 3 to 8) (size 9 to 14) (size 15 to 20)
#    0.000    2.429    1.429    1.714    2.000    6.286 
#    0.000    0.000    0.000    3.429    0.000    0.000 
#    0.000    0.000    0.000    0.000    0.000    0.000 
#
# Total GULP energy -156469.109922 kJ/mol
# GULP energy per Si atom -5588.182497 kJ/mol
# Density = 2.278462 g / cm^3
# Si number density = 22.836595 Si / 1000 Ang^3
#
#
#
# Elastic Constant Matrix: (Units=GPa)
#
#
# Indices 1 2 3 4 5 6 
#
# 1 158.8989 -6.3532 28.7412 0.0000 -22.4052 0.0000
# 2 -6.3532 73.2380 -8.0532 0.0000 1.7743 0.0000
# 3 28.7412 -8.0532 85.2162 0.0000 -23.5246 0.0000
# 4 0.0000 0.0000 0.0000 7.3364 0.0000 9.5942
# 5 -22.4052 1.7743 -23.5246 0.0000 35.8834 0.0000
# 6 0.0000 0.0000 0.0000 9.5942 0.0000 -80.3735
#
#
#
# Elastic Compliance Matrix: (Units=1/GPa)
#
#
# Indices 1 2 3 4 5 6 
#
# 1 0.007048 0.000375 -0.001382 0.000000 0.003476 0.000000
# 2 0.000375 0.013819 0.001289 0.000000 0.000396 0.000000
# 3 -0.001382 0.001289 0.014733 0.000000 0.008732 0.000000
# 4 0.000000 0.000000 0.000000 0.117902 0.000000 0.014074
# 5 0.003476 0.000396 0.008732 0.000000 0.035744 0.000000
# 6 0.000000 0.000000 0.000000 0.014074 0.000000 -0.010762
#
#
# Mechanical properties :
#
#
# Convention : Reuss Voigt Hill
#
# Bulk Modulus (GPa) = 27.65171 38.44696 33.04933
# Shear Modulus (GPa) = 26.31917 12.77046 19.54482
#
# Velocity S-wave (km/s) = 3.39853 2.36733 2.92867
# Velocity P-wave (km/s) = 5.24736 4.93402 5.09310
#
# Compressibility (1/GPa) = 0.03616413
#
# Stress axis : x y z
#
# Youngs Moduli (GPa) = 141.87452 72.36530 67.87292
#
# Poissons Ratio (x) = -0.02715 0.09381
# Poissons Ratio (y) = -0.05324 -0.08746
# Poissons Ratio (z) = 0.19609 -0.09325
#
# Static dielectric constant tensor:
#      x y z
#    x 1.804180 0.000000 -0.008230 
#    y 0.000000 1.901560 0.000000 
#    z -0.008230 0.000000 1.818880 
# 
# From -- ./inp_files/50065.got.cif
#   From: 2010.05.17/outbox.cif.g08.bks.cpg/sg10_26_cif.got.tgz:50065.got - 2010.06.03 11:33:40.
