data_PCOD9146038
_publ_section_title
;
Structure prediction by ZEFSAII (Michael W. Deem and Ramdas Pophale) SiO2 
 PCOD9146038
Probable space group: P 2/M
;
_chemical_formula_sum "Si O2"
_cell_formula_units_Z 32
_cell_length_a 16.462420
_cell_length_b 7.637475
_cell_length_c 25.067800
_cell_angle_alpha 90.000000
_cell_angle_beta 153.191157
_cell_angle_gamma 90.000000
_cell_volume 1421.513445
_symmetry_space_group_name_H-M "P 2/M"
_symmetry_group_IT_number 10
_symmetry_cell_setting 'monoclinic'
loop_
_space_group_symop_operation_xyz
x,y,z
-x,y,-z
-x,-y,-z
x,-y,z
loop_
_atom_site_type_symbol
_atom_site_label
_atom_site_fract_x
_atom_site_fract_y
_atom_site_fract_z
Si Si1 0.559018 0.702351 0.670331
Si Si2 0.741424 0.798408 0.003239
Si Si3 0.436467 0.702871 0.208072
Si Si4 0.435097 0.213371 0.902583
Si Si5 0.841988 0.787861 0.447550
Si Si6 0.252677 0.295531 0.412875
Si Si7 0.975076 0.787875 0.336090
Si Si8 0.140192 0.202614 0.232311
O O1 0.504838 0.500000 0.647687
O O2 0.580005 0.778657 0.741734
O O3 0.404120 0.780529 0.541495
O O4 0.741451 0.708618 0.743706
O O5 0.675218 0.794325 0.903650
O O6 0.582171 0.721592 0.946344
O O7 0.761768 0.000000 0.033621
O O8 0.940650 0.719809 0.123296
O O9 0.379140 0.500000 0.174746
O O10 0.648097 0.715631 0.318781
O O11 0.229434 0.272290 0.774581
O O12 0.428950 0.000000 0.894573
O O13 0.500000 0.256570 0.000000
O O14 0.000000 0.735685 0.500000
O O15 0.900224 0.734075 0.541146
O O16 0.829898 0.000000 0.439032
O O17 0.293625 0.500000 0.428112
O O18 0.240086 0.212129 0.347593
O O19 0.064661 0.276172 0.334100
O O20 0.973868 0.000000 0.333645
O O21 0.121836 0.000000 0.205524
#
# Coordination Sequence:
#
# PCOD9146038 Si02
#       8
#     4   4   4   4   4   4   4   4
#     4  10  23  42  61  85 120 161 198 241 305 364
#     4  10  22  41  62  87 121 157 199 250 305 360
#     4  11  23  40  61  86 120 160 203 246 295 359
#     4   9  17  33  58  85 117 156 195 240 295 351
#     4  10  20  35  57  85 117 155 199 245 296 350
#     4  11  22  39  61  86 123 161 195 241 302 364
#     4  10  19  32  56  87 115 150 197 242 288 346
#     4  11  24  40  63  92 117 150 201 256 304 355
#
# _framework density 22.511218
#
# number of rings (size 3 to 8) (size 9 to 14) (size 15 to 20)
#    0.000    1.750    1.250    3.000    0.000    9.250 
#    0.000    4.375    0.000    1.500    0.000    0.000 
#    0.000    0.000    0.000    0.000    0.000    0.000 
#
# Total GULP energy -178917.182899 kJ/mol
# GULP energy per Si atom -5591.161966 kJ/mol
# Density = 2.245998 g / cm^3
# Si number density = 22.511218 Si / 1000 Ang^3
#
#
#
# Elastic Constant Matrix: (Units=GPa)
#
#
# Indices 1 2 3 4 5 6 
#
# 1 122.0287 -7.6142 22.2629 0.0000 4.2684 0.0000
# 2 -7.6142 46.4894 -3.3926 0.0000 1.3488 0.0000
# 3 22.2629 -3.3926 80.4846 0.0000 2.6406 0.0000
# 4 0.0000 0.0000 0.0000 10.8992 0.0000 10.3450
# 5 4.2684 1.3488 2.6406 0.0000 35.4350 0.0000
# 6 0.0000 0.0000 0.0000 10.3450 0.0000 19.8862
#
#
#
# Elastic Compliance Matrix: (Units=1/GPa)
#
#
# Indices 1 2 3 4 5 6 
#
# 1 0.008733 0.001287 -0.002331 0.000000 -0.000927 0.000000
# 2 0.001287 0.021794 0.000596 0.000000 -0.001029 0.000000
# 3 -0.002331 0.000596 0.013118 0.000000 -0.000719 0.000000
# 4 0.000000 0.000000 0.000000 0.181239 0.000000 -0.094283
# 5 -0.000927 -0.001029 -0.000719 0.000000 0.028425 0.000000
# 6 0.000000 0.000000 0.000000 -0.094283 0.000000 0.099333
#
#
# Mechanical properties :
#
#
# Convention : Reuss Voigt Hill
#
# Bulk Modulus (GPa) = 23.39142 30.16831 26.77986
# Shear Modulus (GPa) = 13.59481 29.09385 21.34433
#
# Velocity S-wave (km/s) = 2.46013 3.59892 3.08257
# Velocity P-wave (km/s) = 4.29921 5.54077 4.95900
#
# Compressibility (1/GPa) = 0.04275072
#
# Stress axis : x y z
#
# Youngs Moduli (GPa) = 114.51096 45.88322 76.22973
#
# Poissons Ratio (x) = -0.05906 0.17768
# Poissons Ratio (y) = -0.14739 -0.04547
# Poissons Ratio (z) = 0.26691 -0.02737
#
# Static dielectric constant tensor:
#      x y z
#    x 1.810000 0.000000 0.010460 
#    y 0.000000 1.845410 0.000000 
#    z 0.010460 0.000000 1.819180 
# 
# From -- ./inp_files/89619.got.cif
#   From: 2010.05.17/outbox.cif.g08.bks.cpg/sg10_45_cif.got.tgz:89619.got - 2010.06.03 11:33:40.
