data_PCOD9146042
_publ_section_title
;
Structure prediction by ZEFSAII (Michael W. Deem and Ramdas Pophale) SiO2 
 PCOD9146042
Probable space group: P 2/M
;
_chemical_formula_sum "Si O2"
_cell_formula_units_Z 24
_cell_length_a 13.157813
_cell_length_b 10.449458
_cell_length_c 28.479919
_cell_angle_alpha 90.000000
_cell_angle_beta 20.320612
_cell_angle_gamma 90.000000
_cell_volume 1359.838345
_symmetry_space_group_name_H-M "P 2/M"
_symmetry_group_IT_number 10
_symmetry_cell_setting 'monoclinic'
loop_
_space_group_symop_operation_xyz
x,y,z
-x,y,-z
-x,-y,-z
x,-y,z
loop_
_atom_site_type_symbol
_atom_site_label
_atom_site_fract_x
_atom_site_fract_y
_atom_site_fract_z
Si Si1 0.787030 0.500000 0.637511
Si Si2 0.842413 0.356745 0.860083
Si Si3 0.167731 0.345931 0.626604
Si Si4 0.769950 0.739743 0.717051
Si Si5 0.145257 0.738018 0.041983
Si Si6 0.462658 0.000000 0.224955
Si Si7 0.072859 0.000000 0.901333
Si Si8 0.869358 0.500000 0.108635
O O1 0.799671 0.624351 0.666467
O O2 0.472460 0.500000 0.749882
O O3 0.000000 0.500000 0.500000
O O4 0.969785 0.500000 0.811648
O O5 0.871393 0.281938 0.895466
O O6 0.980072 0.303692 0.753034
O O7 0.500000 0.368598 0.000000
O O8 0.500000 0.327601 0.500000
O O9 0.122108 0.500000 0.638625
O O10 0.043971 0.274232 0.634205
O O11 0.716198 0.873556 0.712829
O O12 0.475566 0.729711 0.877312
O O13 0.978452 0.623938 0.088471
O O14 0.982294 0.869494 0.101874
O O15 0.603044 0.000000 0.216178
O O16 0.778634 0.000000 0.061588
O O17 0.000000 0.500000 0.000000
#
# Coordination Sequence:
#
# PCOD9146042 Si02
#       8
#     2   4   4   4   4   2   2   2
#     4  12  26  38  58  88 122 153 196 253 290 352
#     4  10  19  32  56  88 115 147 194 241 293 345
#     4  10  21  36  59  85 120 157 194 242 299 351
#     4  11  20  39  61  85 118 158 197 241 305 348
#     4  11  20  35  60  90 120 155 194 248 298 348
#     4   9  20  36  61  84 115 162 198 238 293 362
#     4   9  20  34  54  89 127 151 190 244 305 347
#     4  12  22  34  60  89 110 149 201 247 289 339
#
# _framework density 17.649156000000001
#
# number of rings (size 3 to 8) (size 9 to 14) (size 15 to 20)
#    0.000    1.500    5.000    1.000    2.333    1.333 
#    0.000    2.083    0.000    2.000    0.000    0.000 
#    0.000    0.000    0.000    0.000    0.000    0.000 
#
# Total GULP energy -133678.346652 kJ/mol
# GULP energy per Si atom -5569.931110 kJ/mol
# Density = 1.760899 g / cm^3
# Si number density = 17.649156 Si / 1000 Ang^3
#
#
#
# Elastic Constant Matrix: (Units=GPa)
#
#
# Indices 1 2 3 4 5 6 
#
# 1 133.0526 79.4839 37.8996 0.0000 -22.0191 0.0000
# 2 79.4839 136.9487 21.7160 0.0000 -11.2983 0.0000
# 3 37.8996 21.7160 74.4317 0.0000 -10.9084 0.0000
# 4 0.0000 0.0000 0.0000 13.6871 0.0000 -0.1503
# 5 -22.0191 -11.2983 -10.9084 0.0000 30.9063 0.0000
# 6 0.0000 0.0000 0.0000 -0.1503 0.0000 4.6092
#
#
#
# Elastic Compliance Matrix: (Units=1/GPa)
#
#
# Indices 1 2 3 4 5 6 
#
# 1 0.013750 -0.006841 -0.004151 0.000000 0.005830 0.000000
# 2 -0.006841 0.011194 0.000108 0.000000 -0.000743 0.000000
# 3 -0.004151 0.000108 0.015913 0.000000 0.002699 0.000000
# 4 0.000000 0.000000 0.000000 0.073087 0.000000 0.002383
# 5 0.005830 -0.000743 0.002699 0.000000 0.037190 0.000000
# 6 0.000000 0.000000 0.000000 0.002383 0.000000 0.217035
#
#
# Mechanical properties :
#
#
# Convention : Reuss Voigt Hill
#
# Bulk Modulus (GPa) = 52.38490 69.18133 60.78312
# Shear Modulus (GPa) = 12.61674 23.52943 18.07308
#
# Velocity S-wave (km/s) = 2.67659 3.65523 3.20350
# Velocity P-wave (km/s) = 6.26880 7.55629 6.94245
#
# Compressibility (1/GPa) = 0.01908947
#
# Stress axis : x y z
#
# Youngs Moduli (GPa) = 72.72849 89.33392 62.84352
#
# Poissons Ratio (x) = 0.61114 0.26085
# Poissons Ratio (y) = 0.49754 -0.00682
# Poissons Ratio (z) = 0.30188 -0.00969
#
# Static dielectric constant tensor:
#      x y z
#    x 1.614240 0.000000 -0.001740 
#    y 0.000000 1.604630 0.000000 
#    z -0.001740 0.000000 1.565860 
# 
# From -- ./inp_files/92838.got.cif
#   From: 2010.05.17/outbox.cif.g08.bks.cpg/sg10_47_cif.got.tgz:92838.got - 2010.06.03 11:33:40.
