data_PCOD9146255
_publ_section_title
;
Structure prediction by ZEFSAII (Michael W. Deem and Ramdas Pophale) SiO2 
 PCOD9146255
Probable space group: P 2/M
;
_chemical_formula_sum "Si O2"
_cell_formula_units_Z 28
_cell_length_a 12.448907
_cell_length_b 8.741633
_cell_length_c 29.353901
_cell_angle_alpha 90.000000
_cell_angle_beta 27.929430
_cell_angle_gamma 90.000000
_cell_volume 1496.205991
_symmetry_space_group_name_H-M "P 2/M"
_symmetry_group_IT_number 10
_symmetry_cell_setting 'monoclinic'
loop_
_space_group_symop_operation_xyz
x,y,z
-x,y,-z
-x,-y,-z
x,-y,z
loop_
_atom_site_type_symbol
_atom_site_label
_atom_site_fract_x
_atom_site_fract_y
_atom_site_fract_z
Si Si1 0.704281 0.682330 0.063853
Si Si2 0.509857 0.182079 0.765352
Si Si3 0.928414 0.816549 0.230979
Si Si4 0.970996 0.815060 0.638695
Si Si5 0.765188 0.318601 0.808453
Si Si6 0.480669 0.186046 0.454601
Si Si7 0.857703 0.317320 0.158240
O O1 0.708869 0.500000 0.072747
O O2 0.630854 0.770729 0.136617
O O3 0.502124 0.707922 0.102766
O O4 0.946273 0.727050 0.951807
O O5 0.771533 0.230716 0.678227
O O6 0.385036 0.259971 0.769814
O O7 0.504879 0.000000 0.761444
O O8 0.697414 0.763396 0.343965
O O9 0.919911 0.753538 0.183359
O O10 0.141207 0.757033 0.180915
O O11 0.930930 0.000000 0.229407
O O12 0.901879 0.749905 0.713975
O O13 0.230222 0.768104 0.530238
O O14 0.965358 0.000000 0.644214
O O15 0.802531 0.500000 0.796386
O O16 0.500000 0.235519 0.500000
O O17 0.486858 0.000000 0.452484
O O18 0.859717 0.500000 0.160768
#
# Coordination Sequence:
#
# PCOD9146255 Si02
#       7
#     4   4   4   4   4   4   4
#     4   9  20  37  57  78 104 144 183 215 259 319
#     4  10  20  34  57  85 109 134 176 227 267 305
#     4  11  22  36  55  79 109 141 178 220 265 315
#     4   9  17  33  56  82 108 137 174 218 263 310
#     4  10  19  33  53  80 110 138 174 217 265 316
#     4   9  16  31  57  82 105 137 175 212 259 319
#     4  11  23  39  55  73 106 148 184 217 262 318
#
# _framework density 18.714001
#
# number of rings (size 3 to 8) (size 9 to 14) (size 15 to 20)
#    0.000    2.143    1.429    2.143    0.000    4.571 
#    0.000    5.714    0.000    4.286    0.000    0.000 
#    0.000    0.000    0.000    0.000    0.000    0.000 
#
# Total GULP energy -156301.510095 kJ/mol
# GULP energy per Si atom -5582.196789 kJ/mol
# Density = 1.867141 g / cm^3
# Si number density = 18.714001 Si / 1000 Ang^3
#
#
#
# Elastic Constant Matrix: (Units=GPa)
#
#
# Indices 1 2 3 4 5 6 
#
# 1 96.3704 27.3344 -4.8734 0.0000 -19.2106 0.0000
# 2 27.3344 28.5617 5.5274 0.0000 -6.5465 0.0000
# 3 -4.8734 5.5274 25.7647 0.0000 -17.9429 0.0000
# 4 0.0000 0.0000 0.0000 28.0650 0.0000 11.1868
# 5 -19.2106 -6.5465 -17.9429 0.0000 22.3450 0.0000
# 6 0.0000 0.0000 0.0000 11.1868 0.0000 44.7133
#
#
#
# Elastic Compliance Matrix: (Units=1/GPa)
#
#
# Indices 1 2 3 4 5 6 
#
# 1 0.039864 -0.033208 0.072045 0.000000 0.082395 0.000000
# 2 -0.033208 0.065205 -0.060911 0.000000 -0.058357 0.000000
# 3 0.072045 -0.060911 0.218283 0.000000 0.219373 0.000000
# 4 0.000000 0.000000 0.000000 0.039579 0.000000 -0.009902
# 5 0.082395 -0.058357 0.219373 0.000000 0.274648 0.000000
# 6 0.000000 0.000000 0.000000 -0.009902 0.000000 0.024842
#
#
# Mechanical properties :
#
#
# Convention : Reuss Voigt Hill
#
# Bulk Modulus (GPa) = 3.58161 22.96372 13.27267
# Shear Modulus (GPa) = 6.25286 27.20523 16.72905
#
# Velocity S-wave (km/s) = 1.82990 3.81693 2.99311
# Velocity P-wave (km/s) = 2.52641 5.63230 4.36494
#
# Compressibility (1/GPa) = 0.27920417
#
# Stress axis : x y z
#
# Youngs Moduli (GPa) = 25.08552 15.33631 4.58122
#
# Poissons Ratio (x) = 0.50929 -0.33006
# Poissons Ratio (y) = 0.83304 0.27905
# Poissons Ratio (z) = -1.80730 0.93415
#
# Static dielectric constant tensor:
#      x y z
#    x 1.646710 0.000000 -0.032630 
#    y 0.000000 1.628750 0.000000 
#    z -0.032630 0.000000 1.640170 
# 
# From -- ./inp_files/68670.got.cif
#   From: 2010.05.17/outbox.cif.g08.bks.cpg/sg10_35_cif.got.tgz:68670.got - 2010.06.03 11:33:40.
