data_PCOD9146888
_publ_section_title
;
Structure prediction by ZEFSAII (Michael W. Deem and Ramdas Pophale) SiO2 
 PCOD9146888
Probable space group: P 2/M
;
_chemical_formula_sum "Si O2"
_cell_formula_units_Z 28
_cell_length_a 15.305411
_cell_length_b 18.539869
_cell_length_c 9.054998
_cell_angle_alpha 90.000000
_cell_angle_beta 141.513651
_cell_angle_gamma 90.000000
_cell_volume 1599.040518
_symmetry_space_group_name_H-M "P 2/M"
_symmetry_group_IT_number 10
_symmetry_cell_setting 'monoclinic'
loop_
_space_group_symop_operation_xyz
x,y,z
-x,y,-z
-x,-y,-z
x,-y,z
loop_
_atom_site_type_symbol
_atom_site_label
_atom_site_fract_x
_atom_site_fract_y
_atom_site_fract_z
Si Si1 0.643542 0.914494 0.597775
Si Si2 0.227540 0.581512 0.881015
Si Si3 0.134117 0.738192 0.342900
Si Si4 0.836710 0.794684 0.952144
Si Si5 0.587395 0.707557 0.765536
Si Si6 0.591545 0.189109 0.260342
Si Si7 0.069626 0.582447 0.358165
O O1 0.500000 0.898749 0.500000
O O2 0.775892 0.875010 0.850089
O O3 0.627338 0.877098 0.416508
O O4 0.660596 0.000000 0.611685
O O5 0.278238 0.500000 0.966148
O O6 0.160355 0.587741 0.629027
O O7 0.093777 0.591512 0.812827
O O8 0.350631 0.636575 0.077366
O O9 0.161743 0.760012 0.209840
O O10 0.268305 0.769122 0.605561
O O11 0.113358 0.652250 0.323213
O O12 0.994362 0.779376 0.213163
O O13 0.723084 0.753970 0.899517
O O14 0.500000 0.693129 0.500000
O O15 0.493055 0.753727 0.751439
O O16 0.500000 0.166557 0.000000
O O17 0.087696 0.500000 0.324018
#
# Coordination Sequence:
#
# PCOD9146888 Si02
#       7
#     4   4   4   4   4   4   4
#     4  10  19  37  63  85 108 146 183 216 270 330
#     4   9  19  32  51  77 104 144 191 231 273 325
#     4  10  19  34  54  81 109 142 182 232 270 313
#     4  10  19  35  56  81 108 135 189 226 260 325
#     4  12  19  36  57  75 111 148 182 227 274 324
#     4  11  22  36  55  86 116 141 180 226 272 327
#     4   9  17  33  52  74 106 144 188 230 275 325
#
# _framework density 17.510501000000001
#
# number of rings (size 3 to 8) (size 9 to 14) (size 15 to 20)
#    0.000    1.857    5.714    1.714    0.000    0.571 
#    0.000    8.571    0.000    2.571    0.000    2.000 
#    0.000    0.000    0.000    0.000    0.000    0.000 
#
# Total GULP energy -156118.357294 kJ/mol
# GULP energy per Si atom -5575.655618 kJ/mol
# Density = 1.747065 g / cm^3
# Si number density = 17.510501 Si / 1000 Ang^3
#
#
#
# Elastic Constant Matrix: (Units=GPa)
#
#
# Indices 1 2 3 4 5 6 
#
# 1 44.1577 39.7811 28.2698 0.0000 23.8211 0.0000
# 2 39.7811 135.7990 32.6304 0.0000 14.6262 0.0000
# 3 28.2698 32.6304 63.8509 0.0000 20.2354 0.0000
# 4 0.0000 0.0000 0.0000 23.4516 0.0000 8.3058
# 5 23.8211 14.6262 20.2354 0.0000 23.5595 0.0000
# 6 0.0000 0.0000 0.0000 8.3058 0.0000 20.8399
#
#
#
# Elastic Compliance Matrix: (Units=1/GPa)
#
#
# Indices 1 2 3 4 5 6 
#
# 1 0.067567 -0.012374 -0.006011 0.000000 -0.055472 0.000000
# 2 -0.012374 0.010737 -0.002557 0.000000 0.008042 0.000000
# 3 -0.006011 -0.002557 0.023634 0.000000 -0.012633 0.000000
# 4 0.000000 0.000000 0.000000 0.049649 0.000000 -0.019788
# 5 -0.055472 0.008042 -0.012633 0.000000 0.104392 0.000000
# 6 0.000000 0.000000 0.000000 -0.019788 0.000000 0.055871
#
#
# Mechanical properties :
#
#
# Convention : Reuss Voigt Hill
#
# Bulk Modulus (GPa) = 16.65220 49.46337 33.05778
# Shear Modulus (GPa) = 13.37786 23.11196 18.24491
#
# Velocity S-wave (km/s) = 2.76704 3.63697 3.23141
# Velocity P-wave (km/s) = 4.44287 6.77834 5.73084
#
# Compressibility (1/GPa) = 0.06005213
#
# Stress axis : x y z
#
# Youngs Moduli (GPa) = 14.80019 93.13620 42.31276
#
# Poissons Ratio (x) = 1.15247 0.25436
# Poissons Ratio (y) = 0.18314 0.10820
# Poissons Ratio (z) = 0.08897 0.23816
#
# Static dielectric constant tensor:
#      x y z
#    x 1.595750 0.000000 0.002350 
#    y 0.000000 1.589150 0.000000 
#    z 0.002350 0.000000 1.631750 
# 
# From -- ./inp_files/30161.got.cif
#   From: 2010.05.17/outbox.cif.g08.bks.cpg/sg10_16_cif.got.tgz:30161.got - 2010.06.03 11:33:40.
