data_PCOD9146523
_publ_section_title
;
Structure prediction by ZEFSAII (Michael W. Deem and Ramdas Pophale) SiO2 
 PCOD9146523
Probable space group: P 2/M
;
_chemical_formula_sum "Si O2"
_cell_formula_units_Z 28
_cell_length_a 16.566769
_cell_length_b 7.505048
_cell_length_c 20.826328
_cell_angle_alpha 90.000000
_cell_angle_beta 150.176404
_cell_angle_gamma 90.000000
_cell_volume 1287.804024
_symmetry_space_group_name_H-M "P 2/M"
_symmetry_group_IT_number 10
_symmetry_cell_setting 'monoclinic'
loop_
_space_group_symop_operation_xyz
x,y,z
-x,y,-z
-x,-y,-z
x,-y,z
loop_
_atom_site_type_symbol
_atom_site_label
_atom_site_fract_x
_atom_site_fract_y
_atom_site_fract_z
Si Si1 0.449491 0.282045 0.893511
Si Si2 0.290514 0.293978 0.029203
Si Si3 0.919056 0.282295 0.377511
Si Si4 0.924408 0.283952 0.764562
Si Si5 0.827445 0.284637 0.554852
Si Si6 0.457378 0.791672 0.275946
Si Si7 0.620711 0.208956 0.637496
O O1 0.447118 0.500000 0.888951
O O2 0.580199 0.216876 0.931881
O O3 0.266468 0.222904 0.753889
O O4 0.500000 0.232151 0.000000
O O5 0.270269 0.500000 0.995500
O O6 0.368915 0.289761 0.153646
O O7 0.108516 0.219456 0.901435
O O8 0.918353 0.500000 0.375987
O O9 0.000000 0.227032 0.500000
O O10 0.028818 0.225262 0.393135
O O11 0.922537 0.500000 0.764097
O O12 0.857571 0.225260 0.648780
O O13 0.801007 0.224607 0.734467
O O14 0.828488 0.500000 0.556022
O O15 0.651763 0.228186 0.408012
O O16 0.403094 0.715960 0.307702
O O17 0.415607 0.000000 0.244737
O O18 0.500000 0.286302 0.500000
O O19 0.577436 0.000000 0.613572
#
# Coordination Sequence:
#
# PCOD9146523 Si02
#       7
#     4   4   4   4   4   4   4
#     4   9  16  29  52  79 109 144 180 219 263 316
#     4  10  21  37  56  84 118 147 179 224 276 326
#     4   9  16  26  45  75 106 137 174 214 259 312
#     4  10  21  35  56  85 113 140 176 225 279 330
#     4  10  19  33  55  83 111 140 180 229 276 322
#     4  11  23  38  57  80 108 146 188 228 273 328
#     4  10  21  39  59  79 106 142 187 230 269 324
#
# _framework density 21.742439999999998
#
# number of rings (size 3 to 8) (size 9 to 14) (size 15 to 20)
#    0.000    2.143    1.429    2.143    0.000    8.286 
#    0.000    2.857    0.000    4.286    0.000    0.000 
#    0.000    0.000    0.000    0.000    0.000    0.000 
#
# Total GULP energy -156486.586577 kJ/mol
# GULP energy per Si atom -5588.806663 kJ/mol
# Density = 2.169295 g / cm^3
# Si number density = 21.742440 Si / 1000 Ang^3
#
#
#
# Elastic Constant Matrix: (Units=GPa)
#
#
# Indices 1 2 3 4 5 6 
#
# 1 130.7146 -8.5704 46.5104 0.0000 14.9330 0.0000
# 2 -8.5704 54.4100 -16.8075 0.0000 -2.4139 0.0000
# 3 46.5104 -16.8075 145.8478 0.0000 10.5366 0.0000
# 4 0.0000 0.0000 0.0000 -3.0703 0.0000 28.4155
# 5 14.9330 -2.4139 10.5366 0.0000 37.9307 0.0000
# 6 0.0000 0.0000 0.0000 28.4155 0.0000 8.8330
#
#
#
# Elastic Compliance Matrix: (Units=1/GPa)
#
#
# Indices 1 2 3 4 5 6 
#
# 1 0.008919 0.000483 -0.002589 0.000000 -0.002761 0.000000
# 2 0.000483 0.019098 0.002013 0.000000 0.000466 0.000000
# 3 -0.002589 0.002013 0.007992 0.000000 -0.001073 0.000000
# 4 0.000000 0.000000 0.000000 -0.010584 0.000000 0.034048
# 5 -0.002761 0.000466 -0.001073 0.000000 0.027779 0.000000
# 6 0.000000 0.000000 0.000000 0.034048 0.000000 0.003679
#
#
# Mechanical properties :
#
#
# Convention : Reuss Voigt Hill
#
# Bulk Modulus (GPa) = 27.91638 41.47081 34.69360
# Shear Modulus (GPa) = 72.45534 29.39468 50.92501
#
# Velocity S-wave (km/s) = 5.77899 3.68088 4.84487
# Velocity P-wave (km/s) = 7.57604 6.09756 6.87665
#
# Compressibility (1/GPa) = 0.03582126
#
# Stress axis : x y z
#
# Youngs Moduli (GPa) = 112.12579 52.36273 125.13170
#
# Poissons Ratio (x) = -0.02527 0.32397
# Poissons Ratio (y) = -0.05411 -0.25192
# Poissons Ratio (z) = 0.29029 -0.10542
#
# Static dielectric constant tensor:
#      x y z
#    x 1.760880 0.000000 0.015180 
#    y 0.000000 1.831120 0.000000 
#    z 0.015180 0.000000 1.703710 
# 
# From -- ./inp_files/84985.got.cif
#   From: 2010.05.17/outbox.cif.g08.bks.cpg/sg10_43_cif.got.tgz:84985.got - 2010.06.03 11:33:40.
