data_PCOD9146253
_publ_section_title
;
Structure prediction by ZEFSAII (Michael W. Deem and Ramdas Pophale) SiO2 
 PCOD9146253
Probable space group: P 2/M
;
_chemical_formula_sum "Si O2"
_cell_formula_units_Z 28
_cell_length_a 14.976803
_cell_length_b 9.106783
_cell_length_c 12.984219
_cell_angle_alpha 90.000000
_cell_angle_beta 57.901361
_cell_angle_gamma 90.000000
_cell_volume 1500.210943
_symmetry_space_group_name_H-M "P 2/M"
_symmetry_group_IT_number 10
_symmetry_cell_setting 'monoclinic'
loop_
_space_group_symop_operation_xyz
x,y,z
-x,y,-z
-x,-y,-z
x,-y,z
loop_
_atom_site_type_symbol
_atom_site_label
_atom_site_fract_x
_atom_site_fract_y
_atom_site_fract_z
Si Si1 0.931065 0.827658 0.264406
Si Si2 0.664616 0.324161 0.617490
Si Si3 0.687386 0.822683 0.153897
Si Si4 0.907063 0.668280 0.972239
Si Si5 0.311009 0.826425 0.620116
Si Si6 0.521047 0.677211 0.107698
Si Si7 0.101816 0.676174 0.500342
O O1 0.815378 0.807636 0.284629
O O2 0.913074 0.751760 0.382694
O O3 0.032429 0.751415 0.154762
O O4 0.949302 0.000000 0.258949
O O5 0.661760 0.500000 0.602814
O O6 0.658404 0.251962 0.506532
O O7 0.575472 0.286980 0.755406
O O8 0.777545 0.286735 0.601104
O O9 0.643182 0.780070 0.295984
O O10 0.618082 0.759136 0.102992
O O11 0.691341 0.000000 0.149139
O O12 0.803441 0.754641 0.068887
O O13 0.879652 0.500000 0.963889
O O14 0.000000 0.665534 0.000000
O O15 0.331696 0.000000 0.593307
O O16 0.537232 0.500000 0.100518
O O17 0.500000 0.715724 0.000000
O O18 0.097053 0.500000 0.510935
O O19 0.000000 0.724857 0.500000
#
# Coordination Sequence:
#
# PCOD9146253 Si02
#       7
#     4   4   4   4   4   4   4
#     4  10  19  33  53  79 116 155 189 233 290 348
#     4   9  19  36  59  83 111 151 193 241 296 347
#     4  11  23  39  60  87 119 156 199 245 298 356
#     4  11  22  35  56  86 119 155 192 232 286 352
#     4   9  19  35  56  84 117 149 183 235 297 353
#     4  10  23  43  62  83 116 157 202 251 298 347
#     4   9  18  33  54  82 114 149 195 244 290 346
#
# _framework density 18.664042999999999
#
# number of rings (size 3 to 8) (size 9 to 14) (size 15 to 20)
#    0.000    2.143    1.429    1.286    0.000    5.143 
#    0.000    5.714    0.000    0.000    0.000    0.000 
#    0.000    0.000    0.000    0.000    0.000    0.000 
#
# Total GULP energy -155901.279254 kJ/mol
# GULP energy per Si atom -5567.902831 kJ/mol
# Density = 1.862156 g / cm^3
# Si number density = 18.664043 Si / 1000 Ang^3
#
#
#
# Elastic Constant Matrix: (Units=GPa)
#
#
# Indices 1 2 3 4 5 6 
#
# 1 98.3191 53.0812 56.8381 0.0000 12.2617 0.0000
# 2 53.0812 44.7353 49.3484 0.0000 1.0485 0.0000
# 3 56.8381 49.3484 115.4176 0.0000 -8.6818 0.0000
# 4 0.0000 0.0000 0.0000 27.7126 0.0000 -6.1519
# 5 12.2617 1.0485 -8.6818 0.0000 25.8289 0.0000
# 6 0.0000 0.0000 0.0000 -6.1519 0.0000 24.2772
#
#
#
# Elastic Compliance Matrix: (Units=1/GPa)
#
#
# Indices 1 2 3 4 5 6 
#
# 1 0.032762 -0.036965 -0.001422 0.000000 -0.014530 0.000000
# 2 -0.036965 0.085691 -0.017827 0.000000 0.008078 0.000000
# 3 -0.001422 -0.017827 0.017535 0.000000 0.007293 0.000000
# 4 0.000000 0.000000 0.000000 0.038236 0.000000 0.009689
# 5 -0.014530 0.008078 0.007293 0.000000 0.047738 0.000000
# 6 0.000000 0.000000 0.000000 0.009689 0.000000 0.043646
#
#
# Mechanical properties :
#
#
# Convention : Reuss Voigt Hill
#
# Bulk Modulus (GPa) = 42.44457 64.11196 53.27827
# Shear Modulus (GPa) = 12.95707 22.17736 17.56722
#
# Velocity S-wave (km/s) = 2.63768 3.45083 3.07128
# Velocity P-wave (km/s) = 5.66279 7.09244 6.41755
#
# Compressibility (1/GPa) = 0.02356014
#
# Stress axis : x y z
#
# Youngs Moduli (GPa) = 30.52307 11.66980 57.02792
#
# Poissons Ratio (x) = 0.43138 0.08109
# Poissons Ratio (y) = 1.12829 1.01665
# Poissons Ratio (z) = 0.04340 0.20804
#
# Static dielectric constant tensor:
#      x y z
#    x 1.865290 0.000000 0.168680 
#    y 0.000000 1.620830 0.000000 
#    z 0.168680 0.000000 2.186890 
# 
# From -- ./inp_files/49629.got.cif
#   From: 2010.05.17/outbox.cif.g08.bks.cpg/sg10_25_cif.got.tgz:49629.got - 2010.06.03 11:33:40.
