data_PCOD9146392
_publ_section_title
;
Structure prediction by ZEFSAII (Michael W. Deem and Ramdas Pophale) SiO2 
 PCOD9146392
Probable space group: P 2/M
;
_chemical_formula_sum "Si O2"
_cell_formula_units_Z 32
_cell_length_a 11.772376
_cell_length_b 15.562330
_cell_length_c 18.175986
_cell_angle_alpha 90.000000
_cell_angle_beta 30.178418
_cell_angle_gamma 90.000000
_cell_volume 1673.943271
_symmetry_space_group_name_H-M "P 2/M"
_symmetry_group_IT_number 10
_symmetry_cell_setting 'monoclinic'
loop_
_space_group_symop_operation_xyz
x,y,z
-x,y,-z
-x,-y,-z
x,-y,z
loop_
_atom_site_type_symbol
_atom_site_label
_atom_site_fract_x
_atom_site_fract_y
_atom_site_fract_z
Si Si1 0.306112 0.403224 0.659513
Si Si2 0.023804 0.097081 0.305311
Si Si3 0.006570 0.663762 0.576928
Si Si4 0.314145 0.829851 0.262144
Si Si5 0.226202 0.774779 0.072313
Si Si6 0.144788 0.256951 0.844612
Si Si7 0.147670 0.405390 0.183054
Si Si8 0.633798 0.194555 0.599200
O O1 0.500000 0.361749 0.500000
O O2 0.379533 0.500000 0.637333
O O3 0.240410 0.349917 0.767599
O O4 0.085598 0.406819 0.732053
O O5 0.782801 0.139081 0.459794
O O6 0.174189 0.100351 0.295287
O O7 0.149746 0.160820 0.178972
O O8 0.005541 0.000000 0.288322
O O9 0.244732 0.710951 0.463130
O O10 0.000000 0.620428 0.500000
O O11 0.836209 0.743980 0.662628
O O12 0.918824 0.609573 0.694794
O O13 0.341242 0.845340 0.333321
O O14 0.553546 0.810402 0.091192
O O15 0.268521 0.679629 0.083001
O O16 0.022182 0.769540 0.127847
O O17 0.371508 0.201245 0.726123
O O18 0.000000 0.258386 0.000000
O O19 0.253301 0.500000 0.113463
#
# Coordination Sequence:
#
# PCOD9146392 Si02
#       8
#     4   4   4   4   4   4   4   4
#     4   9  19  33  55  86 118 157 209 260 295 343
#     4  11  24  41  67  95 116 151 199 251 305 356
#     4   9  18  33  55  82 114 160 202 251 295 340
#     4  10  20  37  63  86 124 154 193 247 299 349
#     4  11  22  39  60  92 125 158 199 252 297 358
#     4  11  22  37  61  87 118 167 203 239 310 364
#     4  10  19  33  54  83 122 165 205 243 294 351
#     4  10  20  39  61  89 119 154 199 244 297 364
#
# _framework density 19.116537999999998
#
# number of rings (size 3 to 8) (size 9 to 14) (size 15 to 20)
#    0.000    1.875    3.750    2.250    1.750    2.500 
#    0.000    2.500    0.000    2.250    0.000    0.000 
#    0.000    0.000    0.000    0.000    0.000    0.000 
#
# Total GULP energy -178528.997336 kJ/mol
# GULP energy per Si atom -5579.031167 kJ/mol
# Density = 1.907303 g / cm^3
# Si number density = 19.116538 Si / 1000 Ang^3
#
#
#
# Elastic Constant Matrix: (Units=GPa)
#
#
# Indices 1 2 3 4 5 6 
#
# 1 67.7943 3.8853 5.7406 0.0000 -9.7453 0.0000
# 2 3.8853 64.8987 10.6840 0.0000 0.5615 0.0000
# 3 5.7406 10.6840 99.9573 0.0000 -14.2268 0.0000
# 4 0.0000 0.0000 0.0000 -15.1585 0.0000 7.1775
# 5 -9.7453 0.5615 -14.2268 0.0000 33.6907 0.0000
# 6 0.0000 0.0000 0.0000 7.1775 0.0000 2.8789
#
#
#
# Elastic Compliance Matrix: (Units=1/GPa)
#
#
# Indices 1 2 3 4 5 6 
#
# 1 0.015453 -0.000937 -0.000158 0.000000 0.004419 0.000000
# 2 -0.000937 0.015775 -0.001818 0.000000 -0.001302 0.000000
# 3 -0.000158 -0.001818 0.010858 0.000000 0.004570 0.000000
# 4 0.000000 0.000000 0.000000 -0.030255 0.000000 0.075428
# 5 0.004419 -0.001302 0.004570 0.000000 0.032911 0.000000
# 6 0.000000 0.000000 0.000000 0.075428 0.000000 0.159301
#
#
# Mechanical properties :
#
#
# Convention : Reuss Voigt Hill
#
# Bulk Modulus (GPa) = 27.57892 30.36335 28.97114
# Shear Modulus (GPa) = 22.52693 18.43826 20.48259
#
# Velocity S-wave (km/s) = 3.43651 3.10904 3.27687
# Velocity P-wave (km/s) = 5.49583 5.36712 5.43186
#
# Compressibility (1/GPa) = 0.03625957
#
# Stress axis : x y z
#
# Youngs Moduli (GPa) = 64.71329 63.39054 92.09780
#
# Poissons Ratio (x) = 0.05941 0.01459
# Poissons Ratio (y) = 0.06065 0.16739
# Poissons Ratio (z) = 0.01025 0.11522
#
# Static dielectric constant tensor:
#      x y z
#    x 1.687190 0.000000 0.000870 
#    y 0.000000 1.686070 0.000000 
#    z 0.000870 0.000000 1.657780 
# 
# From -- ./inp_files/76992.got.cif
#   From: 2010.05.17/outbox.cif.g08.bks.cpg/sg10_39_cif.got.tgz:76992.got - 2010.06.03 11:33:40.
