data_PCOD9146197
_publ_section_title
;
Structure prediction by ZEFSAII (Michael W. Deem and Ramdas Pophale) SiO2 
 PCOD9146197
Probable space group: P 2/M
;
_chemical_formula_sum "Si O2"
_cell_formula_units_Z 28
_cell_length_a 26.744225
_cell_length_b 8.796219
_cell_length_c 9.742549
_cell_angle_alpha 90.000000
_cell_angle_beta 139.978801
_cell_angle_gamma 90.000000
_cell_volume 1473.864546
_symmetry_space_group_name_H-M "P 2/M"
_symmetry_group_IT_number 10
_symmetry_cell_setting 'monoclinic'
loop_
_space_group_symop_operation_xyz
x,y,z
-x,y,-z
-x,-y,-z
x,-y,z
loop_
_atom_site_type_symbol
_atom_site_label
_atom_site_fract_x
_atom_site_fract_y
_atom_site_fract_z
Si Si1 0.180221 0.820444 0.204946
Si Si2 0.016948 0.319170 0.878695
Si Si3 0.243649 0.181567 0.912677
Si Si4 0.725731 0.817839 0.333540
Si Si5 0.318078 0.319604 0.321328
Si Si6 0.586836 0.316297 0.220338
Si Si7 0.922537 0.681281 0.420983
O O1 0.203285 0.787578 0.412034
O O2 0.240330 0.725681 0.240818
O O3 0.191538 0.000000 0.203731
O O4 0.092990 0.770787 0.992685
O O5 0.033431 0.500000 0.904236
O O6 0.945531 0.288714 0.627479
O O7 0.000000 0.280427 0.000000
O O8 0.258891 0.235876 0.788759
O O9 0.158536 0.238847 0.780736
O O10 0.243277 0.000000 0.913069
O O11 0.308416 0.241277 0.154280
O O12 0.650012 0.746898 0.246177
O O13 0.715781 0.000000 0.308343
O O14 0.322248 0.500000 0.311507
O O15 0.386494 0.270636 0.569624
O O16 0.590062 0.500000 0.222202
O O17 0.500000 0.267177 0.000000
O O18 0.912844 0.500000 0.379178
O O19 0.000000 0.727489 0.500000
#
# Coordination Sequence:
#
# PCOD9146197 Si02
#       7
#     4   4   4   4   4   4   4
#     4  10  19  33  53  75 101 135 178 223 264 312
#     4  10  20  32  47  70 100 134 174 220 268 316
#     4  11  22  36  54  78 109 142 181 223 261 313
#     4   9  20  36  54  80 111 143 177 215 263 316
#     4  10  20  35  56  79 105 137 171 211 261 314
#     4   9  19  37  61  87 110 135 173 216 257 310
#     4  10  21  35  50  70 100 139 181 224 269 315
#
# _framework density 18.997675000000001
#
# number of rings (size 3 to 8) (size 9 to 14) (size 15 to 20)
#    0.000    2.143    0.000    3.000    0.000    4.857 
#    0.000    0.714    0.000    4.286    0.000    0.000 
#    0.000    0.000    0.000    0.000    0.000    0.000 
#
# Total GULP energy -156311.836755 kJ/mol
# GULP energy per Si atom -5582.565598 kJ/mol
# Density = 1.895444 g / cm^3
# Si number density = 18.997675 Si / 1000 Ang^3
#
#
#
# Elastic Constant Matrix: (Units=GPa)
#
#
# Indices 1 2 3 4 5 6 
#
# 1 42.9323 7.4923 34.8409 0.0000 -9.7452 0.0000
# 2 7.4923 11.3821 27.0546 0.0000 -0.5559 0.0000
# 3 34.8409 27.0546 123.0197 0.0000 -3.4886 0.0000
# 4 0.0000 0.0000 0.0000 28.4657 0.0000 0.5499
# 5 -9.7452 -0.5559 -3.4886 0.0000 36.6280 0.0000
# 6 0.0000 0.0000 0.0000 0.5499 0.0000 26.5344
#
#
#
# Elastic Compliance Matrix: (Units=1/GPa)
#
#
# Indices 1 2 3 4 5 6 
#
# 1 0.032297 0.000709 -0.009083 0.000000 0.007738 0.000000
# 2 0.000709 0.184142 -0.040723 0.000000 -0.000895 0.000000
# 3 -0.009083 -0.040723 0.019624 0.000000 -0.001166 0.000000
# 4 0.000000 0.000000 0.000000 0.035144 0.000000 -0.000728
# 5 0.007738 -0.000895 -0.001166 0.000000 0.029236 0.000000
# 6 0.000000 0.000000 0.000000 -0.000728 0.000000 0.037702
#
#
# Mechanical properties :
#
#
# Convention : Reuss Voigt Hill
#
# Bulk Modulus (GPa) = 7.25329 35.12330 21.18830
# Shear Modulus (GPa) = 10.36711 25.52204 17.94458
#
# Velocity S-wave (km/s) = 2.33857 3.66926 3.07671
# Velocity P-wave (km/s) = 3.33439 6.03984 4.87841
#
# Compressibility (1/GPa) = 0.13786838
#
# Stress axis : x y z
#
# Youngs Moduli (GPa) = 30.96294 5.43060 50.95797
#
# Poissons Ratio (x) = -0.00385 0.46287
# Poissons Ratio (y) = -0.02195 2.07515
# Poissons Ratio (z) = 0.28125 0.22115
#
# Static dielectric constant tensor:
#      x y z
#    x 1.648670 0.000000 -0.045590 
#    y 0.000000 1.638360 0.000000 
#    z -0.045590 0.000000 1.683820 
# 
# From -- ./inp_files/36977.got.cif
#   From: 2010.05.17/outbox.cif.g08.bks.cpg/sg10_19_cif.got.tgz:36977.got - 2010.06.03 11:33:40.
