data_PCOD9146749
_publ_section_title
;
Structure prediction by ZEFSAII (Michael W. Deem and Ramdas Pophale) SiO2 
 PCOD9146749
Probable space group: P 2/M
;
_chemical_formula_sum "Si O2"
_cell_formula_units_Z 26
_cell_length_a 11.862605
_cell_length_b 7.321940
_cell_length_c 17.725609
_cell_angle_alpha 90.000000
_cell_angle_beta 45.837203
_cell_angle_gamma 90.000000
_cell_volume 1104.451008
_symmetry_space_group_name_H-M "P 2/M"
_symmetry_group_IT_number 10
_symmetry_cell_setting 'monoclinic'
loop_
_space_group_symop_operation_xyz
x,y,z
-x,y,-z
-x,-y,-z
x,-y,z
loop_
_atom_site_type_symbol
_atom_site_label
_atom_site_fract_x
_atom_site_fract_y
_atom_site_fract_z
Si Si1 0.005216 0.222119 0.309925
Si Si2 0.116140 0.500000 0.063597
Si Si3 0.468451 0.280899 0.601045
Si Si4 0.111007 0.789575 0.799305
Si Si5 0.220543 0.790788 0.454057
Si Si6 0.605443 0.780956 0.026024
Si Si7 0.694057 0.778211 0.748292
O O1 0.938591 0.283605 0.261301
O O2 0.898911 0.288001 0.429029
O O3 0.183389 0.275195 0.243888
O O4 0.995827 0.000000 0.312577
O O5 0.985146 0.658768 0.102397
O O6 0.241399 0.660419 0.033871
O O7 0.500000 0.219450 0.500000
O O8 0.473794 0.500000 0.598568
O O9 0.299358 0.223460 0.710996
O O10 0.609470 0.211650 0.586710
O O11 0.066547 0.000000 0.827943
O O12 0.239988 0.710400 0.362110
O O13 0.168201 0.000000 0.467364
O O14 0.483495 0.730776 0.149976
O O15 0.640189 0.000000 0.010392
O O16 0.500000 0.748824 0.000000
O O17 0.696410 0.000000 0.745152
#
# Coordination Sequence:
#
# PCOD9146749 Si02
#       7
#     4   2   4   4   4   4   4
#     4   9  17  31  55  88 125 161 195 235 291 361
#     4  12  23  38  59  89 116 154 202 264 312 353
#     4  11  22  38  58  85 125 164 205 248 295 355
#     4  11  22  37  61  91 123 160 202 251 303 361
#     4  10  19  33  59  88 121 163 200 239 292 362
#     4  10  21  39  62  88 122 162 206 258 309 361
#     4   9  18  34  57  89 123 158 199 243 299 365
#
# _framework density 23.541105999999999
#
# number of rings (size 3 to 8) (size 9 to 14) (size 15 to 20)
#    0.000    1.846    2.308    2.538    0.000    4.923 
#    1.385    0.000    0.000    2.769    0.000    4.308 
#    0.000    0.000    0.000    0.000    0.000    0.308 
#
# Total GULP energy -144907.425719 kJ/mol
# GULP energy per Si atom -5573.362528 kJ/mol
# Density = 2.348753 g / cm^3
# Si number density = 23.541106 Si / 1000 Ang^3
#
#
#
# Elastic Constant Matrix: (Units=GPa)
#
#
# Indices 1 2 3 4 5 6 
#
# 1 56.0756 -4.9276 15.3816 0.0000 -21.9108 0.0000
# 2 -4.9276 141.2875 18.3076 0.0000 -10.5487 0.0000
# 3 15.3816 18.3076 91.0107 0.0000 -25.1707 0.0000
# 4 0.0000 0.0000 0.0000 -99.4068 0.0000 91.0810
# 5 -21.9108 -10.5487 -25.1707 0.0000 45.6274 0.0000
# 6 0.0000 0.0000 0.0000 91.0810 0.0000 -107.6831
#
#
#
# Elastic Compliance Matrix: (Units=1/GPa)
#
#
# Indices 1 2 3 4 5 6 
#
# 1 0.022420 0.001725 -0.001237 0.000000 0.010483 0.000000
# 2 0.001725 0.007441 -0.001279 0.000000 0.001843 0.000000
# 3 -0.001237 -0.001279 0.013226 0.000000 0.006407 0.000000
# 4 0.000000 0.000000 0.000000 -0.044706 0.000000 -0.037814
# 5 0.010483 0.001843 0.006407 0.000000 0.030911 0.000000
# 6 0.000000 0.000000 0.000000 -0.037814 0.000000 -0.041270
#
#
# Mechanical properties :
#
#
# Convention : Reuss Voigt Hill
#
# Bulk Modulus (GPa) = 24.09309 38.43298 31.26303
# Shear Modulus (GPa) = 1454.23643 -14.98502 719.62570
#
# Velocity S-wave (km/s) = 24.88141 -2.52573 17.50293
# Velocity P-wave (km/s) = 28.90852 2.80279 20.53726
#
# Compressibility (1/GPa) = 0.04150568
#
# Stress axis : x y z
#
# Youngs Moduli (GPa) = 44.60315 134.38650 75.60969
#
# Poissons Ratio (x) = -0.23180 0.09352
# Poissons Ratio (y) = -0.07693 0.09667
# Poissons Ratio (z) = 0.05517 0.17182
#
# Static dielectric constant tensor:
#      x y z
#    x 1.854140 0.000000 0.046460 
#    y 0.000000 1.938430 0.000000 
#    z 0.046460 0.000000 1.942360 
# 
# From -- ./inp_files/83478.got.cif
#   From: 2010.05.17/outbox.cif.g08.bks.cpg/sg10_42_cif.got.tgz:83478.got - 2010.06.03 11:33:40.
