data_PCOD9146722
_publ_section_title
;
Structure prediction by ZEFSAII (Michael W. Deem and Ramdas Pophale) SiO2 
 PCOD9146722
Probable space group: P 2/M
;
_chemical_formula_sum "Si O2"
_cell_formula_units_Z 24
_cell_length_a 23.662410
_cell_length_b 7.427882
_cell_length_c 11.278738
_cell_angle_alpha 90.000000
_cell_angle_beta 148.563556
_cell_angle_gamma 90.000000
_cell_volume 1033.909350
_symmetry_space_group_name_H-M "P 2/M"
_symmetry_group_IT_number 10
_symmetry_cell_setting 'monoclinic'
loop_
_space_group_symop_operation_xyz
x,y,z
-x,y,-z
-x,-y,-z
x,-y,z
loop_
_atom_site_type_symbol
_atom_site_label
_atom_site_fract_x
_atom_site_fract_y
_atom_site_fract_z
Si Si1 0.981838 0.781214 0.106961
Si Si2 0.257301 0.793980 0.332981
Si Si3 0.460462 0.292954 0.550679
Si Si4 0.919557 0.779867 0.462903
Si Si5 0.624371 0.219451 0.227359
Si Si6 0.317677 0.216400 0.927132
O O1 0.048159 0.723779 0.344121
O O2 0.995293 0.000000 0.130102
O O3 0.858135 0.722932 0.912442
O O4 0.000000 0.726317 0.000000
O O5 0.353702 0.794132 0.411853
O O6 0.310784 0.708847 0.544605
O O7 0.232120 0.000000 0.320591
O O8 0.500000 0.208208 0.500000
O O9 0.430070 0.500000 0.475147
O O10 0.566906 0.286931 0.822257
O O11 0.794703 0.724967 0.215113
O O12 0.000000 0.723530 0.500000
O O13 0.921717 0.000000 0.467317
O O14 0.686225 0.262104 0.218307
O O15 0.618753 0.000000 0.226588
O O16 0.500000 0.281011 0.000000
O O17 0.324565 0.000000 0.950394
#
# Coordination Sequence:
#
# PCOD9146722 Si02
#       6
#     4   4   4   4   4   4
#     4   9  17  30  50  80 115 145 174 215 270 325
#     4  10  19  33  58  84 109 143 183 218 261 330
#     4  11  25  40  52  73 109 145 181 230 280 318
#     4   9  18  30  47  78 111 135 170 225 270 303
#     4   9  15  27  48  80 110 131 165 214 262 308
#     4  10  19  34  58  80 107 141 175 217 270 331
#
# _framework density 23.212868
#
# number of rings (size 3 to 8) (size 9 to 14) (size 15 to 20)
#    0.000    2.333    1.667    1.500    2.333    5.333 
#    0.000    1.667    0.000    2.000    0.000    0.000 
#    0.000    0.000    0.000    0.000    0.000    0.000 
#
# Total GULP energy -133891.704344 kJ/mol
# GULP energy per Si atom -5578.821014 kJ/mol
# Density = 2.316003 g / cm^3
# Si number density = 23.212868 Si / 1000 Ang^3
#
#
#
# Elastic Constant Matrix: (Units=GPa)
#
#
# Indices 1 2 3 4 5 6 
#
# 1 107.7268 -5.0171 23.7607 0.0000 14.3978 0.0000
# 2 -5.0171 69.3015 -6.1067 0.0000 -0.8569 0.0000
# 3 23.7607 -6.1067 90.8954 0.0000 21.8068 0.0000
# 4 0.0000 0.0000 0.0000 -134.6931 0.0000 -160.8385
# 5 14.3978 -0.8569 21.8068 0.0000 43.4223 0.0000
# 6 0.0000 0.0000 0.0000 -160.8385 0.0000 -215.7144
#
#
#
# Elastic Compliance Matrix: (Units=1/GPa)
#
#
# Indices 1 2 3 4 5 6 
#
# 1 0.010065 0.000520 -0.002044 0.000000 -0.002301 0.000000
# 2 0.000520 0.014545 0.000925 0.000000 -0.000350 0.000000
# 3 -0.002044 0.000925 0.012997 0.000000 -0.005831 0.000000
# 4 0.000000 0.000000 0.000000 -0.067702 0.000000 0.050479
# 5 -0.002301 -0.000350 -0.005831 0.000000 0.026714 0.000000
# 6 0.000000 0.000000 0.000000 0.050479 0.000000 -0.042274
#
#
# Mechanical properties :
#
#
# Convention : Reuss Voigt Hill
#
# Bulk Modulus (GPa) = 27.46571 32.57749 30.02160
# Shear Modulus (GPa) = -154.69936 -44.37792 -99.53864
#
# Velocity S-wave (km/s) = -8.17242 -4.37714 -6.55545
# Velocity P-wave (km/s) = 8.78598 3.38837 6.65862
#
# Compressibility (1/GPa) = 0.03640903
#
# Stress axis : x y z
#
# Youngs Moduli (GPa) = 99.35098 68.75428 76.93991
#
# Poissons Ratio (x) = -0.03576 0.15729
# Poissons Ratio (y) = -0.05167 -0.07118
# Poissons Ratio (z) = 0.20310 -0.06361
#
# Static dielectric constant tensor:
#      x y z
#    x 1.889570 0.000000 -0.013940 
#    y 0.000000 1.923560 0.000000 
#    z -0.013940 0.000000 1.919420 
# 
# From -- ./inp_files/56546.got.cif
#   From: 2010.05.17/outbox.cif.g08.bks.cpg/sg10_29_cif.got.tgz:56546.got - 2010.06.03 11:33:40.
