data_PCOD9146229
_publ_section_title
;
Structure prediction by ZEFSAII (Michael W. Deem and Ramdas Pophale) SiO2 
 PCOD9146229
Probable space group: P 2/M
;
_chemical_formula_sum "Si O2"
_cell_formula_units_Z 20
_cell_length_a 12.905184
_cell_length_b 8.879433
_cell_length_c 10.339778
_cell_angle_alpha 90.000000
_cell_angle_beta 77.507289
_cell_angle_gamma 90.000000
_cell_volume 1156.789687
_symmetry_space_group_name_H-M "P 2/M"
_symmetry_group_IT_number 10
_symmetry_cell_setting 'monoclinic'
loop_
_space_group_symop_operation_xyz
x,y,z
-x,y,-z
-x,-y,-z
x,-y,z
loop_
_atom_site_type_symbol
_atom_site_label
_atom_site_fract_x
_atom_site_fract_y
_atom_site_fract_z
Si Si1 0.723310 0.821091 0.587565
Si Si2 0.494435 0.326713 0.344431
Si Si3 0.270917 0.681318 0.701711
Si Si4 0.070928 0.679198 0.352503
Si Si5 0.058273 0.820673 0.848994
O O1 0.605556 0.774006 0.665358
O O2 0.737508 0.751161 0.439909
O O3 0.814577 0.750831 0.651616
O O4 0.733568 0.000000 0.577844
O O5 0.500000 0.325584 0.500000
O O6 0.475462 0.500000 0.310297
O O7 0.612961 0.279158 0.272706
O O8 0.266646 0.500000 0.690768
O O9 0.173047 0.742817 0.809661
O O10 0.079570 0.500000 0.331098
O O11 0.000000 0.704793 0.500000
O O12 0.011836 0.754340 0.248322
O O13 0.070493 0.000000 0.828989
O O14 0.000000 0.791869 0.000000
#
# Coordination Sequence:
#
# PCOD9146229 Si02
#       5
#     4   4   4   4   4
#     4  11  20  30  51  81 112 141 175 224 277 321
#     4   8  16  30  48  73 107 141 177 220 265 319
#     4  10  19  33  53  77 107 145 184 222 265 318
#     4  11  22  36  57  81 108 145 185 225 270 322
#     4  11  24  39  56  81 112 145 181 224 275 328
#
# _framework density 17.289228999999999
#
# number of rings (size 3 to 8) (size 9 to 14) (size 15 to 20)
#    0.000    1.800    2.000    4.800    0.000    6.800 
#    0.000    0.000    0.000    1.200    0.000    8.400 
#    0.000    0.000    0.000    0.000    0.000    0.000 
#
# Total GULP energy -111639.761511 kJ/mol
# GULP energy per Si atom -5581.988076 kJ/mol
# Density = 1.724988 g / cm^3
# Si number density = 17.289229 Si / 1000 Ang^3
#
#
#
# Elastic Constant Matrix: (Units=GPa)
#
#
# Indices 1 2 3 4 5 6 
#
# 1 167.0156 74.3935 46.5725 0.0000 -16.0909 0.0000
# 2 74.3935 94.1284 49.9946 0.0000 -6.5893 0.0000
# 3 46.5725 49.9946 56.3612 0.0000 -7.4058 0.0000
# 4 0.0000 0.0000 0.0000 24.5139 0.0000 -11.7107
# 5 -16.0909 -6.5893 -7.4058 0.0000 16.4942 0.0000
# 6 0.0000 0.0000 0.0000 -11.7107 0.0000 39.6190
#
#
#
# Elastic Compliance Matrix: (Units=1/GPa)
#
#
# Indices 1 2 3 4 5 6 
#
# 1 0.009984 -0.006632 -0.001525 0.000000 0.006406 0.000000
# 2 -0.006632 0.024494 -0.016802 0.000000 -0.004229 0.000000
# 3 -0.001525 -0.016802 0.034888 0.000000 0.007464 0.000000
# 4 0.000000 0.000000 0.000000 0.047500 0.000000 0.014040
# 5 0.006406 -0.004229 0.007464 0.000000 0.068538 0.000000
# 6 0.000000 0.000000 0.000000 0.014040 0.000000 0.029391
#
#
# Mechanical properties :
#
#
# Convention : Reuss Voigt Hill
#
# Bulk Modulus (GPa) = 51.42351 73.26962 62.34656
# Shear Modulus (GPa) = 18.43679 25.89506 22.16592
#
# Velocity S-wave (km/s) = 3.26908 3.87428 3.58448
# Velocity P-wave (km/s) = 6.63753 7.90470 7.29867
#
# Compressibility (1/GPa) = 0.01944636
#
# Stress axis : x y z
#
# Youngs Moduli (GPa) = 100.15858 40.82683 28.66311
#
# Poissons Ratio (x) = 0.27078 0.04372
# Poissons Ratio (y) = 0.66429 0.48160
# Poissons Ratio (z) = 0.15277 0.68598
#
# Static dielectric constant tensor:
#      x y z
#    x 1.612940 0.000000 -0.018620 
#    y 0.000000 1.572730 0.000000 
#    z -0.018620 0.000000 1.556470 
# 
# From -- ./inp_files/22126.got.cif
#   From: 2010.05.17/outbox.cif.g08.bks.cpg/sg10_12_cif.got.tgz:22126.got - 2010.06.03 11:33:40.
