data_PCOD9146133
_publ_section_title
;
Structure prediction by ZEFSAII (Michael W. Deem and Ramdas Pophale) SiO2 
 PCOD9146133
Probable space group: P 2/M
;
_chemical_formula_sum "Si O2"
_cell_formula_units_Z 24
_cell_length_a 10.488201
_cell_length_b 7.779666
_cell_length_c 21.870401
_cell_angle_alpha 90.000000
_cell_angle_beta 135.689196
_cell_angle_gamma 90.000000
_cell_volume 1246.569046
_symmetry_space_group_name_H-M "P 2/M"
_symmetry_group_IT_number 10
_symmetry_cell_setting 'monoclinic'
loop_
_space_group_symop_operation_xyz
x,y,z
-x,y,-z
-x,-y,-z
x,-y,z
loop_
_atom_site_type_symbol
_atom_site_label
_atom_site_fract_x
_atom_site_fract_y
_atom_site_fract_z
Si Si1 0.208906 0.701206 0.742835
Si Si2 0.522016 0.796691 0.267783
Si Si3 0.496011 0.707269 0.596865
Si Si4 0.475634 0.201194 0.058732
Si Si5 0.207964 0.789290 0.069743
Si Si6 0.794238 0.710145 0.603355
O O1 0.201953 0.500000 0.755739
O O2 0.307905 0.719572 0.711216
O O3 0.341684 0.785770 0.838187
O O4 0.002669 0.769451 0.672721
O O5 0.518390 0.762693 0.338307
O O6 0.335577 0.736535 0.170491
O O7 0.534100 0.000000 0.261697
O O8 0.495955 0.500000 0.596096
O O9 0.679473 0.763012 0.623986
O O10 0.325557 0.764272 0.496394
O O11 0.314066 0.272344 0.045653
O O12 0.431436 0.000000 0.035233
O O13 0.500000 0.278597 0.000000
O O14 0.205783 0.000000 0.068696
O O15 0.000000 0.730948 0.000000
O O16 0.796658 0.500000 0.603414
#
# Coordination Sequence:
#
# PCOD9146133 Si02
#       6
#     4   4   4   4   4   4
#     4  10  19  33  52  73  98 130 167 202 239 286
#     4  10  20  33  49  74 103 128 160 202 247 292
#     4   9  17  34  55  72  95 128 165 203 244 289
#     4   9  18  32  49  70  97 127 159 197 243 290
#     4   8  15  29  47  65  89 123 159 192 229 280
#     4   8  17  33  53  74  96 127 166 204 241 288
#
# _framework density 19.252844
#
# number of rings (size 3 to 8) (size 9 to 14) (size 15 to 20)
#    0.000    3.000    0.000    3.000    0.000    2.333 
#    0.000   10.000    0.000   12.500    0.000    0.000 
#    0.000    0.000    0.000    0.000    0.000    0.000 
#
# Total GULP energy -133799.079948 kJ/mol
# GULP energy per Si atom -5574.961665 kJ/mol
# Density = 1.920902 g / cm^3
# Si number density = 19.252844 Si / 1000 Ang^3
#
#
#
# Elastic Constant Matrix: (Units=GPa)
#
#
# Indices 1 2 3 4 5 6 
#
# 1 158.6574 -7.9233 114.5557 0.0000 5.7057 0.0000
# 2 -7.9233 21.8991 -9.7357 0.0000 1.3681 0.0000
# 3 114.5557 -9.7357 101.8778 0.0000 4.4610 0.0000
# 4 0.0000 0.0000 0.0000 21.9331 0.0000 -2.5654
# 5 5.7057 1.3681 4.4610 0.0000 46.7815 0.0000
# 6 0.0000 0.0000 0.0000 -2.5654 0.0000 7.8873
#
#
#
# Elastic Compliance Matrix: (Units=1/GPa)
#
#
# Indices 1 2 3 4 5 6 
#
# 1 0.034007 -0.004877 -0.038691 0.000000 -0.000315 0.000000
# 2 -0.004877 0.048547 0.010202 0.000000 -0.001798 0.000000
# 3 -0.038691 0.010202 0.054330 0.000000 -0.000760 0.000000
# 4 0.000000 0.000000 0.000000 0.047396 0.000000 0.015416
# 5 -0.000315 -0.001798 -0.000760 0.000000 0.021540 0.000000
# 6 0.000000 0.000000 0.000000 0.015416 0.000000 0.131801
#
#
# Mechanical properties :
#
#
# Convention : Reuss Voigt Hill
#
# Bulk Modulus (GPa) = 14.25481 52.91419 33.58450
# Shear Modulus (GPa) = 11.68944 27.68955 19.68949
#
# Velocity S-wave (km/s) = 2.46672 3.79648 3.20141
# Velocity P-wave (km/s) = 3.94120 6.83822 5.58096
#
# Compressibility (1/GPa) = 0.07015175
#
# Stress axis : x y z
#
# Youngs Moduli (GPa) = 29.40593 20.59850 18.40614
#
# Poissons Ratio (x) = 0.10046 0.71215
# Poissons Ratio (y) = 0.14342 -0.18778
# Poissons Ratio (z) = 1.13774 -0.21015
#
# Static dielectric constant tensor:
#      x y z
#    x 1.666220 0.000000 0.003720 
#    y 0.000000 1.718370 0.000000 
#    z 0.003720 0.000000 1.650780 
# 
# From -- ./inp_files/33755.got.cif
#   From: 2010.05.17/outbox.cif.g08.bks.cpg/sg10_17_cif.got.tgz:33755.got - 2010.06.03 11:33:40.
