data_PCOD9146757
_publ_section_title
;
Structure prediction by ZEFSAII (Michael W. Deem and Ramdas Pophale) SiO2 
 PCOD9146757
Probable space group: P 2/M
;
_chemical_formula_sum "Si O2"
_cell_formula_units_Z 24
_cell_length_a 12.571283
_cell_length_b 14.519280
_cell_length_c 7.112630
_cell_angle_alpha 90.000000
_cell_angle_beta 42.530483
_cell_angle_gamma 90.000000
_cell_volume 877.587173
_symmetry_space_group_name_H-M "P 2/M"
_symmetry_group_IT_number 10
_symmetry_cell_setting 'monoclinic'
loop_
_space_group_symop_operation_xyz
x,y,z
-x,y,-z
-x,-y,-z
x,-y,z
loop_
_atom_site_type_symbol
_atom_site_label
_atom_site_fract_x
_atom_site_fract_y
_atom_site_fract_z
Si Si1 0.288281 0.608337 0.829110
Si Si2 0.043844 0.360129 0.660904
Si Si3 0.705184 0.815260 0.066741
Si Si4 0.620339 0.892301 0.589462
Si Si5 0.043942 0.146174 0.730497
Si Si6 0.609189 0.603938 0.705958
O O1 0.323010 0.500000 0.830352
O O2 0.289826 0.702925 0.952336
O O3 0.617508 0.635896 0.481541
O O4 0.102199 0.602626 0.032458
O O5 0.063635 0.255388 0.697645
O O6 0.214070 0.401158 0.457503
O O7 0.000000 0.370002 0.500000
O O8 0.670402 0.841577 0.330172
O O9 0.555328 0.852211 0.144860
O O10 0.881825 0.861290 0.814613
O O11 0.773701 0.886012 0.527424
O O12 0.597273 0.000000 0.582504
O O13 0.000000 0.114049 0.000000
O O14 0.552928 0.500000 0.765178
O O15 0.500000 0.652769 0.000000
#
# Coordination Sequence:
#
# PCOD9146757 Si02
#       6
#     4   4   4   4   4   4
#     4  10  21  41  68  90 129 187 227 270 330 393
#     4  11  22  40  63  90 127 176 230 276 330 395
#     4   9  18  34  57  92 130 163 220 276 322 401
#     4  10  19  33  59  95 132 165 212 276 341 405
#     4   9  19  37  60  89 124 167 215 269 330 403
#     4  10  21  39  60  89 126 166 221 281 330 386
#
# _framework density 27.347711
#
# number of rings (size 3 to 8) (size 9 to 14) (size 15 to 20)
#    0.000    2.167    0.000    5.000    0.000    6.333 
#   21.000    1.667    0.000    4.500    0.000    4.667 
#    0.000    0.667    0.000    0.000    0.000    0.000 
#
# Total GULP energy -133927.539547 kJ/mol
# GULP energy per Si atom -5580.314148 kJ/mol
# Density = 2.728547 g / cm^3
# Si number density = 27.347711 Si / 1000 Ang^3
#
#
#
# Elastic Constant Matrix: (Units=GPa)
#
#
# Indices 1 2 3 4 5 6 
#
# 1 156.9421 33.0346 91.4122 0.0000 -52.4122 0.0000
# 2 33.0346 151.4310 24.4157 0.0000 -34.4385 0.0000
# 3 91.4122 24.4157 226.6007 0.0000 -40.4775 0.0000
# 4 0.0000 0.0000 0.0000 24.5670 0.0000 -22.8153
# 5 -52.4122 -34.4385 -40.4775 0.0000 54.3446 0.0000
# 6 0.0000 0.0000 0.0000 -22.8153 0.0000 5.3612
#
#
#
# Elastic Compliance Matrix: (Units=1/GPa)
#
#
# Indices 1 2 3 4 5 6 
#
# 1 0.010819 -0.000013 -0.002884 0.000000 0.008278 0.000000
# 2 -0.000013 0.007716 0.000052 0.000000 0.004916 0.000000
# 3 -0.002884 0.000052 0.005860 0.000000 0.001615 0.000000
# 4 0.000000 0.000000 0.000000 -0.013788 0.000000 -0.058677
# 5 0.008278 0.004916 0.001615 0.000000 0.030703 0.000000
# 6 0.000000 0.000000 0.000000 -0.058677 0.000000 -0.063182
#
#
# Mechanical properties :
#
#
# Convention : Reuss Voigt Hill
#
# Bulk Modulus (GPa) = 53.46307 92.52209 72.99258
# Shear Modulus (GPa) = -502.66077 42.59532 -230.03273
#
# Velocity S-wave (km/s) = -13.57213 3.95086 -9.18132
# Velocity P-wave (km/s) = 15.03368 7.39713 9.25457
#
# Compressibility (1/GPa) = 0.01870450
#
# Stress axis : x y z
#
# Youngs Moduli (GPa) = 92.43058 129.59911 170.65980
#
# Poissons Ratio (x) = 0.00162 0.49225
# Poissons Ratio (y) = 0.00116 -0.00885
# Poissons Ratio (z) = 0.26661 -0.00672
#
# Static dielectric constant tensor:
#      x y z
#    x 2.259260 0.000000 0.008720 
#    y 0.000000 2.025420 0.000000 
#    z 0.008720 0.000000 2.355340 
# 
# From -- ./inp_files/51494.got.cif
#   From: 2010.05.17/outbox.cif.g08.bks.cpg/sg10_26_cif.got.tgz:51494.got - 2010.06.03 11:33:40.
