data_PCOD9146538
_publ_section_title
;
Structure prediction by ZEFSAII (Michael W. Deem and Ramdas Pophale) SiO2 
 PCOD9146538
Probable space group: P 2/M
;
_chemical_formula_sum "Si O2"
_cell_formula_units_Z 20
_cell_length_a 8.847324
_cell_length_b 7.787461
_cell_length_c 30.455222
_cell_angle_alpha 90.000000
_cell_angle_beta 150.505794
_cell_angle_gamma 90.000000
_cell_volume 1033.072442
_symmetry_space_group_name_H-M "P 2/M"
_symmetry_group_IT_number 10
_symmetry_cell_setting 'monoclinic'
loop_
_space_group_symop_operation_xyz
x,y,z
-x,y,-z
-x,-y,-z
x,-y,z
loop_
_atom_site_type_symbol
_atom_site_label
_atom_site_fract_x
_atom_site_fract_y
_atom_site_fract_z
Si Si1 0.776351 0.500000 0.902004
Si Si2 0.135385 0.500000 0.901229
Si Si3 0.820051 0.692265 0.236303
Si Si4 0.804102 0.790939 0.408780
Si Si5 0.150528 0.206625 0.409455
Si Si6 0.903478 0.195774 0.781012
O O1 0.540524 0.661334 0.845497
O O2 0.962324 0.500000 0.904048
O O3 0.000000 0.500000 0.000000
O O4 0.037881 0.331835 0.849091
O O5 0.500000 0.500000 0.000000
O O6 0.934860 0.500000 0.254277
O O7 0.989251 0.750718 0.322928
O O8 0.899274 0.801156 0.213810
O O9 0.444637 0.750261 0.319205
O O10 0.000000 0.729798 0.500000
O O11 0.955111 0.729849 0.401560
O O12 0.821064 0.000000 0.413551
O O13 0.500000 0.270775 0.500000
O O14 0.162396 0.000000 0.415788
O O15 0.893999 0.000000 0.795863
#
# Coordination Sequence:
#
# PCOD9146538 Si02
#       6
#     2   2   4   4   4   4
#     4  10  22  42  65  88 121 162 194 250 316 358
#     4  12  24  44  69  92 127 156 202 258 308 366
#     4  10  21  37  59  88 118 161 198 250 298 362
#     4   9  18  33  55  86 121 163 209 251 301 358
#     4  10  19  33  55  83 120 164 205 250 301 356
#     4  11  22  40  66  93 126 164 205 251 307 366
#
# _framework density 19.359725999999998
#
# number of rings (size 3 to 8) (size 9 to 14) (size 15 to 20)
#    0.600    1.200    1.000    4.200    0.000    4.000 
#    0.000    1.500    0.000    4.200    0.000    0.000 
#    0.000    0.000    0.000    0.000    0.000    0.000 
#
# Total GULP energy -111615.846562 kJ/mol
# GULP energy per Si atom -5580.792328 kJ/mol
# Density = 1.931566 g / cm^3
# Si number density = 19.359726 Si / 1000 Ang^3
#
#
#
# Elastic Constant Matrix: (Units=GPa)
#
#
# Indices 1 2 3 4 5 6 
#
# 1 159.1607 32.4682 87.7535 0.0000 0.3232 0.0000
# 2 32.4682 67.3281 44.2276 0.0000 -2.5231 0.0000
# 3 87.7535 44.2276 184.5485 0.0000 1.4261 0.0001
# 4 0.0000 0.0000 0.0000 25.2950 0.0000 -5.1929
# 5 0.3232 -2.5231 1.4261 0.0000 39.7594 0.0000
# 6 0.0000 0.0000 0.0001 -5.1929 0.0000 25.4596
#
#
#
# Elastic Compliance Matrix: (Units=1/GPa)
#
#
# Indices 1 2 3 4 5 6 
#
# 1 0.008686 -0.001754 -0.003710 0.000000 -0.000049 0.000000
# 2 -0.001754 0.018046 -0.003501 0.000000 0.001285 0.000000
# 3 -0.003710 -0.003501 0.008025 0.000000 -0.000480 0.000000
# 4 0.000000 0.000000 0.000000 0.041261 0.000000 0.008416
# 5 -0.000049 0.001285 -0.000480 0.000000 0.025250 0.000000
# 6 0.000000 0.000000 0.000000 0.008416 0.000000 0.040994
#
#
# Mechanical properties :
#
#
# Convention : Reuss Voigt Hill
#
# Bulk Modulus (GPa) = 59.42071 82.21511 70.81791
# Shear Modulus (GPa) = 30.15646 34.54199 32.34923
#
# Velocity S-wave (km/s) = 3.95104 4.22858 4.09217
# Velocity P-wave (km/s) = 7.18150 8.14865 7.68031
#
# Compressibility (1/GPa) = 0.01682915
#
# Stress axis : x y z
#
# Youngs Moduli (GPa) = 115.12617 55.41330 124.60669
#
# Poissons Ratio (x) = 0.09718 0.46224
# Poissons Ratio (y) = 0.20191 0.43623
# Poissons Ratio (z) = 0.42707 0.19399
#
# Static dielectric constant tensor:
#      x y z
#    x 1.669490 0.000000 0.012300 
#    y 0.000000 1.702540 0.000000 
#    z 0.012300 0.000000 1.637870 
# 
# From -- ./inp_files/82125.got.cif
#   From: 2010.05.17/outbox.cif.g08.bks.cpg/sg10_42_cif.got.tgz:82125.got - 2010.06.03 11:33:40.
