data_PCOD9146426
_publ_section_title
;
Structure prediction by ZEFSAII (Michael W. Deem and Ramdas Pophale) SiO2 
 PCOD9146426
Probable space group: P 2/M
;
_chemical_formula_sum "Si O2"
_cell_formula_units_Z 28
_cell_length_a 19.143958
_cell_length_b 9.738059
_cell_length_c 14.334888
_cell_angle_alpha 90.000000
_cell_angle_beta 36.078348
_cell_angle_gamma 90.000000
_cell_volume 1573.741286
_symmetry_space_group_name_H-M "P 2/M"
_symmetry_group_IT_number 10
_symmetry_cell_setting 'monoclinic'
loop_
_space_group_symop_operation_xyz
x,y,z
-x,y,-z
-x,-y,-z
x,-y,z
loop_
_atom_site_type_symbol
_atom_site_label
_atom_site_fract_x
_atom_site_fract_y
_atom_site_fract_z
Si Si1 0.676871 0.338135 0.034247
Si Si2 0.925982 0.158634 0.230323
Si Si3 0.532387 0.159684 0.658301
Si Si4 0.259974 0.159091 0.411226
Si Si5 0.640021 0.664254 0.861017
Si Si6 0.716347 0.159633 0.303197
Si Si7 0.842718 0.338060 0.019042
O O1 0.646531 0.500000 0.069480
O O2 0.679174 0.297521 0.923425
O O3 0.575401 0.254506 0.196698
O O4 0.797709 0.320303 0.961451
O O5 0.857408 0.187322 0.401197
O O6 0.826858 0.167543 0.256463
O O7 0.968535 0.000000 0.185018
O O8 0.033278 0.261690 0.099503
O O9 0.631668 0.171872 0.632217
O O10 0.599334 0.193154 0.489502
O O11 0.496270 0.000000 0.692751
O O12 0.285662 0.257291 0.297408
O O13 0.256080 0.000000 0.385259
O O14 0.652396 0.500000 0.836202
O O15 0.500000 0.697417 0.000000
O O16 0.746737 0.263204 0.188338
O O17 0.708057 0.000000 0.281319
O O18 0.850009 0.500000 0.031589
#
# Coordination Sequence:
#
# PCOD9146426 Si02
#       7
#     4   4   4   4   4   4   4
#     4  10  22  37  50  73 111 143 171 211 260 310
#     4   9  19  37  58  78 104 137 173 215 261 306
#     4   9  18  33  54  80 105 133 171 213 260 311
#     4   9  18  33  55  83 107 128 166 221 266 300
#     4  10  19  33  55  79 103 138 176 208 255 315
#     4   9  19  36  57  79 104 135 173 217 261 306
#     4  11  23  36  51  75 107 142 177 215 256 303
#
# _framework density 17.791996999999999
#
# number of rings (size 3 to 8) (size 9 to 14) (size 15 to 20)
#    0.000    2.429    1.429    2.571    0.000    6.000 
#    0.000    6.429    0.000    4.286    0.000    0.000 
#    0.000    0.000    0.000    0.000    0.000    0.000 
#
# Total GULP energy -156252.213261 kJ/mol
# GULP energy per Si atom -5580.436188 kJ/mol
# Density = 1.775150 g / cm^3
# Si number density = 17.791997 Si / 1000 Ang^3
#
#
#
# Elastic Constant Matrix: (Units=GPa)
#
#
# Indices 1 2 3 4 5 6 
#
# 1 55.0855 27.3937 18.2405 0.0000 22.9421 0.0000
# 2 27.3937 50.7101 36.1788 0.0000 17.7976 0.0000
# 3 18.2405 36.1788 51.0329 0.0000 22.3888 0.0000
# 4 0.0000 0.0000 0.0000 -46.1169 0.0000 33.8172
# 5 22.9421 17.7976 22.3888 0.0000 20.6456 0.0000
# 6 0.0000 0.0000 0.0000 33.8172 0.0000 11.4812
#
#
#
# Elastic Compliance Matrix: (Units=1/GPa)
#
#
# Indices 1 2 3 4 5 6 
#
# 1 0.044830 -0.021408 0.024630 0.000000 -0.058071 0.000000
# 2 -0.021408 0.050678 -0.037284 0.000000 0.020534 0.000000
# 3 0.024630 -0.037284 0.067011 0.000000 -0.067899 0.000000
# 4 0.000000 0.000000 0.000000 -0.006862 0.000000 0.020213
# 5 -0.058071 0.020534 -0.067899 0.000000 0.168897 0.000000
# 6 0.000000 0.000000 0.000000 0.020213 0.000000 0.027564
#
#
# Mechanical properties :
#
#
# Convention : Reuss Voigt Hill
#
# Bulk Modulus (GPa) = 10.59380 35.60604 23.09992
# Shear Modulus (GPa) = 11.06916 2.20303 6.63610
#
# Velocity S-wave (km/s) = 2.49698 1.11396 1.93337
# Velocity P-wave (km/s) = 3.77894 4.65944 4.24210
#
# Compressibility (1/GPa) = 0.09439486
#
# Stress axis : x y z
#
# Youngs Moduli (GPa) = 22.30674 19.73258 14.92285
#
# Poissons Ratio (x) = 0.42244 -0.36755
# Poissons Ratio (y) = 0.47755 0.55638
# Poissons Ratio (z) = -0.54942 0.73571
#
# Static dielectric constant tensor:
#      x y z
#    x 1.627090 0.000000 0.004430 
#    y 0.000000 1.582970 0.000000 
#    z 0.004430 0.000000 1.586010 
# 
# From -- ./inp_files/57437.got.cif
#   From: 2010.05.17/outbox.cif.g08.bks.cpg/sg10_29_cif.got.tgz:57437.got - 2010.06.03 11:33:40.
