data_PCOD9146266
_publ_section_title
;
Structure prediction by ZEFSAII (Michael W. Deem and Ramdas Pophale) SiO2 
 PCOD9146266
Probable space group: P 2/M
;
_chemical_formula_sum "Si O2"
_cell_formula_units_Z 32
_cell_length_a 12.700954
_cell_length_b 8.781096
_cell_length_c 31.995714
_cell_angle_alpha 90.000000
_cell_angle_beta 153.218850
_cell_angle_gamma 90.000000
_cell_volume 1607.875827
_symmetry_space_group_name_H-M "P 2/M"
_symmetry_group_IT_number 10
_symmetry_cell_setting 'monoclinic'
loop_
_space_group_symop_operation_xyz
x,y,z
-x,y,-z
-x,-y,-z
x,-y,z
loop_
_atom_site_type_symbol
_atom_site_label
_atom_site_fract_x
_atom_site_fract_y
_atom_site_fract_z
Si Si1 0.472868 0.317524 0.820214
Si Si2 0.971813 0.679196 0.394076
Si Si3 0.784589 0.180090 0.861380
Si Si4 0.865494 0.319601 0.076078
Si Si5 0.416193 0.180043 0.581666
Si Si6 0.594931 0.818045 0.112534
Si Si7 0.058977 0.818051 0.227632
Si Si8 0.610565 0.320407 0.336875
O O1 0.497505 0.500000 0.827292
O O2 0.231636 0.276682 0.710453
O O3 0.686276 0.243475 0.870193
O O4 0.448906 0.258838 0.858431
O O5 0.018537 0.500000 0.405318
O O6 0.850827 0.700320 0.396601
O O7 0.212852 0.769244 0.478320
O O8 0.581512 0.222809 0.756060
O O9 0.011393 0.260940 0.922649
O O10 0.820560 0.000000 0.876178
O O11 0.842143 0.500000 0.066722
O O12 0.020616 0.268102 0.170420
O O13 0.614271 0.240442 0.990780
O O14 0.683158 0.213218 0.663240
O O15 0.377346 0.268540 0.611367
O O16 0.397795 0.000000 0.582924
O O17 0.846986 0.776826 0.183057
O O18 0.582380 0.000000 0.111907
O O19 0.044078 0.000000 0.214037
O O20 0.548484 0.500000 0.311648
#
# Coordination Sequence:
#
# PCOD9146266 Si02
#       8
#     4   4   4   4   4   4   4   4
#     4  10  22  42  63  87 121 157 200 249 296 350
#     4   9  20  36  55  81 118 157 193 240 297 350
#     4  11  21  36  60  90 123 158 195 239 296 357
#     4  12  24  39  63  93 122 154 195 244 300 358
#     4  11  21  33  55  86 118 155 199 243 292 352
#     4  11  24  43  65  86 115 158 202 248 301 353
#     4  10  23  42  61  87 123 158 196 248 301 350
#     4  10  19  33  53  82 120 159 194 238 296 352
#
# _framework density 19.902032999999999
#
# number of rings (size 3 to 8) (size 9 to 14) (size 15 to 20)
#    0.000    1.500    1.250    5.250    0.000    8.000 
#    0.000    3.125    0.000    3.750    0.000    0.000 
#    0.000    0.000    0.000    0.000    0.000    0.000 
#
# Total GULP energy -178901.514818 kJ/mol
# GULP energy per Si atom -5590.672338 kJ/mol
# Density = 1.985674 g / cm^3
# Si number density = 19.902033 Si / 1000 Ang^3
#
#
#
# Elastic Constant Matrix: (Units=GPa)
#
#
# Indices 1 2 3 4 5 6 
#
# 1 72.8113 18.1234 18.4533 0.0000 8.1702 0.0000
# 2 18.1234 44.0518 13.1163 0.0000 8.1778 0.0000
# 3 18.4533 13.1163 61.7742 0.0000 22.5443 0.0000
# 4 0.0000 0.0000 0.0000 19.2090 0.0000 -6.7573
# 5 8.1702 8.1778 22.5443 0.0000 24.3855 0.0000
# 6 0.0000 0.0000 0.0000 -6.7573 0.0000 1451.7806
#
#
#
# Elastic Compliance Matrix: (Units=1/GPa)
#
#
# Indices 1 2 3 4 5 6 
#
# 1 0.016024 -0.005494 -0.003522 0.000000 -0.000271 0.000000
# 2 -0.005494 0.026541 -0.002140 0.000000 -0.005082 0.000000
# 3 -0.003522 -0.002140 0.025659 0.000000 -0.021824 0.000000
# 4 0.000000 0.000000 0.000000 0.052144 0.000000 0.000243
# 5 -0.000271 -0.005082 -0.021824 0.000000 0.062979 0.000000
# 6 0.000000 0.000000 0.000000 0.000243 0.000000 0.000690
#
#
# Mechanical properties :
#
#
# Convention : Reuss Voigt Hill
#
# Bulk Modulus (GPa) = 21.77953 30.89149 26.33551
# Shear Modulus (GPa) = 22.55774 307.67129 165.11452
#
# Velocity S-wave (km/s) = 3.37031 12.44703 9.11832
# Velocity P-wave (km/s) = 5.11003 14.90392 11.14090
#
# Compressibility (1/GPa) = 0.04591467
#
# Stress axis : x y z
#
# Youngs Moduli (GPa) = 62.40449 37.67720 38.97281
#
# Poissons Ratio (x) = 0.20699 0.13724
# Poissons Ratio (y) = 0.34284 0.08339
# Poissons Ratio (z) = 0.21976 0.08062
#
# Static dielectric constant tensor:
#      x y z
#    x 1.685140 0.000000 0.017900 
#    y 0.000000 1.660600 0.000000 
#    z 0.017900 0.000000 1.735350 
# 
# From -- ./inp_files/95088.got.cif
#   From: 2010.05.17/outbox.cif.g08.bks.cpg/sg10_48_cif.got.tgz:95088.got - 2010.06.03 11:33:40.
