data_PCOD9146694
_publ_section_title
;
Structure prediction by ZEFSAII (Michael W. Deem and Ramdas Pophale) SiO2 
 PCOD9146694
Probable space group: P 2/M
;
_chemical_formula_sum "Si O2"
_cell_formula_units_Z 32
_cell_length_a 27.914749
_cell_length_b 9.083373
_cell_length_c 21.739981
_cell_angle_alpha 90.000000
_cell_angle_beta 18.757809
_cell_angle_gamma 90.000000
_cell_volume 1772.611512
_symmetry_space_group_name_H-M "P 2/M"
_symmetry_group_IT_number 10
_symmetry_cell_setting 'monoclinic'
loop_
_space_group_symop_operation_xyz
x,y,z
-x,y,-z
-x,-y,-z
x,-y,z
loop_
_atom_site_type_symbol
_atom_site_label
_atom_site_fract_x
_atom_site_fract_y
_atom_site_fract_z
Si Si1 0.733912 0.172549 0.828776
Si Si2 0.598264 0.173898 0.189312
Si Si3 0.680562 0.675647 0.535374
Si Si4 0.162611 0.322763 0.779601
Si Si5 0.441258 0.175043 0.505647
Si Si6 0.792144 0.325501 0.629684
Si Si7 0.618009 0.826674 0.735027
Si Si8 0.899406 0.825019 0.755281
O O1 0.771687 0.269979 0.724196
O O2 0.834277 0.204715 0.766189
O O3 0.756611 0.000000 0.785125
O O4 0.559899 0.191481 0.056653
O O5 0.477661 0.269681 0.299394
O O6 0.563824 0.195632 0.303007
O O7 0.571771 0.000000 0.206786
O O8 0.764894 0.207568 0.965582
O O9 0.680425 0.500000 0.543545
O O10 0.799272 0.715595 0.337723
O O11 0.699197 0.754606 0.577866
O O12 0.171074 0.500000 0.773751
O O13 0.292370 0.253851 0.663373
O O14 0.000000 0.275462 0.000000
O O15 0.500000 0.227421 0.500000
O O16 0.411875 0.000000 0.545661
O O17 0.781039 0.500000 0.639590
O O18 0.670593 0.250666 0.733402
O O19 0.953635 0.267976 0.412144
O O20 0.649551 0.000000 0.699905
O O21 0.933012 0.000000 0.717833
#
# Coordination Sequence:
#
# PCOD9146694 Si02
#       8
#     4   4   4   4   4   4   4   4
#     4  10  21  39  63  84 104 141 191 229 272 337
#     4   9  17  34  58  81 109 148 191 227 269 327
#     4  10  19  33  57  85 113 144 185 233 276 321
#     4   9  19  36  56  80 114 152 186 221 268 331
#     4   9  18  33  55  84 116 143 181 235 276 314
#     4  12  26  39  53  83 119 147 179 229 287 328
#     4  11  22  40  62  83 109 147 189 228 275 333
#     4  10  20  38  60  81 108 148 192 229 270 331
#
# _framework density 18.05246
#
# number of rings (size 3 to 8) (size 9 to 14) (size 15 to 20)
#    0.000    2.000    1.250    2.625    0.000    6.000 
#    2.250    0.000    0.000    0.000    0.000    0.000 
#    0.000    0.000    0.000    0.000    0.000    0.000 
#
# Total GULP energy -178685.542752 kJ/mol
# GULP energy per Si atom -5583.923211 kJ/mol
# Density = 1.801137 g / cm^3
# Si number density = 18.052460 Si / 1000 Ang^3
#
#
#
# Elastic Constant Matrix: (Units=GPa)
#
#
# Indices 1 2 3 4 5 6 
#
# 1 46.6501 18.5137 2.1847 0.0000 9.4004 0.0000
# 2 18.5137 48.5983 25.5185 0.0000 6.5508 0.0000
# 3 2.1847 25.5185 61.0555 0.0000 17.6132 0.0000
# 4 0.0000 0.0000 0.0000 -276.4035 0.0000 59.0134
# 5 9.4004 6.5508 17.6132 0.0000 23.4251 0.0000
# 6 0.0000 0.0000 0.0000 59.0134 0.0000 13.6149
#
#
#
# Elastic Compliance Matrix: (Units=1/GPa)
#
#
# Indices 1 2 3 4 5 6 
#
# 1 0.029550 -0.014026 0.009059 0.000000 -0.014748 0.000000
# 2 -0.014026 0.033045 -0.015665 0.000000 0.008166 0.000000
# 3 0.009059 -0.015665 0.028588 0.000000 -0.020750 0.000000
# 4 0.000000 0.000000 0.000000 -0.001879 0.000000 0.008144
# 5 -0.014748 0.008166 -0.020750 0.000000 0.061925 0.000000
# 6 0.000000 0.000000 0.000000 0.008144 0.000000 0.038147
#
#
# Mechanical properties :
#
#
# Convention : Reuss Voigt Hill
#
# Bulk Modulus (GPa) = 20.03268 27.63752 23.83510
# Shear Modulus (GPa) = 20.21999 -40.53355 -10.15678
#
# Velocity S-wave (km/s) = 3.35037 -4.74362 -2.37455
# Velocity P-wave (km/s) = 5.10761 3.82881 2.39038
#
# Compressibility (1/GPa) = 0.04991844
#
# Stress axis : x y z
#
# Youngs Moduli (GPa) = 33.84061 30.26162 34.98020
#
# Poissons Ratio (x) = 0.42446 -0.31690
# Poissons Ratio (y) = 0.47466 0.54798
# Poissons Ratio (z) = -0.30658 0.47406
#
# Static dielectric constant tensor:
#      x y z
#    x 1.605750 0.000000 0.021970 
#    y 0.000000 1.602160 0.000000 
#    z 0.021970 0.000000 1.617200 
# 
# From -- ./inp_files/86796.got.cif
#   From: 2010.05.17/outbox.cif.g08.bks.cpg/sg10_44_cif.got.tgz:86796.got - 2010.06.03 11:33:40.
