data_PCOD9146407
_publ_section_title
;
Structure prediction by ZEFSAII (Michael W. Deem and Ramdas Pophale) SiO2 
 PCOD9146407
Probable space group: P 2/M
;
_chemical_formula_sum "Si O2"
_cell_formula_units_Z 28
_cell_length_a 10.220942
_cell_length_b 7.429109
_cell_length_c 14.166899
_cell_angle_alpha 90.000000
_cell_angle_beta 78.045431
_cell_angle_gamma 90.000000
_cell_volume 1052.397722
_symmetry_space_group_name_H-M "P 2/M"
_symmetry_group_IT_number 10
_symmetry_cell_setting 'monoclinic'
loop_
_space_group_symop_operation_xyz
x,y,z
-x,y,-z
-x,-y,-z
x,-y,z
loop_
_atom_site_type_symbol
_atom_site_label
_atom_site_fract_x
_atom_site_fract_y
_atom_site_fract_z
Si Si1 0.783593 0.779640 0.888402
Si Si2 0.348802 0.780036 0.909833
Si Si3 0.787947 0.784335 0.669964
Si Si4 0.082207 0.711385 0.631235
Si Si5 0.359619 0.707096 0.550845
Si Si6 0.923541 0.792003 0.147180
Si Si7 0.498346 0.217862 0.710562
O O1 0.777048 0.722952 0.780944
O O2 0.930552 0.719491 0.902029
O O3 0.782547 0.000000 0.886291
O O4 0.670244 0.723564 0.979159
O O5 0.211893 0.720241 0.877751
O O6 0.468016 0.725703 0.822436
O O7 0.354657 0.000000 0.910649
O O8 0.644684 0.725350 0.651152
O O9 0.933405 0.729383 0.611941
O O10 0.788375 0.000000 0.668781
O O11 0.107560 0.500000 0.636431
O O12 0.212155 0.787025 0.557319
O O13 0.078733 0.787270 0.738186
O O14 0.500000 0.796886 0.500000
O O15 0.361572 0.500000 0.519446
O O16 0.382416 0.711459 0.660665
O O17 0.924489 0.000000 0.117533
O O18 0.493766 0.000000 0.709103
#
# Coordination Sequence:
#
# PCOD9146407 Si02
#       7
#     4   4   4   4   4   4   4
#     4   8  14  24  42  71 105 142 176 209 247 291
#     4   9  15  24  44  74 107 137 173 215 254 295
#     4   9  19  34  52  76 110 145 177 209 249 302
#     4  10  19  33  55  78 100 133 174 213 258 311
#     4  10  22  40  60  81 103 129 167 214 263 319
#     4   9  15  26  46  72 104 137 172 215 258 299
#     4  10  20  34  54  82 109 137 172 214 262 307
#
# _framework density 26.605910999999999
#
# number of rings (size 3 to 8) (size 9 to 14) (size 15 to 20)
#    0.000    2.714    1.429    1.714    0.000    3.714 
#    0.000    3.571    0.000   14.571    0.000    5.000 
#    0.000    0.000    0.000    0.000    0.000    0.000 
#
# Total GULP energy -156451.943157 kJ/mol
# GULP energy per Si atom -5587.569398 kJ/mol
# Density = 2.654535 g / cm^3
# Si number density = 26.605911 Si / 1000 Ang^3
#
#
#
# Elastic Constant Matrix: (Units=GPa)
#
#
# Indices 1 2 3 4 5 6 
#
# 1 174.3921 10.5575 46.1001 0.0000 -32.1334 0.0000
# 2 10.5575 98.5788 10.6142 0.0000 -4.9979 0.0000
# 3 46.1001 10.6142 110.3141 0.0000 -33.1773 0.0000
# 4 0.0000 0.0000 0.0000 -0.7069 0.0000 -13.2094
# 5 -32.1334 -4.9979 -33.1773 0.0000 57.3203 0.0000
# 6 0.0000 0.0000 0.0000 -13.2094 0.0000 5.2978
#
#
#
# Elastic Compliance Matrix: (Units=1/GPa)
#
#
# Indices 1 2 3 4 5 6 
#
# 1 0.006767 -0.000377 -0.002011 0.000000 0.002597 0.000000
# 2 -0.000377 0.010279 -0.000757 0.000000 0.000247 0.000000
# 3 -0.002011 -0.000757 0.011647 0.000000 0.005548 0.000000
# 4 0.000000 0.000000 0.000000 -0.029724 0.000000 -0.074113
# 5 0.002597 0.000247 0.005548 0.000000 0.022134 0.000000
# 6 0.000000 0.000000 0.000000 -0.074113 0.000000 0.003966
#
#
# Mechanical properties :
#
#
# Convention : Reuss Voigt Hill
#
# Bulk Modulus (GPa) = 44.63687 57.53653 51.08670
# Shear Modulus (GPa) = 128.78162 33.44980 81.11571
#
# Velocity S-wave (km/s) = 6.96480 3.54959 5.52757
# Velocity P-wave (km/s) = 9.02726 6.20257 7.74478
#
# Compressibility (1/GPa) = 0.02240300
#
# Stress axis : x y z
#
# Youngs Moduli (GPa) = 147.77545 97.28991 85.86107
#
# Poissons Ratio (x) = 0.03664 0.17264
# Poissons Ratio (y) = 0.05565 0.06503
# Poissons Ratio (z) = 0.29713 0.07369
#
# Static dielectric constant tensor:
#      x y z
#    x 2.102160 0.000000 -0.013710 
#    y 0.000000 2.023010 0.000000 
#    z -0.013710 0.000000 2.129000 
# 
# From -- ./inp_files/63361.got.cif
#   From: 2010.05.17/outbox.cif.g08.bks.cpg/sg10_32_cif.got.tgz:63361.got - 2010.06.03 11:33:40.
