data_PCOD9146161
_publ_section_title
;
Structure prediction by ZEFSAII (Michael W. Deem and Ramdas Pophale) SiO2 
 PCOD9146161
Probable space group: P 2/M
;
_chemical_formula_sum "Si O2"
_cell_formula_units_Z 26
_cell_length_a 9.493406
_cell_length_b 17.245008
_cell_length_c 8.505690
_cell_angle_alpha 90.000000
_cell_angle_beta 75.026178
_cell_angle_gamma 90.000000
_cell_volume 1345.215623
_symmetry_space_group_name_H-M "P 2/M"
_symmetry_group_IT_number 10
_symmetry_cell_setting 'monoclinic'
loop_
_space_group_symop_operation_xyz
x,y,z
-x,y,-z
-x,-y,-z
x,-y,z
loop_
_atom_site_type_symbol
_atom_site_label
_atom_site_fract_x
_atom_site_fract_y
_atom_site_fract_z
Si Si1 0.768059 0.714429 0.090605
Si Si2 0.919816 0.585542 0.252643
Si Si3 0.263100 0.586312 0.144000
Si Si4 0.346145 0.787606 0.574765
Si Si5 0.000000 0.154224 0.000000
Si Si6 0.350206 0.379138 0.451919
Si Si7 0.910681 0.089626 0.361679
O O1 0.874623 0.655413 0.153196
O O2 0.658183 0.747710 0.252013
O O3 0.863007 0.788028 0.011759
O O4 0.703213 0.658792 0.977268
O O5 0.905811 0.500000 0.183697
O O6 0.797617 0.589352 0.423884
O O7 0.090789 0.594189 0.242566
O O8 0.282212 0.500000 0.068770
O O9 0.356247 0.591676 0.274186
O O10 0.500000 0.826636 0.500000
O O11 0.332411 0.713999 0.463710
O O12 0.217394 0.847679 0.595205
O O13 0.016858 0.107192 0.831207
O O14 0.500000 0.398527 0.500000
O O15 0.000000 0.099602 0.500000
O O16 0.862688 0.000000 0.373281
#
# Coordination Sequence:
#
# PCOD9146161 Si02
#       7
#     4   4   4   4   2   4   4
#     4  10  19  34  57  85 113 149 201 244 303 344
#     4  10  19  33  52  77 111 147 195 256 303 350
#     4  11  21  33  55  84 111 150 203 257 305 350
#     4   9  21  40  60  82 115 156 195 239 292 352
#     4  10  19  36  61  92 126 160 188 244 297 350
#     4  10  22  37  53  76 113 158 205 244 297 357
#     4  10  22  38  65 100 126 155 193 237 294 361
#
# _framework density 19.327756000000001
#
# number of rings (size 3 to 8) (size 9 to 14) (size 15 to 20)
#    0.000    2.000    1.538    1.615    2.154    4.000 
#    0.000    6.923    0.000   10.615    0.000    5.385 
#    0.000    0.000    0.000    0.000    0.000    0.000 
#
# Total GULP energy -144986.023255 kJ/mol
# GULP energy per Si atom -5576.385510 kJ/mol
# Density = 1.928377 g / cm^3
# Si number density = 19.327756 Si / 1000 Ang^3
#
#
#
# Elastic Constant Matrix: (Units=GPa)
#
#
# Indices 1 2 3 4 5 6 
#
# 1 65.6890 35.4544 44.4083 0.0000 5.7557 0.0000
# 2 35.4544 100.6715 46.7403 0.0000 4.1292 0.0000
# 3 44.4083 46.7403 93.3143 0.0000 15.2718 0.0000
# 4 0.0000 0.0000 0.0000 25.8505 0.0000 9.9695
# 5 5.7557 4.1292 15.2718 0.0000 33.2765 0.0000
# 6 0.0000 0.0000 0.0000 9.9695 0.0000 2.9898
#
#
#
# Elastic Compliance Matrix: (Units=1/GPa)
#
#
# Indices 1 2 3 4 5 6 
#
# 1 0.023658 -0.004013 -0.009364 0.000000 0.000703 0.000000
# 2 -0.004013 0.013692 -0.005172 0.000000 0.001369 0.000000
# 3 -0.009364 -0.005172 0.018806 0.000000 -0.006369 0.000000
# 4 0.000000 0.000000 0.000000 -0.135267 0.000000 0.451047
# 5 0.000703 0.001369 -0.006369 0.000000 0.032683 0.000000
# 6 0.000000 0.000000 0.000000 0.451047 0.000000 -1.169545
#
#
# Mechanical properties :
#
#
# Convention : Reuss Voigt Hill
#
# Bulk Modulus (GPa) = 52.47370 56.98673 54.73022
# Shear Modulus (GPa) = -4.26431 21.29481 8.51525
#
# Velocity S-wave (km/s) = -1.48698 3.32290 2.10126
# Velocity P-wave (km/s) = 4.92546 6.65362 5.85367
#
# Compressibility (1/GPa) = 0.01905716
#
# Stress axis : x y z
#
# Youngs Moduli (GPa) = 42.26909 73.03559 53.17500
#
# Poissons Ratio (x) = 0.29311 0.49792
# Poissons Ratio (y) = 0.16964 0.27504
# Poissons Ratio (z) = 0.39580 0.37776
#
# Static dielectric constant tensor:
#      x y z
#    x 1.682560 0.000000 -0.024170 
#    y 0.000000 1.661580 0.000000 
#    z -0.024170 0.000000 1.740300 
# 
# From -- ./inp_files/19612.got.cif
#   From: 2010.05.17/outbox.cif.g08.bks.cpg/sg10_10_cif.got.tgz:19612.got - 2010.06.03 11:33:40.
