data_PCOD9146239
_publ_section_title
;
Structure prediction by ZEFSAII (Michael W. Deem and Ramdas Pophale) SiO2 
 PCOD9146239
Probable space group: P 2/M
;
_chemical_formula_sum "Si O2"
_cell_formula_units_Z 32
_cell_length_a 24.778904
_cell_length_b 8.905437
_cell_length_c 20.278428
_cell_angle_alpha 90.000000
_cell_angle_beta 24.101689
_cell_angle_gamma 90.000000
_cell_volume 1827.309076
_symmetry_space_group_name_H-M "P 2/M"
_symmetry_group_IT_number 10
_symmetry_cell_setting 'monoclinic'
loop_
_space_group_symop_operation_xyz
x,y,z
-x,y,-z
-x,-y,-z
x,-y,z
loop_
_atom_site_type_symbol
_atom_site_label
_atom_site_fract_x
_atom_site_fract_y
_atom_site_fract_z
Si Si1 0.656390 0.672841 0.343944
Si Si2 0.107117 0.679035 0.160050
Si Si3 0.438751 0.319159 0.411747
Si Si4 0.837522 0.179966 0.511674
Si Si5 0.281300 0.821791 0.856877
Si Si6 0.412920 0.179397 0.300284
Si Si7 0.152900 0.820120 0.346165
Si Si8 0.688437 0.679099 0.949447
O O1 0.500000 0.674266 0.500000
O O2 0.701121 0.500000 0.288398
O O3 0.655636 0.720744 0.421106
O O4 0.726488 0.772608 0.210867
O O5 0.106352 0.500000 0.151873
O O6 0.964202 0.737754 0.340502
O O7 0.162329 0.758149 0.033172
O O8 0.209290 0.714672 0.105453
O O9 0.450083 0.500000 0.397574
O O10 0.583896 0.251962 0.264851
O O11 0.391364 0.255770 0.395227
O O12 0.707004 0.213422 0.615336
O O13 0.821185 0.220325 0.606785
O O14 0.860947 0.000000 0.483153
O O15 0.290246 0.000000 0.852615
O O16 0.550238 0.241350 0.118553
O O17 0.421750 0.000000 0.298553
O O18 0.000000 0.785702 0.500000
O O19 0.170641 0.000000 0.318665
O O20 0.246916 0.736424 0.190170
O O21 0.669964 0.500000 0.968813
#
# Coordination Sequence:
#
# PCOD9146239 Si02
#       8
#     4   4   4   4   4   4   4   4
#     4   8  16  30  48  74 111 148 182 227 279 330
#     4  11  22  36  57  83 113 149 188 234 282 331
#     4  10  19  33  53  78 112 151 188 228 278 334
#     4  10  23  41  59  84 113 146 189 234 285 341
#     4  11  20  30  52  83 114 146 186 235 279 327
#     4  11  23  38  58  83 115 151 188 233 283 337
#     4  10  20  37  62  84 110 146 185 232 283 336
#     4  11  23  37  58  85 114 147 188 233 277 335
#
# _framework density 17.512090000000001
#
# number of rings (size 3 to 8) (size 9 to 14) (size 15 to 20)
#    0.000    1.750    2.500    3.375    0.000    6.000 
#    0.000    2.500    0.000    0.750    0.000    5.250 
#    0.000    0.000    0.000    0.000    0.000    0.000 
#
# Total GULP energy -178693.383160 kJ/mol
# GULP energy per Si atom -5584.168224 kJ/mol
# Density = 1.747223 g / cm^3
# Si number density = 17.512090 Si / 1000 Ang^3
#
#
#
# Elastic Constant Matrix: (Units=GPa)
#
#
# Indices 1 2 3 4 5 6 
#
# 1 130.9628 62.6222 80.3357 0.0000 21.9129 0.0000
# 2 62.6222 73.1717 68.6098 0.0000 8.5873 0.0000
# 3 80.3357 68.6098 117.8038 0.0000 20.8062 0.0000
# 4 0.0000 0.0000 0.0000 31.2846 0.0000 6.7112
# 5 21.9129 8.5873 20.8062 0.0000 33.2281 0.0000
# 6 0.0000 0.0000 0.0000 6.7112 0.0000 29.1265
#
#
#
# Elastic Compliance Matrix: (Units=1/GPa)
#
#
# Indices 1 2 3 4 5 6 
#
# 1 0.015245 -0.007790 -0.004991 0.000000 -0.004915 0.000000
# 2 -0.007790 0.034477 -0.015854 0.000000 0.006155 0.000000
# 3 -0.004991 -0.015854 0.022285 0.000000 -0.006566 0.000000
# 4 0.000000 0.000000 0.000000 0.033627 0.000000 -0.007748
# 5 -0.004915 0.006155 -0.006566 0.000000 0.035857 0.000000
# 6 0.000000 0.000000 0.000000 -0.007748 0.000000 0.036118
#
#
# Mechanical properties :
#
#
# Convention : Reuss Voigt Hill
#
# Bulk Modulus (GPa) = 67.85854 82.78596 75.32225
# Shear Modulus (GPa) = 20.85142 26.08587 23.46864
#
# Velocity S-wave (km/s) = 3.45438 3.86371 3.66476
# Velocity P-wave (km/s) = 7.39892 8.20247 7.81103
#
# Compressibility (1/GPa) = 0.01473654
#
# Stress axis : x y z
#
# Youngs Moduli (GPa) = 65.59634 29.00483 44.87259
#
# Poissons Ratio (x) = 0.22596 0.22395
# Poissons Ratio (y) = 0.51102 0.71141
# Poissons Ratio (z) = 0.32738 0.45985
#
# Static dielectric constant tensor:
#      x y z
#    x 1.600040 0.000000 0.017660 
#    y 0.000000 1.584620 0.000000 
#    z 0.017660 0.000000 1.568100 
# 
# From -- ./inp_files/86910.got.cif
#   From: 2010.05.17/outbox.cif.g08.bks.cpg/sg10_44_cif.got.tgz:86910.got - 2010.06.03 11:33:40.
