data_PCOD9146611
_publ_section_title
;
Structure prediction by ZEFSAII (Michael W. Deem and Ramdas Pophale) SiO2 
 PCOD9146611
Probable space group: P 2/M
;
_chemical_formula_sum "Si O2"
_cell_formula_units_Z 28
_cell_length_a 14.316276
_cell_length_b 7.626446
_cell_length_c 19.582618
_cell_angle_alpha 90.000000
_cell_angle_beta 35.906770
_cell_angle_gamma 90.000000
_cell_volume 1253.912938
_symmetry_space_group_name_H-M "P 2/M"
_symmetry_group_IT_number 10
_symmetry_cell_setting 'monoclinic'
loop_
_space_group_symop_operation_xyz
x,y,z
-x,y,-z
-x,-y,-z
x,-y,z
loop_
_atom_site_type_symbol
_atom_site_label
_atom_site_fract_x
_atom_site_fract_y
_atom_site_fract_z
Si Si1 0.515227 0.295155 0.693342
Si Si2 0.975261 0.711078 0.295432
Si Si3 0.164847 0.787212 0.935002
Si Si4 0.602603 0.202446 0.794301
Si Si5 0.369085 0.714501 0.523138
Si Si6 0.740348 0.209358 0.971412
Si Si7 0.044932 0.299405 0.401146
O O1 0.556174 0.500000 0.675712
O O2 0.324310 0.274668 0.802932
O O3 0.571610 0.209331 0.730813
O O4 0.588277 0.229740 0.579258
O O5 0.969916 0.500000 0.302291
O O6 0.137608 0.755392 0.160979
O O7 0.977963 0.779948 0.371343
O O8 0.812893 0.768626 0.354512
O O9 0.165915 0.000000 0.933093
O O10 0.183770 0.727791 0.002187
O O11 0.000000 0.726952 0.000000
O O12 0.764431 0.299396 0.716117
O O13 0.625301 0.000000 0.801228
O O14 0.441269 0.275351 0.924262
O O15 0.500000 0.775222 0.500000
O O16 0.374720 0.500000 0.520218
O O17 0.723359 0.000000 0.987692
O O18 0.983536 0.500000 0.440143
O O19 0.000000 0.214739 0.500000
#
# Coordination Sequence:
#
# PCOD9146611 Si02
#       7
#     4   4   4   4   4   4   4
#     4  10  19  33  56  83 109 141 185 235 280 329
#     4  10  21  36  57  83 112 146 184 232 283 334
#     4   9  19  35  54  76 109 150 188 231 280 330
#     4  10  21  38  59  82 112 150 187 228 281 337
#     4   9  19  35  54  79 113 148 181 226 283 335
#     4   9  20  37  54  77 112 150 185 228 281 332
#     4  10  21  38  60  86 114 146 186 232 283 334
#
# _framework density 22.330100999999999
#
# number of rings (size 3 to 8) (size 9 to 14) (size 15 to 20)
#    0.000    2.429    0.000    2.571    2.000    6.857 
#    0.000    5.714    0.000    2.143    0.000    0.000 
#    0.000    0.000    0.000    0.000    0.000    0.000 
#
# Total GULP energy -156388.160430 kJ/mol
# GULP energy per Si atom -5585.291444 kJ/mol
# Density = 2.227928 g / cm^3
# Si number density = 22.330101 Si / 1000 Ang^3
#
#
#
# Elastic Constant Matrix: (Units=GPa)
#
#
# Indices 1 2 3 4 5 6 
#
# 1 79.4403 -3.3055 51.6858 0.0000 -20.4677 0.0000
# 2 -3.3055 48.2150 -6.3967 0.0000 -0.0467 0.0000
# 3 51.6858 -6.3967 114.7944 0.0000 0.3567 0.0000
# 4 0.0000 0.0000 0.0000 23.9601 0.0000 -0.7925
# 5 -20.4677 -0.0467 0.3567 0.0000 36.2049 0.0000
# 6 0.0000 0.0000 0.0000 -0.7925 0.0000 11.7160
#
#
#
# Elastic Compliance Matrix: (Units=1/GPa)
#
#
# Indices 1 2 3 4 5 6 
#
# 1 0.022517 0.000207 -0.010166 0.000000 0.012830 0.000000
# 2 0.000207 0.020897 0.001071 0.000000 0.000134 0.000000
# 3 -0.010166 0.001071 0.013367 0.000000 -0.005878 0.000000
# 4 0.000000 0.000000 0.000000 0.041830 0.000000 0.002830
# 5 0.012830 0.000134 -0.005878 0.000000 0.034932 0.000000
# 6 0.000000 0.000000 0.000000 0.002830 0.000000 0.085545
#
#
# Mechanical properties :
#
#
# Convention : Reuss Voigt Hill
#
# Bulk Modulus (GPa) = 25.63883 36.26854 30.95368
# Shear Modulus (GPa) = 20.01088 27.74060 23.87574
#
# Velocity S-wave (km/s) = 2.99681 3.52845 3.27344
# Velocity P-wave (km/s) = 4.84573 5.73386 5.30840
#
# Compressibility (1/GPa) = 0.03900334
#
# Stress axis : x y z
#
# Youngs Moduli (GPa) = 44.41127 47.85415 74.81358
#
# Poissons Ratio (x) = -0.00992 0.76059
# Poissons Ratio (y) = -0.00921 -0.08010
# Poissons Ratio (z) = 0.45150 -0.05124
#
# Static dielectric constant tensor:
#      x y z
#    x 1.808220 0.000000 -0.001520 
#    y 0.000000 1.849350 0.000000 
#    z -0.001520 0.000000 1.822310 
# 
# From -- ./inp_files/70206.got.cif
#   From: 2010.05.17/outbox.cif.g08.bks.cpg/sg10_36_cif.got.tgz:70206.got - 2010.06.03 11:33:40.
