data_PCOD9146546
_publ_section_title
;
Structure prediction by ZEFSAII (Michael W. Deem and Ramdas Pophale) SiO2 
 PCOD9146546
Probable space group: P 2/M
;
_chemical_formula_sum "Si O2"
_cell_formula_units_Z 32
_cell_length_a 14.503577
_cell_length_b 7.458018
_cell_length_c 23.533263
_cell_angle_alpha 90.000000
_cell_angle_beta 32.343358
_cell_angle_gamma 90.000000
_cell_volume 1361.845557
_symmetry_space_group_name_H-M "P 2/M"
_symmetry_group_IT_number 10
_symmetry_cell_setting 'monoclinic'
loop_
_space_group_symop_operation_xyz
x,y,z
-x,y,-z
-x,-y,-z
x,-y,z
loop_
_atom_site_type_symbol
_atom_site_label
_atom_site_fract_x
_atom_site_fract_y
_atom_site_fract_z
Si Si1 0.196767 0.219373 0.391958
Si Si2 0.145778 0.218818 0.967771
Si Si3 0.225266 0.217725 0.048344
Si Si4 0.463577 0.211758 0.730527
Si Si5 0.757954 0.280745 0.395737
Si Si6 0.396312 0.714828 0.638268
Si Si7 0.124231 0.705242 0.227521
Si Si8 0.393630 0.203706 0.177614
O O1 0.340018 0.277744 0.364004
O O2 0.283130 0.277786 0.287437
O O3 0.000000 0.282541 0.500000
O O4 0.186800 0.000000 0.397944
O O5 0.330832 0.280150 0.847173
O O6 0.145646 0.000000 0.967159
O O7 0.121398 0.271103 0.045870
O O8 0.000000 0.278961 0.000000
O O9 0.160001 0.289877 0.141837
O O10 0.222753 0.000000 0.054396
O O11 0.421440 0.280871 0.934932
O O12 0.380608 0.236858 0.711908
O O13 0.474188 0.000000 0.733969
O O14 0.764042 0.500000 0.392785
O O15 0.736633 0.222543 0.340969
O O16 0.585448 0.226007 0.518205
O O17 0.932661 0.217515 0.333776
O O18 0.394594 0.500000 0.636372
O O19 0.125505 0.500000 0.246615
O O20 0.272667 0.798469 0.185620
O O21 0.434378 0.000000 0.174232
#
# Coordination Sequence:
#
# PCOD9146546 Si02
#       8
#     4   4   4   4   4   4   4   4
#     4   9  18  33  54  79 109 141 171 210 263 314
#     4   9  18  33  54  79 109 141 171 210 263 314
#     4  10  20  37  57  77 104 141 180 212 253 320
#     4  10  19  33  55  85 109 132 172 222 265 308
#     4   8  18  37  55  73 103 144 179 208 256 325
#     4   9  18  36  58  74 101 145 179 206 258 323
#     4  11  23  36  54  80 107 134 174 227 271 303
#     4  10  20  37  57  77 104 141 180 212 253 320
#
# _framework density 23.497526000000001
#
# number of rings (size 3 to 8) (size 9 to 14) (size 15 to 20)
#    0.000    2.500    1.250    1.500    3.500    2.000 
#    0.000    3.750    0.000    1.500    0.000    0.000 
#    0.000    0.000    0.000    0.000    0.000    0.000 
#
# Total GULP energy -178738.422654 kJ/mol
# GULP energy per Si atom -5585.575708 kJ/mol
# Density = 2.344404 g / cm^3
# Si number density = 23.497526 Si / 1000 Ang^3
#
#
#
# Elastic Constant Matrix: (Units=GPa)
#
#
# Indices 1 2 3 4 5 6 
#
# 1 90.6274 -4.8324 -17.3540 0.0000 -5.3390 0.0000
# 2 -4.8324 70.6988 -4.9062 0.0000 -5.7713 0.0000
# 3 -17.3540 -4.9062 25.9189 0.0000 -10.4815 0.0000
# 4 0.0000 0.0000 0.0000 2.9179 0.0000 0.5771
# 5 -5.3390 -5.7713 -10.4815 0.0000 43.4440 0.0000
# 6 0.0000 0.0000 0.0000 0.5771 0.0000 -6.0149
#
#
#
# Elastic Compliance Matrix: (Units=1/GPa)
#
#
# Indices 1 2 3 4 5 6 
#
# 1 0.013609 0.002106 0.011414 0.000000 0.004706 0.000000
# 2 0.002106 0.014981 0.005713 0.000000 0.003627 0.000000
# 3 0.011414 0.005713 0.053389 0.000000 0.015042 0.000000
# 4 0.000000 0.000000 0.000000 0.336331 0.000000 0.032268
# 5 0.004706 0.003627 0.015042 0.000000 0.027708 0.000000
# 6 0.000000 0.000000 0.000000 0.032268 0.000000 -0.163159
#
#
# Mechanical properties :
#
#
# Convention : Reuss Voigt Hill
#
# Bulk Modulus (GPa) = 8.30243 14.78442 11.54343
# Shear Modulus (GPa) = 17.57217 22.35859 19.96538
#
# Velocity S-wave (km/s) = 2.73762 3.08803 2.91809
# Velocity P-wave (km/s) = 3.67882 4.36121 4.03447
#
# Compressibility (1/GPa) = 0.12044661
#
# Stress axis : x y z
#
# Youngs Moduli (GPa) = 73.47852 66.75090 18.73054
#
# Poissons Ratio (x) = -0.14061 -0.21379
# Poissons Ratio (y) = -0.15478 -0.10701
# Poissons Ratio (z) = -0.83869 -0.38135
#
# Static dielectric constant tensor:
#      x y z
#    x 1.880680 0.000000 -0.016490 
#    y 0.000000 1.928200 0.000000 
#    z -0.016490 0.000000 1.866830 
# 
# From -- ./inp_files/89578.got.cif
#   From: 2010.05.17/outbox.cif.g08.bks.cpg/sg10_45_cif.got.tgz:89578.got - 2010.06.03 11:33:40.
