data_PCOD9146244
_publ_section_title
;
Structure prediction by ZEFSAII (Michael W. Deem and Ramdas Pophale) SiO2 
 PCOD9146244
Probable space group: P 2/M
;
_chemical_formula_sum "Si O2"
_cell_formula_units_Z 32
_cell_length_a 14.721551
_cell_length_b 7.421347
_cell_length_c 19.031287
_cell_angle_alpha 90.000000
_cell_angle_beta 135.973728
_cell_angle_gamma 90.000000
_cell_volume 1445.046616
_symmetry_space_group_name_H-M "P 2/M"
_symmetry_group_IT_number 10
_symmetry_cell_setting 'monoclinic'
loop_
_space_group_symop_operation_xyz
x,y,z
-x,y,-z
-x,-y,-z
x,-y,z
loop_
_atom_site_type_symbol
_atom_site_label
_atom_site_fract_x
_atom_site_fract_y
_atom_site_fract_z
Si Si1 0.092953 0.779553 0.202086
Si Si2 0.604005 0.218098 0.380268
Si Si3 0.200787 0.779310 0.995652
Si Si4 0.658781 0.710277 0.250064
Si Si5 0.838560 0.213519 0.604349
Si Si6 0.306379 0.780231 0.206659
Si Si7 0.946882 0.717013 0.394731
Si Si8 0.426098 0.795740 0.024965
O O1 0.125186 0.716558 0.298684
O O2 0.203205 0.723242 0.208130
O O3 0.948257 0.723898 0.098050
O O4 0.091823 0.000000 0.201463
O O5 0.655687 0.271493 0.332238
O O6 0.705564 0.284543 0.495185
O O7 0.454394 0.278669 0.304033
O O8 0.603675 0.000000 0.382040
O O9 0.204702 0.000000 0.997205
O O10 0.258917 0.723102 0.103034
O O11 0.295536 0.715743 0.985732
O O12 0.647946 0.500000 0.225849
O O13 0.532948 0.801591 0.146368
O O14 0.798391 0.780798 0.301025
O O15 0.954880 0.237668 0.613070
O O16 0.819292 0.000000 0.602451
O O17 0.307168 0.000000 0.206805
O O18 0.940048 0.500000 0.395412
O O19 0.000000 0.781650 0.500000
O O20 0.391516 0.000000 0.983596
O O21 0.500000 0.709870 0.000000
#
# Coordination Sequence:
#
# PCOD9146244 Si02
#       8
#     4   4   4   4   4   4   4   4
#     4   9  18  30  47  78 111 138 173 217 268 316
#     4  10  19  33  53  79 109 139 176 218 266 317
#     4   9  16  29  49  75 105 138 175 211 258 316
#     4  11  22  36  55  77 104 141 181 221 260 312
#     4  10  21  33  51  81 111 138 172 222 270 314
#     4   9  16  29  51  75 104 140 175 218 264 317
#     4  10  21  37  54  73 102 141 179 212 256 316
#     4  10  21  35  54  81 111 140 171 218 273 318
#
# _framework density 22.144615000000002
#
# number of rings (size 3 to 8) (size 9 to 14) (size 15 to 20)
#    0.000    2.250    2.500    0.750    1.750    3.500 
#    0.000    2.500    0.000    0.750    0.000    2.625 
#    0.000    0.000    0.000    0.000    0.000    0.000 
#
# Total GULP energy -178832.827155 kJ/mol
# GULP energy per Si atom -5588.525849 kJ/mol
# Density = 2.209421 g / cm^3
# Si number density = 22.144615 Si / 1000 Ang^3
#
#
#
# Elastic Constant Matrix: (Units=GPa)
#
#
# Indices 1 2 3 4 5 6 
#
# 1 198.0653 -2.6504 87.9613 0.0000 19.4327 0.0000
# 2 -2.6504 74.1151 0.5520 0.0000 1.9803 0.0000
# 3 87.9613 0.5520 117.9364 0.0000 34.9673 0.0000
# 4 0.0000 0.0000 0.0000 -1.8165 0.0000 -26.9753
# 5 19.4327 1.9803 34.9673 0.0000 37.1157 0.0000
# 6 0.0000 0.0000 0.0000 -26.9753 0.0000 8.1395
#
#
#
# Elastic Compliance Matrix: (Units=1/GPa)
#
#
# Indices 1 2 3 4 5 6 
#
# 1 0.007650 0.000270 -0.006265 0.000000 0.001883 0.000000
# 2 0.000270 0.013525 -0.000012 0.000000 -0.000851 0.000000
# 3 -0.006265 -0.000012 0.016900 0.000000 -0.012641 0.000000
# 4 0.000000 0.000000 0.000000 -0.010963 0.000000 -0.036333
# 5 0.001883 -0.000851 -0.012641 0.000000 0.037912 0.000000
# 6 0.000000 0.000000 0.000000 -0.036333 0.000000 0.002447
#
#
# Mechanical properties :
#
#
# Convention : Reuss Voigt Hill
#
# Bulk Modulus (GPa) = 38.37277 62.42695 50.39986
# Shear Modulus (GPa) = 56.70737 28.97134 42.83935
#
# Velocity S-wave (km/s) = 5.06590 3.62094 4.40310
# Velocity P-wave (km/s) = 7.18218 6.76264 6.97557
#
# Compressibility (1/GPa) = 0.02606015
#
# Stress axis : x y z
#
# Youngs Moduli (GPa) = 130.71650 73.93704 59.17167
#
# Poissons Ratio (x) = -0.01996 0.37073
# Poissons Ratio (y) = -0.03528 0.00072
# Poissons Ratio (z) = 0.81897 0.00090
#
# Static dielectric constant tensor:
#      x y z
#    x 1.769670 0.000000 0.005820 
#    y 0.000000 1.841750 0.000000 
#    z 0.005820 0.000000 1.781700 
# 
# From -- ./inp_files/84747.got.cif
#   From: 2010.05.17/outbox.cif.g08.bks.cpg/sg10_43_cif.got.tgz:84747.got - 2010.06.03 11:33:40.
