data_PCOD9146108
_publ_section_title
;
Structure prediction by ZEFSAII (Michael W. Deem and Ramdas Pophale) SiO2 
 PCOD9146108
Probable space group: P 2/M
;
_chemical_formula_sum "Si O2"
_cell_formula_units_Z 32
_cell_length_a 27.342410
_cell_length_b 8.773599
_cell_length_c 19.465618
_cell_angle_alpha 90.000000
_cell_angle_beta 155.556669
_cell_angle_gamma 90.000000
_cell_volume 1932.261688
_symmetry_space_group_name_H-M "P 2/M"
_symmetry_group_IT_number 10
_symmetry_cell_setting 'monoclinic'
loop_
_space_group_symop_operation_xyz
x,y,z
-x,y,-z
-x,-y,-z
x,-y,z
loop_
_atom_site_type_symbol
_atom_site_label
_atom_site_fract_x
_atom_site_fract_y
_atom_site_fract_z
Si Si1 0.340453 0.818238 0.911634
Si Si2 0.987813 0.316134 0.151521
Si Si3 0.415690 0.318728 0.728449
Si Si4 0.262692 0.681400 0.670453
Si Si5 0.888121 0.681718 0.306823
Si Si6 0.867139 0.324401 0.861691
Si Si7 0.774086 0.180676 0.611358
Si Si8 0.998372 0.182182 0.682192
O O1 0.330950 0.745180 0.823677
O O2 0.226120 0.760453 0.806802
O O3 0.339824 0.000000 0.905493
O O4 0.459017 0.760124 0.099539
O O5 0.995348 0.500000 0.164131
O O6 0.965506 0.247126 0.197423
O O7 0.113445 0.253775 0.284521
O O8 0.888938 0.275548 0.968019
O O9 0.430410 0.500000 0.739320
O O10 0.336702 0.292699 0.695849
O O11 0.342492 0.250446 0.571616
O O12 0.243930 0.500000 0.654629
O O13 0.135870 0.761902 0.502796
O O14 0.869851 0.500000 0.279286
O O15 0.921731 0.749407 0.276056
O O16 0.000000 0.708814 0.500000
O O17 0.826354 0.500000 0.807615
O O18 0.789882 0.224583 0.711482
O O19 0.000000 0.322959 0.000000
O O20 0.777156 0.000000 0.606247
O O21 0.002359 0.000000 0.686772
#
# Coordination Sequence:
#
# PCOD9146108 Si02
#       8
#     4   4   4   4   4   4   4   4
#     4  12  25  39  57  80 108 137 180 233 276 314
#     4  10  19  33  51  74 107 145 181 216 262 325
#     4  11  23  38  56  76 108 148 187 220 262 327
#     4  11  22  37  56  77 106 146 185 218 264 325
#     4  11  23  40  61  78 102 141 184 222 269 328
#     4   8  16  30  48  70 102 143 180 212 257 320
#     4  11  20  30  49  77 109 141 178 222 269 314
#     4  12  23  34  55  83 110 139 178 228 276 314
#
# _framework density 16.560904000000001
#
# number of rings (size 3 to 8) (size 9 to 14) (size 15 to 20)
#    0.000    1.250    2.500    6.000    0.000    6.250 
#    0.000    0.000    0.000    0.000    0.000    0.875 
#    0.000    7.000    0.000    0.000    0.000    0.000 
#
# Total GULP energy -178808.424239 kJ/mol
# GULP energy per Si atom -5587.763257 kJ/mol
# Density = 1.652321 g / cm^3
# Si number density = 16.560904 Si / 1000 Ang^3
#
#
#
# Elastic Constant Matrix: (Units=GPa)
#
#
# Indices 1 2 3 4 5 6 
#
# 1 52.9010 32.9993 41.0809 0.0000 -26.2559 0.0000
# 2 32.9993 87.3675 46.0242 0.0000 -10.2189 0.0000
# 3 41.0809 46.0242 91.8347 0.0000 -23.1334 0.0000
# 4 0.0000 0.0000 0.0000 37.5375 0.0000 -3.6382
# 5 -26.2559 -10.2189 -23.1334 0.0000 28.9014 0.0000
# 6 0.0000 0.0000 0.0000 -3.6382 0.0000 15.4763
#
#
#
# Elastic Compliance Matrix: (Units=1/GPa)
#
#
# Indices 1 2 3 4 5 6 
#
# 1 0.048127 -0.010011 -0.008003 0.000000 0.033776 0.000000
# 2 -0.010011 0.017654 -0.006373 0.000000 -0.007954 0.000000
# 3 -0.008003 -0.006373 0.019119 0.000000 0.005779 0.000000
# 4 0.000000 0.000000 0.000000 0.027261 0.000000 0.006409
# 5 0.033776 -0.007954 0.005779 0.000000 0.067098 0.000000
# 6 0.000000 0.000000 0.000000 0.006409 0.000000 0.066121
#
#
# Mechanical properties :
#
#
# Convention : Reuss Voigt Hill
#
# Bulk Modulus (GPa) = 27.68146 52.47911 40.08028
# Shear Modulus (GPa) = 16.32934 23.84963 20.08948
#
# Velocity S-wave (km/s) = 3.14350 3.79900 3.48669
# Velocity P-wave (km/s) = 5.47053 7.14147 6.36110
#
# Compressibility (1/GPa) = 0.03612526
#
# Stress axis : x y z
#
# Youngs Moduli (GPa) = 20.77831 56.64440 52.30430
#
# Poissons Ratio (x) = 0.56708 0.41861
# Poissons Ratio (y) = 0.20802 0.33332
# Poissons Ratio (z) = 0.16630 0.36098
#
# Static dielectric constant tensor:
#      x y z
#    x 1.551260 0.000000 -0.022990 
#    y 0.000000 1.547280 0.000000 
#    z -0.022990 0.000000 1.544870 
# 
# From -- ./inp_files/87200.got.cif
#   From: 2010.05.17/outbox.cif.g08.bks.cpg/sg10_44_cif.got.tgz:87200.got - 2010.06.03 11:33:40.
