data_PCOD9146044
_publ_section_title
;
Structure prediction by ZEFSAII (Michael W. Deem and Ramdas Pophale) SiO2 
 PCOD9146044
Probable space group: P 2/M
;
_chemical_formula_sum "Si O2"
_cell_formula_units_Z 16
_cell_length_a 10.312736
_cell_length_b 7.929469
_cell_length_c 26.433386
_cell_angle_alpha 90.000000
_cell_angle_beta 25.342095
_cell_angle_gamma 90.000000
_cell_volume 925.202653
_symmetry_space_group_name_H-M "P 2/M"
_symmetry_group_IT_number 10
_symmetry_cell_setting 'monoclinic'
loop_
_space_group_symop_operation_xyz
x,y,z
-x,y,-z
-x,-y,-z
x,-y,z
loop_
_atom_site_type_symbol
_atom_site_label
_atom_site_fract_x
_atom_site_fract_y
_atom_site_fract_z
Si Si1 0.715582 0.000000 0.063540
Si Si2 0.258552 0.690995 0.229228
Si Si3 0.314751 0.804458 0.512371
Si Si4 0.158585 0.000000 0.098841
Si Si5 0.888482 0.309277 0.253998
O O1 0.507902 0.164785 0.145210
O O2 0.000000 0.000000 0.000000
O O3 0.824095 0.000000 0.967354
O O4 0.376212 0.500000 0.190089
O O5 0.002005 0.717958 0.362553
O O6 0.087280 0.711637 0.235397
O O7 0.500000 0.802258 0.500000
O O8 0.539557 0.717922 0.393458
O O9 0.266993 0.000000 0.515490
O O10 0.993256 0.834520 0.178846
O O11 0.500000 0.000000 0.000000
O O12 0.935188 0.500000 0.219085
#
# Coordination Sequence:
#
# PCOD9146044 Si02
#       5
#     2   4   4   2   4
#     4  12  26  41  55  77 111 154 194 227 269 324
#     4  10  19  34  57  84 113 146 183 228 277 327
#     4   9  15  27  53  85 117 141 170 222 285 331
#     4  12  22  37  57  79 111 150 188 228 273 324
#     4  10  19  32  56  89 116 140 176 230 284 328
#
# _framework density 17.293507000000002
#
# number of rings (size 3 to 8) (size 9 to 14) (size 15 to 20)
#    0.000    1.750    5.000    0.750    0.000    5.000 
#    0.000    0.000    0.000    3.000    0.000    3.500 
#    0.000    0.000    0.000    0.000    0.000    0.000 
#
# Total GULP energy -89277.533854 kJ/mol
# GULP energy per Si atom -5579.845866 kJ/mol
# Density = 1.725415 g / cm^3
# Si number density = 17.293507 Si / 1000 Ang^3
#
#
#
# Elastic Constant Matrix: (Units=GPa)
#
#
# Indices 1 2 3 4 5 6 
#
# 1 60.0476 47.2142 49.3734 0.0000 -0.3180 0.0000
# 2 47.2142 174.1658 90.0038 0.0000 -9.5197 0.0000
# 3 49.3734 90.0038 135.0079 0.0000 2.0643 0.0000
# 4 0.0000 0.0000 0.0000 -3.3907 0.0000 -2.6829
# 5 -0.3180 -9.5197 2.0643 0.0000 11.0602 0.0000
# 6 0.0000 0.0000 0.0000 -2.6829 0.0000 6.8247
#
#
#
# Elastic Compliance Matrix: (Units=1/GPa)
#
#
# Indices 1 2 3 4 5 6 
#
# 1 0.024881 -0.003186 -0.006964 0.000000 -0.000727 0.000000
# 2 -0.003186 0.010079 -0.005702 0.000000 0.009648 0.000000
# 3 -0.006964 -0.005702 0.013873 0.000000 -0.007697 0.000000
# 4 0.000000 0.000000 0.000000 -0.224953 0.000000 -0.088434
# 5 -0.000727 0.009648 -0.007697 0.000000 0.100134 0.000000
# 6 0.000000 0.000000 0.000000 -0.088434 0.000000 0.111761
#
#
# Mechanical properties :
#
#
# Convention : Reuss Voigt Hill
#
# Bulk Modulus (GPa) = 58.38016 82.48937 70.43476
# Shear Modulus (GPa) = 68.31709 15.07417 41.69563
#
# Velocity S-wave (km/s) = 6.29208 2.95560 4.91558
# Velocity P-wave (km/s) = 9.30692 7.71042 8.54603
#
# Compressibility (1/GPa) = 0.01712911
#
# Stress axis : x y z
#
# Youngs Moduli (GPa) = 40.19190 99.21511 72.08429
#
# Poissons Ratio (x) = 0.31607 0.50201
# Poissons Ratio (y) = 0.12804 0.41101
# Poissons Ratio (z) = 0.27990 0.56570
#
# Static dielectric constant tensor:
#      x y z
#    x 1.546160 0.000000 -0.000440 
#    y 0.000000 1.594790 0.000000 
#    z -0.000440 0.000000 1.593330 
# 
# From -- ./inp_files/21830.got.cif
#   From: 2010.05.17/outbox.cif.g08.bks.cpg/sg10_11_cif.got.tgz:21830.got - 2010.06.03 11:33:40.
