data_PCOD9146175
_publ_section_title
;
Structure prediction by ZEFSAII (Michael W. Deem and Ramdas Pophale) SiO2 
 PCOD9146175
Probable space group: P 2/M
;
_chemical_formula_sum "Si O2"
_cell_formula_units_Z 28
_cell_length_a 22.503909
_cell_length_b 7.354529
_cell_length_c 22.505580
_cell_angle_alpha 90.000000
_cell_angle_beta 20.166505
_cell_angle_gamma 90.000000
_cell_volume 1284.123167
_symmetry_space_group_name_H-M "P 2/M"
_symmetry_group_IT_number 10
_symmetry_cell_setting 'monoclinic'
loop_
_space_group_symop_operation_xyz
x,y,z
-x,y,-z
-x,-y,-z
x,-y,z
loop_
_atom_site_type_symbol
_atom_site_label
_atom_site_fract_x
_atom_site_fract_y
_atom_site_fract_z
Si Si1 0.874573 0.777364 0.396623
Si Si2 0.700760 0.778920 0.799544
Si Si3 0.840677 0.791819 0.960880
Si Si4 0.602526 0.779606 0.462001
Si Si5 0.995151 0.292755 0.070724
Si Si6 0.480563 0.777301 0.328361
Si Si7 0.954672 0.221043 0.455101
O O1 0.689418 0.720070 0.546348
O O2 0.917485 0.720926 0.423007
O O3 0.872353 0.000000 0.398219
O O4 0.015159 0.712552 0.217024
O O5 0.797648 0.724968 0.646819
O O6 0.852866 0.724655 0.703476
O O7 0.693319 0.000000 0.807007
O O8 0.500000 0.719798 0.000000
O O9 0.652429 0.709679 0.135941
O O10 0.823211 0.000000 0.957605
O O11 0.899913 0.793124 0.973962
O O12 0.500000 0.719505 0.500000
O O13 0.797235 0.713103 0.275856
O O14 0.523237 0.722640 0.599063
O O15 0.607456 0.000000 0.456556
O O16 0.057620 0.500000 0.006922
O O17 0.000000 0.210548 0.000000
O O18 0.483307 0.000000 0.326259
O O19 0.955828 0.000000 0.455792
#
# Coordination Sequence:
#
# PCOD9146175 Si02
#       7
#     4   4   4   4   4   4   4
#     4   9  16  27  43  65  92 117 156 208 247 283
#     4   8  13  21  32  48  79 121 161 190 223 278
#     4  10  19  33  53  71  93 125 159 201 248 292
#     4  10  19  33  53  74  96 122 158 201 244 294
#     4  11  23  36  50  71  99 126 158 200 246 298
#     4   9  17  29  46  70  92 115 153 199 245 291
#     4   8  14  22  33  53  81 117 156 197 235 270
#
# _framework density 21.804763000000001
#
# number of rings (size 3 to 8) (size 9 to 14) (size 15 to 20)
#    0.000    2.714    1.429    2.143    0.000    3.714 
#    0.000    6.429    0.000    0.000    0.000    0.000 
#    0.000    0.000    0.000    2.571    0.000   12.000 
#
# Total GULP energy -156244.902794 kJ/mol
# GULP energy per Si atom -5580.175100 kJ/mol
# Density = 2.175513 g / cm^3
# Si number density = 21.804763 Si / 1000 Ang^3
#
#
#
# Elastic Constant Matrix: (Units=GPa)
#
#
# Indices 1 2 3 4 5 6 
#
# 1 168.2790 3.3147 102.2874 0.0000 -7.0064 0.0000
# 2 3.3147 79.9220 3.7775 0.0000 -0.4150 0.0000
# 3 102.2874 3.7775 230.5601 0.0000 -4.6492 0.0000
# 4 0.0000 0.0000 0.0000 45.1697 0.0000 -19.7862
# 5 -7.0064 -0.4150 -4.6492 0.0000 21.8109 0.0000
# 6 0.0000 0.0000 0.0000 -19.7862 0.0000 20.4663
#
#
#
# Elastic Compliance Matrix: (Units=1/GPa)
#
#
# Indices 1 2 3 4 5 6 
#
# 1 0.008214 -0.000161 -0.003604 0.000000 0.001867 0.000000
# 2 -0.000161 0.012526 -0.000131 0.000000 0.000159 0.000000
# 3 -0.003604 -0.000131 0.005940 0.000000 0.000106 0.000000
# 4 0.000000 0.000000 0.000000 0.038401 0.000000 0.037125
# 5 0.001867 0.000159 0.000106 0.000000 0.046474 0.000000
# 6 0.000000 0.000000 0.000000 0.037125 0.000000 0.084752
#
#
# Mechanical properties :
#
#
# Convention : Reuss Voigt Hill
#
# Bulk Modulus (GPa) = 52.93865 77.50227 65.22046
# Shear Modulus (GPa) = 23.76496 42.11482 32.93989
#
# Velocity S-wave (km/s) = 3.30494 4.39959 3.89096
# Velocity P-wave (km/s) = 6.23656 7.83770 7.08252
#
# Compressibility (1/GPa) = 0.01888979
#
# Stress axis : x y z
#
# Youngs Moduli (GPa) = 121.74347 79.83475 168.33945
#
# Poissons Ratio (x) = 0.01282 0.60667
# Poissons Ratio (y) = 0.01956 0.02201
# Poissons Ratio (z) = 0.43874 0.01044
#
# Static dielectric constant tensor:
#      x y z
#    x 1.769510 0.000000 0.010970 
#    y 0.000000 1.827980 0.000000 
#    z 0.010970 0.000000 1.770930 
# 
# From -- ./inp_files/90347.got.cif
#   From: 2010.05.17/outbox.cif.g08.bks.cpg/sg10_46_cif.got.tgz:90347.got - 2010.06.03 11:33:40.
