data_PCOD9146397
_publ_section_title
;
Structure prediction by ZEFSAII (Michael W. Deem and Ramdas Pophale) SiO2 
 PCOD9146397
Probable space group: P 2/M
;
_chemical_formula_sum "Si O2"
_cell_formula_units_Z 28
_cell_length_a 14.752499
_cell_length_b 11.373192
_cell_length_c 7.462866
_cell_angle_alpha 90.000000
_cell_angle_beta 108.286311
_cell_angle_gamma 90.000000
_cell_volume 1188.909486
_symmetry_space_group_name_H-M "P 2/M"
_symmetry_group_IT_number 10
_symmetry_cell_setting 'monoclinic'
loop_
_space_group_symop_operation_xyz
x,y,z
-x,y,-z
-x,-y,-z
x,-y,z
loop_
_atom_site_type_symbol
_atom_site_label
_atom_site_fract_x
_atom_site_fract_y
_atom_site_fract_z
Si Si1 0.401720 0.797671 0.901888
Si Si2 0.050293 0.373802 0.727435
Si Si3 0.439789 0.631058 0.617344
Si Si4 0.042690 0.875031 0.728654
Si Si5 0.255207 0.367232 0.997377
Si Si6 0.215783 0.871340 0.599213
Si Si7 0.217033 0.366422 0.383041
O O1 0.443146 0.694234 0.805063
O O2 0.325106 0.862327 0.728019
O O3 0.500000 0.866048 0.000000
O O4 0.334541 0.731362 0.006335
O O5 0.027376 0.500000 0.798549
O O6 0.018413 0.251005 0.795845
O O7 0.000000 0.374242 0.500000
O O8 0.166377 0.368798 0.802129
O O9 0.500000 0.692830 0.500000
O O10 0.478278 0.500000 0.661754
O O11 0.330047 0.626741 0.491097
O O12 0.154105 0.873164 0.744059
O O13 0.000000 0.876710 0.500000
O O14 0.018542 0.000000 0.800108
O O15 0.296865 0.500000 0.016717
O O16 0.208214 0.352135 0.163854
O O17 0.188541 0.755458 0.466014
O O18 0.198736 0.000000 0.500635
O O19 0.180373 0.500000 0.409456
#
# Coordination Sequence:
#
# PCOD9146397 Si02
#       7
#     4   4   4   4   4   4   4
#     4  11  21  32  52  81 112 145 187 231 279 330
#     4   9  17  30  52  83 115 142 173 219 278 334
#     4   9  17  30  48  73 105 143 184 228 277 323
#     4   9  17  32  56  82 105 135 180 228 271 320
#     4  10  19  33  54  85 117 145 186 237 279 324
#     4  10  21  38  56  81 115 149 184 227 280 337
#     4   9  19  34  54  78 109 148 188 230 276 327
#
# _framework density 23.550996000000001
#
# number of rings (size 3 to 8) (size 9 to 14) (size 15 to 20)
#    0.000    2.429    1.429    1.286    0.000    3.714 
#    0.000    1.429    0.000   18.000    0.000   22.000 
#    0.000    0.000    0.000    0.000    0.000    0.000 
#
# Total GULP energy -155949.609683 kJ/mol
# GULP energy per Si atom -5569.628917 kJ/mol
# Density = 2.349739 g / cm^3
# Si number density = 23.550996 Si / 1000 Ang^3
#
#
#
# Elastic Constant Matrix: (Units=GPa)
#
#
# Indices 1 2 3 4 5 6 
#
# 1 94.4284 16.1470 33.2950 0.0000 33.3535 0.0000
# 2 16.1470 232.2864 29.5769 0.0000 -16.8357 0.0000
# 3 33.2950 29.5769 80.9929 0.0000 3.2890 0.0000
# 4 0.0000 0.0000 0.0000 -9.1018 0.0000 -2.8811
# 5 33.3535 -16.8357 3.2890 0.0000 41.0151 0.0000
# 6 0.0000 0.0000 0.0000 -2.8811 0.0000 4.9167
#
#
#
# Elastic Compliance Matrix: (Units=1/GPa)
#
#
# Indices 1 2 3 4 5 6 
#
# 1 0.018465 -0.001566 -0.006404 0.000000 -0.015145 0.000000
# 2 -0.001566 0.004816 -0.001251 0.000000 0.003351 0.000000
# 3 -0.006404 -0.001251 0.015295 0.000000 0.003468 0.000000
# 4 0.000000 0.000000 0.000000 -0.092677 0.000000 -0.054308
# 5 -0.015145 0.003351 0.003468 0.000000 0.037795 0.000000
# 6 0.000000 0.000000 0.000000 -0.054308 0.000000 0.171565
#
#
# Mechanical properties :
#
#
# Convention : Reuss Voigt Hill
#
# Bulk Modulus (GPa) = 49.66498 62.86060 56.26279
# Shear Modulus (GPa) = 27.71436 29.27860 28.49648
#
# Velocity S-wave (km/s) = 3.43415 3.52973 3.48227
# Velocity P-wave (km/s) = 6.07112 6.58492 6.33323
#
# Compressibility (1/GPa) = 0.02013491
#
# Stress axis : x y z
#
# Youngs Moduli (GPa) = 54.15566 207.64042 65.37922
#
# Poissons Ratio (x) = 0.32514 0.41869
# Poissons Ratio (y) = 0.08480 0.08179
# Poissons Ratio (z) = 0.34681 0.25977
#
# Static dielectric constant tensor:
#      x y z
#    x 1.997510 0.000000 0.117240 
#    y 0.000000 1.982660 0.000000 
#    z 0.117240 0.000000 2.004880 
# 
# From -- ./inp_files/28344.got.cif
#   From: 2010.05.17/outbox.cif.g08.bks.cpg/sg10_15_cif.got.tgz:28344.got - 2010.06.03 11:33:40.
