data_PCOD9146471
_publ_section_title
;
Structure prediction by ZEFSAII (Michael W. Deem and Ramdas Pophale) SiO2 
 PCOD9146471
Probable space group: P 2/M
;
_chemical_formula_sum "Si O2"
_cell_formula_units_Z 20
_cell_length_a 26.032357
_cell_length_b 8.005373
_cell_length_c 5.199533
_cell_angle_alpha 90.000000
_cell_angle_beta 60.666268
_cell_angle_gamma 90.000000
_cell_volume 944.641029
_symmetry_space_group_name_H-M "P 2/M"
_symmetry_group_IT_number 10
_symmetry_cell_setting 'monoclinic'
loop_
_space_group_symop_operation_xyz
x,y,z
-x,y,-z
-x,-y,-z
x,-y,z
loop_
_atom_site_type_symbol
_atom_site_label
_atom_site_fract_x
_atom_site_fract_y
_atom_site_fract_z
Si Si1 0.065730 0.704232 0.766643
Si Si2 0.134173 0.702014 0.098368
Si Si3 0.668308 0.694748 0.745006
Si Si4 0.265572 0.191999 0.922341
Si Si5 0.535951 0.296009 0.164656
O O1 0.064794 0.500000 0.767561
O O2 0.088888 0.756983 0.431656
O O3 0.111105 0.757860 0.877163
O O4 0.000000 0.759189 0.000000
O O5 0.134513 0.500000 0.095058
O O6 0.199347 0.759061 0.009378
O O7 0.662441 0.500000 0.689252
O O8 0.695113 0.780754 0.428137
O O9 0.709894 0.709183 0.892118
O O10 0.603553 0.759777 0.980134
O O11 0.267241 0.000000 0.995594
O O12 0.500000 0.236762 0.500000
O O13 0.537420 0.500000 0.173491
O O14 0.500000 0.248980 0.000000
#
# Coordination Sequence:
#
# PCOD9146471 Si02
#       5
#     4   4   4   4   4
#     4   9  17  30  52  82 110 137 178 235 287 330
#     4  10  19  33  55  80 108 145 190 232 275 338
#     4  11  22  39  64  89 115 152 199 242 284 345
#     4  12  25  40  58  84 122 159 194 241 295 343
#     4   9  17  31  55  87 115 140 181 239 291 334
#
# _framework density 21.172065
#
# number of rings (size 3 to 8) (size 9 to 14) (size 15 to 20)
#    0.000    1.800    0.000    5.400    0.000    7.200 
#    0.000    0.000    0.000   15.600    0.000    0.000 
#    0.000    0.000    0.000    0.000    0.000    0.000 
#
# Total GULP energy -111817.075889 kJ/mol
# GULP energy per Si atom -5590.853794 kJ/mol
# Density = 2.112388 g / cm^3
# Si number density = 21.172065 Si / 1000 Ang^3
#
#
#
# Elastic Constant Matrix: (Units=GPa)
#
#
# Indices 1 2 3 4 5 6 
#
# 1 46.5244 -8.1957 -23.9391 0.0000 -2.4202 0.0000
# 2 -8.1957 23.3211 0.8381 0.0000 -3.6299 0.0000
# 3 -23.9391 0.8381 65.4687 0.0000 2.9831 0.0000
# 4 0.0000 0.0000 0.0000 4.3665 0.0000 16.6844
# 5 -2.4202 -3.6299 2.9831 0.0000 42.4030 0.0000
# 6 0.0000 0.0000 0.0000 16.6844 0.0000 -24.7277
#
#
#
# Elastic Compliance Matrix: (Units=1/GPa)
#
#
# Indices 1 2 3 4 5 6 
#
# 1 0.028619 0.009964 0.010257 0.000000 0.001765 0.000000
# 2 0.009964 0.046962 0.002842 0.000000 0.004389 0.000000
# 3 0.010257 0.002842 0.019012 0.000000 -0.000509 0.000000
# 4 0.000000 0.000000 0.000000 0.064005 0.000000 0.043186
# 5 0.001765 0.004389 -0.000509 0.000000 0.024095 0.000000
# 6 0.000000 0.000000 0.000000 0.043186 0.000000 -0.011302
#
#
# Mechanical properties :
#
#
# Convention : Reuss Voigt Hill
#
# Bulk Modulus (GPa) = 7.10646 8.08007 7.59326
# Shear Modulus (GPa) = 29.04079 15.51575 22.27827
#
# Velocity S-wave (km/s) = 3.70761 2.71004 3.24736
# Velocity P-wave (km/s) = 4.65750 3.69013 4.20175
#
# Compressibility (1/GPa) = 0.14071711
#
# Stress axis : x y z
#
# Youngs Moduli (GPa) = 34.94221 21.29378 52.59917
#
# Poissons Ratio (x) = -0.21216 -0.53949
# Poissons Ratio (y) = -0.34815 -0.14949
# Poissons Ratio (z) = -0.35839 -0.06052
#
# Static dielectric constant tensor:
#      x y z
#    x 1.720610 0.000000 -0.013690 
#    y 0.000000 1.741680 0.000000 
#    z -0.013690 0.000000 1.724310 
# 
# From -- ./inp_files/11988.got.cif
#   From: 2010.05.17/outbox.cif.g08.bks.cpg/sg10_6_cif.got.tgz:11988.got - 2010.06.03 11:33:40.
