data_PCOD9146689
_publ_section_title
;
Structure prediction by ZEFSAII (Michael W. Deem and Ramdas Pophale) SiO2 
 PCOD9146689
Probable space group: P 2/M
;
_chemical_formula_sum "Si O2"
_cell_formula_units_Z 28
_cell_length_a 22.210047
_cell_length_b 13.332842
_cell_length_c 9.192138
_cell_angle_alpha 90.000000
_cell_angle_beta 25.426587
_cell_angle_gamma 90.000000
_cell_volume 1168.703984
_symmetry_space_group_name_H-M "P 2/M"
_symmetry_group_IT_number 10
_symmetry_cell_setting 'monoclinic'
loop_
_space_group_symop_operation_xyz
x,y,z
-x,y,-z
-x,-y,-z
x,-y,z
loop_
_atom_site_type_symbol
_atom_site_label
_atom_site_fract_x
_atom_site_fract_y
_atom_site_fract_z
Si Si1 0.411762 0.697311 0.897384
Si Si2 0.335533 0.114825 0.210102
Si Si3 0.044279 0.803347 0.739394
Si Si4 0.077812 0.615875 0.117220
Si Si5 0.660506 0.382533 0.661582
Si Si6 0.293932 0.696160 0.833509
Si Si7 0.240429 0.885101 0.747810
O O1 0.339950 0.705893 0.898670
O O2 0.565164 0.648176 0.546338
O O3 0.436073 0.807542 0.911599
O O4 0.312634 0.641846 0.228521
O O5 0.314975 0.135175 0.427568
O O6 0.189037 0.138466 0.447250
O O7 0.375861 0.000000 0.106354
O O8 0.036503 0.700914 0.663746
O O9 0.924450 0.873598 0.932555
O O10 0.000000 0.776283 0.000000
O O11 0.039331 0.500000 0.176105
O O12 0.207718 0.648009 0.724312
O O13 0.157668 0.630154 0.096261
O O14 0.651151 0.500000 0.656332
O O15 0.500000 0.342303 0.000000
O O16 0.268353 0.803775 0.812504
O O17 0.271424 0.000000 0.721283
#
# Coordination Sequence:
#
# PCOD9146689 Si02
#       7
#     4   4   4   4   4   4   4
#     4  11  22  36  55  79 116 152 187 229 276 333
#     4  10  21  36  58  85 110 144 190 236 280 328
#     4   9  17  33  57  83 111 141 179 231 281 328
#     4  10  20  36  59  85 113 146 185 228 277 332
#     4  10  19  33  57  85 110 140 182 228 271 321
#     4  10  22  36  53  80 113 154 186 224 282 335
#     4   9  18  34  56  79 106 141 184 231 279 331
#
# _framework density 23.958162000000002
#
# number of rings (size 3 to 8) (size 9 to 14) (size 15 to 20)
#    0.000    2.143    1.429    3.000    0.000    3.714 
#    0.000    7.857    0.000    5.143    0.000    0.000 
#    0.000    0.000    0.000    0.000    0.000    0.000 
#
# Total GULP energy -156465.513892 kJ/mol
# GULP energy per Si atom -5588.054068 kJ/mol
# Density = 2.390363 g / cm^3
# Si number density = 23.958162 Si / 1000 Ang^3
#
#
#
# Elastic Constant Matrix: (Units=GPa)
#
#
# Indices 1 2 3 4 5 6 
#
# 1 80.6685 -15.2834 11.6149 0.0000 -15.3672 0.0000
# 2 -15.2834 72.5512 -3.7290 0.0000 -5.1846 0.0000
# 3 11.6149 -3.7290 56.0218 0.0000 -12.7535 0.0000
# 4 0.0000 0.0000 0.0000 18.9370 0.0000 -3.7076
# 5 -15.3672 -5.1846 -12.7535 0.0000 32.5540 0.0000
# 6 0.0000 0.0000 0.0000 -3.7076 0.0000 22.4211
#
#
#
# Elastic Compliance Matrix: (Units=1/GPa)
#
#
# Indices 1 2 3 4 5 6 
#
# 1 0.014559 0.003503 -0.001201 0.000000 0.006960 0.000000
# 2 0.003503 0.014912 0.001299 0.000000 0.004537 0.000000
# 3 -0.001201 0.001299 0.019876 0.000000 0.007427 0.000000
# 4 0.000000 0.000000 0.000000 0.054573 0.000000 0.009024
# 5 0.006960 0.004537 0.007427 0.000000 0.037636 0.000000
# 6 0.000000 0.000000 0.000000 0.009024 0.000000 0.046093
#
#
# Mechanical properties :
#
#
# Convention : Reuss Voigt Hill
#
# Bulk Modulus (GPa) = 17.68366 21.60518 19.64442
# Shear Modulus (GPa) = 25.08811 29.22502 27.15656
#
# Velocity S-wave (km/s) = 3.23950 3.49640 3.37040
# Velocity P-wave (km/s) = 4.62489 5.03361 4.83357
#
# Compressibility (1/GPa) = 0.05654938
#
# Stress axis : x y z
#
# Youngs Moduli (GPa) = 68.68729 67.05910 50.31094
#
# Poissons Ratio (x) = -0.23488 0.06042
# Poissons Ratio (y) = -0.24058 -0.06537
# Poissons Ratio (z) = 0.08249 -0.08714
#
# Static dielectric constant tensor:
#      x y z
#    x 1.970470 0.000000 -0.011850 
#    y 0.000000 1.875700 0.000000 
#    z -0.011850 0.000000 2.018630 
# 
# From -- ./inp_files/29581.got.cif
#   From: 2010.05.17/outbox.cif.g08.bks.cpg/sg10_15_cif.got.tgz:29581.got - 2010.06.03 11:33:40.
