data_PCOD9146518
_publ_section_title
;
Structure prediction by ZEFSAII (Michael W. Deem and Ramdas Pophale) SiO2 
 PCOD9146518
Probable space group: P 2/M
;
_chemical_formula_sum "Si O2"
_cell_formula_units_Z 28
_cell_length_a 7.978405
_cell_length_b 13.967380
_cell_length_c 10.864070
_cell_angle_alpha 90.000000
_cell_angle_beta 71.183261
_cell_angle_gamma 90.000000
_cell_volume 1145.960025
_symmetry_space_group_name_H-M "P 2/M"
_symmetry_group_IT_number 10
_symmetry_cell_setting 'monoclinic'
loop_
_space_group_symop_operation_xyz
x,y,z
-x,y,-z
-x,-y,-z
x,-y,z
loop_
_atom_site_type_symbol
_atom_site_label
_atom_site_fract_x
_atom_site_fract_y
_atom_site_fract_z
Si Si1 0.914012 0.891998 0.322664
Si Si2 0.661711 0.693094 0.052327
Si Si3 0.175308 0.107404 0.043083
Si Si4 0.600188 0.694945 0.692780
Si Si5 0.895898 0.612689 0.807095
Si Si6 0.857388 0.687384 0.435024
Si Si7 0.523476 0.104026 0.345876
O O1 0.884519 0.801953 0.417606
O O2 0.735965 0.889476 0.280303
O O3 0.088694 0.878341 0.199045
O O4 0.916393 0.000000 0.375490
O O5 0.585929 0.664491 0.203366
O O6 0.500000 0.666180 0.000000
O O7 0.698361 0.806166 0.025221
O O8 0.835513 0.643253 0.957115
O O9 0.251802 0.000000 0.017022
O O10 0.000000 0.110286 0.000000
O O11 0.753239 0.663715 0.750559
O O12 0.669309 0.665324 0.541550
O O13 0.578203 0.809263 0.690554
O O14 0.881030 0.500000 0.797268
O O15 0.084165 0.647215 0.710322
O O16 0.000000 0.649106 0.500000
O O17 0.500000 0.109022 0.500000
O O18 0.461508 0.000000 0.318759
#
# Coordination Sequence:
#
# PCOD9146518 Si02
#       7
#     4   4   4   4   4   4   4
#     4  10  19  33  55  82 116 158 196 228 271 337
#     4  10  21  37  58  88 117 150 190 245 300 345
#     4  10  20  35  56  83 119 161 199 231 276 344
#     4  10  21  34  57  90 116 145 189 240 287 341
#     4  10  22  42  64  83 108 148 193 243 306 357
#     4  10  20  35  56  84 112 147 191 237 279 338
#     4  10  19  33  55  85 123 163 193 224 275 339
#
# _framework density 24.433662000000002
#
# number of rings (size 3 to 8) (size 9 to 14) (size 15 to 20)
#    0.000    2.000    2.857    0.857    0.000    7.429 
#    0.000    4.286    0.000    1.714    0.000    0.000 
#    0.000    0.000    0.000    0.000    0.000    0.000 
#
# Total GULP energy -156386.735601 kJ/mol
# GULP energy per Si atom -5585.240557 kJ/mol
# Density = 2.437805 g / cm^3
# Si number density = 24.433662 Si / 1000 Ang^3
#
#
#
# Elastic Constant Matrix: (Units=GPa)
#
#
# Indices 1 2 3 4 5 6 
#
# 1 79.0443 28.1768 39.7257 0.0000 -4.5102 0.0000
# 2 28.1768 95.6271 39.0218 0.0000 -5.6141 0.0000
# 3 39.7257 39.0218 205.5825 0.0000 -63.9031 0.0000
# 4 0.0000 0.0000 0.0000 -10.7494 0.0000 12.1019
# 5 -4.5102 -5.6141 -63.9031 0.0000 28.2781 0.0000
# 6 0.0000 0.0000 0.0000 12.1019 0.0000 20.3401
#
#
#
# Elastic Compliance Matrix: (Units=1/GPa)
#
#
# Indices 1 2 3 4 5 6 
#
# 1 0.016256 -0.002847 -0.006622 0.000000 -0.012938 0.000000
# 2 -0.002847 0.012521 -0.004016 0.000000 -0.007043 0.000000
# 3 -0.006622 -0.004016 0.021273 0.000000 0.046219 0.000000
# 4 0.000000 0.000000 0.000000 -0.055711 0.000000 0.033147
# 5 -0.012938 -0.007043 0.046219 0.000000 0.136348 0.000000
# 6 0.000000 0.000000 0.000000 0.033147 0.000000 0.029442
#
#
# Mechanical properties :
#
#
# Convention : Reuss Voigt Hill
#
# Bulk Modulus (GPa) = 43.32850 66.01138 54.66994
# Shear Modulus (GPa) = 25.66820 25.79574 25.73197
#
# Velocity S-wave (km/s) = 3.24470 3.25275 3.24873
# Velocity P-wave (km/s) = 5.63995 6.41735 6.04117
#
# Compressibility (1/GPa) = 0.02307950
#
# Stress axis : x y z
#
# Youngs Moduli (GPa) = 61.51539 79.86306 47.00810
#
# Poissons Ratio (x) = 0.22738 0.31131
# Poissons Ratio (y) = 0.17514 0.18878
# Poissons Ratio (z) = 0.40738 0.32072
#
# Static dielectric constant tensor:
#      x y z
#    x 1.910610 0.000000 -0.016990 
#    y 0.000000 1.889740 0.000000 
#    z -0.016990 0.000000 2.082840 
# 
# From -- ./inp_files/42884.got.cif
#   From: 2010.05.17/outbox.cif.g08.bks.cpg/sg10_22_cif.got.tgz:42884.got - 2010.06.03 11:33:40.
