data_PCOD9146836
_publ_section_title
;
Structure prediction by ZEFSAII (Michael W. Deem and Ramdas Pophale) SiO2 
 PCOD9146836
Probable space group: P 2/M
;
_chemical_formula_sum "Si O2"
_cell_formula_units_Z 28
_cell_length_a 22.384118
_cell_length_b 16.835679
_cell_length_c 19.740530
_cell_angle_alpha 90.000000
_cell_angle_beta 11.881215
_cell_angle_gamma 90.000000
_cell_volume 1531.618769
_symmetry_space_group_name_H-M "P 2/M"
_symmetry_group_IT_number 10
_symmetry_cell_setting 'monoclinic'
loop_
_space_group_symop_operation_xyz
x,y,z
-x,y,-z
-x,-y,-z
x,-y,z
loop_
_atom_site_type_symbol
_atom_site_label
_atom_site_fract_x
_atom_site_fract_y
_atom_site_fract_z
Si Si1 0.533524 0.658964 0.749885
Si Si2 0.324883 0.667282 0.124837
Si Si3 0.327091 0.310914 0.756156
Si Si4 0.283924 0.142872 0.142071
Si Si5 0.751538 0.589887 0.373787
Si Si6 0.069288 0.907969 0.593712
Si Si7 0.890104 0.760854 0.871285
O O1 0.598881 0.597656 0.616999
O O2 0.831665 0.704568 0.432504
O O3 0.433780 0.628807 0.933987
O O4 0.307756 0.722098 0.968042
O O5 0.319798 0.762560 0.114477
O O6 0.000000 0.641572 0.500000
O O7 0.500000 0.655226 0.000000
O O8 0.500000 0.278945 0.500000
O O9 0.520575 0.380387 0.575161
O O10 0.274459 0.248247 0.874865
O O11 0.022137 0.349947 0.073279
O O12 0.000000 0.116960 0.500000
O O13 0.176755 0.116919 0.187100
O O14 0.605529 0.107835 0.796658
O O15 0.844581 0.500000 0.258558
O O16 0.008246 0.847467 0.722458
O O17 0.045866 0.000000 0.636843
#
# Coordination Sequence:
#
# PCOD9146836 Si02
#       7
#     4   4   4   4   4   4   4
#     4  10  19  34  54  71 100 138 173 212 251 297
#     4  11  19  30  51  72  95 128 175 220 255 289
#     4  10  21  35  57  82 108 140 165 201 252 302
#     4  11  22  34  48  71 102 134 172 218 266 311
#     4  10  21  35  55  83 112 139 165 199 249 310
#     4  12  22  34  51  70 100 140 175 215 261 304
#     4  10  19  36  51  73 101 131 178 211 245 307
#
# _framework density 18.281310999999999
#
# number of rings (size 3 to 8) (size 9 to 14) (size 15 to 20)
#    0.000    1.429    2.857    4.286    0.000    3.429 
#    0.000    0.000    0.000    1.286    0.000    0.000 
#    0.000    9.143    0.000    0.000    0.000    1.429 
#
# Total GULP energy -156220.401208 kJ/mol
# GULP energy per Si atom -5579.300043 kJ/mol
# Density = 1.823970 g / cm^3
# Si number density = 18.281311 Si / 1000 Ang^3
#
#
#
# Elastic Constant Matrix: (Units=GPa)
#
#
# Indices 1 2 3 4 5 6 
#
# 1 83.6428 -7.3308 38.5168 0.0000 8.7038 0.0000
# 2 -7.3308 24.7807 -5.6431 0.0000 2.5081 0.0000
# 3 38.5168 -5.6431 90.6948 0.0000 8.2122 0.0000
# 4 0.0000 0.0000 0.0000 9.9328 0.0000 -0.0828
# 5 8.7038 2.5081 8.2122 0.0000 71.1351 0.0000
# 6 0.0000 0.0000 0.0000 -0.0828 0.0000 2.6055
#
#
#
# Elastic Compliance Matrix: (Units=1/GPa)
#
#
# Indices 1 2 3 4 5 6 
#
# 1 0.015197 0.003226 -0.006139 0.000000 -0.001264 0.000000
# 2 0.003226 0.041837 0.001417 0.000000 -0.002033 0.000000
# 3 -0.006139 0.001417 0.013802 0.000000 -0.000892 0.000000
# 4 0.000000 0.000000 0.000000 0.100703 0.000000 0.003199
# 5 -0.001264 -0.002033 -0.000892 0.000000 0.014387 0.000000
# 6 0.000000 0.000000 0.000000 0.003199 0.000000 0.383898
#
#
# Mechanical properties :
#
#
# Convention : Reuss Voigt Hill
#
# Bulk Modulus (GPa) = 14.73964 27.80045 21.27005
# Shear Modulus (GPa) = 8.39729 28.30639 18.35184
#
# Velocity S-wave (km/s) = 2.14554 3.93921 3.17181
# Velocity P-wave (km/s) = 3.77067 5.99416 5.00739
#
# Compressibility (1/GPa) = 0.06784425
#
# Stress axis : x y z
#
# Youngs Moduli (GPa) = 65.80394 23.90238 72.45356
#
# Poissons Ratio (x) = -0.07710 0.44476
# Poissons Ratio (y) = -0.21226 -0.10269
# Poissons Ratio (z) = 0.40394 -0.03388
#
# Static dielectric constant tensor:
#      x y z
#    x 1.712800 0.000000 0.040110 
#    y 0.000000 1.589460 0.000000 
#    z 0.040110 0.000000 1.643850 
# 
# From -- ./inp_files/86636.got.cif
#   From: 2010.05.17/outbox.cif.g08.bks.cpg/sg10_44_cif.got.tgz:86636.got - 2010.06.03 11:33:40.
