data_PCOD9146564
_publ_section_title
;
Structure prediction by ZEFSAII (Michael W. Deem and Ramdas Pophale) SiO2 
 PCOD9146564
Probable space group: P 2/M
;
_chemical_formula_sum "Si O2"
_cell_formula_units_Z 30
_cell_length_a 14.822872
_cell_length_b 18.820834
_cell_length_c 15.031155
_cell_angle_alpha 90.000000
_cell_angle_beta 19.322689
_cell_angle_gamma 90.000000
_cell_volume 1387.537525
_symmetry_space_group_name_H-M "P 2/M"
_symmetry_group_IT_number 10
_symmetry_cell_setting 'monoclinic'
loop_
_space_group_symop_operation_xyz
x,y,z
-x,y,-z
-x,-y,-z
x,-y,z
loop_
_atom_site_type_symbol
_atom_site_label
_atom_site_fract_x
_atom_site_fract_y
_atom_site_fract_z
Si Si1 0.642496 0.669159 0.952677
Si Si2 0.869015 0.921564 0.903351
Si Si3 0.776180 0.839759 0.281137
Si Si4 0.287165 0.500000 0.781524
Si Si5 0.301038 0.919058 0.344876
Si Si6 0.154261 0.230391 0.464201
Si Si7 0.826512 0.723771 0.361205
Si Si8 0.336505 0.630738 0.871880
O O1 0.898478 0.717362 0.683161
O O2 0.500000 0.632968 0.000000
O O3 0.424617 0.726459 0.189900
O O4 0.697841 0.620590 0.988448
O O5 0.044438 0.883521 0.815294
O O6 0.063706 0.927777 0.637433
O O7 0.801123 0.000000 0.002056
O O8 0.579004 0.894524 0.136306
O O9 0.500000 0.874586 0.500000
O O10 0.683089 0.769126 0.419169
O O11 0.000000 0.821163 0.000000
O O12 0.500000 0.500000 0.500000
O O13 0.303052 0.566536 0.834581
O O14 0.000000 0.500000 0.000000
O O15 0.202669 0.849263 0.382310
O O16 0.345326 0.000000 0.264777
O O17 0.126125 0.226112 0.597650
O O18 0.635174 0.661210 0.574085
O O19 0.110186 0.691237 0.064398
#
# Coordination Sequence:
#
# PCOD9146564 Si02
#       8
#     4   4   4   2   4   4   4   4
#     4  10  21  38  63  95 125 157 199 251 313 375
#     4  10  21  35  50  70 104 148 199 253 311 375
#     4  12  24  33  50  75 108 149 194 255 315 364
#     4  12  26  44  69  96 131 172 214 246 284 352
#     4  10  19  33  56  79 105 149 205 255 305 372
#     4  10  19  34  61  83 115 155 197 253 304 362
#     4  10  21  37  57  83 114 151 200 247 300 357
#     4  10  23  41  64  92 124 163 200 248 298 354
#
# _framework density 21.621036
#
# number of rings (size 3 to 8) (size 9 to 14) (size 15 to 20)
#    0.000    1.600    1.333    3.600    3.733    3.733 
#    0.000    0.333    0.000    2.400    0.000    6.533 
#    0.000    0.000    0.000    0.000    0.000    0.000 
#
# Total GULP energy -167173.899412 kJ/mol
# GULP energy per Si atom -5572.463314 kJ/mol
# Density = 2.157183 g / cm^3
# Si number density = 21.621036 Si / 1000 Ang^3
#
#
#
# Elastic Constant Matrix: (Units=GPa)
#
#
# Indices 1 2 3 4 5 6 
#
# 1 115.8317 40.7628 28.4567 0.0000 -15.4107 0.0000
# 2 40.7628 52.5323 10.1584 0.0000 -3.5509 0.0000
# 3 28.4567 10.1584 126.8307 0.0000 -13.0295 0.0000
# 4 0.0000 0.0000 0.0000 19.5351 0.0000 -4.2462
# 5 -15.4107 -3.5509 -13.0295 0.0000 30.6366 0.0000
# 6 0.0000 0.0000 0.0000 -4.2462 0.0000 -38.3741
#
#
#
# Elastic Compliance Matrix: (Units=1/GPa)
#
#
# Indices 1 2 3 4 5 6 
#
# 1 0.012996 -0.009441 -0.001674 0.000000 0.004731 0.000000
# 2 -0.009441 0.026274 -0.000169 0.000000 -0.001775 0.000000
# 3 -0.001674 -0.000169 0.008559 0.000000 0.002779 0.000000
# 4 0.000000 0.000000 0.000000 0.049988 0.000000 -0.005531
# 5 0.004731 -0.001775 0.002779 0.000000 0.035997 0.000000
# 6 0.000000 0.000000 0.000000 -0.005531 0.000000 -0.025447
#
#
# Mechanical properties :
#
#
# Convention : Reuss Voigt Hill
#
# Bulk Modulus (GPa) = 39.58362 50.43894 45.01128
# Shear Modulus (GPa) = 35.87973 16.74731 26.31352
#
# Velocity S-wave (km/s) = 4.07809 2.78615 3.49238
# Velocity P-wave (km/s) = 6.36570 5.80771 6.09310
#
# Compressibility (1/GPa) = 0.02526297
#
# Stress axis : x y z
#
# Youngs Moduli (GPa) = 76.94476 38.05984 116.83595
#
# Poissons Ratio (x) = 0.35933 0.19555
# Poissons Ratio (y) = 0.72645 0.01969
# Poissons Ratio (z) = 0.12878 0.00641
#
# Static dielectric constant tensor:
#      x y z
#    x 1.950440 0.000000 -0.004320 
#    y 0.000000 1.818900 0.000000 
#    z -0.004320 0.000000 1.747180 
# 
# From -- ./inp_files/67876.got.cif
#   From: 2010.05.17/outbox.cif.g08.bks.cpg/sg10_34_cif.got.tgz:67876.got - 2010.06.03 11:33:40.
