data_PCOD9146395
_publ_section_title
;
Structure prediction by ZEFSAII (Michael W. Deem and Ramdas Pophale) SiO2 
 PCOD9146395
Probable space group: P 2/M
;
_chemical_formula_sum "Si O2"
_cell_formula_units_Z 30
_cell_length_a 12.539177
_cell_length_b 11.163855
_cell_length_c 21.325309
_cell_angle_alpha 90.000000
_cell_angle_beta 148.468535
_cell_angle_gamma 90.000000
_cell_volume 1561.178682
_symmetry_space_group_name_H-M "P 2/M"
_symmetry_group_IT_number 10
_symmetry_cell_setting 'monoclinic'
loop_
_space_group_symop_operation_xyz
x,y,z
-x,y,-z
-x,-y,-z
x,-y,z
loop_
_atom_site_type_symbol
_atom_site_label
_atom_site_fract_x
_atom_site_fract_y
_atom_site_fract_z
Si Si1 0.232581 0.137954 0.803857
Si Si2 0.243796 0.860771 0.466930
Si Si3 0.229339 0.359991 0.120378
Si Si4 0.890625 0.864252 0.115932
Si Si5 0.500000 0.704902 0.500000
Si Si6 0.814425 0.364873 0.759314
Si Si7 0.215893 0.138185 0.588380
Si Si8 0.523458 0.201991 0.848949
O O1 0.219267 0.154724 0.871797
O O2 0.378766 0.223068 0.836800
O O3 0.000523 0.147345 0.663382
O O4 0.302125 0.000000 0.827254
O O5 0.353581 0.786353 0.468867
O O6 0.296247 0.813287 0.562695
O O7 0.303403 0.000000 0.489784
O O8 0.215889 0.500000 0.100103
O O9 0.281451 0.346213 0.219736
O O10 0.381058 0.306104 0.145630
O O11 0.000000 0.307468 0.000000
O O12 0.039059 0.750246 0.179624
O O13 0.984287 0.000000 0.165502
O O14 0.720108 0.863082 0.976433
O O15 0.355540 0.635421 0.379601
O O16 0.911463 0.500000 0.809144
O O17 0.374464 0.139133 0.724312
O O18 0.000000 0.194764 0.500000
O O19 0.169732 0.000000 0.548989
#
# Coordination Sequence:
#
# PCOD9146395 Si02
#       8
#     4   4   4   4   2   4   4   4
#     4  10  20  37  58  87 128 170 202 246 315 377
#     4  10  20  34  57  88 128 168 202 248 312 375
#     4  10  22  43  66  87 119 166 211 256 319 382
#     4  11  23  39  62  95 130 166 208 260 312 369
#     4  12  22  38  64  92 117 160 213 264 301 370
#     4  11  24  44  67  91 123 167 211 258 318 381
#     4  10  19  33  54  84 122 163 201 242 301 371
#     4  12  21  36  65  90 117 164 213 256 303 372
#
# _framework density 19.216249999999999
#
# number of rings (size 3 to 8) (size 9 to 14) (size 15 to 20)
#    0.000    1.333    4.000    2.800    0.000    1.600 
#    0.000    3.333    0.000    2.000    0.000    0.000 
#    0.000    0.000    0.000    0.000    0.000    0.000 
#
# Total GULP energy -167191.748025 kJ/mol
# GULP energy per Si atom -5573.058267 kJ/mol
# Density = 1.917251 g / cm^3
# Si number density = 19.216250 Si / 1000 Ang^3
#
#
#
# Elastic Constant Matrix: (Units=GPa)
#
#
# Indices 1 2 3 4 5 6 
#
# 1 128.4946 70.1767 30.5867 0.0000 -6.4128 0.0000
# 2 70.1767 93.4811 31.1787 0.0000 9.8441 0.0000
# 3 30.5867 31.1787 96.8120 0.0000 -19.5395 0.0000
# 4 0.0000 0.0000 0.0000 15.4545 0.0000 -6.0148
# 5 -6.4128 9.8441 -19.5395 0.0000 40.1944 0.0000
# 6 0.0000 0.0000 0.0000 -6.0148 0.0000 64.3281
#
#
#
# Elastic Compliance Matrix: (Units=1/GPa)
#
#
# Indices 1 2 3 4 5 6 
#
# 1 0.014097 -0.011172 0.000167 0.000000 0.005066 0.000000
# 2 -0.011172 0.021967 -0.005533 0.000000 -0.009852 0.000000
# 3 0.000167 -0.005533 0.013680 0.000000 0.008032 0.000000
# 4 0.000000 0.000000 0.000000 0.067150 0.000000 0.006279
# 5 0.005066 -0.009852 0.008032 0.000000 0.032005 0.000000
# 6 0.000000 0.000000 0.000000 0.006279 0.000000 0.016132
#
#
# Mechanical properties :
#
#
# Convention : Reuss Voigt Hill
#
# Bulk Modulus (GPa) = 59.99999 64.74132 62.37065
# Shear Modulus (GPa) = 24.55027 36.45178 30.50102
#
# Velocity S-wave (km/s) = 3.57820 4.36009 3.98835
# Velocity P-wave (km/s) = 6.95433 7.68839 7.33055
#
# Compressibility (1/GPa) = 0.01666667
#
# Stress axis : x y z
#
# Youngs Moduli (GPa) = 70.93708 45.52259 73.10043
#
# Poissons Ratio (x) = 0.50857 -0.01218
# Poissons Ratio (y) = 0.79249 0.40450
# Poissons Ratio (z) = -0.01182 0.25190
#
# Static dielectric constant tensor:
#      x y z
#    x 1.689180 0.000000 -0.015390 
#    y 0.000000 1.662690 0.000000 
#    z -0.015390 0.000000 1.713520 
# 
# From -- ./inp_files/84050.got.cif
#   From: 2010.05.17/outbox.cif.g08.bks.cpg/sg10_43_cif.got.tgz:84050.got - 2010.06.03 11:33:40.
