data_PCOD9146140
_publ_section_title
;
Structure prediction by ZEFSAII (Michael W. Deem and Ramdas Pophale) SiO2 
 PCOD9146140
Probable space group: P 2/M
;
_chemical_formula_sum "Si O2"
_cell_formula_units_Z 28
_cell_length_a 15.096996
_cell_length_b 13.923631
_cell_length_c 9.545747
_cell_angle_alpha 90.000000
_cell_angle_beta 134.180482
_cell_angle_gamma 90.000000
_cell_volume 1439.003305
_symmetry_space_group_name_H-M "P 2/M"
_symmetry_group_IT_number 10
_symmetry_cell_setting 'monoclinic'
loop_
_space_group_symop_operation_xyz
x,y,z
-x,y,-z
-x,-y,-z
x,-y,z
loop_
_atom_site_type_symbol
_atom_site_label
_atom_site_fract_x
_atom_site_fract_y
_atom_site_fract_z
Si Si1 0.142620 0.888452 0.390160
Si Si2 0.064402 0.753076 0.711984
Si Si3 0.722739 0.887911 0.178850
Si Si4 0.329253 0.885458 0.372581
Si Si5 0.618657 0.608684 0.731146
Si Si6 0.566849 0.806080 0.789661
Si Si7 0.891684 0.385985 0.987145
O O1 0.032594 0.821709 0.316644
O O2 0.251262 0.878206 0.626993
O O3 0.198848 0.865488 0.301086
O O4 0.104351 0.000000 0.351012
O O5 0.000000 0.714845 0.500000
O O6 0.176731 0.819634 0.784694
O O7 0.098444 0.669879 0.856213
O O8 0.742663 0.000000 0.167229
O O9 0.595069 0.853980 0.969131
O O10 0.434144 0.830899 0.577607
O O11 0.342214 0.853147 0.227236
O O12 0.352128 0.000000 0.408252
O O13 0.500000 0.612770 0.500000
O O14 0.627531 0.500000 0.798246
O O15 0.595876 0.693061 0.817272
O O16 0.746705 0.627258 0.787592
O O17 0.910236 0.500000 0.026739
O O18 0.000000 0.353789 0.000000
#
# Coordination Sequence:
#
# PCOD9146140 Si02
#       7
#     4   4   4   4   4   4   4
#     4   9  20  35  51  74 108 146 179 214 263 321
#     4  10  20  34  55  79 108 142 181 222 270 319
#     4  10  19  33  52  75 104 141 181 218 258 317
#     4  10  20  33  49  76 111 140 173 221 271 318
#     4  10  20  36  57  81 108 141 181 223 275 331
#     4  11  19  32  53  78 101 136 178 223 268 316
#     4  10  22  38  58  84 111 140 181 232 278 326
#
# _framework density 19.457912
#
# number of rings (size 3 to 8) (size 9 to 14) (size 15 to 20)
#    0.000    2.000    2.857    2.143    2.000    2.571 
#    0.000    2.143    0.000    3.429    0.000    1.000 
#    0.000    0.571    0.000    0.000    0.000    0.000 
#
# Total GULP energy -156213.987427 kJ/mol
# GULP energy per Si atom -5579.070980 kJ/mol
# Density = 1.941362 g / cm^3
# Si number density = 19.457912 Si / 1000 Ang^3
#
#
#
# Elastic Constant Matrix: (Units=GPa)
#
#
# Indices 1 2 3 4 5 6 
#
# 1 79.8714 21.7492 15.7103 0.0000 -2.6902 0.0000
# 2 21.7492 74.9133 11.0791 0.0000 -2.0653 0.0000
# 3 15.7103 11.0791 54.6590 0.0000 10.3511 0.0000
# 4 0.0000 0.0000 0.0000 16.6477 0.0000 -2.9031
# 5 -2.6902 -2.0653 10.3511 0.0000 15.7623 0.0000
# 6 0.0000 0.0000 0.0000 -2.9031 0.0000 2.8332
#
#
#
# Elastic Compliance Matrix: (Units=1/GPa)
#
#
# Indices 1 2 3 4 5 6 
#
# 1 0.014482 -0.003418 -0.004400 0.000000 0.004913 0.000000
# 2 -0.003418 0.014810 -0.002600 0.000000 0.003064 0.000000
# 3 -0.004400 -0.002600 0.023176 0.000000 -0.016311 0.000000
# 4 0.000000 0.000000 0.000000 0.073137 0.000000 0.074939
# 5 0.004913 0.003064 -0.016311 0.000000 0.075394 0.000000
# 6 0.000000 0.000000 0.000000 0.074939 0.000000 0.429742
#
#
# Mechanical properties :
#
#
# Convention : Reuss Voigt Hill
#
# Bulk Modulus (GPa) = 31.61385 34.05788 32.83586
# Shear Modulus (GPa) = 7.55149 17.77564 12.66356
#
# Velocity S-wave (km/s) = 1.97215 3.02577 2.55388
# Velocity P-wave (km/s) = 4.63340 5.45421 5.06047
#
# Compressibility (1/GPa) = 0.03163170
#
# Stress axis : x y z
#
# Youngs Moduli (GPa) = 69.05185 67.52127 43.14842
#
# Poissons Ratio (x) = 0.23081 0.18985
# Poissons Ratio (y) = 0.23604 0.11218
# Poissons Ratio (z) = 0.30383 0.17554
#
# Static dielectric constant tensor:
#      x y z
#    x 1.685730 0.000000 0.035960 
#    y 0.000000 1.674890 0.000000 
#    z 0.035960 0.000000 1.699620 
# 
# From -- ./inp_files/29590.got.cif
#   From: 2010.05.17/outbox.cif.g08.bks.cpg/sg10_15_cif.got.tgz:29590.got - 2010.06.03 11:33:40.
