data_PCOD9146049
_publ_section_title
;
Structure prediction by ZEFSAII (Michael W. Deem and Ramdas Pophale) SiO2 
 PCOD9146049
Probable space group: P 2/M
;
_chemical_formula_sum "Si O2"
_cell_formula_units_Z 32
_cell_length_a 12.290423
_cell_length_b 7.540041
_cell_length_c 28.459470
_cell_angle_alpha 90.000000
_cell_angle_beta 148.168366
_cell_angle_gamma 90.000000
_cell_volume 1391.002853
_symmetry_space_group_name_H-M "P 2/M"
_symmetry_group_IT_number 10
_symmetry_cell_setting 'monoclinic'
loop_
_space_group_symop_operation_xyz
x,y,z
-x,y,-z
-x,-y,-z
x,-y,z
loop_
_atom_site_type_symbol
_atom_site_label
_atom_site_fract_x
_atom_site_fract_y
_atom_site_fract_z
Si Si1 0.923002 0.297807 0.521416
Si Si2 0.146293 0.783819 0.974098
Si Si3 0.884838 0.708866 0.707926
Si Si4 0.306690 0.783853 0.185839
Si Si5 0.004936 0.705108 0.653538
Si Si6 0.737676 0.214172 0.087371
Si Si7 0.540622 0.793383 0.657046
Si Si8 0.465910 0.784680 0.822135
O O1 0.006760 0.500000 0.552275
O O2 0.986000 0.213525 0.594515
O O3 0.675620 0.299487 0.431455
O O4 0.000000 0.218038 0.500000
O O5 0.164189 0.731843 0.926319
O O6 0.924728 0.726546 0.912029
O O7 0.148713 0.000000 0.976697
O O8 0.346979 0.726241 0.075961
O O9 0.847252 0.500000 0.690649
O O10 0.888998 0.782936 0.656343
O O11 0.708553 0.781181 0.677506
O O12 0.107980 0.732838 0.814537
O O13 0.362517 0.726199 0.258642
O O14 0.471620 0.730405 0.207606
O O15 0.303348 0.000000 0.184481
O O16 0.936694 0.500000 0.623894
O O17 0.245598 0.710720 0.754693
O O18 0.730962 0.000000 0.086126
O O19 0.500000 0.276170 0.000000
O O20 0.489903 0.000000 0.645249
O O21 0.453637 0.000000 0.819907
#
# Coordination Sequence:
#
# PCOD9146049 Si02
#       8
#     4   4   4   4   4   4   4   4
#     4  10  22  42  66  89 115 151 190 229 286 358
#     4   9  16  29  50  80 115 147 183 230 284 336
#     4  11  23  39  58  81 114 156 197 234 282 346
#     4   9  17  31  53  83 116 147 182 230 288 340
#     4  10  23  41  58  80 115 151 183 232 290 340
#     4  10  19  33  55  82 114 153 197 244 288 331
#     4  11  22  38  62  89 119 151 189 244 293 334
#     4  10  19  32  57  86 110 146 193 235 279 341
#
# _framework density 23.004985999999999
#
# number of rings (size 3 to 8) (size 9 to 14) (size 15 to 20)
#    0.000    2.000    1.250    2.625    0.000    5.000 
#    0.000    3.750    0.000    0.750    0.000    0.000 
#    0.000    0.000    0.000    0.000    0.000    0.000 
#
# Total GULP energy -178807.305588 kJ/mol
# GULP energy per Si atom -5587.728300 kJ/mol
# Density = 2.295263 g / cm^3
# Si number density = 23.004986 Si / 1000 Ang^3
#
#
#
# Elastic Constant Matrix: (Units=GPa)
#
#
# Indices 1 2 3 4 5 6 
#
# 1 150.4486 -1.9989 38.8898 0.0000 -23.6705 0.0000
# 2 -1.9989 61.7080 -6.9136 0.0000 -5.2785 0.0000
# 3 38.8898 -6.9136 89.0385 0.0000 -4.7234 0.0000
# 4 0.0000 0.0000 0.0000 15.1596 0.0000 6.9466
# 5 -23.6705 -5.2785 -4.7234 0.0000 38.0541 0.0000
# 6 0.0000 0.0000 0.0000 6.9466 0.0000 7.1502
#
#
#
# Elastic Compliance Matrix: (Units=1/GPa)
#
#
# Indices 1 2 3 4 5 6 
#
# 1 0.008262 0.000302 -0.003332 0.000000 0.004768 0.000000
# 2 0.000302 0.016587 0.001297 0.000000 0.002650 0.000000
# 3 -0.003332 0.001297 0.012771 0.000000 -0.000308 0.000000
# 4 0.000000 0.000000 0.000000 0.118894 0.000000 -0.115509
# 5 0.004768 0.002650 -0.000308 0.000000 0.029573 0.000000
# 6 0.000000 0.000000 0.000000 -0.115509 0.000000 0.252075
#
#
# Mechanical properties :
#
#
# Convention : Reuss Voigt Hill
#
# Bulk Modulus (GPa) = 29.28016 40.12775 34.70396
# Shear Modulus (GPa) = 11.03716 30.15396 20.59556
#
# Velocity S-wave (km/s) = 2.19275 3.62437 2.99534
# Velocity P-wave (km/s) = 4.37793 5.91571 5.20393
#
# Compressibility (1/GPa) = 0.03415282
#
# Stress axis : x y z
#
# Youngs Moduli (GPa) = 121.03161 60.28798 78.30270
#
# Poissons Ratio (x) = -0.01821 0.26094
# Poissons Ratio (y) = -0.03656 -0.10152
# Poissons Ratio (z) = 0.40333 -0.07817
#
# Static dielectric constant tensor:
#      x y z
#    x 1.861720 0.000000 -0.028550 
#    y 0.000000 1.894970 0.000000 
#    z -0.028550 0.000000 1.827420 
# 
# From -- ./inp_files/95054.got.cif
#   From: 2010.05.17/outbox.cif.g08.bks.cpg/sg10_48_cif.got.tgz:95054.got - 2010.06.03 11:33:40.
