data_PCOD9146631
_publ_section_title
;
Structure prediction by ZEFSAII (Michael W. Deem and Ramdas Pophale) SiO2 
 PCOD9146631
Probable space group: P 2/M
;
_chemical_formula_sum "Si O2"
_cell_formula_units_Z 32
_cell_length_a 23.317049
_cell_length_b 7.990422
_cell_length_c 15.615005
_cell_angle_alpha 90.000000
_cell_angle_beta 31.867717
_cell_angle_gamma 90.000000
_cell_volume 1535.982859
_symmetry_space_group_name_H-M "P 2/M"
_symmetry_group_IT_number 10
_symmetry_cell_setting 'monoclinic'
loop_
_space_group_symop_operation_xyz
x,y,z
-x,y,-z
-x,-y,-z
x,-y,z
loop_
_atom_site_type_symbol
_atom_site_label
_atom_site_fract_x
_atom_site_fract_y
_atom_site_fract_z
Si Si1 0.275908 0.298997 0.125985
Si Si2 0.251159 0.800159 0.504500
Si Si3 0.510089 0.803399 0.761537
Si Si4 0.797269 0.703935 0.078097
Si Si5 0.555835 0.702497 0.340534
Si Si6 0.874754 0.297640 0.163684
Si Si7 0.912017 0.704723 0.765527
Si Si8 0.845532 0.298916 0.554274
O O1 0.267933 0.500000 0.135562
O O2 0.187120 0.238718 0.168899
O O3 0.236964 0.236539 0.268243
O O4 0.399215 0.260571 0.944645
O O5 0.374821 0.731718 0.352613
O O6 0.185783 0.753288 0.673131
O O7 0.192487 0.741163 0.492959
O O8 0.256567 0.000000 0.494833
O O9 0.500535 0.771609 0.672174
O O10 0.512099 0.000000 0.774871
O O11 0.796729 0.500000 0.081453
O O12 0.681075 0.755067 0.188088
O O13 0.816694 0.761888 0.150076
O O14 0.887763 0.753994 0.894416
O O15 0.500000 0.751714 0.500000
O O16 0.552209 0.500000 0.339066
O O17 0.874997 0.500000 0.161873
O O18 0.000000 0.241840 0.000000
O O19 0.911741 0.500000 0.763439
O O20 0.031254 0.761670 0.586530
O O21 0.849099 0.500000 0.557201
#
# Coordination Sequence:
#
# PCOD9146631 Si02
#       8
#     4   4   4   4   4   4   4   4
#     4  10  20  37  63  91 117 147 189 244 301 350
#     4  11  25  42  57  79 118 164 201 239 289 344
#     4  11  24  40  57  80 117 161 200 238 285 345
#     4   9  16  28  52  85 115 144 178 225 287 342
#     4  10  19  33  56  84 112 145 188 239 290 338
#     4  10  20  36  61  90 117 150 195 243 287 340
#     4   9  16  32  59  91 122 144 177 235 300 357
#     4  10  21  37  62  91 114 146 194 248 298 348
#
# _framework density 20.833566000000001
#
# number of rings (size 3 to 8) (size 9 to 14) (size 15 to 20)
#    0.000    2.000    1.250    2.625    0.000    8.000 
#    0.000    3.750    0.000    1.500    0.000    0.000 
#    0.000    0.000    0.000    0.000    0.000    0.000 
#
# Total GULP energy -178725.903481 kJ/mol
# GULP energy per Si atom -5585.184484 kJ/mol
# Density = 2.078615 g / cm^3
# Si number density = 20.833566 Si / 1000 Ang^3
#
#
#
# Elastic Constant Matrix: (Units=GPa)
#
#
# Indices 1 2 3 4 5 6 
#
# 1 76.8234 6.6305 53.8898 0.0000 -3.3151 0.0000
# 2 6.6305 14.8539 11.5927 0.0000 -1.7926 0.0000
# 3 53.8898 11.5927 155.7779 0.0000 -1.2152 0.0000
# 4 0.0000 0.0000 0.0000 7.8351 0.0000 -30.4105
# 5 -3.3151 -1.7926 -1.2152 0.0000 40.0157 0.0000
# 6 0.0000 0.0000 0.0000 -30.4105 0.0000 8.2293
#
#
#
# Elastic Compliance Matrix: (Units=1/GPa)
#
#
# Indices 1 2 3 4 5 6 
#
# 1 0.017384 -0.003119 -0.005773 0.000000 0.001125 0.000000
# 2 -0.003119 0.072405 -0.004287 0.000000 0.002855 0.000000
# 3 -0.005773 -0.004287 0.008732 0.000000 -0.000405 0.000000
# 4 0.000000 0.000000 0.000000 -0.009565 0.000000 -0.035348
# 5 0.001125 0.002855 -0.000405 0.000000 0.025199 0.000000
# 6 0.000000 0.000000 0.000000 -0.035348 0.000000 -0.009107
#
#
# Mechanical properties :
#
#
# Convention : Reuss Voigt Hill
#
# Bulk Modulus (GPa) = 13.85735 43.52011 28.68873
# Shear Modulus (GPa) = 32.16266 22.90551 27.53409
#
# Velocity S-wave (km/s) = 3.93337 3.31940 3.63935
# Velocity P-wave (km/s) = 5.22441 5.96875 5.60894
#
# Compressibility (1/GPa) = 0.07216385
#
# Stress axis : x y z
#
# Youngs Moduli (GPa) = 57.52336 13.81126 114.51609
#
# Poissons Ratio (x) = 0.04307 0.66111
# Poissons Ratio (y) = 0.17939 0.49094
# Poissons Ratio (z) = 0.33208 0.05921
#
# Static dielectric constant tensor:
#      x y z
#    x 1.733240 0.000000 -0.013750 
#    y 0.000000 1.760740 0.000000 
#    z -0.013750 0.000000 1.751690 
# 
# From -- ./inp_files/71521.got.cif
#   From: 2010.05.17/outbox.cif.g08.bks.cpg/sg10_36_cif.got.tgz:71521.got - 2010.06.03 11:33:40.
