data_PCOD9146368
_publ_section_title
;
Structure prediction by ZEFSAII (Michael W. Deem and Ramdas Pophale) SiO2 
 PCOD9146368
Probable space group: P 2/M
;
_chemical_formula_sum "Si O2"
_cell_formula_units_Z 30
_cell_length_a 14.571294
_cell_length_b 12.590981
_cell_length_c 10.473011
_cell_angle_alpha 90.000000
_cell_angle_beta 119.197408
_cell_angle_gamma 90.000000
_cell_volume 1677.319154
_symmetry_space_group_name_H-M "P 2/M"
_symmetry_group_IT_number 10
_symmetry_cell_setting 'monoclinic'
loop_
_space_group_symop_operation_xyz
x,y,z
-x,y,-z
-x,-y,-z
x,-y,z
loop_
_atom_site_type_symbol
_atom_site_label
_atom_site_fract_x
_atom_site_fract_y
_atom_site_fract_z
Si Si1 0.674325 0.120889 0.942283
Si Si2 0.500000 0.225998 0.000000
Si Si3 0.124832 0.118535 0.571707
Si Si4 0.334418 0.377537 0.753565
Si Si5 0.377975 0.879653 0.389994
Si Si6 0.975847 0.627294 0.836052
Si Si7 0.221941 0.270440 0.434710
Si Si8 0.823291 0.722803 0.166639
O O1 0.580406 0.154765 0.973276
O O2 0.637180 0.122115 0.771803
O O3 0.710301 0.000000 0.996092
O O4 0.761586 0.212352 0.016626
O O5 0.430404 0.300468 0.858894
O O6 0.157598 0.180438 0.467617
O O7 0.162322 0.188132 0.715349
O O8 0.000000 0.112957 0.500000
O O9 0.169281 0.000000 0.603609
O O10 0.366852 0.500000 0.766143
O O11 0.279178 0.340100 0.583994
O O12 0.250024 0.363109 0.811816
O O13 0.500000 0.861576 0.500000
O O14 0.307378 0.790984 0.408644
O O15 0.350602 0.000000 0.416628
O O16 0.979572 0.500000 0.829862
O O17 0.862932 0.666612 0.707910
O O18 0.068299 0.675762 0.810889
O O19 0.000000 0.657062 0.000000
#
# Coordination Sequence:
#
# PCOD9146368 Si02
#       8
#     4   2   4   4   4   4   4   4
#     4  10  20  35  57  84 113 145 183 225 272 333
#     4  10  20  36  58  84 114 144 180 228 286 330
#     4  10  19  33  54  81 113 143 175 219 270 327
#     4  10  21  35  57  82 109 143 185 234 279 325
#     4  10  21  37  57  82 113 147 183 224 274 332
#     4  11  23  38  56  77 107 146 189 232 275 322
#     4  11  21  37  58  82 110 148 188 227 275 329
#     4  10  20  36  54  81 110 144 180 224 277 327
#
# _framework density 17.885684000000001
#
# number of rings (size 3 to 8) (size 9 to 14) (size 15 to 20)
#    0.000    1.733    1.333    3.600    0.000    0.000 
#    0.000    6.000    0.000   12.800    0.000    0.000 
#    0.000    0.000    0.000    0.000    0.000    0.000 
#
# Total GULP energy -167390.214416 kJ/mol
# GULP energy per Si atom -5579.673814 kJ/mol
# Density = 1.784498 g / cm^3
# Si number density = 17.885684 Si / 1000 Ang^3
#
#
#
# Elastic Constant Matrix: (Units=GPa)
#
#
# Indices 1 2 3 4 5 6 
#
# 1 59.6828 27.6175 22.9532 0.0000 5.6387 0.0000
# 2 27.6175 90.3215 35.8249 0.0000 -4.5956 0.0000
# 3 22.9532 35.8249 101.3148 0.0000 10.9865 0.0000
# 4 0.0000 0.0000 0.0000 20.6247 0.0000 2.3561
# 5 5.6387 -4.5956 10.9865 0.0000 26.4458 0.0000
# 6 0.0000 0.0000 0.0000 2.3561 0.0000 23.6538
#
#
#
# Elastic Compliance Matrix: (Units=1/GPa)
#
#
# Indices 1 2 3 4 5 6 
#
# 1 0.020644 -0.005674 -0.002185 0.000000 -0.004480 0.000000
# 2 -0.005674 0.014927 -0.004613 0.000000 0.005720 0.000000
# 3 -0.002185 -0.004613 0.012601 0.000000 -0.005570 0.000000
# 4 0.000000 0.000000 0.000000 0.049044 0.000000 -0.004885
# 5 -0.004480 0.005720 -0.005570 0.000000 0.042077 0.000000
# 6 0.000000 0.000000 0.000000 -0.004885 0.000000 0.042763
#
#
# Mechanical properties :
#
#
# Convention : Reuss Voigt Hill
#
# Bulk Modulus (GPa) = 43.05093 47.12335 45.08714
# Shear Modulus (GPa) = 23.28379 25.13976 24.21177
#
# Velocity S-wave (km/s) = 3.61198 3.75317 3.68325
# Velocity P-wave (km/s) = 6.44341 6.72205 6.58420
#
# Compressibility (1/GPa) = 0.02322830
#
# Stress axis : x y z
#
# Youngs Moduli (GPa) = 48.43972 66.99190 79.36180
#
# Poissons Ratio (x) = 0.38009 0.17341
# Poissons Ratio (y) = 0.27483 0.36611
# Poissons Ratio (z) = 0.10584 0.30904
#
# Static dielectric constant tensor:
#      x y z
#    x 1.596540 0.000000 0.035880 
#    y 0.000000 1.606060 0.000000 
#    z 0.035880 0.000000 1.656590 
# 
# From -- ./inp_files/28637.got.cif
#   From: 2010.05.17/outbox.cif.g08.bks.cpg/sg10_15_cif.got.tgz:28637.got - 2010.06.03 11:33:40.
