data_PCOD9146595
_publ_section_title
;
Structure prediction by ZEFSAII (Michael W. Deem and Ramdas Pophale) SiO2 
 PCOD9146595
Probable space group: P 2/M
;
_chemical_formula_sum "Si O2"
_cell_formula_units_Z 28
_cell_length_a 12.673864
_cell_length_b 8.982157
_cell_length_c 15.390437
_cell_angle_alpha 90.000000
_cell_angle_beta 105.364474
_cell_angle_gamma 90.000000
_cell_volume 1689.408720
_symmetry_space_group_name_H-M "P 2/M"
_symmetry_group_IT_number 10
_symmetry_cell_setting 'monoclinic'
loop_
_space_group_symop_operation_xyz
x,y,z
-x,y,-z
-x,-y,-z
x,-y,z
loop_
_atom_site_type_symbol
_atom_site_label
_atom_site_fract_x
_atom_site_fract_y
_atom_site_fract_z
Si Si1 0.411566 0.820680 0.604890
Si Si2 0.613230 0.677457 0.217131
Si Si3 0.260190 0.177384 0.912464
Si Si4 0.341943 0.821407 0.400222
Si Si5 0.201291 0.678888 0.224143
Si Si6 0.970751 0.678101 0.094518
Si Si7 0.364545 0.321688 0.102967
O O1 0.372940 0.740646 0.683134
O O2 0.347008 0.779095 0.502835
O O3 0.539083 0.782662 0.614278
O O4 0.405496 0.000000 0.613398
O O5 0.628754 0.500000 0.219090
O O6 0.692617 0.755097 0.165920
O O7 0.487984 0.708271 0.160204
O O8 0.137668 0.235624 0.902600
O O9 0.263609 0.000000 0.911227
O O10 0.333195 0.238862 0.008061
O O11 0.248950 0.748034 0.322024
O O12 0.332605 0.000000 0.394280
O O13 0.206429 0.500000 0.230907
O O14 0.280372 0.722363 0.161029
O O15 0.077263 0.720158 0.173725
O O16 0.951801 0.500000 0.099128
O O17 0.000000 0.705199 0.000000
O O18 0.353071 0.500000 0.086452
#
# Coordination Sequence:
#
# PCOD9146595 Si02
#       7
#     4   4   4   4   4   4   4
#     4   9  18  33  52  78 112 146 177 213 265 321
#     4  11  22  36  56  79 108 146 183 221 265 317
#     4  12  25  37  53  78 109 144 184 224 265 320
#     4   9  18  32  52  79 113 146 173 214 270 321
#     4  10  19  33  56  82 108 140 180 222 265 313
#     4  10  20  38  59  76 104 143 181 224 269 312
#     4  10  20  36  54  78 110 145 180 216 265 319
#
# _framework density 16.573844999999999
#
# number of rings (size 3 to 8) (size 9 to 14) (size 15 to 20)
#    0.000    1.857    2.857    3.000    0.000    4.857 
#    0.000    1.429    0.000    0.857    0.000    6.000 
#    0.000    0.000    0.000    0.000    0.000    0.000 
#
# Total GULP energy -156347.497317 kJ/mol
# GULP energy per Si atom -5583.839190 kJ/mol
# Density = 1.653612 g / cm^3
# Si number density = 16.573845 Si / 1000 Ang^3
#
#
#
# Elastic Constant Matrix: (Units=GPa)
#
#
# Indices 1 2 3 4 5 6 
#
# 1 71.4670 44.1780 56.3262 0.0000 -15.9124 0.0000
# 2 44.1780 46.8542 56.7728 0.0000 -7.8244 0.0000
# 3 56.3262 56.7728 157.6734 0.0000 -6.4272 0.0000
# 4 0.0000 0.0000 0.0000 35.1281 0.0000 1.3867
# 5 -15.9124 -7.8244 -6.4272 0.0000 25.6365 0.0000
# 6 0.0000 0.0000 0.0000 1.3867 0.0000 28.3358
#
#
#
# Elastic Compliance Matrix: (Units=1/GPa)
#
#
# Indices 1 2 3 4 5 6 
#
# 1 0.037524 -0.031162 -0.001640 0.000000 0.013369 0.000000
# 2 -0.031162 0.065536 -0.012567 0.000000 -0.002490 0.000000
# 3 -0.001640 -0.012567 0.011371 0.000000 -0.002002 0.000000
# 4 0.000000 0.000000 0.000000 0.028522 0.000000 -0.001396
# 5 0.013369 -0.002490 -0.002002 0.000000 0.046043 0.000000
# 6 0.000000 0.000000 0.000000 -0.001396 0.000000 0.035359
#
#
# Mechanical properties :
#
#
# Convention : Reuss Voigt Hill
#
# Bulk Modulus (GPa) = 42.20281 65.61651 53.90966
# Shear Modulus (GPa) = 15.48033 25.73459 20.60746
#
# Velocity S-wave (km/s) = 3.05949 3.94474 3.52997
# Velocity P-wave (km/s) = 6.16437 7.77330 7.01512
#
# Compressibility (1/GPa) = 0.02369511
#
# Stress axis : x y z
#
# Youngs Moduli (GPa) = 26.64932 15.25888 87.94130
#
# Poissons Ratio (x) = 0.47549 0.14420
# Poissons Ratio (y) = 0.83044 1.10513
# Poissons Ratio (z) = 0.04370 0.19175
#
# Static dielectric constant tensor:
#      x y z
#    x 1.538940 0.000000 0.003540 
#    y 0.000000 1.551080 0.000000 
#    z 0.003540 0.000000 1.545200 
# 
# From -- ./inp_files/49171.got.cif
#   From: 2010.05.17/outbox.cif.g08.bks.cpg/sg10_25_cif.got.tgz:49171.got - 2010.06.03 11:33:40.
