data_PCOD9146542
_publ_section_title
;
Structure prediction by ZEFSAII (Michael W. Deem and Ramdas Pophale) SiO2 
 PCOD9146542
Probable space group: P 2/M
;
_chemical_formula_sum "Si O2"
_cell_formula_units_Z 32
_cell_length_a 14.974144
_cell_length_b 10.263066
_cell_length_c 10.979632
_cell_angle_alpha 90.000000
_cell_angle_beta 82.773389
_cell_angle_gamma 90.000000
_cell_volume 1673.953028
_symmetry_space_group_name_H-M "P 2/M"
_symmetry_group_IT_number 10
_symmetry_cell_setting 'monoclinic'
loop_
_space_group_symop_operation_xyz
x,y,z
-x,y,-z
-x,-y,-z
x,-y,z
loop_
_atom_site_type_symbol
_atom_site_label
_atom_site_fract_x
_atom_site_fract_y
_atom_site_fract_z
Si Si1 0.282748 0.651107 0.496816
Si Si2 0.839544 0.144092 0.833786
Si Si3 0.333194 0.354988 0.764323
Si Si4 0.661973 0.155726 0.712966
Si Si5 0.525125 0.649408 0.854050
Si Si6 0.194790 0.143371 0.882781
Si Si7 0.077695 0.349433 0.576180
Si Si8 0.017046 0.291462 0.859345
O O1 0.282884 0.500000 0.448517
O O2 0.328520 0.644488 0.620317
O O3 0.334777 0.757353 0.408779
O O4 0.179121 0.698885 0.533903
O O5 0.762346 0.169188 0.750527
O O6 0.920173 0.244225 0.830632
O O7 0.878655 0.000000 0.805059
O O8 0.793719 0.142010 0.974031
O O9 0.306325 0.500000 0.813174
O O10 0.433050 0.329944 0.795247
O O11 0.260931 0.251111 0.820632
O O12 0.593861 0.235568 0.810551
O O13 0.642882 0.000000 0.704842
O O14 0.557921 0.500000 0.822086
O O15 0.500000 0.653377 0.000000
O O16 0.090699 0.180261 0.876692
O O17 0.213943 0.000000 0.829678
O O18 0.083298 0.500000 0.539269
O O19 0.056801 0.349376 0.725487
O O20 0.000000 0.290648 0.500000
O O21 0.000000 0.351830 0.000000
#
# Coordination Sequence:
#
# PCOD9146542 Si02
#       8
#     4   4   4   4   4   4   4   4
#     4  10  21  39  59  79 114 158 197 236 289 353
#     4   9  19  35  53  79 117 156 190 233 294 355
#     4  10  21  38  60  84 114 152 191 237 293 349
#     4  11  23  39  60  87 119 152 195 246 293 344
#     4  10  22  41  65  91 117 149 191 237 295 364
#     4  10  19  33  57  85 115 152 193 238 290 349
#     4  10  20  35  55  80 116 162 206 247 296 350
#     4  10  19  33  55  84 117 154 200 248 296 353
#
# _framework density 19.116426000000001
#
# number of rings (size 3 to 8) (size 9 to 14) (size 15 to 20)
#    0.000    2.000    1.250    2.250    0.000    3.500 
#    0.000    5.625    0.000    2.625    0.000    0.000 
#    0.000    0.000    0.000    0.000    0.000    0.000 
#
# Total GULP energy -178151.195151 kJ/mol
# GULP energy per Si atom -5567.224848 kJ/mol
# Density = 1.907292 g / cm^3
# Si number density = 19.116426 Si / 1000 Ang^3
#
#
#
# Elastic Constant Matrix: (Units=GPa)
#
#
# Indices 1 2 3 4 5 6 
#
# 1 41.5709 28.8423 6.7629 0.0000 3.8128 0.0000
# 2 28.8423 95.3280 5.3565 0.0000 -13.4198 0.0000
# 3 6.7629 5.3565 46.1580 0.0000 0.4085 0.0000
# 4 0.0000 0.0000 0.0000 31.2362 0.0000 -6.8588
# 5 3.8128 -13.4198 0.4085 0.0000 33.0251 0.0000
# 6 0.0000 0.0000 0.0000 -6.8588 0.0000 2.1061
#
#
#
# Elastic Compliance Matrix: (Units=1/GPa)
#
#
# Indices 1 2 3 4 5 6 
#
# 1 0.032959 -0.010931 -0.003488 0.000000 -0.008204 0.000000
# 2 -0.010931 0.014834 -0.000184 0.000000 0.007292 0.000000
# 3 -0.003488 -0.000184 0.022197 0.000000 0.000053 0.000000
# 4 0.000000 0.000000 0.000000 0.112369 0.000000 0.365954
# 5 -0.008204 0.007292 0.000053 0.000000 0.034190 0.000000
# 6 0.000000 0.000000 0.000000 0.365954 0.000000 1.666626
#
#
# Mechanical properties :
#
#
# Convention : Reuss Voigt Hill
#
# Bulk Modulus (GPa) = 24.51980 29.44227 26.98103
# Shear Modulus (GPa) = 2.59609 22.74650 12.67129
#
# Velocity S-wave (km/s) = 1.16661 3.45322 2.57738
# Velocity P-wave (km/s) = 3.83002 5.59774 4.79603
#
# Compressibility (1/GPa) = 0.04078337
#
# Stress axis : x y z
#
# Youngs Moduli (GPa) = 30.34062 67.41149 45.05173
#
# Poissons Ratio (x) = 0.73687 0.15714
# Poissons Ratio (y) = 0.33165 0.00831
# Poissons Ratio (z) = 0.10583 0.01243
#
# Static dielectric constant tensor:
#      x y z
#    x 1.664460 0.000000 -0.000960 
#    y 0.000000 1.687620 0.000000 
#    z -0.000960 0.000000 1.687050 
# 
# From -- ./inp_files/49965.got.cif
#   From: 2010.05.17/outbox.cif.g08.bks.cpg/sg10_25_cif.got.tgz:49965.got - 2010.06.03 11:33:40.
