data_PCOD9146186
_publ_section_title
;
Structure prediction by ZEFSAII (Michael W. Deem and Ramdas Pophale) SiO2 
 PCOD9146186
Probable space group: P 2/M
;
_chemical_formula_sum "Si O2"
_cell_formula_units_Z 26
_cell_length_a 20.029939
_cell_length_b 8.359585
_cell_length_c 14.527192
_cell_angle_alpha 90.000000
_cell_angle_beta 33.246157
_cell_angle_gamma 90.000000
_cell_volume 1333.565868
_symmetry_space_group_name_H-M "P 2/M"
_symmetry_group_IT_number 10
_symmetry_cell_setting 'monoclinic'
loop_
_space_group_symop_operation_xyz
x,y,z
-x,y,-z
-x,-y,-z
x,-y,z
loop_
_atom_site_type_symbol
_atom_site_label
_atom_site_fract_x
_atom_site_fract_y
_atom_site_fract_z
Si Si1 0.897828 0.809224 0.475279
Si Si2 0.349898 0.191393 0.336154
Si Si3 0.500000 0.757499 0.000000
Si Si4 0.586462 0.306552 0.536359
Si Si5 0.158720 0.688333 0.110730
Si Si6 0.679405 0.305492 0.236820
Si Si7 0.748819 0.181411 0.817677
O O1 0.790572 0.775245 0.526087
O O2 0.847381 0.748442 0.632005
O O3 0.028216 0.751824 0.292678
O O4 0.902542 0.000000 0.480299
O O5 0.430755 0.298564 0.172844
O O6 0.380413 0.227851 0.405635
O O7 0.373585 0.000000 0.289010
O O8 0.620894 0.826277 0.911381
O O9 0.593454 0.500000 0.537255
O O10 0.671315 0.255169 0.352462
O O11 0.449079 0.266020 0.663508
O O12 0.147208 0.500000 0.113026
O O13 0.251721 0.723509 0.087065
O O14 0.213052 0.755080 0.952759
O O15 0.684417 0.500000 0.232988
O O16 0.784223 0.000000 0.800691
#
# Coordination Sequence:
#
# PCOD9146186 Si02
#       7
#     4   4   2   4   4   4   4
#     4   9  20  36  50  68 100 139 169 196 241 298
#     4  10  19  33  53  76 102 129 163 206 246 288
#     4  10  19  34  55  78 103 134 165 194 241 304
#     4   9  17  34  56  74  98 131 162 197 250 303
#     4  11  21  33  51  75 100 128 168 211 244 282
#     4   8  17  33  52  74 100 130 162 199 247 302
#     4  10  19  33  53  74 100 134 167 198 241 298
#
# _framework density 19.496599
#
# number of rings (size 3 to 8) (size 9 to 14) (size 15 to 20)
#    0.000    2.462    0.000    5.077    0.000    3.077 
#    0.000    7.692    0.000    4.615    0.000    0.000 
#    0.000    0.000    0.000    0.000    0.000    0.000 
#
# Total GULP energy -144756.159239 kJ/mol
# GULP energy per Si atom -5567.544586 kJ/mol
# Density = 1.945222 g / cm^3
# Si number density = 19.496599 Si / 1000 Ang^3
#
#
#
# Elastic Constant Matrix: (Units=GPa)
#
#
# Indices 1 2 3 4 5 6 
#
# 1 98.5501 9.2849 47.6423 0.0000 22.5451 0.0000
# 2 9.2849 11.9010 12.1898 0.0000 1.0647 0.0000
# 3 47.6423 12.1898 133.4698 0.0000 15.5814 0.0000
# 4 0.0000 0.0000 0.0000-1110.6294 0.0000 -626.5347
# 5 22.5451 1.0647 15.5814 0.0000 29.0559 0.0000
# 6 0.0000 0.0000 0.0000 -626.5347 0.0000 -326.9448
#
#
#
# Elastic Compliance Matrix: (Units=1/GPa)
#
#
# Indices 1 2 3 4 5 6 
#
# 1 0.014601 -0.006983 -0.003501 0.000000 -0.009196 0.000000
# 2 -0.006983 0.096079 -0.006938 0.000000 0.005619 0.000000
# 3 -0.003501 -0.006938 0.009632 0.000000 -0.002195 0.000000
# 4 0.000000 0.000000 0.000000 0.011109 0.000000 -0.021288
# 5 -0.009196 0.005619 -0.002195 0.000000 0.042523 0.000000
# 6 0.000000 0.000000 0.000000 -0.021288 0.000000 0.037737
#
#
# Mechanical properties :
#
#
# Convention : Reuss Voigt Hill
#
# Bulk Modulus (GPa) = 11.70033 42.46167 27.08100
# Shear Modulus (GPa) = 18.18096 -270.05008 -125.93456
#
# Velocity S-wave (km/s) = 3.05703 -11.78185 -8.04570
# Velocity P-wave (km/s) = 4.29824 12.77719 8.50828
#
# Compressibility (1/GPa) = 0.08546768
#
# Stress axis : x y z
#
# Youngs Moduli (GPa) = 68.48782 10.40814 103.82354
#
# Poissons Ratio (x) = 0.07268 0.36344
# Poissons Ratio (y) = 0.47827 0.72034
# Poissons Ratio (z) = 0.23974 0.07221
#
# Static dielectric constant tensor:
#      x y z
#    x 1.662380 0.000000 0.015980 
#    y 0.000000 1.703190 0.000000 
#    z 0.015980 0.000000 1.721800 
# 
# From -- ./inp_files/49497.got.cif
#   From: 2010.05.17/outbox.cif.g08.bks.cpg/sg10_25_cif.got.tgz:49497.got - 2010.06.03 11:33:40.
