data_PCOD9146993
_publ_section_title
;
Structure prediction by ZEFSAII (Michael W. Deem and Ramdas Pophale) SiO2 
 PCOD9146993
Probable space group: P 2/M
;
_chemical_formula_sum "Si O2"
_cell_formula_units_Z 28
_cell_length_a 15.944672
_cell_length_b 8.793558
_cell_length_c 24.218543
_cell_angle_alpha 90.000000
_cell_angle_beta 26.972409
_cell_angle_gamma 90.000000
_cell_volume 1540.154546
_symmetry_space_group_name_H-M "P 2/M"
_symmetry_group_IT_number 10
_symmetry_cell_setting 'monoclinic'
loop_
_space_group_symop_operation_xyz
x,y,z
-x,y,-z
-x,-y,-z
x,-y,z
loop_
_atom_site_type_symbol
_atom_site_label
_atom_site_fract_x
_atom_site_fract_y
_atom_site_fract_z
Si Si1 0.270991 0.316914 0.934076
Si Si2 0.219495 0.816955 0.196576
Si Si3 0.852520 0.683249 0.190815
Si Si4 0.170801 0.681845 0.565395
Si Si5 0.280996 0.178715 0.617785
Si Si6 0.387576 0.816834 0.982537
Si Si7 0.536619 0.685463 0.289663
O O1 0.282666 0.500000 0.929590
O O2 0.328646 0.252165 0.959279
O O3 0.399020 0.263379 0.808509
O O4 0.056190 0.278587 0.049166
O O5 0.402847 0.774817 0.123260
O O6 0.030913 0.746779 0.328979
O O7 0.206254 0.000000 0.204891
O O8 0.258336 0.770197 0.110075
O O9 0.841216 0.500000 0.202755
O O10 0.822711 0.756082 0.268087
O O11 0.690133 0.732564 0.244655
O O12 0.165117 0.500000 0.567681
O O13 0.225325 0.736643 0.594665
O O14 0.334381 0.734248 0.428456
O O15 0.500000 0.197829 0.500000
O O16 0.240501 0.000000 0.635288
O O17 0.379440 0.000000 0.984231
O O18 0.538036 0.500000 0.288490
#
# Coordination Sequence:
#
# PCOD9146993 Si02
#       7
#     4   4   4   4   4   4   4
#     4  10  20  34  55  80 104 137 180 222 262 305
#     4   9  19  37  59  80 106 137 170 213 267 321
#     4  10  19  34  56  78 103 140 182 221 260 307
#     4  11  21  34  55  80 107 141 177 215 262 311
#     4  11  22  34  50  75 109 142 173 213 260 309
#     4   9  19  37  58  79 105 138 171 213 269 317
#     4   9  19  35  52  74 108 144 177 215 260 310
#
# _framework density 18.179993
#
# number of rings (size 3 to 8) (size 9 to 14) (size 15 to 20)
#    0.000    2.143    1.429    3.000    0.000    6.286 
#    0.000    4.286    0.000    6.000    0.000    0.000 
#    0.000    0.000    0.000    0.000    0.000    0.000 
#
# Total GULP energy -156323.835732 kJ/mol
# GULP energy per Si atom -5582.994133 kJ/mol
# Density = 1.813861 g / cm^3
# Si number density = 18.179993 Si / 1000 Ang^3
#
#
#
# Elastic Constant Matrix: (Units=GPa)
#
#
# Indices 1 2 3 4 5 6 
#
# 1 52.8807 13.7400 58.1683 0.0000 -5.5324 0.0000
# 2 13.7400 16.0301 33.6033 0.0000 -8.1781 0.0000
# 3 58.1683 33.6033 165.7280 0.0000 -9.0278 0.0000
# 4 0.0000 0.0000 0.0000 22.3518 0.0000 -2.4670
# 5 -5.5324 -8.1781 -9.0278 0.0000 23.3295 0.0000
# 6 0.0000 0.0000 0.0000 -2.4670 0.0000 43.1771
#
#
#
# Elastic Compliance Matrix: (Units=1/GPa)
#
#
# Indices 1 2 3 4 5 6 
#
# 1 0.031253 -0.005405 -0.009779 0.000000 0.001733 0.000000
# 2 -0.005405 0.135120 -0.023485 0.000000 0.036997 0.000000
# 3 -0.009779 -0.023485 0.013947 0.000000 -0.005154 0.000000
# 4 0.000000 0.000000 0.000000 0.045023 0.000000 0.002572
# 5 0.001733 0.036997 -0.005154 0.000000 0.054250 0.000000
# 6 0.000000 0.000000 0.000000 0.002572 0.000000 0.023307
#
#
# Mechanical properties :
#
#
# Convention : Reuss Voigt Hill
#
# Bulk Modulus (GPa) = 9.71030 49.51799 29.61415
# Shear Modulus (GPa) = 12.06080 26.38016 19.22048
#
# Velocity S-wave (km/s) = 2.57847 3.81340 3.25504
# Velocity P-wave (km/s) = 3.77061 6.83273 5.51832
#
# Compressibility (1/GPa) = 0.10298339
#
# Stress axis : x y z
#
# Youngs Moduli (GPa) = 31.99687 7.40081 71.69794
#
# Poissons Ratio (x) = 0.04000 0.70115
# Poissons Ratio (y) = 0.17293 1.68382
# Poissons Ratio (z) = 0.31290 0.17381
#
# Static dielectric constant tensor:
#      x y z
#    x 1.597820 0.000000 -0.015960 
#    y 0.000000 1.612550 0.000000 
#    z -0.015960 0.000000 1.632490 
# 
# From -- ./inp_files/49087.got.cif
#   From: 2010.05.17/outbox.cif.g08.bks.cpg/sg10_25_cif.got.tgz:49087.got - 2010.06.03 11:33:40.
