data_PCOD9146307
_publ_section_title
;
Structure prediction by ZEFSAII (Michael W. Deem and Ramdas Pophale) SiO2 
 PCOD9146307
Probable space group: P 2/M
;
_chemical_formula_sum "Si O2"
_cell_formula_units_Z 20
_cell_length_a 7.714423
_cell_length_b 23.598110
_cell_length_c 9.402731
_cell_angle_alpha 90.000000
_cell_angle_beta 147.284067
_cell_angle_gamma 90.000000
_cell_volume 925.144853
_symmetry_space_group_name_H-M "P 2/M"
_symmetry_group_IT_number 10
_symmetry_cell_setting 'monoclinic'
loop_
_space_group_symop_operation_xyz
x,y,z
-x,y,-z
-x,-y,-z
x,-y,z
loop_
_atom_site_type_symbol
_atom_site_label
_atom_site_fract_x
_atom_site_fract_y
_atom_site_fract_z
Si Si1 0.616037 0.062498 0.241395
Si Si2 0.320494 0.819171 0.627821
Si Si3 0.231075 0.563730 0.519478
Si Si4 0.062083 0.241743 0.878078
Si Si5 0.732040 0.368409 0.021562
O O1 0.546592 0.116559 0.292613
O O2 0.000000 0.057954 0.500000
O O3 0.489075 0.000000 0.195446
O O4 0.500000 0.074607 0.000000
O O5 0.584304 0.784153 0.895957
O O6 0.000000 0.822650 0.500000
O O7 0.201102 0.787428 0.403848
O O8 0.354379 0.500000 0.585639
O O9 0.504826 0.609837 0.738687
O O10 0.000000 0.563088 0.500000
O O11 0.997528 0.584074 0.234557
O O12 0.093652 0.308768 0.877491
O O13 0.000000 0.229812 0.000000
O O14 0.500000 0.363631 0.000000
#
# Coordination Sequence:
#
# PCOD9146307 Si02
#       5
#     4   4   4   4   4
#     4   9  17  31  55  88 117 141 181 239 290 330
#     4  11  21  38  62  86 112 149 197 239 280 338
#     4   9  17  30  52  81 107 132 173 232 284 326
#     4  12  25  39  56  82 120 157 191 237 290 338
#     4  10  19  33  54  78 105 142 187 227 271 335
#
# _framework density 21.618236
#
# number of rings (size 3 to 8) (size 9 to 14) (size 15 to 20)
#    0.000    1.800    0.000    6.600    0.000    4.000 
#    0.000    0.000    0.000    7.200    0.000    0.000 
#    0.000    0.000    0.000    0.000    0.000    0.000 
#
# Total GULP energy -111668.719149 kJ/mol
# GULP energy per Si atom -5583.435957 kJ/mol
# Density = 2.156903 g / cm^3
# Si number density = 21.618236 Si / 1000 Ang^3
#
#
#
# Elastic Constant Matrix: (Units=GPa)
#
#
# Indices 1 2 3 4 5 6 
#
# 1 31.8545 7.5718 8.6562 0.0000 -9.2455 0.0000
# 2 7.5718 157.1340 39.0379 0.0000 -6.4352 0.0000
# 3 8.6562 39.0379 134.4137 0.0000 -0.2107 0.0000
# 4 0.0000 0.0000 0.0000 31.8827 0.0000 -12.5775
# 5 -9.2455 -6.4352 -0.2107 0.0000 16.9480 0.0000
# 6 0.0000 0.0000 0.0000 -12.5775 0.0000 -30.4195
#
#
#
# Elastic Compliance Matrix: (Units=1/GPa)
#
#
# Indices 1 2 3 4 5 6 
#
# 1 0.038094 -0.000421 -0.002299 0.000000 0.020593 0.000000
# 2 -0.000421 0.006978 -0.001996 0.000000 0.002395 0.000000
# 3 -0.002299 -0.001996 0.008164 0.000000 -0.001910 0.000000
# 4 0.000000 0.000000 0.000000 0.026966 0.000000 -0.011150
# 5 0.020593 0.002395 -0.001910 0.000000 0.071124 0.000000
# 6 0.000000 0.000000 0.000000 -0.011150 0.000000 -0.028264
#
#
# Mechanical properties :
#
#
# Convention : Reuss Voigt Hill
#
# Bulk Modulus (GPa) = 22.82810 48.21489 35.52149
# Shear Modulus (GPa) = 33.99121 21.55799 27.77460
#
# Velocity S-wave (km/s) = 3.96958 3.16129 3.58827
# Velocity P-wave (km/s) = 5.62073 5.97297 5.79952
#
# Compressibility (1/GPa) = 0.04380566
#
# Stress axis : x y z
#
# Youngs Moduli (GPa) = 26.25058 143.30313 122.48296
#
# Poissons Ratio (x) = 0.06036 0.28154
# Poissons Ratio (y) = 0.01106 0.24445
# Poissons Ratio (z) = 0.06034 0.28601
#
# Static dielectric constant tensor:
#      x y z
#    x 1.856120 0.000000 0.011510 
#    y 0.000000 1.823880 0.000000 
#    z 0.011510 0.000000 1.739600 
# 
# From -- ./inp_files/15267.got.cif
#   From: 2010.05.17/outbox.cif.g08.bks.cpg/sg10_8_cif.got.tgz:15267.got - 2010.06.03 11:33:40.
