data_PCOD9146492
_publ_section_title
;
Structure prediction by ZEFSAII (Michael W. Deem and Ramdas Pophale) SiO2 
 PCOD9146492
Probable space group: P 2/M
;
_chemical_formula_sum "Si O2"
_cell_formula_units_Z 32
_cell_length_a 13.267001
_cell_length_b 10.099248
_cell_length_c 13.869985
_cell_angle_alpha 90.000000
_cell_angle_beta 111.674548
_cell_angle_gamma 90.000000
_cell_volume 1726.999448
_symmetry_space_group_name_H-M "P 2/M"
_symmetry_group_IT_number 10
_symmetry_cell_setting 'monoclinic'
loop_
_space_group_symop_operation_xyz
x,y,z
-x,y,-z
-x,-y,-z
x,-y,z
loop_
_atom_site_type_symbol
_atom_site_label
_atom_site_fract_x
_atom_site_fract_y
_atom_site_fract_z
Si Si1 0.743857 0.647179 0.520445
Si Si2 0.779395 0.151820 0.808890
Si Si3 0.384942 0.346223 0.906039
Si Si4 0.944275 0.841237 0.582184
Si Si5 0.993096 0.159681 0.189041
Si Si6 0.414775 0.779251 0.392990
Si Si7 0.574321 0.347363 0.296426
Si Si8 0.235760 0.839644 0.982042
O O1 0.790068 0.500000 0.549953
O O2 0.833688 0.760242 0.556584
O O3 0.647789 0.670101 0.564327
O O4 0.684939 0.655611 0.396583
O O5 0.686079 0.150906 0.695322
O O6 0.891713 0.212976 0.809645
O O7 0.806568 0.000000 0.841108
O O8 0.742214 0.204322 0.899711
O O9 0.344510 0.500000 0.889320
O O10 0.405044 0.298917 0.803806
O O11 0.308150 0.245746 0.935480
O O12 0.500000 0.348079 0.000000
O O13 0.000000 0.809278 0.500000
O O14 0.016808 0.806090 0.701294
O O15 0.923540 0.000000 0.576266
O O16 0.889348 0.191881 0.088337
O O17 0.999457 0.000000 0.190000
O O18 0.500000 0.843046 0.500000
O O19 0.487024 0.727961 0.330273
O O20 0.538228 0.500000 0.276155
O O21 0.252993 0.000000 0.976961
#
# Coordination Sequence:
#
# PCOD9146492 Si02
#       8
#     4   4   4   4   4   4   4   4
#     4  10  20  35  56  83 110 142 184 230 276 323
#     4  10  19  34  56  82 112 145 185 234 280 328
#     4  10  21  38  58  80 111 151 186 222 279 337
#     4  10  21  36  56  81 113 147 181 222 274 334
#     4   9  18  35  57  81 109 145 186 224 273 334
#     4  10  19  33  55  81 110 146 186 229 278 332
#     4   9  19  35  54  76 107 145 185 226 272 333
#     4  10  21  36  60  86 109 144 190 235 277 324
#
# _framework density 18.529247000000002
#
# number of rings (size 3 to 8) (size 9 to 14) (size 15 to 20)
#    0.000    2.250    1.250    1.500    1.750    3.750 
#    0.000    3.750    0.000    0.750    0.000    0.000 
#    0.000    0.000    0.000    0.000    0.000    0.000 
#
# Total GULP energy -178183.344662 kJ/mol
# GULP energy per Si atom -5568.229521 kJ/mol
# Density = 1.848707 g / cm^3
# Si number density = 18.529247 Si / 1000 Ang^3
#
#
#
# Elastic Constant Matrix: (Units=GPa)
#
#
# Indices 1 2 3 4 5 6 
#
# 1 90.7866 31.1588 49.7571 0.0000 -10.3378 0.0000
# 2 31.1588 38.8043 23.0120 0.0000 -8.3377 0.0000
# 3 49.7571 23.0120 132.2748 0.0000 -23.7713 0.0000
# 4 0.0000 0.0000 0.0000 15.5966 0.0000 -1.7200
# 5 -10.3378 -8.3377 -23.7713 0.0000 34.3966 0.0000
# 6 0.0000 0.0000 0.0000 -1.7200 0.0000 8.8623
#
#
#
# Elastic Compliance Matrix: (Units=1/GPa)
#
#
# Indices 1 2 3 4 5 6 
#
# 1 0.017403 -0.011347 -0.004712 0.000000 -0.000776 0.000000
# 2 -0.011347 0.036625 -0.001280 0.000000 0.004583 0.000000
# 3 -0.004712 -0.001280 0.010556 0.000000 0.005569 0.000000
# 4 0.000000 0.000000 0.000000 0.065519 0.000000 0.012716
# 5 -0.000776 0.004583 0.005569 0.000000 0.033799 0.000000
# 6 0.000000 0.000000 0.000000 0.012716 0.000000 0.115306
#
#
# Mechanical properties :
#
#
# Convention : Reuss Voigt Hill
#
# Bulk Modulus (GPa) = 33.43675 52.19128 42.81402
# Shear Modulus (GPa) = 15.43904 22.30027 18.86965
#
# Velocity S-wave (km/s) = 2.88970 3.47294 3.19466
# Velocity P-wave (km/s) = 5.40540 6.65656 6.06334
#
# Compressibility (1/GPa) = 0.02990721
#
# Stress axis : x y z
#
# Youngs Moduli (GPa) = 57.46045 27.30352 94.73350
#
# Poissons Ratio (x) = 0.30981 0.44639
# Poissons Ratio (y) = 0.65199 0.12124
# Poissons Ratio (z) = 0.27075 0.03494
#
# Static dielectric constant tensor:
#      x y z
#    x 1.636610 0.000000 -0.006630 
#    y 0.000000 1.638110 0.000000 
#    z -0.006630 0.000000 1.667130 
# 
# From -- ./inp_files/47027.got.cif
#   From: 2010.05.17/outbox.cif.g08.bks.cpg/sg10_24_cif.got.tgz:47027.got - 2010.06.03 11:33:40.
