data_PCOD9146077
_publ_section_title
;
Structure prediction by ZEFSAII (Michael W. Deem and Ramdas Pophale) SiO2 
 PCOD9146077
Probable space group: P 2/M
;
_chemical_formula_sum "Si O2"
_cell_formula_units_Z 28
_cell_length_a 20.489758
_cell_length_b 8.711206
_cell_length_c 15.863105
_cell_angle_alpha 90.000000
_cell_angle_beta 141.099676
_cell_angle_gamma 90.000000
_cell_volume 1778.035595
_symmetry_space_group_name_H-M "P 2/M"
_symmetry_group_IT_number 10
_symmetry_cell_setting 'monoclinic'
loop_
_space_group_symop_operation_xyz
x,y,z
-x,y,-z
-x,-y,-z
x,-y,z
loop_
_atom_site_type_symbol
_atom_site_label
_atom_site_fract_x
_atom_site_fract_y
_atom_site_fract_z
Si Si1 0.379115 0.814539 0.149157
Si Si2 0.376665 0.181226 0.780278
Si Si3 0.224452 0.185047 0.318629
Si Si4 0.388162 0.317364 0.614342
Si Si5 0.222510 0.318253 0.128224
Si Si6 0.005613 0.176099 0.903467
Si Si7 0.371687 0.819511 0.957860
O O1 0.495667 0.750941 0.277885
O O2 0.304544 0.757735 0.147722
O O3 0.384049 0.000000 0.152625
O O4 0.338088 0.759541 0.015513
O O5 0.347393 0.269388 0.666283
O O6 0.338342 0.242786 0.832795
O O7 0.350787 0.000000 0.745704
O O8 0.502590 0.189423 0.911777
O O9 0.313516 0.246757 0.468781
O O10 0.235885 0.251199 0.235925
O O11 0.109519 0.229167 0.237707
O O12 0.226387 0.000000 0.315829
O O13 0.392401 0.500000 0.611270
O O14 0.236396 0.500000 0.144217
O O15 0.105366 0.275956 0.981476
O O16 0.022493 0.000000 0.892684
O O17 0.000000 0.173958 0.000000
O O18 0.345036 0.000000 0.928133
#
# Coordination Sequence:
#
# PCOD9146077 Si02
#       7
#     4   4   4   4   4   4   4
#     4  10  19  33  49  66  93 129 163 190 222 270
#     4   8  13  26  45  64  87 118 154 188 225 268
#     4  10  20  35  52  68  89 123 162 193 224 268
#     4  11  21  31  44  69 100 125 153 190 234 279
#     4  11  21  32  48  72  98 121 149 190 237 277
#     4   8  16  32  52  70  87 113 154 195 227 267
#     4   7  12  24  45  66  84 114 157 195 220 256
#
# _framework density 15.747716
#
# number of rings (size 3 to 8) (size 9 to 14) (size 15 to 20)
#    0.000    2.714    0.000    6.000    0.000    3.714 
#    0.000    9.286    0.000    0.000    0.000    1.000 
#    0.000    8.000    0.000    0.000    0.000    0.000 
#
# Total GULP energy -155874.463656 kJ/mol
# GULP energy per Si atom -5566.945131 kJ/mol
# Density = 1.571187 g / cm^3
# Si number density = 15.747716 Si / 1000 Ang^3
#
#
#
# Elastic Constant Matrix: (Units=GPa)
#
#
# Indices 1 2 3 4 5 6 
#
# 1 87.8426 40.9898 77.4956 0.0000 -14.3005 0.0000
# 2 40.9898 75.5403 36.5802 0.0000 -2.4129 0.0000
# 3 77.4956 36.5802 65.3729 0.0000 -2.5007 0.0000
# 4 0.0000 0.0000 0.0000 8.3211 0.0000 3.5303
# 5 -14.3005 -2.4129 -2.5007 0.0000 15.9179 0.0000
# 6 0.0000 0.0000 0.0000 3.5303 0.0000 5.2773
#
#
#
# Elastic Compliance Matrix: (Units=1/GPa)
#
#
# Indices 1 2 3 4 5 6 
#
# 1 -0.081166 -0.004574 0.096542 0.000000 -0.058445 0.000000
# 2 -0.004574 0.017922 -0.004687 0.000000 -0.002129 0.000000
# 3 0.096542 -0.004687 -0.093798 0.000000 0.071286 0.000000
# 4 0.000000 0.000000 0.000000 0.167800 0.000000 -0.112251
# 5 -0.058445 -0.002129 0.071286 0.000000 0.021192 0.000000
# 6 0.000000 0.000000 0.000000 -0.112251 0.000000 0.264581
#
#
# Mechanical properties :
#
#
# Convention : Reuss Voigt Hill
#
# Bulk Modulus (GPa) = 57.08429 59.87634 58.48032
# Shear Modulus (GPa) = 39.12075 10.81593 24.96834
#
# Velocity S-wave (km/s) = 4.98960 2.62358 3.98618
# Velocity P-wave (km/s) = 8.33803 6.87622 7.64216
#
# Compressibility (1/GPa) = 0.01751795
#
# Stress axis : x y z
#
# Youngs Moduli (GPa) = -12.32039 55.79774 -10.66123
#
# Poissons Ratio (x) = 0.25524 1.02925
# Poissons Ratio (y) = -0.05636 -0.04997
# Poissons Ratio (z) = 1.18943 0.26154
#
# Static dielectric constant tensor:
#      x y z
#    x 1.540510 0.000000 -0.018810 
#    y 0.000000 1.523650 0.000000 
#    z -0.018810 0.000000 1.526170 
# 
# From -- ./inp_files/54996.got.cif
#   From: 2010.05.17/outbox.cif.g08.bks.cpg/sg10_28_cif.got.tgz:54996.got - 2010.06.03 11:33:40.
