data_PCOD9146667
_publ_section_title
;
Structure prediction by ZEFSAII (Michael W. Deem and Ramdas Pophale) SiO2 
 PCOD9146667
Probable space group: P 2/M
;
_chemical_formula_sum "Si O2"
_cell_formula_units_Z 22
_cell_length_a 12.853250
_cell_length_b 13.518638
_cell_length_c 13.028775
_cell_angle_alpha 90.000000
_cell_angle_beta 147.701160
_cell_angle_gamma 90.000000
_cell_volume 1209.659922
_symmetry_space_group_name_H-M "P 2/M"
_symmetry_group_IT_number 10
_symmetry_cell_setting 'monoclinic'
loop_
_space_group_symop_operation_xyz
x,y,z
-x,y,-z
-x,-y,-z
x,-y,z
loop_
_atom_site_type_symbol
_atom_site_label
_atom_site_fract_x
_atom_site_fract_y
_atom_site_fract_z
Si Si1 0.233048 0.883605 0.194564
Si Si2 0.397855 0.616520 0.803246
Si Si3 0.823012 0.886496 0.187806
Si Si4 0.000000 0.265639 0.500000
Si Si5 0.541301 0.789663 0.803458
Si Si6 0.220940 0.113877 0.415876
O O1 0.329653 0.816598 0.188262
O O2 0.285035 0.857097 0.355259
O O3 0.282714 0.000000 0.218151
O O4 0.000000 0.877138 0.000000
O O5 0.390042 0.500000 0.776010
O O6 0.181211 0.663757 0.620060
O O7 0.526901 0.677576 0.829198
O O8 0.500000 0.630505 0.000000
O O9 0.899434 0.808500 0.334262
O O10 0.989852 0.882747 0.238761
O O11 0.812678 0.000000 0.216680
O O12 0.624839 0.852519 0.968450
O O13 0.327722 0.824182 0.591495
O O14 0.277895 0.000000 0.477993
#
# Coordination Sequence:
#
# PCOD9146667 Si02
#       6
#     4   4   4   2   4   4
#     4  10  19  33  56  88 125 162 197 231 275 348
#     4  11  25  44  65  86 108 146 209 264 301 347
#     4  11  22  35  56  91 128 156 189 234 286 363
#     4  12  22  44  62  88 114 156 192 252 310 350
#     4  12  21  37  60  86 118 157 200 239 296 340
#     4  10  20  34  55  87 125 162 196 228 277 353
#
# _framework density 18.18693
#
# number of rings (size 3 to 8) (size 9 to 14) (size 15 to 20)
#    0.000    1.091    5.455    2.727    0.000    1.455 
#    0.000    0.909    0.000    2.727    0.000    0.000 
#    0.000    0.000    0.000    0.000    0.000    0.000 
#
# Total GULP energy -122781.207456 kJ/mol
# GULP energy per Si atom -5580.963975 kJ/mol
# Density = 1.814554 g / cm^3
# Si number density = 18.186930 Si / 1000 Ang^3
#
#
#
# Elastic Constant Matrix: (Units=GPa)
#
#
# Indices 1 2 3 4 5 6 
#
# 1 56.9607 57.9479 12.0951 0.0000 -7.8997 0.0000
# 2 57.9479 134.7274 47.5177 0.0000 -13.1909 0.0000
# 3 12.0951 47.5177 96.7687 0.0000 -11.2734 0.0000
# 4 0.0000 0.0000 0.0000 21.7273 0.0000 5.1261
# 5 -7.8997 -13.1909 -11.2734 0.0000 32.0803 0.0000
# 6 0.0000 0.0000 0.0000 5.1261 0.0000 24.1302
#
#
#
# Elastic Compliance Matrix: (Units=1/GPa)
#
#
# Indices 1 2 3 4 5 6 
#
# 1 0.032378 -0.014902 0.003635 0.000000 0.003123 0.000000
# 2 -0.014902 0.015992 -0.005893 0.000000 0.000835 0.000000
# 3 0.003635 -0.005893 0.013133 0.000000 0.003087 0.000000
# 4 0.000000 0.000000 0.000000 0.048454 0.000000 -0.010293
# 5 0.003123 0.000835 0.003087 0.000000 0.033369 0.000000
# 6 0.000000 0.000000 0.000000 -0.010293 0.000000 0.043629
#
#
# Mechanical properties :
#
#
# Convention : Reuss Voigt Hill
#
# Bulk Modulus (GPa) = 36.78955 58.17535 47.48245
# Shear Modulus (GPa) = 21.70745 26.98064 24.34404
#
# Velocity S-wave (km/s) = 3.45856 3.85582 3.66258
# Velocity P-wave (km/s) = 6.01842 7.20278 6.63707
#
# Compressibility (1/GPa) = 0.02718163
#
# Stress axis : x y z
#
# Youngs Moduli (GPa) = 30.88545 62.53047 76.14431
#
# Poissons Ratio (x) = 0.93184 -0.27675
# Poissons Ratio (y) = 0.46026 0.44871
# Poissons Ratio (z) = -0.11225 0.36849
#
# Static dielectric constant tensor:
#      x y z
#    x 1.659990 0.000000 0.011670 
#    y 0.000000 1.581740 0.000000 
#    z 0.011670 0.000000 1.677000 
# 
# From -- ./inp_files/67196.got.cif
#   From: 2010.05.17/outbox.cif.g08.bks.cpg/sg10_34_cif.got.tgz:67196.got - 2010.06.03 11:33:40.
