data_PCOD9146320
_publ_section_title
;
Structure prediction by ZEFSAII (Michael W. Deem and Ramdas Pophale) SiO2 
 PCOD9146320
Probable space group: P 2/M
;
_chemical_formula_sum "Si O2"
_cell_formula_units_Z 32
_cell_length_a 25.793456
_cell_length_b 13.459088
_cell_length_c 9.261453
_cell_angle_alpha 90.000000
_cell_angle_beta 149.459254
_cell_angle_gamma 90.000000
_cell_volume 1633.793134
_symmetry_space_group_name_H-M "P 2/M"
_symmetry_group_IT_number 10
_symmetry_cell_setting 'monoclinic'
loop_
_space_group_symop_operation_xyz
x,y,z
-x,y,-z
-x,-y,-z
x,-y,z
loop_
_atom_site_type_symbol
_atom_site_label
_atom_site_fract_x
_atom_site_fract_y
_atom_site_fract_z
Si Si1 0.970237 0.112161 0.761963
Si Si2 0.403879 0.384934 0.583959
Si Si3 0.494505 0.114757 0.651310
Si Si4 0.229914 0.780224 0.679436
Si Si5 0.704635 0.787865 0.842225
Si Si6 0.181689 0.881092 0.109840
Si Si7 0.343804 0.888014 0.734912
Si Si8 0.357738 0.383699 0.812930
O O1 0.887017 0.199918 0.561127
O O2 0.935772 0.000000 0.630699
O O3 0.000000 0.103027 0.000000
O O4 0.073709 0.138064 0.925932
O O5 0.380696 0.500000 0.499700
O O6 0.341189 0.311894 0.333449
O O7 0.373615 0.366172 0.679045
O O8 0.525606 0.372317 0.850747
O O9 0.500000 0.157586 0.500000
O O10 0.375646 0.126542 0.394610
O O11 0.527264 0.000000 0.718638
O O12 0.557192 0.154965 0.941772
O O13 0.262145 0.878761 0.668340
O O14 0.275863 0.690033 0.692056
O O15 0.286186 0.778051 0.966098
O O16 0.807821 0.821809 0.013191
O O17 0.277319 0.848158 0.441756
O O18 0.188287 0.000000 0.107547
O O19 0.371299 0.000000 0.760415
O O20 0.329137 0.500000 0.764149
#
# Coordination Sequence:
#
# PCOD9146320 Si02
#       8
#     4   4   4   4   4   4   4   4
#     4  10  21  39  63  86 112 150 203 257 298 338
#     4   9  20  39  61  86 121 158 192 238 292 347
#     4  10  20  33  49  76 119 158 189 227 279 346
#     4  12  22  34  59  87 115 149 193 244 295 350
#     4  12  24  34  54  86 123 157 193 232 295 353
#     4  10  22  39  57  82 114 154 204 249 290 341
#     4  10  19  33  54  78 109 151 195 233 279 339
#     4   9  20  40  64  89 116 153 199 242 288 350
#
# _framework density 19.586321999999999
#
# number of rings (size 3 to 8) (size 9 to 14) (size 15 to 20)
#    0.000    1.750    2.500    3.000    0.000    4.000 
#    0.000    4.375    0.000    1.125    0.000    2.625 
#    0.000    0.000    0.000    0.000    0.000    0.000 
#
# Total GULP energy -178206.665517 kJ/mol
# GULP energy per Si atom -5568.958297 kJ/mol
# Density = 1.954174 g / cm^3
# Si number density = 19.586322 Si / 1000 Ang^3
#
#
#
# Elastic Constant Matrix: (Units=GPa)
#
#
# Indices 1 2 3 4 5 6 
#
# 1 84.0153 17.5124 22.4381 0.0000 3.3724 0.0000
# 2 17.5124 77.2625 29.7824 0.0000 8.3779 0.0000
# 3 22.4381 29.7824 62.4009 0.0000 3.9813 0.0000
# 4 0.0000 0.0000 0.0000 11.9320 0.0000 14.3617
# 5 3.3724 8.3779 3.9813 0.0000 24.7051 0.0000
# 6 0.0000 0.0000 0.0000 14.3617 0.0000 21.6487
#
#
#
# Elastic Compliance Matrix: (Units=1/GPa)
#
#
# Indices 1 2 3 4 5 6 
#
# 1 0.013307 -0.001365 -0.004089 0.000000 -0.000695 0.000000
# 2 -0.001365 0.016445 -0.007087 0.000000 -0.004248 0.000000
# 3 -0.004089 -0.007087 0.020904 0.000000 -0.000407 0.000000
# 4 0.000000 0.000000 0.000000 0.415906 0.000000 -0.275912
# 5 -0.000695 -0.004248 -0.000407 0.000000 0.042079 0.000000
# 6 0.000000 0.000000 0.000000 -0.275912 0.000000 0.229233
#
#
# Mechanical properties :
#
#
# Convention : Reuss Voigt Hill
#
# Bulk Modulus (GPa) = 39.10168 40.34938 39.72553
# Shear Modulus (GPa) = 6.48105 21.92022 14.20063
#
# Velocity S-wave (km/s) = 1.82103 3.34901 2.69556
# Velocity P-wave (km/s) = 4.94253 5.96658 5.47853
#
# Compressibility (1/GPa) = 0.02557435
#
# Stress axis : x y z
#
# Youngs Moduli (GPa) = 75.14808 60.81008 47.83722
#
# Poissons Ratio (x) = 0.08298 0.19562
# Poissons Ratio (y) = 0.10254 0.33902
# Poissons Ratio (z) = 0.30731 0.43096
#
# Static dielectric constant tensor:
#      x y z
#    x 1.731860 0.000000 0.028400 
#    y 0.000000 1.731760 0.000000 
#    z 0.028400 0.000000 1.752160 
# 
# From -- ./inp_files/36403.got.cif
#   From: 2010.05.17/outbox.cif.g08.bks.cpg/sg10_19_cif.got.tgz:36403.got - 2010.06.03 11:33:40.
