data_PCOD9146170
_publ_section_title
;
Structure prediction by ZEFSAII (Michael W. Deem and Ramdas Pophale) SiO2 
 PCOD9146170
Probable space group: P 2/M
;
_chemical_formula_sum "Si O2"
_cell_formula_units_Z 28
_cell_length_a 5.218711
_cell_length_b 13.030737
_cell_length_c 20.918044
_cell_angle_alpha 90.000000
_cell_angle_beta 102.003976
_cell_angle_gamma 90.000000
_cell_volume 1391.397715
_symmetry_space_group_name_H-M "P 2/M"
_symmetry_group_IT_number 10
_symmetry_cell_setting 'monoclinic'
loop_
_space_group_symop_operation_xyz
x,y,z
-x,y,-z
-x,-y,-z
x,-y,z
loop_
_atom_site_type_symbol
_atom_site_label
_atom_site_fract_x
_atom_site_fract_y
_atom_site_fract_z
Si Si1 0.061860 0.765669 0.654247
Si Si2 0.288035 0.382813 0.045302
Si Si3 0.354827 0.232576 0.166693
Si Si4 0.712660 0.791351 0.460924
Si Si5 0.463370 0.387903 0.725382
Si Si6 0.087163 0.878558 0.782848
Si Si7 0.371360 0.384419 0.411996
O O1 0.268376 0.815386 0.614283
O O2 0.197675 0.673547 0.699826
O O3 0.986739 0.843381 0.706626
O O4 0.843341 0.707243 0.599991
O O5 0.313863 0.500000 0.073317
O O6 0.328493 0.293648 0.099233
O O7 0.500000 0.372961 0.000000
O O8 0.000000 0.374720 0.000000
O O9 0.355485 0.321477 0.220256
O O10 0.631567 0.173964 0.188576
O O11 0.118393 0.158773 0.174418
O O12 0.500000 0.836520 0.500000
O O13 0.635635 0.668950 0.453563
O O14 0.000000 0.817242 0.500000
O O15 0.414108 0.500000 0.749543
O O16 0.580389 0.395695 0.660966
O O17 0.114885 0.000000 0.784977
O O18 0.308769 0.500000 0.432275
#
# Coordination Sequence:
#
# PCOD9146170 Si02
#       7
#     4   4   4   4   4   4   4
#     4  10  20  37  57  80 115 148 192 242 309 351
#     4  10  21  38  62  96 136 176 209 236 278 344
#     4  11  21  39  63  91 123 158 201 249 301 351
#     4  11  22  37  53  77 108 156 195 233 281 358
#     4   9  18  31  52  85 118 150 187 235 296 360
#     4  11  24  41  65  91 116 150 201 262 318 363
#     4  10  19  33  52  79 115 149 186 233 287 354
#
# _framework density 20.123650000000001
#
# number of rings (size 3 to 8) (size 9 to 14) (size 15 to 20)
#    0.000    1.714    2.857    2.143    0.000    1.143 
#    0.000    1.429    0.000    9.429    0.000    0.000 
#    0.000    0.000    0.000    0.000    0.000    0.000 
#
# Total GULP energy -155981.278676 kJ/mol
# GULP energy per Si atom -5570.759953 kJ/mol
# Density = 2.007785 g / cm^3
# Si number density = 20.123650 Si / 1000 Ang^3
#
#
#
# Elastic Constant Matrix: (Units=GPa)
#
#
# Indices 1 2 3 4 5 6 
#
# 1 122.0230 32.0469 35.9301 0.0000 -6.1519 0.0000
# 2 32.0469 88.1397 43.3989 0.0000 -3.9618 0.0000
# 3 35.9301 43.3989 70.9996 0.0000 -6.2593 0.0000
# 4 0.0000 0.0000 0.0000 20.1253 0.0000 3.0885
# 5 -6.1519 -3.9618 -6.2593 0.0000 24.0699 0.0000
# 6 0.0000 0.0000 0.0000 3.0885 0.0000 23.3839
#
#
#
# Elastic Compliance Matrix: (Units=1/GPa)
#
#
# Indices 1 2 3 4 5 6 
#
# 1 0.009822 -0.001605 -0.003880 0.000000 0.001237 0.000000
# 2 -0.001605 0.016493 -0.009279 0.000000 -0.000108 0.000000
# 3 -0.003880 -0.009279 0.022002 0.000000 0.003203 0.000000
# 4 0.000000 0.000000 0.000000 0.050717 0.000000 -0.006698
# 5 0.001237 -0.000108 0.003203 0.000000 0.042677 0.000000
# 6 0.000000 0.000000 0.000000 -0.006698 0.000000 0.043649
#
#
# Mechanical properties :
#
#
# Convention : Reuss Voigt Hill
#
# Bulk Modulus (GPa) = 53.22273 55.99046 54.60660
# Shear Modulus (GPa) = 22.60903 24.83492 23.72197
#
# Velocity S-wave (km/s) = 3.35551 3.51681 3.43711
# Velocity P-wave (km/s) = 6.44344 6.66140 6.55332
#
# Compressibility (1/GPa) = 0.01878896
#
# Stress axis : x y z
#
# Youngs Moduli (GPa) = 101.81648 60.63154 45.44970
#
# Poissons Ratio (x) = 0.09730 0.17636
# Poissons Ratio (y) = 0.16340 0.42172
# Poissons Ratio (z) = 0.39508 0.56259
#
# Static dielectric constant tensor:
#      x y z
#    x 1.777300 0.000000 -0.014950 
#    y 0.000000 1.719600 0.000000 
#    z -0.014950 0.000000 1.766300 
# 
# From -- ./inp_files/81170.got.cif
#   From: 2010.05.17/outbox.cif.g08.bks.cpg/sg10_41_cif.got.tgz:81170.got - 2010.06.03 11:33:40.
