data_PCOD9146725
_publ_section_title
;
Structure prediction by ZEFSAII (Michael W. Deem and Ramdas Pophale) SiO2 
 PCOD9146725
Probable space group: P 2/M
;
_chemical_formula_sum "Si O2"
_cell_formula_units_Z 21
_cell_length_a 9.189168
_cell_length_b 7.520787
_cell_length_c 18.711879
_cell_angle_alpha 90.000000
_cell_angle_beta 131.865784
_cell_angle_gamma 90.000000
_cell_volume 963.039723
_symmetry_space_group_name_H-M "P 2/M"
_symmetry_group_IT_number 10
_symmetry_cell_setting 'monoclinic'
loop_
_space_group_symop_operation_xyz
x,y,z
-x,y,-z
-x,-y,-z
x,-y,z
loop_
_atom_site_type_symbol
_atom_site_label
_atom_site_fract_x
_atom_site_fract_y
_atom_site_fract_z
Si Si1 0.104215 0.695358 0.834827
Si Si2 0.869235 0.794885 0.894777
Si Si3 0.500000 0.500000 0.000000
Si Si4 0.455052 0.218393 0.709635
Si Si5 0.360650 0.782260 0.518580
Si Si6 0.932142 0.206566 0.339651
O O1 0.008736 0.500000 0.797000
O O2 0.085571 0.782426 0.751516
O O3 0.991636 0.790231 0.861796
O O4 0.328859 0.652641 0.928632
O O5 0.655109 0.717318 0.811186
O O6 0.835443 0.000000 0.904786
O O7 0.000000 0.710475 0.000000
O O8 0.439726 0.269899 0.621906
O O9 0.262899 0.281750 0.688359
O O10 0.459682 0.000000 0.712649
O O11 0.500000 0.724390 0.500000
O O12 0.139038 0.719228 0.433451
O O13 0.358369 0.000000 0.516200
O O14 0.935402 0.000000 0.362273
#
# Coordination Sequence:
#
# PCOD9146725 Si02
#       6
#     4   4   1   4   4   4
#     4  10  22  39  56  76 108 144 186 219 272 328
#     4  10  21  36  57  84 112 142 183 230 272 317
#     4   8  24  40  56  76 104 152 184 228 260 338
#     4   9  18  31  51  84 118 143 177 224 276 327
#     4   9  16  28  51  82 115 147 177 217 272 330
#     4  10  19  33  58  85 110 142 182 229 273 317
#
# _framework density 21.805955000000001
#
# number of rings (size 3 to 8) (size 9 to 14) (size 15 to 20)
#    0.571    1.905    0.000    2.286    2.667    5.714 
#    0.000    1.905    0.000    7.429    0.000    0.000 
#    0.000    0.000    0.000    0.000    0.000    0.000 
#
# Total GULP energy -116923.381109 kJ/mol
# GULP energy per Si atom -5567.780053 kJ/mol
# Density = 2.175632 g / cm^3
# Si number density = 21.805955 Si / 1000 Ang^3
#
#
#
# Elastic Constant Matrix: (Units=GPa)
#
#
# Indices 1 2 3 4 5 6 
#
# 1 143.7282 -0.9753 113.8537 0.0000 9.2772 0.0000
# 2 -0.9753 54.1593 2.4073 0.0000 9.4860 0.0000
# 3 113.8537 2.4073 187.1899 0.0000 29.6888 0.0000
# 4 0.0000 0.0000 0.0000 -25.3373 0.0000 31.2158
# 5 9.2772 9.4860 29.6888 0.0000 44.9951 0.0000
# 6 0.0000 0.0000 0.0000 31.2158 0.0000 -36.3459
#
#
#
# Elastic Compliance Matrix: (Units=1/GPa)
#
#
# Indices 1 2 3 4 5 6 
#
# 1 0.013781 0.000120 -0.008856 0.000000 0.002976 0.000000
# 2 0.000120 0.019206 0.000364 0.000000 -0.004314 0.000000
# 3 -0.008856 0.000364 0.011667 0.000000 -0.005949 0.000000
# 4 0.000000 0.000000 0.000000 0.679076 0.000000 0.583228
# 5 0.002976 -0.004314 -0.005949 0.000000 0.026446 0.000000
# 6 0.000000 0.000000 0.000000 0.583228 0.000000 0.473395
#
#
# Mechanical properties :
#
#
# Convention : Reuss Voigt Hill
#
# Bulk Modulus (GPa) = 35.82736 68.40543 52.11639
# Shear Modulus (GPa) = 4.00122 14.64850 9.32486
#
# Velocity S-wave (km/s) = 1.35606 2.59466 2.07016
# Velocity P-wave (km/s) = 4.34944 6.35724 5.44666
#
# Compressibility (1/GPa) = 0.02791163
#
# Stress axis : x y z
#
# Youngs Moduli (GPa) = 72.56182 52.06803 85.70915
#
# Poissons Ratio (x) = -0.00627 0.75902
# Poissons Ratio (y) = -0.00874 -0.03119
# Poissons Ratio (z) = 0.64259 -0.01895
#
# Static dielectric constant tensor:
#      x y z
#    x 1.767840 0.000000 0.014020 
#    y 0.000000 1.823310 0.000000 
#    z 0.014020 0.000000 1.774870 
# 
# From -- ./inp_files/33680.got.cif
#   From: 2010.05.17/outbox.cif.g08.bks.cpg/sg10_17_cif.got.tgz:33680.got - 2010.06.03 11:33:40.
