data_PCOD9146026
_publ_section_title
;
Structure prediction by ZEFSAII (Michael W. Deem and Ramdas Pophale) SiO2 
 PCOD9146026
Probable space group: P 2/M
;
_chemical_formula_sum "Si O2"
_cell_formula_units_Z 32
_cell_length_a 11.856264
_cell_length_b 12.061897
_cell_length_c 11.878477
_cell_angle_alpha 90.000000
_cell_angle_beta 68.527895
_cell_angle_gamma 90.000000
_cell_volume 1580.830728
_symmetry_space_group_name_H-M "P 2/M"
_symmetry_group_IT_number 10
_symmetry_cell_setting 'monoclinic'
loop_
_space_group_symop_operation_xyz
x,y,z
-x,y,-z
-x,-y,-z
x,-y,z
loop_
_atom_site_type_symbol
_atom_site_label
_atom_site_fract_x
_atom_site_fract_y
_atom_site_fract_z
Si Si1 0.085716 0.628682 0.154032
Si Si2 0.537863 0.374312 0.163529
Si Si3 0.859507 0.822966 0.040215
Si Si4 0.614943 0.371853 0.392481
Si Si5 0.271431 0.716866 0.261934
Si Si6 0.845792 0.763583 0.297605
Si Si7 0.367840 0.166524 0.017238
Si Si8 0.859436 0.124014 0.518862
O O1 0.072777 0.500000 0.127591
O O2 0.179080 0.642258 0.223319
O O3 0.962439 0.685182 0.242103
O O4 0.125011 0.705952 0.033793
O O5 0.555000 0.500000 0.114269
O O6 0.597494 0.366296 0.264609
O O7 0.395847 0.349061 0.236257
O O8 0.593471 0.282219 0.060055
O O9 0.820434 0.808560 0.182710
O O10 0.744975 0.877933 0.016851
O O11 0.000000 0.867333 0.000000
O O12 0.500000 0.323942 0.500000
O O13 0.625596 0.500000 0.421337
O O14 0.734989 0.309276 0.379225
O O15 0.212375 0.779303 0.389082
O O16 0.307705 0.811623 0.159388
O O17 0.859964 0.857571 0.384998
O O18 0.500000 0.116060 0.000000
O O19 0.000000 0.131972 0.500000
O O20 0.814589 0.000000 0.563782
#
# Coordination Sequence:
#
# PCOD9146026 Si02
#       8
#     4   4   4   4   4   4   4   4
#     4  10  20  33  55  90 126 161 188 227 288 363
#     4  10  19  32  55  88 125 167 200 227 275 358
#     4   9  19  32  53  86 122 161 195 242 287 347
#     4  10  20  32  49  79 118 164 200 224 270 346
#     4  10  20  37  57  86 120 153 201 254 297 346
#     4  11  20  37  59  82 117 152 196 251 298 349
#     4   9  18  32  55  86 121 162 198 238 291 355
#     4  11  24  44  67  84 107 151 211 265 323 376
#
# _framework density 20.242522000000001
#
# number of rings (size 3 to 8) (size 9 to 14) (size 15 to 20)
#    0.000    2.000    2.500    1.500    0.000    7.000 
#    0.000    2.500    0.000   13.125    0.000    0.000 
#    0.000    0.000    0.000    0.000    0.000    0.000 
#
# Total GULP energy -178364.235529 kJ/mol
# GULP energy per Si atom -5573.882360 kJ/mol
# Density = 2.019645 g / cm^3
# Si number density = 20.242522 Si / 1000 Ang^3
#
#
#
# Elastic Constant Matrix: (Units=GPa)
#
#
# Indices 1 2 3 4 5 6 
#
# 1 129.9002 17.1675 9.1987 0.0000 2.5103 0.0000
# 2 17.1675 79.5696 28.5958 0.0000 6.3267 0.0000
# 3 9.1987 28.5958 95.3147 0.0000 -2.2670 0.0000
# 4 0.0000 0.0000 0.0000 -58.1373 0.0000 2.6060
# 5 2.5103 6.3267 -2.2670 0.0000 29.2079 0.0000
# 6 0.0000 0.0000 0.0000 2.6060 0.0000 -44.2481
#
#
#
# Elastic Compliance Matrix: (Units=1/GPa)
#
#
# Indices 1 2 3 4 5 6 
#
# 1 0.007935 -0.001574 -0.000302 0.000000 -0.000364 0.000000
# 2 -0.001574 0.014741 -0.004351 0.000000 -0.003395 0.000000
# 3 -0.000302 -0.004351 0.011871 0.000000 0.001890 0.000000
# 4 0.000000 0.000000 0.000000 -0.017246 0.000000 -0.001016
# 5 -0.000364 -0.003395 0.001890 0.000000 0.035151 0.000000
# 6 0.000000 0.000000 0.000000 -0.001016 0.000000 -0.022660
#
#
# Mechanical properties :
#
#
# Convention : Reuss Voigt Hill
#
# Bulk Modulus (GPa) = 45.26686 46.07872 45.67279
# Shear Modulus (GPa) = 100.78337 2.01933 51.40135
#
# Velocity S-wave (km/s) = 7.06371 0.99987 5.04459
# Velocity P-wave (km/s) = 9.43074 4.91383 7.51946
#
# Compressibility (1/GPa) = 0.02209122
#
# Stress axis : x y z
#
# Youngs Moduli (GPa) = 126.02829 67.83766 84.23797
#
# Poissons Ratio (x) = 0.10681 0.02545
# Poissons Ratio (y) = 0.19842 0.36655
# Poissons Ratio (z) = 0.03807 0.29519
#
# Static dielectric constant tensor:
#      x y z
#    x 1.772400 0.000000 0.013150 
#    y 0.000000 1.710040 0.000000 
#    z 0.013150 0.000000 1.698580 
# 
# From -- ./inp_files/46997.got.cif
#   From: 2010.05.17/outbox.cif.g08.bks.cpg/sg10_24_cif.got.tgz:46997.got - 2010.06.03 11:33:40.
