data_PCOD9146613
_publ_section_title
;
Structure prediction by ZEFSAII (Michael W. Deem and Ramdas Pophale) SiO2 
 PCOD9146613
Probable space group: P 2/M
;
_chemical_formula_sum "Si O2"
_cell_formula_units_Z 32
_cell_length_a 21.020259
_cell_length_b 8.890138
_cell_length_c 25.790458
_cell_angle_alpha 90.000000
_cell_angle_beta 22.468657
_cell_angle_gamma 90.000000
_cell_volume 1841.922180
_symmetry_space_group_name_H-M "P 2/M"
_symmetry_group_IT_number 10
_symmetry_cell_setting 'monoclinic'
loop_
_space_group_symop_operation_xyz
x,y,z
-x,y,-z
-x,-y,-z
x,-y,z
loop_
_atom_site_type_symbol
_atom_site_label
_atom_site_fract_x
_atom_site_fract_y
_atom_site_fract_z
Si Si1 0.395714 0.179658 0.425387
Si Si2 0.003885 0.179086 0.838393
Si Si3 0.145513 0.820164 0.430528
Si Si4 0.496122 0.679086 0.161593
Si Si5 0.354500 0.679836 0.569458
Si Si6 0.152327 0.320585 0.146211
Si Si7 0.347667 0.820585 0.853803
Si Si8 0.895696 0.679658 0.425404
O O1 0.389867 0.249557 0.486605
O O2 0.566849 0.210469 0.265454
O O3 0.250005 0.249999 0.499995
O O4 0.372684 0.000000 0.445893
O O5 0.175590 0.259307 0.722469
O O6 0.945806 0.233635 0.825109
O O7 0.027748 0.000000 0.820026
O O8 0.847142 0.215968 0.993469
O O9 0.324417 0.759306 0.277517
O O10 0.110160 0.749557 0.513371
O O11 0.000000 0.780015 0.500000
O O12 0.152872 0.000000 0.429841
O O13 0.472261 0.500000 0.179958
O O14 0.554200 0.733635 0.174877
O O15 0.652865 0.715969 0.006517
O O16 0.500000 0.719986 0.500000
O O17 0.347143 0.500000 0.570142
O O18 0.134295 0.500000 0.149567
O O19 0.066838 0.289532 0.265470
O O20 0.365700 0.000000 0.850445
O O21 0.872664 0.500000 0.445912
#
# Coordination Sequence:
#
# PCOD9146613 Si02
#       8
#     4   4   4   4   4   4   4   4
#     4  11  21  35  58  86 114 144 184 231 278 331
#     4  10  19  33  56  83 110 145 184 226 279 333
#     4  11  24  40  56  78 113 153 190 232 280 330
#     4  10  19  33  56  83 110 145 184 226 279 333
#     4  11  24  40  56  78 113 153 190 232 280 330
#     4   9  19  34  54  83 115 142 177 228 281 331
#     4   9  19  34  54  83 115 142 177 228 281 331
#     4  11  21  35  58  86 114 144 184 231 278 331
#
# _framework density 17.373154
#
# number of rings (size 3 to 8) (size 9 to 14) (size 15 to 20)
#    0.000    1.750    2.500    2.250    0.000    4.000 
#    0.000    1.250    0.000    7.500    0.000    0.000 
#    0.000    0.000    0.000    0.000    0.000    0.000 
#
# Total GULP energy -178664.991919 kJ/mol
# GULP energy per Si atom -5583.280997 kJ/mol
# Density = 1.733361 g / cm^3
# Si number density = 17.373154 Si / 1000 Ang^3
#
#
#
# Elastic Constant Matrix: (Units=GPa)
#
#
# Indices 1 2 3 4 5 6 
#
# 1 111.3391 53.3742 80.5513 0.0000 -8.9695 0.0000
# 2 53.3742 59.1536 63.5994 0.0000 -7.4590 0.0000
# 3 80.5513 63.5994 161.4410 0.0000 -9.1096 0.0000
# 4 0.0000 0.0000 0.0000 28.2844 0.0000 -1.9308
# 5 -8.9695 -7.4590 -9.1096 0.0000 26.2265 0.0000
# 6 0.0000 0.0000 0.0000 -1.9308 0.0000 25.8125
#
#
#
# Elastic Compliance Matrix: (Units=1/GPa)
#
#
# Indices 1 2 3 4 5 6 
#
# 1 0.017464 -0.010929 -0.004331 0.000000 0.001360 0.000000
# 2 -0.010929 0.036676 -0.008790 0.000000 0.003640 0.000000
# 3 -0.004331 -0.008790 0.011825 0.000000 0.000126 0.000000
# 4 0.000000 0.000000 0.000000 0.035537 0.000000 0.002658
# 5 0.001360 0.003640 0.000126 0.000000 0.039673 0.000000
# 6 0.000000 0.000000 0.000000 0.002658 0.000000 0.038940
#
#
# Mechanical properties :
#
#
# Convention : Reuss Voigt Hill
#
# Bulk Modulus (GPa) = 55.97794 80.77594 68.37694
# Shear Modulus (GPa) = 21.35183 25.02526 23.18854
#
# Velocity S-wave (km/s) = 3.50953 3.79945 3.65736
# Velocity P-wave (km/s) = 6.97949 8.11439 7.56825
#
# Compressibility (1/GPa) = 0.01786418
#
# Stress axis : x y z
#
# Youngs Moduli (GPa) = 57.25994 27.26557 84.56472
#
# Poissons Ratio (x) = 0.29800 0.36628
# Poissons Ratio (y) = 0.62582 0.74331
# Poissons Ratio (z) = 0.24802 0.23966
#
# Static dielectric constant tensor:
#      x y z
#    x 1.542140 0.000000 0.013090 
#    y 0.000000 1.580370 0.000000 
#    z 0.013090 0.000000 1.619620 
# 
# From -- ./inp_files/93578.got.cif
#   From: 2010.05.17/outbox.cif.g08.bks.cpg/sg10_47_cif.got.tgz:93578.got - 2010.06.03 11:33:40.
