data_PCOD9146553
_publ_section_title
;
Structure prediction by ZEFSAII (Michael W. Deem and Ramdas Pophale) SiO2 
 PCOD9146553
Probable space group: P 2/M
;
_chemical_formula_sum "Si O2"
_cell_formula_units_Z 21
_cell_length_a 13.874638
_cell_length_b 11.953396
_cell_length_c 10.406400
_cell_angle_alpha 90.000000
_cell_angle_beta 149.744787
_cell_angle_gamma 90.000000
_cell_volume 869.594855
_symmetry_space_group_name_H-M "P 2/M"
_symmetry_group_IT_number 10
_symmetry_cell_setting 'monoclinic'
loop_
_space_group_symop_operation_xyz
x,y,z
-x,y,-z
-x,-y,-z
x,-y,z
loop_
_atom_site_type_symbol
_atom_site_label
_atom_site_fract_x
_atom_site_fract_y
_atom_site_fract_z
Si Si1 0.772342 0.623943 0.753782
Si Si2 0.192684 0.188830 0.552850
Si Si3 0.762131 0.000000 0.884810
Si Si4 0.760547 0.235630 0.985141
Si Si5 0.000000 0.000000 0.500000
Si Si6 0.768954 0.000000 0.595578
Si Si7 0.545682 0.630772 0.224490
O O1 0.729980 0.500000 0.757625
O O2 0.716551 0.712836 0.795269
O O3 0.670865 0.634899 0.500883
O O4 0.000000 0.633138 0.000000
O O5 0.280711 0.112288 0.539125
O O6 0.330045 0.294147 0.729554
O O7 0.142655 0.099405 0.605840
O O8 0.986830 0.236587 0.271981
O O9 0.708414 0.106300 0.907619
O O10 0.702342 0.000000 0.666606
O O11 0.996042 0.000000 0.142501
O O12 0.648182 0.306985 0.959368
O O13 0.522215 0.500000 0.165982
#
# Coordination Sequence:
#
# PCOD9146553 Si02
#       7
#     4   4   2   4   1   2   4
#     4  10  19  33  55  86 129 174 204 232 275 338
#     4  10  21  41  63  86 116 149 200 259 315 364
#     4   9  18  28  49  81 117 156 195 233 282 343
#     4  11  21  35  57  88 126 165 202 242 293 354
#     4  10  24  48  74  92 108 148 198 266 336 376
#     4   8  16  31  54  80 111 152 193 239 293 351
#     4  11  23  37  59  92 127 165 204 239 284 356
#
# _framework density 24.149177999999999
#
# number of rings (size 3 to 8) (size 9 to 14) (size 15 to 20)
#    0.000    1.905    1.905    2.857    2.667    3.810 
#    0.000    5.238    0.000    1.143    0.000    0.000 
#    0.000    0.000    0.000    0.000    0.000    0.000 
#
# Total GULP energy -117292.293370 kJ/mol
# GULP energy per Si atom -5585.347303 kJ/mol
# Density = 2.409421 g / cm^3
# Si number density = 24.149178 Si / 1000 Ang^3
#
#
#
# Elastic Constant Matrix: (Units=GPa)
#
#
# Indices 1 2 3 4 5 6 
#
# 1 122.8282 85.8516 39.5093 0.0000 6.9021 0.0000
# 2 85.8516 230.9392 37.8674 0.0000 19.6553 0.0000
# 3 39.5093 37.8674 83.3787 0.0000 11.7864 0.0000
# 4 0.0000 0.0000 0.0000 15.3841 0.0000 -22.6857
# 5 6.9021 19.6553 11.7864 0.0000 38.4784 0.0000
# 6 0.0000 0.0000 0.0000 -22.6857 0.0000 234.0306
#
#
#
# Elastic Compliance Matrix: (Units=1/GPa)
#
#
# Indices 1 2 3 4 5 6 
#
# 1 0.012159 -0.003936 -0.004129 0.000000 0.001094 0.000000
# 2 -0.003936 0.006078 -0.000581 0.000000 -0.002221 0.000000
# 3 -0.004129 -0.000581 0.014704 0.000000 -0.003467 0.000000
# 4 0.000000 0.000000 0.000000 0.075844 0.000000 0.007352
# 5 0.001094 -0.002221 -0.003467 0.000000 0.027988 0.000000
# 6 0.000000 0.000000 0.000000 0.007352 0.000000 0.004986
#
#
# Mechanical properties :
#
#
# Convention : Reuss Voigt Hill
#
# Bulk Modulus (GPa) = 63.90373 84.84476 74.37425
# Shear Modulus (GPa) = 30.43821 75.83979 53.13900
#
# Velocity S-wave (km/s) = 3.55410 5.61007 4.69598
# Velocity P-wave (km/s) = 6.58496 8.78486 7.76323
#
# Compressibility (1/GPa) = 0.01564854
#
# Stress axis : x y z
#
# Youngs Moduli (GPa) = 82.24102 164.53385 68.00945
#
# Poissons Ratio (x) = 0.64767 0.28079
# Poissons Ratio (y) = 0.32373 0.03952
# Poissons Ratio (z) = 0.33955 0.09561
#
# Static dielectric constant tensor:
#      x y z
#    x 1.922290 0.000000 -0.025590 
#    y 0.000000 1.884980 0.000000 
#    z -0.025590 0.000000 1.995800 
# 
# From -- ./inp_files/51168.got.cif
#   From: 2010.05.17/outbox.cif.g08.bks.cpg/sg10_26_cif.got.tgz:51168.got - 2010.06.03 11:33:40.
