data_PCOD9146683
_publ_section_title
;
Structure prediction by ZEFSAII (Michael W. Deem and Ramdas Pophale) SiO2 
 PCOD9146683
Probable space group: P 2/M
;
_chemical_formula_sum "Si O2"
_cell_formula_units_Z 32
_cell_length_a 13.836736
_cell_length_b 13.051288
_cell_length_c 14.021303
_cell_angle_alpha 90.000000
_cell_angle_beta 138.119362
_cell_angle_gamma 90.000000
_cell_volume 1690.360614
_symmetry_space_group_name_H-M "P 2/M"
_symmetry_group_IT_number 10
_symmetry_cell_setting 'monoclinic'
loop_
_space_group_symop_operation_xyz
x,y,z
-x,y,-z
-x,-y,-z
x,-y,z
loop_
_atom_site_type_symbol
_atom_site_label
_atom_site_fract_x
_atom_site_fract_y
_atom_site_fract_z
Si Si1 0.126249 0.192462 0.712461
Si Si2 0.666903 0.887600 0.656774
Si Si3 0.692828 0.746560 0.508486
Si Si4 0.597820 0.120864 0.978160
Si Si5 0.887999 0.380455 0.999226
Si Si6 0.814353 0.884409 0.441924
Si Si7 0.610497 0.764371 0.792746
Si Si8 0.026234 0.617596 0.310798
O O1 0.238605 0.147632 0.870050
O O2 0.196643 0.185577 0.659620
O O3 0.980906 0.124526 0.598099
O O4 0.071204 0.305190 0.698775
O O5 0.500000 0.893880 0.500000
O O6 0.724477 0.793195 0.636010
O O7 0.665290 0.857142 0.765804
O O8 0.733386 0.000000 0.688609
O O9 0.719700 0.842683 0.458007
O O10 0.527549 0.717058 0.365159
O O11 0.810520 0.661288 0.569488
O O12 0.582845 0.000000 0.945223
O O13 0.500000 0.142191 0.000000
O O14 0.565878 0.190730 0.862829
O O15 0.854266 0.500000 0.954079
O O16 0.966531 0.375826 0.159177
O O17 0.741856 0.315048 0.896486
O O18 0.000000 0.344488 0.000000
O O19 0.778051 0.000000 0.388446
O O20 0.019891 0.500000 0.337614
#
# Coordination Sequence:
#
# PCOD9146683 Si02
#       8
#     4   4   4   4   4   4   4   4
#     4  10  19  35  54  81 113 151 193 245 287 339
#     4   9  18  33  53  79 116 155 187 224 284 346
#     4  10  21  35  57  86 115 153 194 244 289 346
#     4  11  22  35  56  86 122 159 195 235 287 351
#     4  10  21  39  63  84 109 153 201 244 297 356
#     4  10  19  33  57  83 114 153 200 238 280 345
#     4  11  21  36  58  88 121 152 193 245 295 346
#     4  10  21  39  60  81 111 152 197 245 298 351
#
# _framework density 18.930872000000001
#
# number of rings (size 3 to 8) (size 9 to 14) (size 15 to 20)
#    0.000    1.875    1.250    3.750    0.000    3.000 
#    0.000    5.000    0.000    9.000    0.000    0.000 
#    0.000    0.000    0.000    0.000    0.000    0.000 
#
# Total GULP energy -178550.774488 kJ/mol
# GULP energy per Si atom -5579.711703 kJ/mol
# Density = 1.888778 g / cm^3
# Si number density = 18.930872 Si / 1000 Ang^3
#
#
#
# Elastic Constant Matrix: (Units=GPa)
#
#
# Indices 1 2 3 4 5 6 
#
# 1 83.1026 44.1506 14.3618 0.0000 -9.0489 0.0000
# 2 44.1506 110.8443 26.6008 0.0000 2.5575 0.0000
# 3 14.3618 26.6008 80.6091 0.0000 6.7015 0.0000
# 4 0.0000 0.0000 0.0000 10.9088 0.0000 -4.3524
# 5 -9.0489 2.5575 6.7015 0.0000 30.0930 0.0000
# 6 0.0000 0.0000 0.0000 -4.3524 0.0000 16.8082
#
#
#
# Elastic Compliance Matrix: (Units=1/GPa)
#
#
# Indices 1 2 3 4 5 6 
#
# 1 0.016213 -0.006280 -0.001290 0.000000 0.005696 0.000000
# 2 -0.006280 0.012230 -0.002724 0.000000 -0.002321 0.000000
# 3 -0.001290 -0.002724 0.013803 0.000000 -0.003230 0.000000
# 4 0.000000 0.000000 0.000000 0.102232 0.000000 0.026473
# 5 0.005696 -0.002321 -0.003230 0.000000 0.035860 0.000000
# 6 0.000000 0.000000 0.000000 0.026473 0.000000 0.066350
#
#
# Mechanical properties :
#
#
# Convention : Reuss Voigt Hill
#
# Bulk Modulus (GPa) = 46.17116 49.42026 47.79571
# Shear Modulus (GPa) = 18.21537 24.19150 21.20343
#
# Velocity S-wave (km/s) = 3.10531 3.57863 3.35034
# Velocity P-wave (km/s) = 6.10733 6.57554 6.34576
#
# Compressibility (1/GPa) = 0.02165854
#
# Stress axis : x y z
#
# Youngs Moduli (GPa) = 61.68020 81.76475 72.44875
#
# Poissons Ratio (x) = 0.51345 0.09345
# Poissons Ratio (y) = 0.38733 0.19736
# Poissons Ratio (z) = 0.07956 0.22274
#
# Static dielectric constant tensor:
#      x y z
#    x 1.680860 0.000000 -0.001480 
#    y 0.000000 1.637270 0.000000 
#    z -0.001480 0.000000 1.675980 
# 
# From -- ./inp_files/67374.got.cif
#   From: 2010.05.17/outbox.cif.g08.bks.cpg/sg10_34_cif.got.tgz:67374.got - 2010.06.03 11:33:40.
