data_PCOD9146871
_publ_section_title
;
Structure prediction by ZEFSAII (Michael W. Deem and Ramdas Pophale) SiO2 
 PCOD9146871
Probable space group: P 2/M
;
_chemical_formula_sum "Si O2"
_cell_formula_units_Z 32
_cell_length_a 12.096731
_cell_length_b 13.977364
_cell_length_c 11.157086
_cell_angle_alpha 90.000000
_cell_angle_beta 68.085993
_cell_angle_gamma 90.000000
_cell_volume 1750.139720
_symmetry_space_group_name_H-M "P 2/M"
_symmetry_group_IT_number 10
_symmetry_cell_setting 'monoclinic'
loop_
_space_group_symop_operation_xyz
x,y,z
-x,y,-z
-x,-y,-z
x,-y,z
loop_
_atom_site_type_symbol
_atom_site_label
_atom_site_fract_x
_atom_site_fract_y
_atom_site_fract_z
Si Si1 0.608194 0.299951 0.045611
Si Si2 0.344131 0.106143 0.850335
Si Si3 0.051223 0.605138 0.614558
Si Si4 0.462261 0.387900 0.685775
Si Si5 0.723850 0.292825 0.578402
Si Si6 0.160167 0.270034 0.208767
Si Si7 0.373596 0.197842 0.589909
Si Si8 0.084118 0.107722 0.072185
O O1 0.589174 0.193247 0.109828
O O2 0.599594 0.371899 0.160438
O O3 0.500000 0.320138 0.000000
O O4 0.734701 0.301156 0.925554
O O5 0.326278 0.139230 0.720843
O O6 0.399045 0.000000 0.835808
O O7 0.215381 0.101711 0.962918
O O8 0.066229 0.500000 0.659065
O O9 0.179032 0.650678 0.539123
O O10 0.000000 0.600108 0.500000
O O11 0.952168 0.659897 0.730848
O O12 0.456228 0.500000 0.652903
O O13 0.600354 0.352303 0.642747
O O14 0.399730 0.307846 0.625650
O O15 0.777097 0.265965 0.686140
O O16 0.698431 0.202856 0.503459
O O17 0.101900 0.173337 0.180654
O O18 0.500000 0.156491 0.500000
O O19 0.041586 0.000000 0.117397
O O20 0.000000 0.147664 0.000000
#
# Coordination Sequence:
#
# PCOD9146871 Si02
#       8
#     4   4   4   4   4   4   4   4
#     4  10  19  35  54  79 107 138 175 222 271 320
#     4   9  19  35  55  79 104 135 175 217 265 321
#     4   9  19  33  50  75 105 140 177 210 255 315
#     4  10  20  34  54  80 109 144 183 224 264 309
#     4  10  19  34  54  77 107 147 178 219 262 313
#     4  10  20  35  56  79 110 138 176 223 270 315
#     4   9  20  34  53  77 109 142 179 217 260 318
#     4   9  19  36  60  82 102 136 178 219 267 322
#
# _framework density 18.284255000000002
#
# number of rings (size 3 to 8) (size 9 to 14) (size 15 to 20)
#    0.000    2.500    1.250    0.375    1.750    4.500 
#    0.000    0.625    0.000    3.750    0.000    0.000 
#    0.000    0.000    0.000    0.000    0.000    0.000 
#
# Total GULP energy -178143.385984 kJ/mol
# GULP energy per Si atom -5566.980812 kJ/mol
# Density = 1.824264 g / cm^3
# Si number density = 18.284255 Si / 1000 Ang^3
#
#
#
# Elastic Constant Matrix: (Units=GPa)
#
#
# Indices 1 2 3 4 5 6 
#
# 1 57.0669 12.1776 20.0751 0.0000 1.2453 0.0000
# 2 12.1776 68.5501 37.0761 0.0000 -2.1492 0.0000
# 3 20.0751 37.0761 107.2240 0.0000 -2.0949 0.0000
# 4 0.0000 0.0000 0.0000 -11.1103 0.0000 -6.8761
# 5 1.2453 -2.1492 -2.0949 0.0000 24.9312 0.0000
# 6 0.0000 0.0000 0.0000 -6.8761 0.0000 -10.5061
#
#
#
# Elastic Compliance Matrix: (Units=1/GPa)
#
#
# Indices 1 2 3 4 5 6 
#
# 1 0.018979 -0.001818 -0.002951 0.000000 -0.001353 0.000000
# 2 -0.001818 0.018144 -0.005911 0.000000 0.001158 0.000000
# 3 -0.002951 -0.005911 0.011935 0.000000 0.000641 0.000000
# 4 0.000000 0.000000 0.000000 -0.151288 0.000000 0.099016
# 5 -0.001353 0.001158 0.000641 0.000000 0.040332 0.000000
# 6 0.000000 0.000000 0.000000 0.099016 0.000000 -0.159988
#
#
# Mechanical properties :
#
#
# Convention : Reuss Voigt Hill
#
# Bulk Modulus (GPa) = 36.10316 41.27766 38.69041
# Shear Modulus (GPa) = -26.13793 11.56378 -7.28707
#
# Velocity S-wave (km/s) = -3.78502 2.51757 -1.99852
# Velocity P-wave (km/s) = 0.82858 5.57453 3.98510
#
# Compressibility (1/GPa) = 0.02769841
#
# Stress axis : x y z
#
# Youngs Moduli (GPa) = 52.69013 55.11434 83.78555
#
# Poissons Ratio (x) = 0.10018 0.24727
# Poissons Ratio (y) = 0.09578 0.49525
# Poissons Ratio (z) = 0.15550 0.32578
#
# Static dielectric constant tensor:
#      x y z
#    x 1.710460 0.000000 -0.054740 
#    y 0.000000 1.666000 0.000000 
#    z -0.054740 0.000000 1.677220 
# 
# From -- ./inp_files/47380.got.cif
#   From: 2010.05.17/outbox.cif.g08.bks.cpg/sg10_24_cif.got.tgz:47380.got - 2010.06.03 11:33:40.
