data_PCOD9146574
_publ_section_title
;
Structure prediction by ZEFSAII (Michael W. Deem and Ramdas Pophale) SiO2 
 PCOD9146574
Probable space group: P 2/M
;
_chemical_formula_sum "Si O2"
_cell_formula_units_Z 28
_cell_length_a 15.078327
_cell_length_b 8.892827
_cell_length_c 22.305452
_cell_angle_alpha 90.000000
_cell_angle_beta 31.218956
_cell_angle_gamma 90.000000
_cell_volume 1550.220927
_symmetry_space_group_name_H-M "P 2/M"
_symmetry_group_IT_number 10
_symmetry_cell_setting 'monoclinic'
loop_
_space_group_symop_operation_xyz
x,y,z
-x,y,-z
-x,-y,-z
x,-y,z
loop_
_atom_site_type_symbol
_atom_site_label
_atom_site_fract_x
_atom_site_fract_y
_atom_site_fract_z
Si Si1 0.451481 0.320804 0.308247
Si Si2 0.252347 0.180792 0.212757
Si Si3 0.166274 0.818324 0.128669
Si Si4 0.226802 0.182602 0.646505
Si Si5 0.556766 0.319805 0.114471
Si Si6 0.919215 0.177126 0.480650
Si Si7 0.530178 0.181380 0.385357
O O1 0.460810 0.500000 0.306035
O O2 0.527255 0.271753 0.200301
O O3 0.254077 0.269033 0.424690
O O4 0.544419 0.249935 0.311698
O O5 0.252619 0.220091 0.142558
O O6 0.397976 0.260667 0.166794
O O7 0.066264 0.216657 0.348064
O O8 0.275179 0.000000 0.205076
O O9 0.968633 0.767923 0.244205
O O10 0.169263 0.000000 0.121921
O O11 0.273277 0.747173 0.013290
O O12 0.350540 0.228976 0.520393
O O13 0.321642 0.225422 0.653384
O O14 0.225418 0.000000 0.645645
O O15 0.560721 0.500000 0.110155
O O16 0.000000 0.196499 0.500000
O O17 0.878150 0.000000 0.496507
O O18 0.529479 0.000000 0.381848
#
# Coordination Sequence:
#
# PCOD9146574 Si02
#       7
#     4   4   4   4   4   4   4
#     4  11  23  36  51  76 112 148 179 216 264 312
#     4  10  20  35  56  82 106 134 175 223 269 313
#     4  10  20  35  56  79 105 136 176 223 267 312
#     4   8  16  34  60  88 110 130 166 221 275 316
#     4  11  24  38  50  70 107 150 186 218 256 308
#     4  10  19  33  56  81 105 135 174 217 264 319
#     4   9  17  34  62  87 108 135 169 214 269 326
#
# _framework density 18.061941999999998
#
# number of rings (size 3 to 8) (size 9 to 14) (size 15 to 20)
#    0.000    2.143    1.429    3.000    0.000    7.143 
#    0.000    5.000    0.000    4.286    0.000    0.000 
#    0.000    0.000    0.000    0.000    0.000    0.000 
#
# Total GULP energy -156334.061152 kJ/mol
# GULP energy per Si atom -5583.359327 kJ/mol
# Density = 1.802083 g / cm^3
# Si number density = 18.061942 Si / 1000 Ang^3
#
#
#
# Elastic Constant Matrix: (Units=GPa)
#
#
# Indices 1 2 3 4 5 6 
#
# 1 115.0005 32.8397 65.7201 0.0000 19.3154 0.0000
# 2 32.8397 18.9332 24.4429 0.0000 7.1174 0.0000
# 3 65.7201 24.4429 89.8153 0.0000 14.9374 0.0000
# 4 0.0000 0.0000 0.0000 9.6366 0.0000 13.1402
# 5 19.3154 7.1174 14.9374 0.0000 17.4587 0.0000
# 6 0.0000 0.0000 0.0000 13.1402 0.0000 6.5930
#
#
#
# Elastic Compliance Matrix: (Units=1/GPa)
#
#
# Indices 1 2 3 4 5 6 
#
# 1 0.021200 -0.024084 -0.007800 0.000000 -0.006963 0.000000
# 2 -0.024084 0.113131 -0.011573 0.000000 -0.009573 0.000000
# 3 -0.007800 -0.011573 0.020720 0.000000 -0.004379 0.000000
# 4 0.000000 0.000000 0.000000 -0.060415 0.000000 0.120409
# 5 -0.006963 -0.009573 -0.004379 0.000000 0.072631 0.000000
# 6 0.000000 0.000000 0.000000 0.120409 0.000000 -0.088304
#
#
# Mechanical properties :
#
#
# Convention : Reuss Voigt Hill
#
# Bulk Modulus (GPa) = 14.67660 52.19493 33.43577
# Shear Modulus (GPa) = 26.51252 13.45408 19.98330
#
# Velocity S-wave (km/s) = 3.83543 2.73222 3.32983
# Velocity P-wave (km/s) = 5.26853 6.23810 5.77370
#
# Compressibility (1/GPa) = 0.06813567
#
# Stress axis : x y z
#
# Youngs Moduli (GPa) = 47.16898 8.83929 48.26346
#
# Poissons Ratio (x) = 0.21289 0.37647
# Poissons Ratio (y) = 1.13604 0.55855
# Poissons Ratio (z) = 0.36794 0.10230
#
# Static dielectric constant tensor:
#      x y z
#    x 1.613660 0.000000 0.005700 
#    y 0.000000 1.605420 0.000000 
#    z 0.005700 0.000000 1.610780 
# 
# From -- ./inp_files/49086.got.cif
#   From: 2010.05.17/outbox.cif.g08.bks.cpg/sg10_25_cif.got.tgz:49086.got - 2010.06.03 11:33:40.
