data_PCOD9146737
_publ_section_title
;
Structure prediction by ZEFSAII (Michael W. Deem and Ramdas Pophale) SiO2 
 PCOD9146737
Probable space group: P 2/M
;
_chemical_formula_sum "Si O2"
_cell_formula_units_Z 28
_cell_length_a 15.215356
_cell_length_b 7.390972
_cell_length_c 18.727547
_cell_angle_alpha 90.000000
_cell_angle_beta 141.600561
_cell_angle_gamma 90.000000
_cell_volume 1308.139752
_symmetry_space_group_name_H-M "P 2/M"
_symmetry_group_IT_number 10
_symmetry_cell_setting 'monoclinic'
loop_
_space_group_symop_operation_xyz
x,y,z
-x,y,-z
-x,-y,-z
x,-y,z
loop_
_atom_site_type_symbol
_atom_site_label
_atom_site_fract_x
_atom_site_fract_y
_atom_site_fract_z
Si Si1 0.201618 0.209824 0.420358
Si Si2 0.765553 0.500000 0.302810
Si Si3 0.948851 0.780378 0.816466
Si Si4 0.207480 0.793913 0.148151
Si Si5 0.261304 0.219834 0.023710
Si Si6 0.915510 0.500000 0.549536
Si Si7 0.485983 0.716464 0.409599
Si Si8 0.466004 0.217705 0.894841
O O1 0.160066 0.275799 0.314172
O O2 0.119902 0.326361 0.425589
O O3 0.368685 0.233605 0.536416
O O4 0.163703 0.000000 0.401130
O O5 0.810308 0.500000 0.414511
O O6 0.670084 0.328330 0.218815
O O7 0.919606 0.500000 0.364635
O O8 0.906425 0.714390 0.868607
O O9 0.942085 0.000000 0.816365
O O10 0.107465 0.730377 0.894797
O O11 0.249396 0.715185 0.098151
O O12 0.350283 0.796055 0.285144
O O13 0.162359 0.000000 0.103876
O O14 0.397969 0.276176 0.066088
O O15 0.269132 0.000000 0.029117
O O16 0.500000 0.779813 0.500000
O O17 0.470542 0.500000 0.399767
O O18 0.446034 0.000000 0.874724
O O19 0.500000 0.253811 0.000000
#
# Coordination Sequence:
#
# PCOD9146737 Si02
#       8
#     4   2   4   4   4   2   4   4
#     4  11  23  40  66  93 127 174 220 269 326 385
#     4  11  27  50  72  94 134 168 211 272 350 402
#     4   9  18  34  58  89 127 169 213 258 310 375
#     4  10  19  33  58  88 123 167 213 259 309 376
#     4   9  19  35  59  93 126 162 207 261 322 379
#     4  11  28  48  67 100 129 167 218 277 329 410
#     4  11  22  36  56  84 128 176 219 264 313 371
#     4  10  23  44  73 104 132 167 218 275 332 400
#
# _framework density 21.404440999999998
#
# number of rings (size 3 to 8) (size 9 to 14) (size 15 to 20)
#    0.000    1.857    2.143    1.071    4.000    3.429 
#    0.000    1.429    0.000    0.857    0.000    0.000 
#    0.000    0.000    0.000    0.000    0.000    0.000 
#
# Total GULP energy -156452.501042 kJ/mol
# GULP energy per Si atom -5587.589323 kJ/mol
# Density = 2.135572 g / cm^3
# Si number density = 21.404441 Si / 1000 Ang^3
#
#
#
# Elastic Constant Matrix: (Units=GPa)
#
#
# Indices 1 2 3 4 5 6 
#
# 1 154.6183 35.2947 58.3692 0.0000 4.9118 0.0000
# 2 35.2947 99.5859 19.8760 0.0000 -1.6981 0.0000
# 3 58.3692 19.8760 114.8529 0.0000 13.7696 0.0000
# 4 0.0000 0.0000 0.0000 -23.5247 0.0000 -11.5404
# 5 4.9118 -1.6981 13.7696 0.0000 30.4339 0.0000
# 6 0.0000 0.0000 0.0000 -11.5404 0.0000 3.6148
#
#
#
# Elastic Compliance Matrix: (Units=1/GPa)
#
#
# Indices 1 2 3 4 5 6 
#
# 1 0.008452 -0.002202 -0.003950 0.000000 0.000300 0.000000
# 2 -0.002202 0.011037 -0.000960 0.000000 0.001405 0.000000
# 3 -0.003950 -0.000960 0.011430 0.000000 -0.004588 0.000000
# 4 0.000000 0.000000 0.000000 -0.016565 0.000000 -0.052885
# 5 0.000300 0.001405 -0.004588 0.000000 0.034964 0.000000
# 6 0.000000 0.000000 0.000000 -0.052885 0.000000 0.107803
#
#
# Mechanical properties :
#
#
# Convention : Reuss Voigt Hill
#
# Bulk Modulus (GPa) = 59.89366 66.23743 63.06554
# Shear Modulus (GPa) = 28.26289 19.13927 23.70108
#
# Velocity S-wave (km/s) = 3.63770 2.99352 3.33122
# Velocity P-wave (km/s) = 6.75918 6.55447 6.65761
#
# Compressibility (1/GPa) = 0.01669626
#
# Stress axis : x y z
#
# Youngs Moduli (GPa) = 118.31689 90.60061 87.48599
#
# Poissons Ratio (x) = 0.19950 0.34559
# Poissons Ratio (y) = 0.26053 0.08395
# Poissons Ratio (z) = 0.46738 0.08694
#
# Static dielectric constant tensor:
#      x y z
#    x 1.760060 0.000000 -0.016100 
#    y 0.000000 1.798210 0.000000 
#    z -0.016100 0.000000 1.752900 
# 
# From -- ./inp_files/77842.got.cif
#   From: 2010.05.17/outbox.cif.g08.bks.cpg/sg10_39_cif.got.tgz:77842.got - 2010.06.03 11:33:40.
