data_PCOD9146508
_publ_section_title
;
Structure prediction by ZEFSAII (Michael W. Deem and Ramdas Pophale) SiO2 
 PCOD9146508
Probable space group: P 2/M
;
_chemical_formula_sum "Si O2"
_cell_formula_units_Z 32
_cell_length_a 22.025719
_cell_length_b 8.611934
_cell_length_c 12.357300
_cell_angle_alpha 90.000000
_cell_angle_beta 45.766002
_cell_angle_gamma 90.000000
_cell_volume 1679.456008
_symmetry_space_group_name_H-M "P 2/M"
_symmetry_group_IT_number 10
_symmetry_cell_setting 'monoclinic'
loop_
_space_group_symop_operation_xyz
x,y,z
-x,y,-z
-x,-y,-z
x,-y,z
loop_
_atom_site_type_symbol
_atom_site_label
_atom_site_fract_x
_atom_site_fract_y
_atom_site_fract_z
Si Si1 0.035403 0.317206 0.077507
Si Si2 0.748203 0.685369 0.945708
Si Si3 0.574332 0.683510 0.772128
Si Si4 0.866169 0.687300 0.416032
Si Si5 0.390680 0.816499 0.043917
Si Si6 0.717994 0.814204 0.448766
Si Si7 0.096567 0.311145 0.389295
Si Si8 0.220618 0.816179 0.864591
O O1 0.055739 0.500000 0.068303
O O2 0.959442 0.276715 0.253156
O O3 0.120778 0.222249 0.985829
O O4 0.000000 0.298387 0.000000
O O5 0.741566 0.500000 0.943196
O O6 0.840737 0.734284 0.785031
O O7 0.678278 0.763083 0.956723
O O8 0.740544 0.733556 0.079416
O O9 0.559640 0.500000 0.788863
O O10 0.484396 0.770346 0.886263
O O11 0.634071 0.736051 0.600556
O O12 0.619965 0.729507 0.828200
O O13 0.855277 0.500000 0.422342
O O14 0.795558 0.765570 0.429928
O O15 0.863933 0.734186 0.544233
O O16 0.386348 0.000000 0.067981
O O17 0.740235 0.765180 0.298852
O O18 0.708883 0.000000 0.462570
O O19 0.092814 0.500000 0.393805
O O20 0.000000 0.255029 0.500000
O O21 0.232868 0.000000 0.859610
#
# Coordination Sequence:
#
# PCOD9146508 Si02
#       8
#     4   4   4   4   4   4   4   4
#     4  10  19  33  55  82 111 149 199 247 294 349
#     4  11  22  38  61  86 116 156 204 248 290 348
#     4  11  22  39  65  94 122 151 192 240 289 346
#     4  10  19  33  56  83 112 148 193 245 299 356
#     4  11  22  40  65  93 125 156 189 233 292 353
#     4  11  23  38  56  83 117 152 192 243 303 356
#     4   9  18  33  54  81 112 147 188 237 289 336
#     4  11  24  39  56  80 116 160 201 245 302 359
#
# _framework density 19.053788000000001
#
# number of rings (size 3 to 8) (size 9 to 14) (size 15 to 20)
#    0.000    1.500    1.250    5.625    0.000    5.250 
#    0.000    1.250    0.000    6.375    0.000    0.000 
#    0.000    0.000    0.000    0.000    0.000    0.000 
#
# Total GULP energy -178900.775593 kJ/mol
# GULP energy per Si atom -5590.649237 kJ/mol
# Density = 1.901042 g / cm^3
# Si number density = 19.053788 Si / 1000 Ang^3
#
#
#
# Elastic Constant Matrix: (Units=GPa)
#
#
# Indices 1 2 3 4 5 6 
#
# 1 74.1480 5.7311 26.4284 0.0000 5.8517 0.0000
# 2 5.7311 33.7191 8.7375 0.0000 1.0532 0.0000
# 3 26.4284 8.7375 91.4842 0.0000 15.0394 0.0000
# 4 0.0000 0.0000 0.0000 26.0427 0.0000 -4.3631
# 5 5.8517 1.0532 15.0394 0.0000 22.9925 0.0000
# 6 0.0000 0.0000 0.0000 -4.3631 0.0000 49.0498
#
#
#
# Elastic Compliance Matrix: (Units=1/GPa)
#
#
# Indices 1 2 3 4 5 6 
#
# 1 0.015132 -0.001489 -0.004042 0.000000 -0.001139 0.000000
# 2 -0.001489 0.030563 -0.002601 0.000000 0.000680 0.000000
# 3 -0.004042 -0.002601 0.013623 0.000000 -0.007763 0.000000
# 4 0.000000 0.000000 0.000000 0.038979 0.000000 0.003467
# 5 -0.001139 0.000680 -0.007763 0.000000 0.048829 0.000000
# 6 0.000000 0.000000 0.000000 0.003467 0.000000 0.020696
#
#
# Mechanical properties :
#
#
# Convention : Reuss Voigt Hill
#
# Bulk Modulus (GPa) = 23.22630 31.23837 27.23234
# Shear Modulus (GPa) = 25.19693 30.18062 27.68878
#
# Velocity S-wave (km/s) = 3.64044 3.98423 3.81621
# Velocity P-wave (km/s) = 5.46688 6.13155 5.80873
#
# Compressibility (1/GPa) = 0.04305463
#
# Stress axis : x y z
#
# Youngs Moduli (GPa) = 66.08419 32.71982 73.40481
#
# Poissons Ratio (x) = 0.04872 0.29670
# Poissons Ratio (y) = 0.09840 0.19090
# Poissons Ratio (z) = 0.26711 0.08509
#
# Static dielectric constant tensor:
#      x y z
#    x 1.638580 0.000000 0.004640 
#    y 0.000000 1.646230 0.000000 
#    z 0.004640 0.000000 1.662510 
# 
# From -- ./inp_files/55251.got.cif
#   From: 2010.05.17/outbox.cif.g08.bks.cpg/sg10_28_cif.got.tgz:55251.got - 2010.06.03 11:33:40.
