data_PCOD9146227
_publ_section_title
;
Structure prediction by ZEFSAII (Michael W. Deem and Ramdas Pophale) SiO2 
 PCOD9146227
Probable space group: P 2/M
;
_chemical_formula_sum "Si O2"
_cell_formula_units_Z 28
_cell_length_a 10.033174
_cell_length_b 12.221004
_cell_length_c 13.673007
_cell_angle_alpha 90.000000
_cell_angle_beta 102.809180
_cell_angle_gamma 90.000000
_cell_volume 1634.799850
_symmetry_space_group_name_H-M "P 2/M"
_symmetry_group_IT_number 10
_symmetry_cell_setting 'monoclinic'
loop_
_space_group_symop_operation_xyz
x,y,z
-x,y,-z
-x,-y,-z
x,-y,z
loop_
_atom_site_type_symbol
_atom_site_label
_atom_site_fract_x
_atom_site_fract_y
_atom_site_fract_z
Si Si1 0.651920 0.263484 0.321253
Si Si2 0.096161 0.126987 0.316155
Si Si3 0.132604 0.692182 0.472629
Si Si4 0.808865 0.869369 0.177632
Si Si5 0.560065 0.500000 0.343302
Si Si6 0.707000 0.500000 0.581464
Si Si7 0.361847 0.867737 0.032036
Si Si8 0.385396 0.130951 0.260111
O O1 0.757834 0.270837 0.428410
O O2 0.724355 0.201930 0.242499
O O3 0.605582 0.389173 0.296848
O O4 0.514942 0.195390 0.323646
O O5 0.078770 0.203595 0.405832
O O6 0.244134 0.148816 0.293671
O O7 0.969512 0.145662 0.222512
O O8 0.091547 0.000000 0.343636
O O9 0.202459 0.608625 0.408786
O O10 0.000000 0.637973 0.500000
O O11 0.761635 0.839165 0.060611
O O12 0.777509 0.000000 0.186975
O O13 0.632954 0.500000 0.462458
O O14 0.401328 0.500000 0.348750
O O15 0.363902 0.000000 0.037252
O O16 0.500000 0.832273 0.000000
O O17 0.363212 0.831402 0.144196
O O18 0.413407 0.000000 0.265396
#
# Coordination Sequence:
#
# PCOD9146227 Si02
#       8
#     4   4   4   4   2   2   4   4
#     4  11  20  34  55  76 104 135 175 212 258 310
#     4  10  22  35  48  77 114 140 170 208 257 316
#     4  11  21  35  53  77 103 142 176 212 254 305
#     4  10  19  33  53  77 106 139 173 214 258 303
#     4   9  20  34  52  77 101 132 168 223 263 297
#     4   9  19  36  54  72 100 130 179 224 257 289
#     4   9  16  29  52  78 100 131 176 218 254 295
#     4  10  20  34  54  79 105 136 175 216 256 307
#
# _framework density 17.127479999999998
#
# number of rings (size 3 to 8) (size 9 to 14) (size 15 to 20)
#    0.000    2.000    2.857    1.500    0.000    3.714 
#    0.000    4.286    0.000    1.714    0.000    0.000 
#    0.000    4.571    0.000    0.000    0.000    0.000 
#
# Total GULP energy -156082.847657 kJ/mol
# GULP energy per Si atom -5574.387416 kJ/mol
# Density = 1.708850 g / cm^3
# Si number density = 17.127480 Si / 1000 Ang^3
#
#
#
# Elastic Constant Matrix: (Units=GPa)
#
#
# Indices 1 2 3 4 5 6 
#
# 1 73.1755 35.7728 10.9742 0.0000 22.7495 0.0000
# 2 35.7728 59.4682 22.8426 0.0000 8.6156 0.0000
# 3 10.9742 22.8426 55.3595 0.0000 18.2978 0.0000
# 4 0.0000 0.0000 0.0000 -2.7585 0.0000 -7.4699
# 5 22.7495 8.6156 18.2978 0.0000 25.3756 0.0000
# 6 0.0000 0.0000 0.0000 -7.4699 0.0000 22.2212
#
#
#
# Elastic Compliance Matrix: (Units=1/GPa)
#
#
# Indices 1 2 3 4 5 6 
#
# 1 0.029546 -0.017846 0.010843 0.000000 -0.028248 0.000000
# 2 -0.017846 0.030785 -0.014440 0.000000 0.015959 0.000000
# 3 0.010843 -0.014440 0.030808 0.000000 -0.027033 0.000000
# 4 0.000000 0.000000 0.000000 -0.189771 0.000000 -0.063793
# 5 -0.028248 0.015959 -0.027033 0.000000 0.078807 0.000000
# 6 0.000000 0.000000 0.000000 -0.063793 0.000000 0.023557
#
#
# Mechanical properties :
#
#
# Convention : Reuss Voigt Hill
#
# Bulk Modulus (GPa) = 20.72375 36.35358 28.53866
# Shear Modulus (GPa) = 79.74455 16.86193 48.30324
#
# Velocity S-wave (km/s) = 6.83085 3.14107 5.31633
# Velocity P-wave (km/s) = 8.62206 5.86741 7.37450
#
# Compressibility (1/GPa) = 0.04825381
#
# Stress axis : x y z
#
# Youngs Moduli (GPa) = 33.84610 32.48331 32.45954
#
# Poissons Ratio (x) = 0.57968 -0.35196
# Poissons Ratio (y) = 0.60400 0.46871
# Poissons Ratio (z) = -0.36700 0.46905
#
# Static dielectric constant tensor:
#      x y z
#    x 1.602900 0.000000 0.011960 
#    y 0.000000 1.572510 0.000000 
#    z 0.011960 0.000000 1.570020 
# 
# From -- ./inp_files/61048.got.cif
#   From: 2010.05.17/outbox.cif.g08.bks.cpg/sg10_31_cif.got.tgz:61048.got - 2010.06.03 11:33:40.
