data_PCOD9146826
_publ_section_title
;
Structure prediction by ZEFSAII (Michael W. Deem and Ramdas Pophale) SiO2 
 PCOD9146826
Probable space group: P 2/M
;
_chemical_formula_sum "Si O2"
_cell_formula_units_Z 26
_cell_length_a 16.732160
_cell_length_b 12.191619
_cell_length_c 8.043474
_cell_angle_alpha 90.000000
_cell_angle_beta 136.688667
_cell_angle_gamma 90.000000
_cell_volume 1125.530572
_symmetry_space_group_name_H-M "P 2/M"
_symmetry_group_IT_number 10
_symmetry_cell_setting 'monoclinic'
loop_
_space_group_symop_operation_xyz
x,y,z
-x,y,-z
-x,-y,-z
x,-y,z
loop_
_atom_site_type_symbol
_atom_site_label
_atom_site_fract_x
_atom_site_fract_y
_atom_site_fract_z
Si Si1 0.167642 0.737859 0.339199
Si Si2 0.631133 0.125441 0.848897
Si Si3 0.166832 0.257907 0.960895
Si Si4 0.442357 0.739957 0.733403
Si Si5 0.157061 0.500000 0.246021
Si Si6 0.429857 0.500000 0.566509
Si Si7 0.904515 0.500000 0.207598
Si Si8 0.139306 0.124530 0.611050
O O1 0.305339 0.759962 0.539110
O O2 0.152538 0.608777 0.347310
O O3 0.117371 0.806933 0.413134
O O4 0.122806 0.751824 0.082457
O O5 0.508421 0.174561 0.714425
O O6 0.627984 0.000000 0.781894
O O7 0.701038 0.212071 0.840716
O O8 0.719336 0.123532 0.141735
O O9 0.159487 0.381549 0.879274
O O10 0.104124 0.179185 0.733703
O O11 0.461806 0.614286 0.703837
O O12 0.500000 0.751489 0.000000
O O13 0.287104 0.500000 0.353749
O O14 0.070589 0.500000 0.955940
O O15 0.500000 0.500000 0.500000
O O16 0.000000 0.500000 0.500000
O O17 0.101369 0.000000 0.535704
#
# Coordination Sequence:
#
# PCOD9146826 Si02
#       8
#     4   4   4   4   2   2   2   4
#     4  10  19  34  53  77 112 154 186 239 284 318
#     4   9  20  35  49  73 109 147 193 234 266 321
#     4   9  20  36  56  80 115 139 182 232 290 346
#     4  11  20  32  48  74 106 147 199 237 266 325
#     4   8  20  36  52  82 112 139 185 230 276 357
#     4  10  23  31  51  73 110 146 187 225 279 332
#     4  10  20  37  65  94 112 140 182 232 298 356
#     4   9  19  35  53  79 108 152 200 227 275 338
#
# _framework density 23.100218999999999
#
# number of rings (size 3 to 8) (size 9 to 14) (size 15 to 20)
#    0.923    1.538    1.538    0.231    6.462    2.769 
#    0.000    0.769    0.000    9.231    0.000    4.308 
#    0.000    0.000    0.000    0.000    0.000    0.000 
#
# Total GULP energy -145138.734921 kJ/mol
# GULP energy per Si atom -5582.259035 kJ/mol
# Density = 2.304764 g / cm^3
# Si number density = 23.100219 Si / 1000 Ang^3
#
#
#
# Elastic Constant Matrix: (Units=GPa)
#
#
# Indices 1 2 3 4 5 6 
#
# 1 110.3875 72.1830 41.2683 0.0000 -8.3548 0.0000
# 2 72.1830 192.5422 60.7565 0.0000 -29.2555 0.0000
# 3 41.2683 60.7565 125.8317 0.0000 -8.1628 0.0000
# 4 0.0000 0.0000 0.0000 43.9377 0.0000 -10.6978
# 5 -8.3548 -29.2555 -8.1628 0.0000 47.3573 0.0000
# 6 0.0000 0.0000 0.0000 -10.6978 0.0000 25.5164
#
#
#
# Elastic Compliance Matrix: (Units=1/GPa)
#
#
# Indices 1 2 3 4 5 6 
#
# 1 0.012503 -0.004113 -0.002160 0.000000 -0.000707 0.000000
# 2 -0.004113 0.008041 -0.002284 0.000000 0.003848 0.000000
# 3 -0.002160 -0.002284 0.009751 0.000000 -0.000111 0.000000
# 4 0.000000 0.000000 0.000000 0.025347 0.000000 0.010627
# 5 -0.000707 0.003848 -0.000111 0.000000 0.023349 0.000000
# 6 0.000000 0.000000 0.000000 0.010627 0.000000 0.043646
#
#
# Mechanical properties :
#
#
# Convention : Reuss Voigt Hill
#
# Bulk Modulus (GPa) = 75.87161 86.35303 81.11232
# Shear Modulus (GPa) = 34.68737 40.33251 37.50994
#
# Velocity S-wave (km/s) = 3.87926 4.18303 4.03400
# Velocity P-wave (km/s) = 7.27878 7.79701 7.54235
#
# Compressibility (1/GPa) = 0.01318016
#
# Stress axis : x y z
#
# Youngs Moduli (GPa) = 79.98344 124.36289 102.55114
#
# Poissons Ratio (x) = 0.51150 0.22155
# Poissons Ratio (y) = 0.32897 0.23422
# Poissons Ratio (z) = 0.17280 0.28404
#
# Static dielectric constant tensor:
#      x y z
#    x 1.914050 0.000000 0.045200 
#    y 0.000000 1.817460 0.000000 
#    z 0.045200 0.000000 1.903260 
# 
# From -- ./inp_files/37467.got.cif
#   From: 2010.05.17/outbox.cif.g08.bks.cpg/sg10_19_cif.got.tgz:37467.got - 2010.06.03 11:33:40.
