data_PCOD9146328
_publ_section_title
;
Structure prediction by ZEFSAII (Michael W. Deem and Ramdas Pophale) SiO2 
 PCOD9146328
Probable space group: P 2/M
;
_chemical_formula_sum "Si O2"
_cell_formula_units_Z 28
_cell_length_a 16.044141
_cell_length_b 18.793620
_cell_length_c 8.952745
_cell_angle_alpha 90.000000
_cell_angle_beta 28.944620
_cell_angle_gamma 90.000000
_cell_volume 1306.460249
_symmetry_space_group_name_H-M "P 2/M"
_symmetry_group_IT_number 10
_symmetry_cell_setting 'monoclinic'
loop_
_space_group_symop_operation_xyz
x,y,z
-x,y,-z
-x,-y,-z
x,-y,z
loop_
_atom_site_type_symbol
_atom_site_label
_atom_site_fract_x
_atom_site_fract_y
_atom_site_fract_z
Si Si1 0.908688 0.000000 0.376055
Si Si2 0.648837 0.848141 0.376432
Si Si3 0.820457 0.230685 0.353437
Si Si4 0.465998 0.419609 0.890594
Si Si5 0.717246 0.000000 0.372451
Si Si6 0.023444 0.155733 0.631587
Si Si7 0.171429 0.414554 0.133676
Si Si8 0.172520 0.613693 0.792784
O O1 0.762682 0.000000 0.476845
O O2 0.906486 0.925645 0.468062
O O3 0.094147 0.000000 0.001574
O O4 0.500000 0.823319 0.500000
O O5 0.668104 0.804644 0.499427
O O6 0.622366 0.929522 0.467424
O O7 0.832419 0.843089 0.003864
O O8 0.846036 0.206457 0.482103
O O9 0.817640 0.313028 0.316373
O O10 0.000000 0.201608 0.000000
O O11 0.398843 0.500000 0.027332
O O12 0.648538 0.423471 0.522940
O O13 0.500000 0.385733 0.000000
O O14 0.328804 0.388096 0.990202
O O15 0.000000 0.178876 0.500000
O O16 0.194393 0.500000 0.066924
O O17 0.000000 0.406288 0.500000
O O18 0.158420 0.377199 0.993144
O O19 0.000000 0.577987 0.000000
#
# Coordination Sequence:
#
# PCOD9146328 Si02
#       8
#     2   4   4   4   2   4   4   4
#     4   9  15  28  57  84 103 144 185 231 282 340
#     4  10  19  33  54  79 107 143 185 229 279 334
#     4   9  20  38  55  76 109 150 195 228 272 338
#     4  10  21  38  60  88 120 153 191 238 289 341
#     4   9  15  28  53  80 105 142 183 225 276 338
#     4  10  19  35  58  82 109 142 189 237 284 338
#     4  10  21  38  62  91 120 149 187 240 299 350
#     4  11  22  37  57  84 116 157 198 239 284 348
#
# _framework density 21.431957000000001
#
# number of rings (size 3 to 8) (size 9 to 14) (size 15 to 20)
#    0.000    2.143    1.429    2.143    0.000    4.571 
#    0.000   12.857    0.000    0.857    0.000    0.000 
#    0.000    0.000    0.000    0.000    0.000    0.000 
#
# Total GULP energy -156222.224362 kJ/mol
# GULP energy per Si atom -5579.365156 kJ/mol
# Density = 2.138318 g / cm^3
# Si number density = 21.431957 Si / 1000 Ang^3
#
#
#
# Elastic Constant Matrix: (Units=GPa)
#
#
# Indices 1 2 3 4 5 6 
#
# 1 216.9893 48.2010 40.5936 0.0000 -9.8293 0.0000
# 2 48.2010 79.7211 5.0564 0.0000 -1.5932 0.0000
# 3 40.5936 5.0564 55.9035 0.0000 -9.1911 0.0000
# 4 0.0000 0.0000 0.0000 -1.0847 0.0000 -6.8109
# 5 -9.8293 -1.5932 -9.1911 0.0000 39.1369 0.0000
# 6 0.0000 0.0000 0.0000 -6.8109 0.0000 1.3199
#
#
#
# Elastic Compliance Matrix: (Units=1/GPa)
#
#
# Indices 1 2 3 4 5 6 
#
# 1 0.006161 -0.003457 -0.004088 0.000000 0.000447 0.000000
# 2 -0.003457 0.014558 0.001194 0.000000 0.000005 0.000000
# 3 -0.004088 0.001194 0.021414 0.000000 0.004051 0.000000
# 4 0.000000 0.000000 0.000000 -0.027602 0.000000 -0.142428
# 5 0.000447 0.000005 0.004051 0.000000 0.026615 0.000000
# 6 0.000000 0.000000 0.000000 -0.142428 0.000000 0.022684
#
#
# Mechanical properties :
#
#
# Convention : Reuss Voigt Hill
#
# Bulk Modulus (GPa) = 33.97574 60.03509 47.00542
# Shear Modulus (GPa) = 57.90828 25.12529 41.51678
#
# Velocity S-wave (km/s) = 5.20368 3.42764 4.40607
# Velocity P-wave (km/s) = 7.21052 6.61345 6.91843
#
# Compressibility (1/GPa) = 0.02943276
#
# Stress axis : x y z
#
# Youngs Moduli (GPa) = 162.29913 68.68920 46.69766
#
# Poissons Ratio (x) = 0.23747 0.19090
# Poissons Ratio (y) = 0.56109 -0.05577
# Poissons Ratio (z) = 0.66347 -0.08204
#
# Static dielectric constant tensor:
#      x y z
#    x 1.787120 0.000000 0.003300 
#    y 0.000000 1.840780 0.000000 
#    z 0.003300 0.000000 1.776340 
# 
# From -- ./inp_files/30459.got.cif
#   From: 2010.05.17/outbox.cif.g08.bks.cpg/sg10_16_cif.got.tgz:30459.got - 2010.06.03 11:33:40.
