data_PCOD9146503
_publ_section_title
;
Structure prediction by ZEFSAII (Michael W. Deem and Ramdas Pophale) SiO2 
 PCOD9146503
Probable space group: P 2/M
;
_chemical_formula_sum "Si O2"
_cell_formula_units_Z 26
_cell_length_a 12.963197
_cell_length_b 15.367349
_cell_length_c 7.574213
_cell_angle_alpha 90.000000
_cell_angle_beta 60.416942
_cell_angle_gamma 90.000000
_cell_volume 1312.165364
_symmetry_space_group_name_H-M "P 2/M"
_symmetry_group_IT_number 10
_symmetry_cell_setting 'monoclinic'
loop_
_space_group_symop_operation_xyz
x,y,z
-x,y,-z
-x,-y,-z
x,-y,z
loop_
_atom_site_type_symbol
_atom_site_label
_atom_site_fract_x
_atom_site_fract_y
_atom_site_fract_z
Si Si1 0.191076 0.712363 0.097213
Si Si2 0.856770 0.905885 0.801966
Si Si3 0.125482 0.904651 0.637191
Si Si4 0.033868 0.601880 0.759856
Si Si5 0.604862 0.593932 0.051081
Si Si6 0.500000 0.334313 0.500000
Si Si7 0.243076 0.723100 0.643186
O O1 0.203503 0.814500 0.116878
O O2 0.066951 0.664349 0.241167
O O3 0.299831 0.663291 0.092433
O O4 0.212141 0.703639 0.871655
O O5 0.869816 0.908514 0.579456
O O6 0.984541 0.897157 0.789787
O O7 0.805173 0.000000 0.898647
O O8 0.195323 0.819611 0.639263
O O9 0.166142 0.000000 0.669762
O O10 0.033416 0.500000 0.705557
O O11 0.160209 0.650075 0.619497
O O12 0.000000 0.601150 0.000000
O O13 0.665708 0.500000 0.007248
O O14 0.552827 0.612885 0.289647
O O15 0.500000 0.592384 0.000000
O O16 0.614289 0.284038 0.485450
#
# Coordination Sequence:
#
# PCOD9146503 Si02
#       7
#     4   4   4   4   4   2   4
#     4  10  19  33  55  82 110 135 178 230 277 324
#     4   9  18  32  54  82 110 141 176 220 277 337
#     4   9  18  33  53  78 110 145 178 217 276 337
#     4   9  17  30  50  77 108 138 171 219 278 329
#     4  10  22  39  59  83 111 152 195 228 273 330
#     4  10  23  38  57  80 114 152 191 234 273 324
#     4  10  20  34  53  80 105 143 183 223 276 327
#
# _framework density 19.814572999999999
#
# number of rings (size 3 to 8) (size 9 to 14) (size 15 to 20)
#    0.000    2.462    1.538    1.615    2.154    4.923 
#    0.000    1.923    0.000    2.308    0.000    0.000 
#    0.000    0.000    0.000    0.000    0.000    0.000 
#
# Total GULP energy -144802.948566 kJ/mol
# GULP energy per Si atom -5569.344176 kJ/mol
# Density = 1.976947 g / cm^3
# Si number density = 19.814573 Si / 1000 Ang^3
#
#
#
# Elastic Constant Matrix: (Units=GPa)
#
#
# Indices 1 2 3 4 5 6 
#
# 1 88.0310 62.9263 16.2283 0.0000 -18.6810 0.0000
# 2 62.9263 173.1050 11.3194 0.0000 -36.8489 0.0000
# 3 16.2283 11.3194 28.2617 0.0000 -7.6829 0.0000
# 4 0.0000 0.0000 0.0000 32.1323 0.0000 10.6810
# 5 -18.6810 -36.8489 -7.6829 0.0000 26.2265 0.0000
# 6 0.0000 0.0000 0.0000 10.6810 0.0000 50.7700
#
#
#
# Elastic Compliance Matrix: (Units=1/GPa)
#
#
# Indices 1 2 3 4 5 6 
#
# 1 0.016858 -0.005067 -0.006869 0.000000 0.002877 0.000000
# 2 -0.005067 0.009765 0.001898 0.000000 0.010668 0.000000
# 3 -0.006869 0.001898 0.041247 0.000000 0.009857 0.000000
# 4 0.000000 0.000000 0.000000 0.033461 0.000000 -0.007040
# 5 0.002877 0.010668 0.009857 0.000000 0.058055 0.000000
# 6 0.000000 0.000000 0.000000 -0.007040 0.000000 0.021178
#
#
# Mechanical properties :
#
#
# Convention : Reuss Voigt Hill
#
# Bulk Modulus (GPa) = 20.92219 52.26063 36.59141
# Shear Modulus (GPa) = 23.08709 35.08733 29.08721
#
# Velocity S-wave (km/s) = 3.41714 4.21263 3.83557
# Velocity P-wave (km/s) = 5.11381 7.07770 6.17434
#
# Compressibility (1/GPa) = 0.04779614
#
# Stress axis : x y z
#
# Youngs Moduli (GPa) = 59.31859 102.40297 24.24401
#
# Poissons Ratio (x) = 0.51883 0.16653
# Poissons Ratio (y) = 0.30054 -0.04602
# Poissons Ratio (z) = 0.40745 -0.19437
#
# Static dielectric constant tensor:
#      x y z
#    x 1.724470 0.000000 0.018290 
#    y 0.000000 1.787090 0.000000 
#    z 0.018290 0.000000 1.732050 
# 
# From -- ./inp_files/24810.got.cif
#   From: 2010.05.17/outbox.cif.g08.bks.cpg/sg10_13_cif.got.tgz:24810.got - 2010.06.03 11:33:40.
