data_PCOD9146341
_publ_section_title
;
Structure prediction by ZEFSAII (Michael W. Deem and Ramdas Pophale) SiO2 
 PCOD9146341
Probable space group: P 2/M
;
_chemical_formula_sum "Si O2"
_cell_formula_units_Z 24
_cell_length_a 22.484579
_cell_length_b 8.695494
_cell_length_c 9.914292
_cell_angle_alpha 90.000000
_cell_angle_beta 44.361603
_cell_angle_gamma 90.000000
_cell_volume 1355.290647
_symmetry_space_group_name_H-M "P 2/M"
_symmetry_group_IT_number 10
_symmetry_cell_setting 'monoclinic'
loop_
_space_group_symop_operation_xyz
x,y,z
-x,y,-z
-x,-y,-z
x,-y,z
loop_
_atom_site_type_symbol
_atom_site_label
_atom_site_fract_x
_atom_site_fract_y
_atom_site_fract_z
Si Si1 0.720531 0.815708 0.946144
Si Si2 0.762285 0.814765 0.576956
Si Si3 0.097031 0.314905 0.846447
Si Si4 0.228488 0.316007 0.861487
Si Si5 0.533506 0.316383 0.295331
Si Si6 0.629741 0.815784 0.565660
O O1 0.752543 0.765399 0.746958
O O2 0.725071 0.000000 0.946589
O O3 0.772761 0.743057 0.984516
O O4 0.623091 0.763317 0.122342
O O5 0.844542 0.749612 0.367895
O O6 0.679773 0.770930 0.620950
O O7 0.766676 0.000000 0.566465
O O8 0.096560 0.500000 0.836596
O O9 0.145853 0.276015 0.906402
O O10 0.000000 0.259803 0.000000
O O11 0.240094 0.500000 0.840375
O O12 0.308351 0.239322 0.655375
O O13 0.500000 0.276472 0.500000
O O14 0.544023 0.500000 0.272705
O O15 0.461130 0.261372 0.309338
O O16 0.620995 0.000000 0.575832
#
# Coordination Sequence:
#
# PCOD9146341 Si02
#       6
#     4   4   4   4   4   4
#     4  11  22  36  54  77 109 145 180 218 266 314
#     4   9  21  38  55  80 110 140 176 220 266 316
#     4   9  19  37  61  85 107 136 174 215 263 322
#     4  10  19  33  54  80 108 137 176 220 262 313
#     4  11  22  34  51  77 109 141 183 226 261 308
#     4  10  19  34  55  76 103 141 183 222 264 309
#
# _framework density 17.708376999999999
#
# number of rings (size 3 to 8) (size 9 to 14) (size 15 to 20)
#    0.000    2.000    1.667    2.000    0.000    4.333 
#    0.000    4.167    0.000    5.000    0.000    0.000 
#    0.000    0.000    0.000    0.000    0.000    0.000 
#
# Total GULP energy -133994.950486 kJ/mol
# GULP energy per Si atom -5583.122937 kJ/mol
# Density = 1.766807 g / cm^3
# Si number density = 17.708377 Si / 1000 Ang^3
#
#
#
# Elastic Constant Matrix: (Units=GPa)
#
#
# Indices 1 2 3 4 5 6 
#
# 1 115.2504 17.2955 73.8130 0.0000 5.7289 0.0000
# 2 17.2955 17.0084 16.2479 0.0000 5.0154 0.0000
# 3 73.8130 16.2479 97.5256 0.0000 17.2685 0.0000
# 4 0.0000 0.0000 0.0000 25.6968 0.0000 5.5259
# 5 5.7289 5.0154 17.2685 0.0000 35.7310 0.0000
# 6 0.0000 0.0000 0.0000 5.5259 0.0000 30.6103
#
#
#
# Elastic Compliance Matrix: (Units=1/GPa)
#
#
# Indices 1 2 3 4 5 6 
#
# 1 0.017981 -0.006956 -0.013246 0.000000 0.004495 0.000000
# 2 -0.006956 0.073305 -0.005822 0.000000 -0.006361 0.000000
# 3 -0.013246 -0.005822 0.022668 0.000000 -0.008014 0.000000
# 4 0.000000 0.000000 0.000000 0.040487 0.000000 -0.007309
# 5 0.004495 -0.006361 -0.008014 0.000000 0.032032 0.000000
# 6 0.000000 0.000000 0.000000 -0.007309 0.000000 0.033988
#
#
# Mechanical properties :
#
#
# Convention : Reuss Voigt Hill
#
# Bulk Modulus (GPa) = 16.15346 49.38856 32.77101
# Shear Modulus (GPa) = 17.05653 26.56950 21.81301
#
# Velocity S-wave (km/s) = 3.10690 3.87769 3.51350
# Velocity P-wave (km/s) = 4.69171 6.92814 5.91656
#
# Compressibility (1/GPa) = 0.06190624
#
# Stress axis : x y z
#
# Youngs Moduli (GPa) = 55.61565 13.64168 44.11538
#
# Poissons Ratio (x) = 0.09489 0.58434
# Poissons Ratio (y) = 0.38686 0.25682
# Poissons Ratio (z) = 0.73667 0.07942
#
# Static dielectric constant tensor:
#      x y z
#    x 1.617800 0.000000 0.017620 
#    y 0.000000 1.594430 0.000000 
#    z 0.017620 0.000000 1.572590 
# 
# From -- ./inp_files/27332.got.cif
#   From: 2010.05.17/outbox.cif.g08.bks.cpg/sg10_14_cif.got.tgz:27332.got - 2010.06.03 11:33:40.
