data_PCOD9146682
_publ_section_title
;
Structure prediction by ZEFSAII (Michael W. Deem and Ramdas Pophale) SiO2 
 PCOD9146682
Probable space group: P 2/M
;
_chemical_formula_sum "Si O2"
_cell_formula_units_Z 32
_cell_length_a 9.767889
_cell_length_b 13.695486
_cell_length_c 27.958160
_cell_angle_alpha 90.000000
_cell_angle_beta 26.726970
_cell_angle_gamma 90.000000
_cell_volume 1682.084295
_symmetry_space_group_name_H-M "P 2/M"
_symmetry_group_IT_number 10
_symmetry_cell_setting 'monoclinic'
loop_
_space_group_symop_operation_xyz
x,y,z
-x,y,-z
-x,-y,-z
x,-y,z
loop_
_atom_site_type_symbol
_atom_site_label
_atom_site_fract_x
_atom_site_fract_y
_atom_site_fract_z
Si Si1 0.350933 0.198181 0.904802
Si Si2 0.592487 0.890238 0.523272
Si Si3 0.679084 0.262098 0.572972
Si Si4 0.247088 0.114228 0.038287
Si Si5 0.308975 0.263630 0.776599
Si Si6 0.515915 0.383502 0.802013
Si Si7 0.213107 0.615518 0.555483
Si Si8 0.314609 0.108139 0.288693
O O1 0.409055 0.313898 0.878851
O O2 0.567703 0.145553 0.798974
O O3 0.391850 0.151527 0.943519
O O4 0.000000 0.179482 0.000000
O O5 0.500000 0.850157 0.500000
O O6 0.535678 0.830030 0.589176
O O7 0.955639 0.893986 0.405351
O O8 0.465528 0.000000 0.566597
O O9 0.429459 0.302160 0.688333
O O10 0.752239 0.333861 0.506372
O O11 0.000000 0.243209 0.500000
O O12 0.993969 0.197539 0.128615
O O13 0.141297 0.000000 0.066449
O O14 0.500000 0.115015 0.000000
O O15 0.335907 0.342855 0.811054
O O16 0.558606 0.182916 0.712787
O O17 0.474808 0.500000 0.821014
O O18 0.876980 0.362177 0.681268
O O19 0.500000 0.639437 0.500000
O O20 0.219449 0.500000 0.546518
O O21 0.434689 0.000000 0.259453
#
# Coordination Sequence:
#
# PCOD9146682 Si02
#       8
#     4   4   4   4   4   4   4   4
#     4  11  21  38  63  90 110 150 204 248 297 350
#     4  10  22  37  53  81 121 160 196 237 291 357
#     4  12  21  35  58  87 119 157 197 237 294 346
#     4  11  25  43  61  86 121 155 194 252 310 354
#     4  11  22  37  56  89 117 153 198 244 294 352
#     4  10  21  39  64  93 123 154 199 247 296 356
#     4  10  22  40  63  91 123 157 194 241 295 353
#     4  10  19  33  57  83 112 147 196 246 287 347
#
# _framework density 19.024016
#
# number of rings (size 3 to 8) (size 9 to 14) (size 15 to 20)
#    0.000    1.375    5.000    1.875    0.000    4.750 
#    0.000    2.500    0.000    1.500    0.000    0.000 
#    0.000    0.000    0.000    0.000    0.000    0.000 
#
# Total GULP energy -178408.945863 kJ/mol
# GULP energy per Si atom -5575.279558 kJ/mol
# Density = 1.898072 g / cm^3
# Si number density = 19.024016 Si / 1000 Ang^3
#
#
#
# Elastic Constant Matrix: (Units=GPa)
#
#
# Indices 1 2 3 4 5 6 
#
# 1 100.2668 23.9358 13.8063 0.0000 6.9184 0.0000
# 2 23.9358 82.2065 1.3771 0.0000 0.2798 0.0000
# 3 13.8063 1.3771 48.0950 0.0000 10.1825 0.0000
# 4 0.0000 0.0000 0.0000 -4.2692 0.0000 -12.2270
# 5 6.9184 0.2798 10.1825 0.0000 23.5926 0.0000
# 6 0.0000 0.0000 0.0000 -12.2270 0.0000 24.4216
#
#
#
# Elastic Compliance Matrix: (Units=1/GPa)
#
#
# Indices 1 2 3 4 5 6 
#
# 1 0.011260 -0.003226 -0.002695 0.000000 -0.002100 0.000000
# 2 -0.003226 0.013095 0.000422 0.000000 0.000608 0.000000
# 3 -0.002695 0.000422 0.023538 0.000000 -0.009374 0.000000
# 4 0.000000 0.000000 0.000000 -0.096239 0.000000 -0.048183
# 5 -0.002100 0.000608 -0.009374 0.000000 0.047041 0.000000
# 6 0.000000 0.000000 0.000000 -0.048183 0.000000 0.016824
#
#
# Mechanical properties :
#
#
# Convention : Reuss Voigt Hill
#
# Bulk Modulus (GPa) = 27.10416 34.31186 30.70801
# Shear Modulus (GPa) = 128.82012 21.51226 75.16619
#
# Velocity S-wave (km/s) = 8.23781 3.36638 6.29261
# Velocity P-wave (km/s) = 10.23524 5.76066 8.30498
#
# Compressibility (1/GPa) = 0.03689470
#
# Stress axis : x y z
#
# Youngs Moduli (GPa) = 88.81332 76.36683 42.48394
#
# Poissons Ratio (x) = 0.24637 0.11450
# Poissons Ratio (y) = 0.28652 -0.01794
# Poissons Ratio (z) = 0.23937 -0.03225
#
# Static dielectric constant tensor:
#      x y z
#    x 1.694410 0.000000 0.043490 
#    y 0.000000 1.698140 0.000000 
#    z 0.043490 0.000000 1.987800 
# 
# From -- ./inp_files/88238.got.cif
#   From: 2010.05.17/outbox.cif.g08.bks.cpg/sg10_45_cif.got.tgz:88238.got - 2010.06.03 11:33:40.
