data_PCOD9146627
_publ_section_title
;
Structure prediction by ZEFSAII (Michael W. Deem and Ramdas Pophale) SiO2 
 PCOD9146627
Probable space group: P 2/M
;
_chemical_formula_sum "Si O2"
_cell_formula_units_Z 32
_cell_length_a 28.127646
_cell_length_b 8.903332
_cell_length_c 21.223028
_cell_angle_alpha 90.000000
_cell_angle_beta 160.696731
_cell_angle_gamma 90.000000
_cell_volume 1756.929881
_symmetry_space_group_name_H-M "P 2/M"
_symmetry_group_IT_number 10
_symmetry_cell_setting 'monoclinic'
loop_
_space_group_symop_operation_xyz
x,y,z
-x,y,-z
-x,-y,-z
x,-y,z
loop_
_atom_site_type_symbol
_atom_site_label
_atom_site_fract_x
_atom_site_fract_y
_atom_site_fract_z
Si Si1 0.664609 0.672531 0.829560
Si Si2 0.157295 0.325727 0.815647
Si Si3 0.410767 0.324165 0.824020
Si Si4 0.578450 0.180502 0.917196
Si Si5 0.947758 0.681065 0.123088
Si Si6 0.413181 0.820582 0.581632
Si Si7 0.083414 0.180485 0.169066
Si Si8 0.901749 0.179804 0.565891
O O1 0.628815 0.500000 0.771697
O O2 0.519491 0.761084 0.660890
O O3 0.754582 0.677939 0.007847
O O4 0.780650 0.726872 0.923832
O O5 0.133773 0.500000 0.769825
O O6 0.008163 0.243410 0.644939
O O7 0.262621 0.245282 0.897929
O O8 0.383996 0.500000 0.776395
O O9 0.503535 0.250845 0.884223
O O10 0.259574 0.239708 0.642652
O O11 0.500000 0.314149 0.000000
O O12 0.480870 0.221809 0.734107
O O13 0.583756 0.000000 0.928293
O O14 0.954966 0.500000 0.138725
O O15 0.009342 0.736041 0.134336
O O16 0.037680 0.756201 0.292133
O O17 0.249295 0.769818 0.371271
O O18 0.414220 0.000000 0.580236
O O19 0.081448 0.000000 0.178463
O O20 0.000000 0.208570 0.000000
O O21 0.906162 0.000000 0.571943
#
# Coordination Sequence:
#
# PCOD9146627 Si02
#       8
#     4   4   4   4   4   4   4   4
#     4   8  16  30  50  77 104 131 167 214 262 310
#     4   9  17  32  54  81 112 141 174 218 269 324
#     4  11  24  40  56  77 109 148 186 224 269 320
#     4  10  19  33  56  84 110 138 179 227 273 323
#     4  10  20  35  56  81 107 137 177 220 267 325
#     4   9  18  32  52  78 104 134 173 215 261 314
#     4  10  21  36  52  74 107 144 182 224 269 318
#     4  11  21  35  58  85 111 140 178 224 272 322
#
# _framework density 18.213588999999999
#
# number of rings (size 3 to 8) (size 9 to 14) (size 15 to 20)
#    0.000    2.250    0.000    4.125    0.000    6.750 
#    0.000    1.250    0.000    7.500    0.000    0.000 
#    0.000    0.000    0.000    0.000    0.000    0.000 
#
# Total GULP energy -178577.701719 kJ/mol
# GULP energy per Si atom -5580.553179 kJ/mol
# Density = 1.817213 g / cm^3
# Si number density = 18.213589 Si / 1000 Ang^3
#
#
#
# Elastic Constant Matrix: (Units=GPa)
#
#
# Indices 1 2 3 4 5 6 
#
# 1 80.0886 59.9116 103.9481 0.0000 43.3196 0.0000
# 2 59.9116 98.6231 64.3979 0.0000 18.8996 0.0000
# 3 103.9481 64.3979 87.7342 0.0000 39.8883 0.0000
# 4 0.0000 0.0000 0.0000 29.7615 0.0000 9.5116
# 5 43.3196 18.8996 39.8883 0.0000 31.9949 0.0000
# 6 0.0000 0.0000 0.0000 9.5116 0.0000 31.6290
#
#
#
# Elastic Compliance Matrix: (Units=1/GPa)
#
#
# Indices 1 2 3 4 5 6 
#
# 1 -0.018950 -0.008408 0.033936 0.000000 -0.011684 0.000000
# 2 -0.008408 0.019214 -0.009596 0.000000 0.011998 0.000000
# 3 0.033936 -0.009596 -0.007971 0.000000 -0.030342 0.000000
# 4 0.000000 0.000000 0.000000 0.037173 0.000000 -0.011179
# 5 -0.011684 0.011998 -0.030342 0.000000 0.077815 0.000000
# 6 0.000000 0.000000 0.000000 -0.011179 0.000000 0.034978
#
#
# Mechanical properties :
#
#
# Convention : Reuss Voigt Hill
#
# Bulk Modulus (GPa) = 41.39704 80.32901 60.86302
# Shear Modulus (GPa) = 42.21235 21.22297 31.71766
#
# Velocity S-wave (km/s) = 4.81940 3.41725 4.17757
# Velocity P-wave (km/s) = 7.33122 7.73109 7.53381
#
# Compressibility (1/GPa) = 0.02415632
#
# Stress axis : x y z
#
# Youngs Moduli (GPa) = -52.77112 52.04481 -125.45383
#
# Poissons Ratio (x) = 0.43762 4.25739
# Poissons Ratio (y) = -0.44372 -1.20386
# Poissons Ratio (z) = 1.79084 0.49942
#
# Static dielectric constant tensor:
#      x y z
#    x 1.604980 0.000000 0.009060 
#    y 0.000000 1.614560 0.000000 
#    z 0.009060 0.000000 1.613430 
# 
# From -- ./inp_files/86999.got.cif
#   From: 2010.05.17/outbox.cif.g08.bks.cpg/sg10_44_cif.got.tgz:86999.got - 2010.06.03 11:33:40.
