data_PCOD9146468
_publ_section_title
;
Structure prediction by ZEFSAII (Michael W. Deem and Ramdas Pophale) SiO2 
 PCOD9146468
Probable space group: P 2/M
;
_chemical_formula_sum "Si O2"
_cell_formula_units_Z 28
_cell_length_a 27.956370
_cell_length_b 8.950292
_cell_length_c 9.905094
_cell_angle_alpha 90.000000
_cell_angle_beta 38.833109
_cell_angle_gamma 90.000000
_cell_volume 1554.109326
_symmetry_space_group_name_H-M "P 2/M"
_symmetry_group_IT_number 10
_symmetry_cell_setting 'monoclinic'
loop_
_space_group_symop_operation_xyz
x,y,z
-x,y,-z
-x,-y,-z
x,-y,z
loop_
_atom_site_type_symbol
_atom_site_label
_atom_site_fract_x
_atom_site_fract_y
_atom_site_fract_z
Si Si1 0.135514 0.321521 0.855228
Si Si2 0.550768 0.325879 0.764961
Si Si3 0.299525 0.177726 0.491672
Si Si4 0.009349 0.820295 0.322014
Si Si5 0.554389 0.326421 0.266613
Si Si6 0.698699 0.822226 0.827899
Si Si7 0.127976 0.179810 0.579613
O O1 0.134920 0.500000 0.852216
O O2 0.220533 0.260103 0.696274
O O3 0.112528 0.256898 0.757818
O O4 0.078629 0.260159 0.093935
O O5 0.569964 0.500000 0.751115
O O6 0.628924 0.235840 0.581041
O O7 0.496686 0.320666 0.755124
O O8 0.500000 0.266539 0.000000
O O9 0.317815 0.211279 0.293637
O O10 0.289115 0.000000 0.527316
O O11 0.000000 0.778581 0.500000
O O12 0.934270 0.786944 0.397401
O O13 0.021320 0.000000 0.290709
O O14 0.500000 0.257600 0.500000
O O15 0.568621 0.500000 0.270597
O O16 0.635304 0.252058 0.059985
O O17 0.786746 0.776352 0.654984
O O18 0.694468 0.000000 0.854478
O O19 0.128514 0.000000 0.601665
#
# Coordination Sequence:
#
# PCOD9146468 Si02
#       7
#     4   4   4   4   4   4   4
#     4  11  22  36  58  86 116 146 185 232 278 330
#     4  10  19  33  55  80 108 142 182 225 274 325
#     4  10  20  35  57  84 110 140 185 233 277 322
#     4  10  21  39  61  83 115 153 186 224 277 334
#     4  10  21  36  52  74 109 148 182 219 270 330
#     4   9  18  33  54  79 107 137 180 232 272 315
#     4   9  19  37  60  85 111 144 186 232 278 329
#
# _framework density 18.016750999999999
#
# number of rings (size 3 to 8) (size 9 to 14) (size 15 to 20)
#    0.000    2.143    1.429    3.000    0.000    6.000 
#    2.571    0.000    0.000    0.000    0.000    0.000 
#    0.000    0.000    0.000    0.000    0.000    0.000 
#
# Total GULP energy -156235.376019 kJ/mol
# GULP energy per Si atom -5579.834858 kJ/mol
# Density = 1.797574 g / cm^3
# Si number density = 18.016751 Si / 1000 Ang^3
#
#
#
# Elastic Constant Matrix: (Units=GPa)
#
#
# Indices 1 2 3 4 5 6 
#
# 1 60.5135 31.7139 53.3847 0.0000 -11.3061 0.0000
# 2 31.7139 47.2940 59.6928 0.0000 -6.7976 0.0000
# 3 53.3847 59.6928 167.2280 0.0000 -7.1907 0.0000
# 4 0.0000 0.0000 0.0000 45.6417 0.0000 -0.7712
# 5 -11.3061 -6.7976 -7.1907 0.0000 20.9229 0.0000
# 6 0.0000 0.0000 0.0000 -0.7712 0.0000 9.5812
#
#
#
# Elastic Compliance Matrix: (Units=1/GPa)
#
#
# Indices 1 2 3 4 5 6 
#
# 1 0.028668 -0.012336 -0.004318 0.000000 0.010000 0.000000
# 2 -0.012336 0.045120 -0.012001 0.000000 0.003868 0.000000
# 3 -0.004318 -0.012001 0.011545 0.000000 -0.002265 0.000000
# 4 0.000000 0.000000 0.000000 0.021940 0.000000 0.001766
# 5 0.010000 0.003868 -0.002265 0.000000 0.053676 0.000000
# 6 0.000000 0.000000 0.000000 0.001766 0.000000 0.104513
#
#
# Mechanical properties :
#
#
# Convention : Reuss Voigt Hill
#
# Bulk Modulus (GPa) = 35.68690 62.73537 49.21114
# Shear Modulus (GPa) = 15.05497 23.91209 19.48353
#
# Velocity S-wave (km/s) = 2.89383 3.64705 3.29205
# Velocity P-wave (km/s) = 5.56923 7.25471 6.46711
#
# Compressibility (1/GPa) = 0.02802149
#
# Stress axis : x y z
#
# Youngs Moduli (GPa) = 34.88159 22.16288 86.61742
#
# Poissons Ratio (x) = 0.27341 0.37405
# Poissons Ratio (y) = 0.43031 1.03954
# Poissons Ratio (z) = 0.15063 0.26599
#
# Static dielectric constant tensor:
#      x y z
#    x 1.613790 0.000000 -0.000280 
#    y 0.000000 1.614460 0.000000 
#    z -0.000280 0.000000 1.609860 
# 
# From -- ./inp_files/36803.got.cif
#   From: 2010.05.17/outbox.cif.g08.bks.cpg/sg10_19_cif.got.tgz:36803.got - 2010.06.03 11:33:40.
