data_PCOD9146602
_publ_section_title
;
Structure prediction by ZEFSAII (Michael W. Deem and Ramdas Pophale) SiO2 
 PCOD9146602
Probable space group: P 2/M
;
_chemical_formula_sum "Si O2"
_cell_formula_units_Z 28
_cell_length_a 18.239826
_cell_length_b 8.653429
_cell_length_c 20.111717
_cell_angle_alpha 90.000000
_cell_angle_beta 150.895600
_cell_angle_gamma 90.000000
_cell_volume 1544.023320
_symmetry_space_group_name_H-M "P 2/M"
_symmetry_group_IT_number 10
_symmetry_cell_setting 'monoclinic'
loop_
_space_group_symop_operation_xyz
x,y,z
-x,y,-z
-x,-y,-z
x,-y,z
loop_
_atom_site_type_symbol
_atom_site_label
_atom_site_fract_x
_atom_site_fract_y
_atom_site_fract_z
Si Si1 0.241041 0.314489 0.504856
Si Si2 0.992842 0.318324 0.790819
Si Si3 0.148710 0.184087 0.577034
Si Si4 0.428304 0.821503 0.247051
Si Si5 0.674530 0.672221 0.961893
Si Si6 0.900470 0.186797 0.983761
Si Si7 0.576836 0.677807 0.126093
O O1 0.233090 0.500000 0.501763
O O2 0.135599 0.258214 0.360352
O O3 0.183164 0.253412 0.530864
O O4 0.412810 0.265647 0.624856
O O5 0.962850 0.500000 0.778514
O O6 0.024888 0.243129 0.888037
O O7 0.153671 0.304913 0.880919
O O8 0.288137 0.229360 0.734450
O O9 0.000000 0.237433 0.500000
O O10 0.138287 0.000000 0.560571
O O11 0.375026 0.802202 0.128682
O O12 0.453212 0.000000 0.284461
O O13 0.275441 0.762626 0.162148
O O14 0.668425 0.500000 0.924090
O O15 0.557105 0.669958 0.927287
O O16 0.897093 0.000000 0.982919
O O17 0.000000 0.236840 0.000000
O O18 0.626589 0.500000 0.151271
O O19 0.500000 0.746003 0.000000
#
# Coordination Sequence:
#
# PCOD9146602 Si02
#       7
#     4   4   4   4   4   4   4
#     4  11  22  37  58  82 111 148 188 230 273 329
#     4   9  20  35  55  83 112 143 184 227 272 323
#     4  11  25  41  55  78 112 149 188 233 283 330
#     4  10  19  33  56  82 109 143 179 221 272 324
#     4   9  17  33  53  76 104 136 179 228 269 320
#     4   9  19  37  60  86 114 145 183 223 269 329
#     4  10  21  35  56  81 105 139 184 230 277 327
#
# _framework density 18.134440999999999
#
# number of rings (size 3 to 8) (size 9 to 14) (size 15 to 20)
#    0.000    2.143    1.429    1.286    2.000    3.429 
#    0.000    0.714    0.000    4.286    0.000    0.000 
#    0.000    0.000    0.000    0.000    0.000    0.000 
#
# Total GULP energy -155961.762882 kJ/mol
# GULP energy per Si atom -5570.062960 kJ/mol
# Density = 1.809317 g / cm^3
# Si number density = 18.134441 Si / 1000 Ang^3
#
#
#
# Elastic Constant Matrix: (Units=GPa)
#
#
# Indices 1 2 3 4 5 6 
#
# 1 103.1729 23.6443 74.9999 0.0000 21.6726 0.0000
# 2 23.6443 29.6441 25.9878 0.0000 6.1233 0.0000
# 3 74.9999 25.9878 149.6889 0.0000 9.7960 0.0000
# 4 0.0000 0.0000 0.0000 78.0174 0.0000 -47.0047
# 5 21.6726 6.1233 9.7960 0.0000 25.2487 0.0000
# 6 0.0000 0.0000 0.0000 -47.0047 0.0000 44.8237
#
#
#
# Elastic Compliance Matrix: (Units=1/GPa)
#
#
# Indices 1 2 3 4 5 6 
#
# 1 0.019307 -0.006037 -0.007836 0.000000 -0.012068 0.000000
# 2 -0.006037 0.042977 -0.004200 0.000000 -0.003611 0.000000
# 3 -0.007836 -0.004200 0.011111 0.000000 0.003434 0.000000
# 4 0.000000 0.000000 0.000000 0.034812 0.000000 0.036506
# 5 -0.012068 -0.003611 0.003434 0.000000 0.049509 0.000000
# 6 0.000000 0.000000 0.000000 0.036506 0.000000 0.060592
#
#
# Mechanical properties :
#
#
# Convention : Reuss Voigt Hill
#
# Bulk Modulus (GPa) = 26.84651 59.08556 42.96603
# Shear Modulus (GPa) = 18.73572 40.14289 29.43931
#
# Velocity S-wave (km/s) = 3.21776 4.71002 4.03350
# Velocity P-wave (km/s) = 5.35179 7.88871 6.74068
#
# Compressibility (1/GPa) = 0.03724880
#
# Stress axis : x y z
#
# Youngs Moduli (GPa) = 51.79416 23.26833 90.00100
#
# Poissons Ratio (x) = 0.14048 0.70522
# Poissons Ratio (y) = 0.31270 0.37801
# Poissons Ratio (z) = 0.40584 0.09773
#
# Static dielectric constant tensor:
#      x y z
#    x 1.637140 0.000000 0.020710 
#    y 0.000000 1.648560 0.000000 
#    z 0.020710 0.000000 1.631250 
# 
# From -- ./inp_files/86669.got.cif
#   From: 2010.05.17/outbox.cif.g08.bks.cpg/sg10_44_cif.got.tgz:86669.got - 2010.06.03 11:33:40.
