data_PCOD9146886
_publ_section_title
;
Structure prediction by ZEFSAII (Michael W. Deem and Ramdas Pophale) SiO2 
 PCOD9146886
Probable space group: P 2/M
;
_chemical_formula_sum "Si O2"
_cell_formula_units_Z 32
_cell_length_a 15.404084
_cell_length_b 13.249228
_cell_length_c 19.186347
_cell_angle_alpha 90.000000
_cell_angle_beta 20.167151
_cell_angle_gamma 90.000000
_cell_volume 1350.006074
_symmetry_space_group_name_H-M "P 2/M"
_symmetry_group_IT_number 10
_symmetry_cell_setting 'monoclinic'
loop_
_space_group_symop_operation_xyz
x,y,z
-x,y,-z
-x,-y,-z
x,-y,z
loop_
_atom_site_type_symbol
_atom_site_label
_atom_site_fract_x
_atom_site_fract_y
_atom_site_fract_z
Si Si1 0.313217 0.889323 0.332519
Si Si2 0.453369 0.818527 0.704954
Si Si3 0.019189 0.182468 0.757460
Si Si4 0.224115 0.770389 0.743642
Si Si5 0.221310 0.144406 0.193126
Si Si6 0.778441 0.608301 0.922663
Si Si7 0.790023 0.613664 0.079456
Si Si8 0.743363 0.304495 0.725110
O O1 0.514493 0.864202 0.242142
O O2 0.303898 0.796250 0.286419
O O3 0.031872 0.893640 0.578737
O O4 0.357531 0.000000 0.269101
O O5 0.715903 0.848826 0.473143
O O6 0.263189 0.836149 0.783803
O O7 0.409214 0.697578 0.745039
O O8 0.050224 0.175715 0.816622
O O9 0.815784 0.130584 0.861636
O O10 0.971790 0.299436 0.772628
O O11 0.500000 0.751979 0.500000
O O12 0.066991 0.667376 0.877063
O O13 0.220830 0.259879 0.224397
O O14 0.500000 0.107536 0.000000
O O15 0.877084 0.500000 0.823997
O O16 0.737924 0.605041 0.036460
O O17 0.505454 0.629967 0.095719
O O18 0.775285 0.500000 0.119363
O O19 0.000000 0.350121 0.500000
#
# Coordination Sequence:
#
# PCOD9146886 Si02
#       8
#     4   4   4   4   4   4   4   4
#     4  10  22  39  59  85 114 145 185 238 295 343
#     4  10  19  35  59  82 110 150 187 237 281 334
#     4   9  19  35  53  78 113 152 187 225 279 331
#     4   9  19  34  55  80 111 154 188 223 280 331
#     4  10  19  34  60  83 111 145 190 235 280 337
#     4  10  19  34  54  80 115 154 190 226 274 335
#     4  10  20  33  54  85 116 149 191 233 274 333
#     4  10  20  35  57  79 112 150 184 234 288 332
#
# _framework density 23.703596000000001
#
# number of rings (size 3 to 8) (size 9 to 14) (size 15 to 20)
#    0.000    2.250    2.500    0.375    0.000    4.500 
#    0.000    3.750    0.000   10.875    0.000    0.000 
#    0.000    0.000    0.000    0.000    0.000    0.000 
#
# Total GULP energy -178324.628433 kJ/mol
# GULP energy per Si atom -5572.644639 kJ/mol
# Density = 2.364965 g / cm^3
# Si number density = 23.703596 Si / 1000 Ang^3
#
#
#
# Elastic Constant Matrix: (Units=GPa)
#
#
# Indices 1 2 3 4 5 6 
#
# 1 153.2192 9.4333 14.7141 0.0000 -34.8099 0.0000
# 2 9.4333 32.8582 -1.4876 0.0000 -11.4883 0.0000
# 3 14.7141 -1.4876 118.0809 0.0000 -23.5188 0.0000
# 4 0.0000 0.0000 0.0000 12.1523 0.0000 -12.1884
# 5 -34.8099 -11.4883 -23.5188 0.0000 37.9776 0.0000
# 6 0.0000 0.0000 0.0000 -12.1884 0.0000 26.9594
#
#
#
# Elastic Compliance Matrix: (Units=1/GPa)
#
#
# Indices 1 2 3 4 5 6 
#
# 1 0.008281 0.000481 0.000587 0.000000 0.008099 0.000000
# 2 0.000481 0.034910 0.002933 0.000000 0.012817 0.000000
# 3 0.000587 0.002933 0.009943 0.000000 0.007583 0.000000
# 4 0.000000 0.000000 0.000000 0.150560 0.000000 0.068069
# 5 0.008099 0.012817 0.007583 0.000000 0.042328 0.000000
# 6 0.000000 0.000000 0.000000 0.068069 0.000000 0.067867
#
#
# Mechanical properties :
#
#
# Convention : Reuss Voigt Hill
#
# Bulk Modulus (GPa) = 16.35705 38.83091 27.59398
# Shear Modulus (GPa) = 15.32497 34.18441 24.75469
#
# Velocity S-wave (km/s) = 2.54544 3.80170 3.23514
# Velocity P-wave (km/s) = 3.94394 5.97394 5.06175
#
# Compressibility (1/GPa) = 0.06113572
#
# Stress axis : x y z
#
# Youngs Moduli (GPa) = 120.76370 28.64521 100.57456
#
# Poissons Ratio (x) = -0.01378 -0.05907
# Poissons Ratio (y) = -0.05809 -0.29496
# Poissons Ratio (z) = -0.07093 -0.08401
#
# Static dielectric constant tensor:
#      x y z
#    x 2.000200 0.000000 -0.009550 
#    y 0.000000 1.912240 0.000000 
#    z -0.009550 0.000000 1.903170 
# 
# From -- ./inp_files/35162.got.cif
#   From: 2010.05.17/outbox.cif.g08.bks.cpg/sg10_18_cif.got.tgz:35162.got - 2010.06.03 11:33:40.
