data_PCOD9146986
_publ_section_title
;
Structure prediction by ZEFSAII (Michael W. Deem and Ramdas Pophale) SiO2 
 PCOD9146986
Probable space group: P 2/M
;
_chemical_formula_sum "Si O2"
_cell_formula_units_Z 20
_cell_length_a 9.389763
_cell_length_b 25.568378
_cell_length_c 7.928477
_cell_angle_alpha 90.000000
_cell_angle_beta 147.235864
_cell_angle_gamma 90.000000
_cell_volume 1030.127278
_symmetry_space_group_name_H-M "P 2/M"
_symmetry_group_IT_number 10
_symmetry_cell_setting 'monoclinic'
loop_
_space_group_symop_operation_xyz
x,y,z
-x,y,-z
-x,-y,-z
x,-y,z
loop_
_atom_site_type_symbol
_atom_site_label
_atom_site_fract_x
_atom_site_fract_y
_atom_site_fract_z
Si Si1 0.884861 0.275207 0.195066
Si Si2 0.618098 0.217869 0.432105
Si Si3 0.248438 0.387040 0.872030
Si Si4 0.750212 0.500000 0.126357
Si Si5 0.250420 0.000000 0.627458
Si Si6 0.251230 0.886149 0.628253
O O1 0.792131 0.334348 0.063141
O O2 0.000000 0.273556 0.500000
O O3 0.129477 0.255760 0.327622
O O4 0.626654 0.239226 0.922528
O O5 0.500000 0.214456 0.500000
O O6 0.718758 0.162032 0.466872
O O7 0.258880 0.443613 0.973578
O O8 0.000000 0.389622 0.500000
O O9 0.500000 0.380703 0.000000
O O10 0.000000 0.500000 0.500000
O O11 0.500000 0.500000 0.000000
O O12 0.244623 0.056540 0.533195
O O13 0.000000 0.000000 0.500000
O O14 0.500000 0.000000 0.000000
O O15 0.000000 0.880049 0.500000
O O16 0.500000 0.885579 0.000000
#
# Coordination Sequence:
#
# PCOD9146986 Si02
#       6
#     4   4   4   2   2   4
#     4  11  21  36  56  77 102 139 180 215 253 309
#     4  12  24  36  51  78 110 140 172 215 264 306
#     4   9  16  27  46  73 101 128 163 210 259 304
#     4   8  14  24  40  68 103 126 149 204 269 302
#     4   8  16  30  51  78  99 124 167 212 249 294
#     4  10  19  34  56  77 101 134 172 210 251 305
#
# _framework density 19.415075999999999
#
# number of rings (size 3 to 8) (size 9 to 14) (size 15 to 20)
#    0.000    2.000    0.000    6.600    0.000    0.000 
#    0.000    0.500    0.000    0.000    0.000   15.400 
#    0.000    0.000    0.000    0.000    0.000    0.000 
#
# Total GULP energy -111485.229682 kJ/mol
# GULP energy per Si atom -5574.261484 kJ/mol
# Density = 1.937089 g / cm^3
# Si number density = 19.415076 Si / 1000 Ang^3
#
#
#
# Elastic Constant Matrix: (Units=GPa)
#
#
# Indices 1 2 3 4 5 6 
#
# 1 76.8007 66.5825 25.5204 0.0000 25.5002 0.0000
# 2 66.5825 222.2102 27.4667 0.0000 19.4705 0.0000
# 3 25.5204 27.4667 102.3612 0.0000 40.1320 0.0000
# 4 0.0000 0.0000 0.0000 22.5654 0.0000 16.0618
# 5 25.5002 19.4705 40.1320 0.0000 35.1523 0.0000
# 6 0.0000 0.0000 0.0000 16.0618 0.0000 3.9534
#
#
#
# Elastic Compliance Matrix: (Units=1/GPa)
#
#
# Indices 1 2 3 4 5 6 
#
# 1 0.022290 -0.005578 0.001933 0.000000 -0.015287 0.000000
# 2 -0.005578 0.006137 -0.000923 0.000000 0.001701 0.000000
# 3 0.001933 -0.000923 0.017894 0.000000 -0.021319 0.000000
# 4 0.000000 0.000000 0.000000 -0.023425 0.000000 0.095169
# 5 -0.015287 0.001701 -0.021319 0.000000 0.062934 0.000000
# 6 0.000000 0.000000 0.000000 0.095169 0.000000 -0.133704
#
#
# Mechanical properties :
#
#
# Convention : Reuss Voigt Hill
#
# Bulk Modulus (GPa) = 26.89345 71.16790 49.03068
# Shear Modulus (GPa) = -189.80885 31.12107 -79.34389
#
# Velocity S-wave (km/s) = -9.89828 4.00801 -6.39968
# Velocity P-wave (km/s) = 10.80521 7.62590 5.41286
#
# Compressibility (1/GPa) = 0.03718377
#
# Stress axis : x y z
#
# Youngs Moduli (GPa) = 44.86237 162.95203 55.88587
#
# Poissons Ratio (x) = 0.90903 -0.10802
# Poissons Ratio (y) = 0.25026 0.05158
# Poissons Ratio (z) = -0.08671 0.15039
#
# Static dielectric constant tensor:
#      x y z
#    x 1.623990 0.000000 -0.003040 
#    y 0.000000 1.803420 0.000000 
#    z -0.003040 0.000000 1.657900 
# 
# From -- ./inp_files/15482.got.cif
#   From: 2010.05.17/outbox.cif.g08.bks.cpg/sg10_8_cif.got.tgz:15482.got - 2010.06.03 11:33:40.
