data_PCOD9146277
_publ_section_title
;
Structure prediction by ZEFSAII (Michael W. Deem and Ramdas Pophale) SiO2 
 PCOD9146277
Probable space group: P 2/M
;
_chemical_formula_sum "Si O2"
_cell_formula_units_Z 28
_cell_length_a 9.205088
_cell_length_b 7.408123
_cell_length_c 29.826107
_cell_angle_alpha 90.000000
_cell_angle_beta 38.661697
_cell_angle_gamma 90.000000
_cell_volume 1270.628694
_symmetry_space_group_name_H-M "P 2/M"
_symmetry_group_IT_number 10
_symmetry_cell_setting 'monoclinic'
loop_
_space_group_symop_operation_xyz
x,y,z
-x,y,-z
-x,-y,-z
x,-y,z
loop_
_atom_site_type_symbol
_atom_site_label
_atom_site_fract_x
_atom_site_fract_y
_atom_site_fract_z
Si Si1 0.801226 0.779003 0.644922
Si Si2 0.235032 0.218302 0.070510
Si Si3 0.471196 0.220211 0.643156
Si Si4 0.888732 0.710231 0.072506
Si Si5 0.668247 0.779756 0.499652
Si Si6 0.636582 0.208311 0.781033
Si Si7 0.056730 0.220846 0.210537
O O1 0.634179 0.721356 0.644814
O O2 0.709252 0.715178 0.715364
O O3 0.066612 0.724154 0.572555
O O4 0.795857 0.000000 0.645951
O O5 0.069749 0.271843 0.069406
O O6 0.136107 0.280125 0.142154
O O7 0.237599 0.000000 0.070359
O O8 0.500000 0.279570 0.000000
O O9 0.571608 0.278482 0.571107
O O10 0.205655 0.275622 0.714943
O O11 0.472274 0.000000 0.642613
O O12 0.841799 0.500000 0.075552
O O13 0.639349 0.789016 0.145520
O O14 0.000000 0.786550 0.000000
O O15 0.500000 0.722074 0.500000
O O16 0.667526 0.000000 0.499935
O O17 0.768966 0.283808 0.792458
O O18 0.713125 0.000000 0.760639
O O19 0.061554 0.000000 0.208215
#
# Coordination Sequence:
#
# PCOD9146277 Si02
#       7
#     4   4   4   4   4   4   4
#     4   9  16  25  40  64  93 128 167 206 250 298
#     4  10  20  35  56  80 104 132 169 210 251 298
#     4   9  15  23  36  58  94 133 165 202 250 302
#     4  11  24  39  54  75 104 135 167 205 250 300
#     4   9  15  22  33  54  90 133 169 201 246 302
#     4  10  19  33  54  76 100 131 168 210 254 300
#     4   9  17  29  47  73 101 130 167 211 255 299
#
# _framework density 22.036334
#
# number of rings (size 3 to 8) (size 9 to 14) (size 15 to 20)
#    0.000    2.429    0.000    3.429    0.000   10.000 
#    0.000    0.714    0.000    0.000    0.000    0.000 
#    0.000   14.286    0.000    0.000    0.000    0.143 
#
# Total GULP energy -156534.460369 kJ/mol
# GULP energy per Si atom -5590.516442 kJ/mol
# Density = 2.198618 g / cm^3
# Si number density = 22.036334 Si / 1000 Ang^3
#
#
#
# Elastic Constant Matrix: (Units=GPa)
#
#
# Indices 1 2 3 4 5 6 
#
# 1 224.3236 -9.8129 130.5777 0.0000 10.3437 0.0000
# 2 -9.8129 70.1292 -4.7796 0.0000 5.0620 0.0000
# 3 130.5777 -4.7796 234.9390 0.0000 15.9197 0.0000
# 4 0.0000 0.0000 0.0000 -51.0626 0.0000 9.0220
# 5 10.3437 5.0620 15.9197 0.0000 47.9835 0.0000
# 6 0.0000 0.0000 0.0000 9.0220 0.0000 -24.1490
#
#
#
# Elastic Compliance Matrix: (Units=1/GPa)
#
#
# Indices 1 2 3 4 5 6 
#
# 1 0.006626 0.000699 -0.003649 0.000000 -0.000292 0.000000
# 2 0.000699 0.014480 0.000020 0.000000 -0.001685 0.000000
# 3 -0.003649 0.000020 0.006375 0.000000 -0.001331 0.000000
# 4 0.000000 0.000000 0.000000 -0.020968 0.000000 -0.007834
# 5 -0.000292 -0.001685 -0.001331 0.000000 0.021523 0.000000
# 6 0.000000 0.000000 0.000000 -0.007834 0.000000 -0.044336
#
#
# Mechanical properties :
#
#
# Convention : Reuss Voigt Hill
#
# Bulk Modulus (GPa) = 46.24777 84.59582 65.42180
# Shear Modulus (GPa) = -1545.54076 22.11483 -761.71297
#
# Velocity S-wave (km/s) = -26.51194 3.17134 -18.61217
# Velocity P-wave (km/s) = 30.26788 7.20295 20.78776
#
# Compressibility (1/GPa) = 0.02162266
#
# Stress axis : x y z
#
# Youngs Moduli (GPa) = 150.92789 69.05956 156.86709
#
# Poissons Ratio (x) = -0.04831 0.57233
# Poissons Ratio (y) = -0.10557 -0.00314
# Poissons Ratio (z) = 0.55066 -0.00138
#
# Static dielectric constant tensor:
#      x y z
#    x 1.739310 0.000000 0.016020 
#    y 0.000000 1.851750 0.000000 
#    z 0.016020 0.000000 1.751150 
# 
# From -- ./inp_files/36992.got.cif
#   From: 2010.05.17/outbox.cif.g08.bks.cpg/sg10_19_cif.got.tgz:36992.got - 2010.06.03 11:33:40.
