data_PCOD9146458
_publ_section_title
;
Structure prediction by ZEFSAII (Michael W. Deem and Ramdas Pophale) SiO2 
 PCOD9146458
Probable space group: P 2/M
;
_chemical_formula_sum "Si O2"
_cell_formula_units_Z 32
_cell_length_a 13.379152
_cell_length_b 7.817927
_cell_length_c 13.775514
_cell_angle_alpha 90.000000
_cell_angle_beta 67.558287
_cell_angle_gamma 90.000000
_cell_volume 1331.760399
_symmetry_space_group_name_H-M "P 2/M"
_symmetry_group_IT_number 10
_symmetry_cell_setting 'monoclinic'
loop_
_space_group_symop_operation_xyz
x,y,z
-x,y,-z
-x,-y,-z
x,-y,z
loop_
_atom_site_type_symbol
_atom_site_label
_atom_site_fract_x
_atom_site_fract_y
_atom_site_fract_z
Si Si1 0.887609 0.307543 0.509806
Si Si2 0.322872 0.805277 0.514092
Si Si3 0.795830 0.704729 0.260296
Si Si4 0.038547 0.708720 0.177936
Si Si5 0.197557 0.290848 0.961850
Si Si6 0.229371 0.308320 0.243401
Si Si7 0.578204 0.298644 0.054636
Si Si8 0.435426 0.198174 0.277762
O O1 0.908375 0.500000 0.459533
O O2 0.800529 0.209607 0.478787
O O3 0.828292 0.330724 0.632757
O O4 0.000000 0.225817 0.500000
O O5 0.304179 0.739873 0.630242
O O6 0.395416 0.729224 0.398053
O O7 0.357247 0.000000 0.509633
O O8 0.803346 0.500000 0.253934
O O9 0.785064 0.769024 0.154270
O O10 0.917062 0.766408 0.245851
O O11 0.038116 0.500000 0.185464
O O12 0.134724 0.768105 0.212770
O O13 0.084816 0.754313 0.054802
O O14 0.199719 0.500000 0.958938
O O15 0.299528 0.231521 0.988557
O O16 0.259427 0.500000 0.195615
O O17 0.336872 0.211987 0.236348
O O18 0.584550 0.500000 0.033554
O O19 0.531549 0.280476 0.181046
O O20 0.500000 0.224560 0.000000
O O21 0.460565 0.000000 0.283632
#
# Coordination Sequence:
#
# PCOD9146458 Si02
#       8
#     4   4   4   4   4   4   4   4
#     4   9  16  27  45  71 101 133 173 217 258 306
#     4  10  21  35  50  71 104 145 184 222 266 313
#     4  10  19  33  55  80 106 140 181 221 260 309
#     4   9  16  29  52  81 110 139 172 213 263 318
#     4   9  18  32  53  83 111 134 170 220 269 318
#     4   9  16  27  47  74 103 135 170 209 256 310
#     4  10  20  36  60  86 110 137 169 212 269 325
#     4  10  21  36  53  76 107 142 180 222 267 313
#
# _framework density 24.028345000000002
#
# number of rings (size 3 to 8) (size 9 to 14) (size 15 to 20)
#    0.000    2.500    0.000    2.625    0.000    7.500 
#    0.000    4.375    0.000    6.750    0.000    0.000 
#    0.000    0.000    0.000    0.000    0.000    0.000 
#
# Total GULP energy -178356.707096 kJ/mol
# GULP energy per Si atom -5573.647097 kJ/mol
# Density = 2.397366 g / cm^3
# Si number density = 24.028345 Si / 1000 Ang^3
#
#
#
# Elastic Constant Matrix: (Units=GPa)
#
#
# Indices 1 2 3 4 5 6 
#
# 1 26.0715 -1.8050 28.6529 0.0000 -7.7763 0.0000
# 2 -1.8050 24.3476 6.0721 0.0000 -0.3029 0.0000
# 3 28.6529 6.0721 168.0101 0.0000 -5.1011 0.0000
# 4 0.0000 0.0000 0.0000 -2.6152 0.0000 -1.4953
# 5 -7.7763 -0.3029 -5.1011 0.0000 35.6871 0.0000
# 6 0.0000 0.0000 0.0000 -1.4953 0.0000 17.3580
#
#
#
# Elastic Compliance Matrix: (Units=1/GPa)
#
#
# Indices 1 2 3 4 5 6 
#
# 1 0.051275 0.006086 -0.008661 0.000000 0.009987 0.000000
# 2 0.006086 0.042168 -0.002522 0.000000 0.001324 0.000000
# 3 -0.008661 -0.002522 0.007495 0.000000 -0.000837 0.000000
# 4 0.000000 0.000000 0.000000 -0.364428 0.000000 -0.031395
# 5 0.009987 0.001324 -0.000837 0.000000 0.030089 0.000000
# 6 0.000000 0.000000 0.000000 -0.031395 0.000000 0.054906
#
#
# Mechanical properties :
#
#
# Convention : Reuss Voigt Hill
#
# Bulk Modulus (GPa) = 11.02009 31.58547 21.30278
# Shear Modulus (GPa) = -36.21813 22.45326 -6.88244
#
# Velocity S-wave (km/s) = -3.88662 3.06019 -1.69426
# Velocity P-wave (km/s) = 3.94269 5.06557 2.24891
#
# Compressibility (1/GPa) = 0.09074335
#
# Stress axis : x y z
#
# Youngs Moduli (GPa) = 19.50265 23.71451 133.42465
#
# Poissons Ratio (x) = -0.14432 1.15564
# Poissons Ratio (y) = -0.11869 0.33646
# Poissons Ratio (z) = 0.16892 0.05980
#
# Static dielectric constant tensor:
#      x y z
#    x 1.993190 0.000000 0.014610 
#    y 0.000000 1.937570 0.000000 
#    z 0.014610 0.000000 1.979800 
# 
# From -- ./inp_files/66552.got.cif
#   From: 2010.05.17/outbox.cif.g08.bks.cpg/sg10_34_cif.got.tgz:66552.got - 2010.06.03 11:33:40.
