data_PCOD9146017
_publ_section_title
;
Structure prediction by ZEFSAII (Michael W. Deem and Ramdas Pophale) SiO2 
 PCOD9146017
Probable space group: P 2/M
;
_chemical_formula_sum "Si O2"
_cell_formula_units_Z 32
_cell_length_a 20.056171
_cell_length_b 11.414433
_cell_length_c 19.897129
_cell_angle_alpha 90.000000
_cell_angle_beta 159.153613
_cell_angle_gamma 90.000000
_cell_volume 1620.975519
_symmetry_space_group_name_H-M "P 2/M"
_symmetry_group_IT_number 10
_symmetry_cell_setting 'monoclinic'
loop_
_space_group_symop_operation_xyz
x,y,z
-x,y,-z
-x,-y,-z
x,-y,z
loop_
_atom_site_type_symbol
_atom_site_label
_atom_site_fract_x
_atom_site_fract_y
_atom_site_fract_z
Si Si1 0.173841 0.865931 0.541745
Si Si2 0.471641 0.638897 0.605534
Si Si3 0.535385 0.235987 0.807675
Si Si4 0.203203 0.689053 0.687631
Si Si5 0.045753 0.367444 0.218976
Si Si6 0.173649 0.633598 0.124550
Si Si7 0.924585 0.867707 0.182939
Si Si8 0.598287 0.630063 0.999134
O O1 0.343349 0.814870 0.656421
O O2 0.163839 0.798344 0.602107
O O3 0.990883 0.858157 0.322568
O O4 0.214824 0.000000 0.594255
O O5 0.510152 0.500000 0.651189
O O6 0.502667 0.705471 0.704945
O O7 0.252865 0.647364 0.382881
O O8 0.617425 0.682595 0.686425
O O9 0.603839 0.329588 0.927903
O O10 0.702346 0.142473 0.963083
O O11 0.381324 0.629221 0.818791
O O12 0.000000 0.629039 0.500000
O O13 0.285396 0.709806 0.839503
O O14 0.042841 0.500000 0.248638
O O15 0.005496 0.250712 0.224239
O O16 0.897330 0.370671 0.019184
O O17 0.190707 0.500000 0.168026
O O18 0.000000 0.691455 0.000000
O O19 0.987254 0.000000 0.219706
O O20 0.676203 0.500000 0.080532
#
# Coordination Sequence:
#
# PCOD9146017 Si02
#       8
#     4   4   4   4   4   4   4   4
#     4  10  22  38  55  79 108 140 188 244 290 346
#     4  10  19  32  55  85 119 153 190 237 287 339
#     4  11  20  36  57  80 111 147 191 236 293 344
#     4  10  20  37  54  73 102 139 182 224 284 349
#     4  10  20  35  56  87 118 151 194 235 284 343
#     4   9  18  33  55  86 124 158 190 233 282 335
#     4  11  22  37  58  86 116 150 193 240 291 347
#     4  10  22  36  53  79 110 141 182 235 287 346
#
# _framework density 19.741199000000002
#
# number of rings (size 3 to 8) (size 9 to 14) (size 15 to 20)
#    0.000    1.875    2.500    2.250    0.000    2.250 
#    0.000    8.750    0.000    0.375    0.000    0.875 
#    0.000    0.000    0.000    0.000    0.000    0.000 
#
# Total GULP energy -178253.409870 kJ/mol
# GULP energy per Si atom -5570.419058 kJ/mol
# Density = 1.969627 g / cm^3
# Si number density = 19.741199 Si / 1000 Ang^3
#
#
#
# Elastic Constant Matrix: (Units=GPa)
#
#
# Indices 1 2 3 4 5 6 
#
# 1 46.2826 28.2203 5.6221 0.0000 16.8563 0.0000
# 2 28.2203 85.0050 8.5482 0.0000 5.6059 0.0000
# 3 5.6221 8.5482 90.7927 0.0000 14.3603 0.0000
# 4 0.0000 0.0000 0.0000 15.8988 0.0000 -8.4151
# 5 16.8563 5.6059 14.3603 0.0000 32.6311 0.0000
# 6 0.0000 0.0000 0.0000 -8.4151 0.0000 10.6264
#
#
#
# Elastic Compliance Matrix: (Units=1/GPa)
#
#
# Indices 1 2 3 4 5 6 
#
# 1 0.033571 -0.010221 0.001450 0.000000 -0.016224 0.000000
# 2 -0.010221 0.015073 -0.001302 0.000000 0.003264 0.000000
# 3 0.001450 -0.001302 0.011963 0.000000 -0.005790 0.000000
# 4 0.000000 0.000000 0.000000 0.108286 0.000000 0.085752
# 5 -0.016224 0.003264 -0.005790 0.000000 0.041014 0.000000
# 6 0.000000 0.000000 0.000000 0.085752 0.000000 0.162013
#
#
# Mechanical properties :
#
#
# Convention : Reuss Voigt Hill
#
# Bulk Modulus (GPa) = 24.71616 34.09570 29.40593
# Shear Modulus (GPa) = 12.32882 23.81057 18.06969
#
# Velocity S-wave (km/s) = 2.50176 3.47671 3.02872
# Velocity P-wave (km/s) = 4.57081 5.78148 5.21142
#
# Compressibility (1/GPa) = 0.04045935
#
# Stress axis : x y z
#
# Youngs Moduli (GPa) = 29.78737 66.34405 83.59327
#
# Poissons Ratio (x) = 0.67810 -0.12117
# Poissons Ratio (y) = 0.30446 0.10887
# Poissons Ratio (z) = -0.04318 0.08641
#
# Static dielectric constant tensor:
#      x y z
#    x 1.715020 0.000000 0.046650 
#    y 0.000000 1.686920 0.000000 
#    z 0.046650 0.000000 1.723870 
# 
# From -- ./inp_files/86284.got.cif
#   From: 2010.05.17/outbox.cif.g08.bks.cpg/sg10_44_cif.got.tgz:86284.got - 2010.06.03 11:33:40.
