data_PCOD9146112
_publ_section_title
;
Structure prediction by ZEFSAII (Michael W. Deem and Ramdas Pophale) SiO2 
 PCOD9146112
Probable space group: P 2/M
;
_chemical_formula_sum "Si O2"
_cell_formula_units_Z 28
_cell_length_a 14.888786
_cell_length_b 10.059407
_cell_length_c 20.727632
_cell_angle_alpha 90.000000
_cell_angle_beta 155.111358
_cell_angle_gamma 90.000000
_cell_volume 1306.516437
_symmetry_space_group_name_H-M "P 2/M"
_symmetry_group_IT_number 10
_symmetry_cell_setting 'monoclinic'
loop_
_space_group_symop_operation_xyz
x,y,z
-x,y,-z
-x,-y,-z
x,-y,z
loop_
_atom_site_type_symbol
_atom_site_label
_atom_site_fract_x
_atom_site_fract_y
_atom_site_fract_z
Si Si1 0.678630 0.147477 0.455817
Si Si2 0.913283 0.653728 0.010954
Si Si3 0.073433 0.650717 0.837293
Si Si4 0.416895 0.642084 0.518084
Si Si5 0.771473 0.846001 0.312986
Si Si6 0.829220 0.144586 0.197834
Si Si7 0.413786 0.652650 0.712300
O O1 0.527704 0.225097 0.407480
O O2 0.704699 0.253752 0.416011
O O3 0.913923 0.131056 0.637837
O O4 0.604560 0.000000 0.387906
O O5 0.991430 0.500000 0.063306
O O6 0.657479 0.653428 0.847240
O O7 0.967887 0.709126 0.117787
O O8 0.000000 0.711767 0.000000
O O9 0.161586 0.500000 0.902281
O O10 0.215917 0.740913 0.883210
O O11 0.839322 0.637213 0.653357
O O12 0.500000 0.646829 0.500000
O O13 0.488514 0.500000 0.594340
O O14 0.785190 0.828945 0.244606
O O15 0.620188 0.733399 0.244111
O O16 0.000000 0.832908 0.500000
O O17 0.704635 0.000000 0.281510
O O18 0.735269 0.000000 0.119402
O O19 0.339904 0.500000 0.667400
#
# Coordination Sequence:
#
# PCOD9146112 Si02
#       7
#     4   4   4   4   4   4   4
#     4  10  19  33  51  75 111 148 179 216 275 340
#     4   9  20  38  59  79 107 151 192 229 279 332
#     4   9  18  34  55  78 106 142 183 229 276 324
#     4   9  18  30  50  80 107 133 179 234 282 329
#     4  10  19  36  58  81 114 153 183 216 279 347
#     4   9  18  34  56  79 108 146 178 214 271 337
#     4  11  22  34  55  85 112 141 190 239 275 322
#
# _framework density 21.431037
#
# number of rings (size 3 to 8) (size 9 to 14) (size 15 to 20)
#    0.000    2.429    1.429    0.857    2.000    1.714 
#    0.000    2.143    0.000    6.429    0.000    0.000 
#    0.000    0.000    0.000    0.000    0.000    0.000 
#
# Total GULP energy -155972.734044 kJ/mol
# GULP energy per Si atom -5570.454787 kJ/mol
# Density = 2.138226 g / cm^3
# Si number density = 21.431037 Si / 1000 Ang^3
#
#
#
# Elastic Constant Matrix: (Units=GPa)
#
#
# Indices 1 2 3 4 5 6 
#
# 1 143.8161 96.8230 -1.0200 0.0000 -18.2305 0.0000
# 2 96.8230 165.6395 19.8231 0.0000 -11.1333 0.0000
# 3 -1.0200 19.8231 40.1832 0.0000 -4.8768 0.0000
# 4 0.0000 0.0000 0.0000 46.5964 0.0000 -102.7407
# 5 -18.2305 -11.1333 -4.8768 0.0000 26.5349 0.0000
# 6 0.0000 0.0000 0.0000 -102.7407 0.0000 259.1661
#
#
#
# Elastic Compliance Matrix: (Units=1/GPa)
#
#
# Indices 1 2 3 4 5 6 
#
# 1 0.013076 -0.007794 0.004982 0.000000 0.006629 0.000000
# 2 -0.007794 0.011185 -0.005928 0.000000 -0.001752 0.000000
# 3 0.004982 -0.005928 0.028690 0.000000 0.006208 0.000000
# 4 0.000000 0.000000 0.000000 0.170442 0.000000 0.067568
# 5 0.006629 -0.001752 0.006208 0.000000 0.042647 0.000000
# 6 0.000000 0.000000 0.000000 0.067568 0.000000 0.030644
#
#
# Mechanical properties :
#
#
# Convention : Reuss Voigt Hill
#
# Bulk Modulus (GPa) = 28.19279 64.54343 46.36811
# Shear Modulus (GPa) = 15.33787 82.06033 48.69910
#
# Velocity S-wave (km/s) = 2.67813 6.19464 4.77210
# Velocity P-wave (km/s) = 4.76937 9.01925 7.21435
#
# Compressibility (1/GPa) = 0.03547006
#
# Stress axis : x y z
#
# Youngs Moduli (GPa) = 76.47326 89.40516 34.85479
#
# Poissons Ratio (x) = 0.69685 -0.17363
# Poissons Ratio (y) = 0.59606 0.20663
# Poissons Ratio (z) = -0.38096 0.53001
#
# Static dielectric constant tensor:
#      x y z
#    x 1.823810 0.000000 -0.028370 
#    y 0.000000 1.853320 0.000000 
#    z -0.028370 0.000000 1.841480 
# 
# From -- ./inp_files/70068.got.cif
#   From: 2010.05.17/outbox.cif.g08.bks.cpg/sg10_36_cif.got.tgz:70068.got - 2010.06.03 11:33:40.
