data_PCOD9146856
_publ_section_title
;
Structure prediction by ZEFSAII (Michael W. Deem and Ramdas Pophale) SiO2 
 PCOD9146856
Probable space group: P 2/M
;
_chemical_formula_sum "Si O2"
_cell_formula_units_Z 24
_cell_length_a 20.179703
_cell_length_b 9.384551
_cell_length_c 9.663204
_cell_angle_alpha 90.000000
_cell_angle_beta 129.435258
_cell_angle_gamma 90.000000
_cell_volume 1413.381943
_symmetry_space_group_name_H-M "P 2/M"
_symmetry_group_IT_number 10
_symmetry_cell_setting 'monoclinic'
loop_
_space_group_symop_operation_xyz
x,y,z
-x,y,-z
-x,-y,-z
x,-y,z
loop_
_atom_site_type_symbol
_atom_site_label
_atom_site_fract_x
_atom_site_fract_y
_atom_site_fract_z
Si Si1 0.135267 0.332114 0.488247
Si Si2 0.215264 0.168889 0.102949
Si Si3 0.740199 0.830759 0.152253
Si Si4 0.963360 0.330606 0.105562
Si Si5 0.280000 0.333343 0.446222
Si Si6 0.600149 0.329891 0.144268
O O1 0.139008 0.500000 0.530418
O O2 0.176716 0.238248 0.663298
O O3 0.196942 0.314400 0.435775
O O4 0.039058 0.296721 0.314356
O O5 0.269998 0.237359 0.299008
O O6 0.207008 0.000000 0.112086
O O7 0.255325 0.194957 0.005323
O O8 0.122036 0.241968 0.984124
O O9 0.658477 0.755985 0.114136
O O10 0.738674 0.000000 0.175319
O O11 0.944777 0.500000 0.090274
O O12 0.000000 0.304866 0.000000
O O13 0.282647 0.500000 0.410565
O O14 0.360729 0.300542 0.651786
O O15 0.611964 0.500000 0.136394
O O16 0.500000 0.296544 0.000000
#
# Coordination Sequence:
#
# PCOD9146856 Si02
#       6
#     4   4   4   4   4   4
#     4   9  18  34  55  77 101 137 184 227 264 306
#     4  11  23  35  49  76 112 147 179 214 259 310
#     4  10  22  37  52  76 112 145 174 212 261 316
#     4  10  19  34  54  76 104 138 183 230 264 303
#     4   9  17  33  56  79 104 135 173 217 263 312
#     4   9  19  38  63  86 104 128 170 219 264 317
#
# _framework density 16.980547999999999
#
# number of rings (size 3 to 8) (size 9 to 14) (size 15 to 20)
#    0.000    2.333    1.667    2.000    0.000    7.333 
#    0.000    4.167    0.000    5.000    0.000    0.000 
#    0.000    0.000    0.000    0.000    0.000    0.000 
#
# Total GULP energy -133932.158004 kJ/mol
# GULP energy per Si atom -5580.506584 kJ/mol
# Density = 1.694190 g / cm^3
# Si number density = 16.980548 Si / 1000 Ang^3
#
#
#
# Elastic Constant Matrix: (Units=GPa)
#
#
# Indices 1 2 3 4 5 6 
#
# 1 75.5440 66.2835 81.5487 0.0000 4.0562 0.0000
# 2 66.2835 79.1901 85.4758 0.0000 -8.0624 0.0000
# 3 81.5487 85.4758 145.3885 0.0000 6.9399 0.0000
# 4 0.0000 0.0000 0.0000 18.1545 0.0000 -11.5154
# 5 4.0562 -8.0624 6.9399 0.0000 25.4484 0.0000
# 6 0.0000 0.0000 0.0000 -11.5154 0.0000 25.3332
#
#
#
# Elastic Compliance Matrix: (Units=1/GPa)
#
#
# Indices 1 2 3 4 5 6 
#
# 1 0.066247 -0.052897 -0.004818 0.000000 -0.026004 0.000000
# 2 -0.052897 0.085588 -0.022640 0.000000 0.041721 0.000000
# 3 -0.004818 -0.022640 0.023502 0.000000 -0.012814 0.000000
# 4 0.000000 0.000000 0.000000 0.077399 0.000000 0.035182
# 5 -0.026004 0.041721 -0.012814 0.000000 0.060152 0.000000
# 6 0.000000 0.000000 0.000000 0.035182 0.000000 0.055466
#
#
# Mechanical properties :
#
#
# Convention : Reuss Voigt Hill
#
# Bulk Modulus (GPa) = 68.36223 85.19316 76.77770
# Shear Modulus (GPa) = 9.36434 18.24154 13.80294
#
# Velocity S-wave (km/s) = 2.35090 3.28115 2.85418
# Velocity P-wave (km/s) = 6.90764 8.03956 7.49500
#
# Compressibility (1/GPa) = 0.01462796
#
# Stress axis : x y z
#
# Youngs Moduli (GPa) = 15.09495 11.68390 42.54874
#
# Poissons Ratio (x) = 0.61804 0.20501
# Poissons Ratio (y) = 0.79848 0.96329
# Poissons Ratio (z) = 0.07273 0.26452
#
# Static dielectric constant tensor:
#      x y z
#    x 1.548480 0.000000 0.000200 
#    y 0.000000 1.559040 0.000000 
#    z 0.000200 0.000000 1.577780 
# 
# From -- ./inp_files/27198.got.cif
#   From: 2010.05.17/outbox.cif.g08.bks.cpg/sg10_14_cif.got.tgz:27198.got - 2010.06.03 11:33:40.
