data_PCOD9146156
_publ_section_title
;
Structure prediction by ZEFSAII (Michael W. Deem and Ramdas Pophale) SiO2 
 PCOD9146156
Probable space group: P 2/M
;
_chemical_formula_sum "Si O2"
_cell_formula_units_Z 28
_cell_length_a 11.922966
_cell_length_b 9.921818
_cell_length_c 15.091261
_cell_angle_alpha 90.000000
_cell_angle_beta 119.528418
_cell_angle_gamma 90.000000
_cell_volume 1553.373626
_symmetry_space_group_name_H-M "P 2/M"
_symmetry_group_IT_number 10
_symmetry_cell_setting 'monoclinic'
loop_
_space_group_symop_operation_xyz
x,y,z
-x,y,-z
-x,-y,-z
x,-y,z
loop_
_atom_site_type_symbol
_atom_site_label
_atom_site_fract_x
_atom_site_fract_y
_atom_site_fract_z
Si Si1 0.733180 0.845134 0.689847
Si Si2 0.629116 0.341273 0.803566
Si Si3 0.118374 0.341308 0.979962
Si Si4 0.903854 0.160646 0.382333
Si Si5 0.033103 0.846765 0.795694
Si Si6 0.356203 0.352748 0.483221
Si Si7 0.657911 0.345813 0.310449
O O1 0.659247 0.755497 0.732979
O O2 0.714891 0.771771 0.588954
O O3 0.884765 0.842668 0.768683
O O4 0.689080 0.000000 0.671118
O O5 0.630756 0.500000 0.776656
O O6 0.484772 0.314176 0.782260
O O7 0.745226 0.322201 0.917838
O O8 0.102891 0.500000 0.954523
O O9 0.109071 0.255637 0.887165
O O10 0.000000 0.304004 0.000000
O O11 0.962605 0.182898 0.307437
O O12 0.771280 0.243276 0.332986
O O13 0.000000 0.201750 0.500000
O O14 0.881077 0.000000 0.383878
O O15 0.080994 0.000000 0.826168
O O16 0.500000 0.350770 0.500000
O O17 0.298612 0.500000 0.437000
O O18 0.359132 0.343191 0.589694
O O19 0.691877 0.500000 0.298466
#
# Coordination Sequence:
#
# PCOD9146156 Si02
#       7
#     4   4   4   4   4   4   4
#     4  11  21  32  52  83 114 147 188 231 281 343
#     4  10  20  37  56  81 118 150 182 231 292 342
#     4  10  20  35  60  88 114 152 195 237 287 343
#     4  10  22  42  63  82 114 155 194 238 286 337
#     4  10  22  38  57  83 116 153 190 238 294 339
#     4  10  19  33  52  76 111 150 181 225 288 341
#     4  10  21  37  58  82 112 150 191 236 286 341
#
# _framework density 18.025283999999999
#
# number of rings (size 3 to 8) (size 9 to 14) (size 15 to 20)
#    0.000    1.857    2.857    1.286    0.000    4.857 
#    0.000    0.714    0.000    4.286    0.000    0.000 
#    0.000    0.000    0.000    0.000    0.000    0.000 
#
# Total GULP energy -156195.311325 kJ/mol
# GULP energy per Si atom -5578.403976 kJ/mol
# Density = 1.798426 g / cm^3
# Si number density = 18.025284 Si / 1000 Ang^3
#
#
#
# Elastic Constant Matrix: (Units=GPa)
#
#
# Indices 1 2 3 4 5 6 
#
# 1 81.0674 43.5369 25.2998 0.0000 14.2101 0.0000
# 2 43.5369 84.5208 58.9436 0.0000 9.2769 0.0000
# 3 25.2998 58.9436 92.5306 0.0000 10.8997 0.0000
# 4 0.0000 0.0000 0.0000 31.2326 0.0000 -2.0140
# 5 14.2101 9.2769 10.8997 0.0000 26.8675 0.0000
# 6 0.0000 0.0000 0.0000 -2.0140 0.0000 25.1347
#
#
#
# Elastic Compliance Matrix: (Units=1/GPa)
#
#
# Indices 1 2 3 4 5 6 
#
# 1 0.018409 -0.010392 0.002427 0.000000 -0.007133 0.000000
# 2 -0.010392 0.027252 -0.014763 0.000000 0.002076 0.000000
# 3 0.002427 -0.014763 0.020057 0.000000 -0.004323 0.000000
# 4 0.000000 0.000000 0.000000 0.032184 0.000000 0.002579
# 5 -0.007133 0.002076 -0.004323 0.000000 0.042029 0.000000
# 6 0.000000 0.000000 0.000000 0.002579 0.000000 0.039992
#
#
# Mechanical properties :
#
#
# Convention : Reuss Voigt Hill
#
# Bulk Modulus (GPa) = 49.35436 57.07549 53.21493
# Shear Modulus (GPa) = 21.53909 25.33621 23.43765
#
# Velocity S-wave (km/s) = 3.46054 3.75319 3.60983
# Velocity P-wave (km/s) = 6.58841 7.10738 6.85281
#
# Compressibility (1/GPa) = 0.02026163
#
# Stress axis : x y z
#
# Youngs Moduli (GPa) = 54.31989 36.69412 49.85689
#
# Poissons Ratio (x) = 0.38133 -0.12099
# Poissons Ratio (y) = 0.56450 0.73605
# Poissons Ratio (z) = -0.13182 0.54173
#
# Static dielectric constant tensor:
#      x y z
#    x 1.612060 0.000000 0.013470 
#    y 0.000000 1.622340 0.000000 
#    z 0.013470 0.000000 1.624510 
# 
# From -- ./inp_files/49115.got.cif
#   From: 2010.05.17/outbox.cif.g08.bks.cpg/sg10_25_cif.got.tgz:49115.got - 2010.06.03 11:33:40.
