data_PCOD9146335
_publ_section_title
;
Structure prediction by ZEFSAII (Michael W. Deem and Ramdas Pophale) SiO2 
 PCOD9146335
Probable space group: P 2/M
;
_chemical_formula_sum "Si O2"
_cell_formula_units_Z 32
_cell_length_a 11.255023
_cell_length_b 14.509127
_cell_length_c 11.954126
_cell_angle_alpha 90.000000
_cell_angle_beta 116.923561
_cell_angle_gamma 90.000000
_cell_volume 1740.528397
_symmetry_space_group_name_H-M "P 2/M"
_symmetry_group_IT_number 10
_symmetry_cell_setting 'monoclinic'
loop_
_space_group_symop_operation_xyz
x,y,z
-x,y,-z
-x,-y,-z
x,-y,z
loop_
_atom_site_type_symbol
_atom_site_label
_atom_site_fract_x
_atom_site_fract_y
_atom_site_fract_z
Si Si1 0.196447 0.396074 0.282038
Si Si2 0.670253 0.604926 0.425308
Si Si3 0.207863 0.740436 0.697757
Si Si4 0.639452 0.769391 0.012367
Si Si5 0.947584 0.777927 0.698179
Si Si6 0.892326 0.110179 0.054026
Si Si7 0.843797 0.896624 0.470835
Si Si8 0.597546 0.395826 0.822401
O O1 0.137749 0.500000 0.270662
O O2 0.298781 0.383818 0.430419
O O3 0.269615 0.394152 0.194963
O O4 0.104091 0.306783 0.251160
O O5 0.706633 0.500000 0.414083
O O6 0.754268 0.671755 0.383610
O O7 0.520023 0.618261 0.318434
O O8 0.286839 0.728875 0.846345
O O9 0.052375 0.733139 0.657766
O O10 0.231311 0.843132 0.659460
O O11 0.749421 0.835888 0.998525
O O12 0.500000 0.811632 0.000000
O O13 0.601059 0.685212 0.914018
O O14 0.029825 0.852514 0.804075
O O15 0.840190 0.834156 0.580356
O O16 0.870433 0.000000 0.047512
O O17 0.000000 0.129209 0.000000
O O18 0.000000 0.900912 0.500000
O O19 0.797245 0.000000 0.469523
O O20 0.581156 0.500000 0.862732
#
# Coordination Sequence:
#
# PCOD9146335 Si02
#       8
#     4   4   4   4   4   4   4   4
#     4  10  20  34  55  84 115 148 185 233 283 335
#     4  10  19  33  54  79 110 146 186 228 277 334
#     4  10  20  33  50  82 112 140 179 230 286 335
#     4  11  22  37  60  84 115 150 196 241 286 332
#     4  10  19  33  57  81 113 145 184 226 280 342
#     4  10  22  40  60  84 115 153 194 238 291 347
#     4   9  17  31  52  77 105 139 179 224 275 337
#     4  10  21  37  57  80 110 152 197 230 276 342
#
# _framework density 18.385221000000001
#
# number of rings (size 3 to 8) (size 9 to 14) (size 15 to 20)
#    0.000    2.000    2.500    1.500    0.000    6.000 
#    0.000    3.125    0.000    6.750    0.000    0.875 
#    0.000    0.000    0.000    0.000    0.000    0.000 
#
# Total GULP energy -178196.622432 kJ/mol
# GULP energy per Si atom -5568.644451 kJ/mol
# Density = 1.834338 g / cm^3
# Si number density = 18.385221 Si / 1000 Ang^3
#
#
#
# Elastic Constant Matrix: (Units=GPa)
#
#
# Indices 1 2 3 4 5 6 
#
# 1 75.7908 41.1279 5.7229 0.0000 -12.7745 0.0000
# 2 41.1279 83.2583 10.4352 0.0000 -7.5834 0.0000
# 3 5.7229 10.4352 32.6622 0.0000 -4.2406 0.0000
# 4 0.0000 0.0000 0.0000 10.2494 0.0000 -2.5084
# 5 -12.7745 -7.5834 -4.2406 0.0000 20.6424 0.0000
# 6 0.0000 0.0000 0.0000 -2.5084 0.0000 24.1665
#
#
#
# Elastic Compliance Matrix: (Units=1/GPa)
#
#
# Indices 1 2 3 4 5 6 
#
# 1 0.019470 -0.008879 0.000582 0.000000 0.008906 0.000000
# 2 -0.008879 0.016871 -0.003846 0.000000 -0.000087 0.000000
# 3 0.000582 -0.003846 0.032473 0.000000 0.005618 0.000000
# 4 0.000000 0.000000 0.000000 0.100110 0.000000 0.010391
# 5 0.008906 -0.000087 0.005618 0.000000 0.055078 0.000000
# 6 0.000000 0.000000 0.000000 0.010391 0.000000 0.042458
#
#
# Mechanical properties :
#
#
# Convention : Reuss Voigt Hill
#
# Bulk Modulus (GPa) = 22.45827 34.03147 28.24487
# Shear Modulus (GPa) = 16.36188 19.97334 18.16761
#
# Velocity S-wave (km/s) = 2.98643 3.29960 3.14692
# Velocity P-wave (km/s) = 4.91260 5.75039 5.34792
#
# Compressibility (1/GPa) = 0.04452703
#
# Stress axis : x y z
#
# Youngs Moduli (GPa) = 51.36138 59.27285 30.79528
#
# Poissons Ratio (x) = 0.52631 -0.01792
# Poissons Ratio (y) = 0.45606 0.11843
# Poissons Ratio (z) = -0.02988 0.22794
#
# Static dielectric constant tensor:
#      x y z
#    x 1.671080 0.000000 0.003570 
#    y 0.000000 1.644110 0.000000 
#    z 0.003570 0.000000 1.648610 
# 
# From -- ./inp_files/47034.got.cif
#   From: 2010.05.17/outbox.cif.g08.bks.cpg/sg10_24_cif.got.tgz:47034.got - 2010.06.03 11:33:40.
