data_PCOD9146935
_publ_section_title
;
Structure prediction by ZEFSAII (Michael W. Deem and Ramdas Pophale) SiO2 
 PCOD9146935
Probable space group: P 2/M
;
_chemical_formula_sum "Si O2"
_cell_formula_units_Z 22
_cell_length_a 25.615092
_cell_length_b 11.430101
_cell_length_c 22.677488
_cell_angle_alpha 90.000000
_cell_angle_beta 169.422875
_cell_angle_gamma 90.000000
_cell_volume 1218.754948
_symmetry_space_group_name_H-M "P 2/M"
_symmetry_group_IT_number 10
_symmetry_cell_setting 'monoclinic'
loop_
_space_group_symop_operation_xyz
x,y,z
-x,y,-z
-x,-y,-z
x,-y,z
loop_
_atom_site_type_symbol
_atom_site_label
_atom_site_fract_x
_atom_site_fract_y
_atom_site_fract_z
Si Si1 0.909254 0.637580 0.238931
Si Si2 0.605804 0.277482 0.783814
Si Si3 0.844533 0.136134 0.641696
Si Si4 0.313621 0.363181 0.345428
Si Si5 0.539897 0.218019 0.184797
Si Si6 0.339111 0.000000 0.883659
O O1 0.940121 0.500000 0.285214
O O2 0.212828 0.702244 0.569483
O O3 0.747333 0.654149 0.996057
O O4 0.713548 0.702219 0.070195
O O5 0.354351 0.199184 0.531582
O O6 0.472923 0.353985 0.584385
O O7 0.853945 0.198994 0.031212
O O8 0.684209 0.154709 0.401254
O O9 0.876273 0.000000 0.689409
O O10 0.500000 0.309547 0.500000
O O11 0.275391 0.500000 0.288084
O O12 0.000000 0.309546 0.000000
O O13 0.429820 0.116700 0.019715
O O14 0.000000 0.000000 0.500000
O O15 0.500000 0.000000 0.000000
#
# Coordination Sequence:
#
# PCOD9146935 Si02
#       6
#     4   4   4   4   4   2
#     4  10  20  35  59  87 117 147 180 233 291 339
#     4  10  20  32  54  81 106 141 181 226 278 333
#     4  10  19  34  55  79 109 137 174 230 280 323
#     4  10  20  34  52  73 103 140 178 224 270 325
#     4  10  21  37  58  86 116 147 185 231 279 328
#     4  12  24  40  64  88 118 150 190 236 266 318
#
# _framework density 18.051209
#
# number of rings (size 3 to 8) (size 9 to 14) (size 15 to 20)
#    0.000    1.818    0.909    3.818    0.000    0.000 
#    0.000    5.455    0.000   21.818    0.000    0.000 
#    0.000    0.000    0.000    0.000    0.000    0.000 
#
# Total GULP energy -122786.046523 kJ/mol
# GULP energy per Si atom -5581.183933 kJ/mol
# Density = 1.801012 g / cm^3
# Si number density = 18.051209 Si / 1000 Ang^3
#
#
#
# Elastic Constant Matrix: (Units=GPa)
#
#
# Indices 1 2 3 4 5 6 
#
# 1 142.5753 31.7671 18.9968 0.0000 38.6800 0.0000
# 2 31.7671 84.8512 41.7514 0.0000 18.1454 0.0000
# 3 18.9968 41.7514 176.9870 0.0000 24.1528 0.0000
# 4 0.0000 0.0000 0.0000 20.9001 0.0000 -9.5228
# 5 38.6800 18.1454 24.1528 0.0000 42.2069 0.0000
# 6 0.0000 0.0000 0.0000 -9.5228 0.0000 25.9583
#
#
#
# Elastic Compliance Matrix: (Units=1/GPa)
#
#
# Indices 1 2 3 4 5 6 
#
# 1 0.009655 -0.002140 0.000597 0.000000 -0.008269 0.000000
# 2 -0.002140 0.014555 -0.002839 0.000000 -0.002672 0.000000
# 3 0.000597 -0.002839 0.006686 0.000000 -0.003153 0.000000
# 4 0.000000 0.000000 0.000000 0.057449 0.000000 0.021075
# 5 -0.008269 -0.002672 -0.003153 0.000000 0.034224 0.000000
# 6 0.000000 0.000000 0.000000 0.021075 0.000000 0.046255
#
#
# Mechanical properties :
#
#
# Convention : Reuss Voigt Hill
#
# Bulk Modulus (GPa) = 45.18492 65.49380 55.33936
# Shear Modulus (GPa) = 27.03218 38.60626 32.81922
#
# Velocity S-wave (km/s) = 3.87399 4.62963 4.26856
# Velocity P-wave (km/s) = 6.71537 8.05847 7.41739
#
# Compressibility (1/GPa) = 0.02213128
#
# Stress axis : x y z
#
# Youngs Moduli (GPa) = 103.57816 68.70560 149.56512
#
# Poissons Ratio (x) = 0.14702 -0.08930
# Poissons Ratio (y) = 0.22164 0.42465
# Poissons Ratio (z) = -0.06184 0.19507
#
# Static dielectric constant tensor:
#      x y z
#    x 1.605740 0.000000 0.014060 
#    y 0.000000 1.579060 0.000000 
#    z 0.014060 0.000000 1.612890 
# 
# From -- ./inp_files/13046.got.cif
#   From: 2010.05.17/outbox.cif.g08.bks.cpg/sg10_7_cif.got.tgz:13046.got - 2010.06.03 11:33:40.
