data_PCOD9146893
_publ_section_title
;
Structure prediction by ZEFSAII (Michael W. Deem and Ramdas Pophale) SiO2 
 PCOD9146893
Probable space group: P 2/M
;
_chemical_formula_sum "Si O2"
_cell_formula_units_Z 24
_cell_length_a 16.459871
_cell_length_b 7.847862
_cell_length_c 23.154364
_cell_angle_alpha 90.000000
_cell_angle_beta 156.882679
_cell_angle_gamma 90.000000
_cell_volume 1174.296362
_symmetry_space_group_name_H-M "P 2/M"
_symmetry_group_IT_number 10
_symmetry_cell_setting 'monoclinic'
loop_
_space_group_symop_operation_xyz
x,y,z
-x,y,-z
-x,-y,-z
x,-y,z
loop_
_atom_site_type_symbol
_atom_site_label
_atom_site_fract_x
_atom_site_fract_y
_atom_site_fract_z
Si Si1 0.208907 0.705453 0.472703
Si Si2 0.994382 0.303715 0.088363
Si Si3 0.680613 0.194491 0.789086
Si Si4 0.470001 0.292215 0.046762
Si Si5 0.906773 0.708577 0.378208
Si Si6 0.014369 0.708413 0.788152
O O1 0.197585 0.500000 0.464872
O O2 0.443484 0.753999 0.639676
O O3 0.049880 0.764009 0.418237
O O4 0.134363 0.766501 0.360903
O O5 0.928762 0.500000 0.051259
O O6 0.036711 0.236499 0.180199
O O7 0.195159 0.296481 0.178767
O O8 0.810184 0.214713 0.932785
O O9 0.692906 0.000000 0.778561
O O10 0.467994 0.500000 0.045548
O O11 0.670482 0.237264 0.213693
O O12 0.500000 0.239232 0.000000
O O13 0.248741 0.238608 0.926382
O O14 0.907454 0.500000 0.378494
O O15 0.000000 0.764691 0.500000
O O16 0.006891 0.500000 0.782356
#
# Coordination Sequence:
#
# PCOD9146893 Si02
#       6
#     4   4   4   4   4   4
#     4  10  19  34  54  82 114 143 178 222 268 315
#     4  10  20  37  60  84 105 135 178 226 275 322
#     4  11  23  39  56  77 108 144 179 221 271 325
#     4   9  14  25  43  71 113 145 166 207 266 318
#     4   9  17  26  44  78 114 143 173 215 265 313
#     4   9  18  30  51  83 113 140 174 221 273 318
#
# _framework density 20.437771999999999
#
# number of rings (size 3 to 8) (size 9 to 14) (size 15 to 20)
#    0.000    2.333    1.667    3.000    2.333    0.667 
#    0.000    5.000    0.000    0.500    0.000    1.167 
#    0.000    0.000    0.000    0.000    0.000    0.000 
#
# Total GULP energy -133977.522496 kJ/mol
# GULP energy per Si atom -5582.396771 kJ/mol
# Density = 2.039125 g / cm^3
# Si number density = 20.437772 Si / 1000 Ang^3
#
#
#
# Elastic Constant Matrix: (Units=GPa)
#
#
# Indices 1 2 3 4 5 6 
#
# 1 66.6673 6.2308 15.1856 0.0000 -24.0476 0.0000
# 2 6.2308 24.6783 3.7752 0.0000 -3.0263 0.0000
# 3 15.1856 3.7752 95.1885 0.0000 -4.6648 0.0000
# 4 0.0000 0.0000 0.0000 -33.3155 0.0000 5.2708
# 5 -24.0476 -3.0263 -4.6648 0.0000 35.5258 0.0000
# 6 0.0000 0.0000 0.0000 5.2708 0.0000 -22.6859
#
#
#
# Elastic Compliance Matrix: (Units=1/GPa)
#
#
# Indices 1 2 3 4 5 6 
#
# 1 0.020712 -0.003199 -0.002520 0.000000 0.013417 0.000000
# 2 -0.003199 0.041646 -0.001081 0.000000 0.001241 0.000000
# 3 -0.002520 -0.001081 0.010933 0.000000 -0.000362 0.000000
# 4 0.000000 0.000000 0.000000 -0.031161 0.000000 -0.007240
# 5 0.013417 0.001241 -0.000362 0.000000 0.037289 0.000000
# 6 0.000000 0.000000 0.000000 -0.007240 0.000000 -0.045762
#
#
# Mechanical properties :
#
#
# Convention : Reuss Voigt Hill
#
# Bulk Modulus (GPa) = 16.75236 26.32415 21.53825
# Shear Modulus (GPa) = 74.45748 6.66105 40.55927
#
# Velocity S-wave (km/s) = 6.04238 1.80728 4.45963
# Velocity P-wave (km/s) = 7.54288 4.15489 6.08926
#
# Compressibility (1/GPa) = 0.05969309
#
# Stress axis : x y z
#
# Youngs Moduli (GPa) = 48.28011 24.01163 91.46971
#
# Poissons Ratio (x) = 0.07681 0.23050
# Poissons Ratio (y) = 0.15443 0.09884
# Poissons Ratio (z) = 0.12166 0.02595
#
# Static dielectric constant tensor:
#      x y z
#    x 1.711460 0.000000 -0.009190 
#    y 0.000000 1.741130 0.000000 
#    z -0.009190 0.000000 1.703540 
# 
# From -- ./inp_files/90061.got.cif
#   From: 2010.05.17/outbox.cif.g08.bks.cpg/sg10_46_cif.got.tgz:90061.got - 2010.06.03 11:33:40.
