data_PCOD9146394
_publ_section_title
;
Structure prediction by ZEFSAII (Michael W. Deem and Ramdas Pophale) SiO2 
 PCOD9146394
Probable space group: P 2/M
;
_chemical_formula_sum "Si O2"
_cell_formula_units_Z 28
_cell_length_a 12.134408
_cell_length_b 7.958643
_cell_length_c 15.283357
_cell_angle_alpha 90.000000
_cell_angle_beta 62.074678
_cell_angle_gamma 90.000000
_cell_volume 1304.102727
_symmetry_space_group_name_H-M "P 2/M"
_symmetry_group_IT_number 10
_symmetry_cell_setting 'monoclinic'
loop_
_space_group_symop_operation_xyz
x,y,z
-x,y,-z
-x,-y,-z
x,-y,z
loop_
_atom_site_type_symbol
_atom_site_label
_atom_site_fract_x
_atom_site_fract_y
_atom_site_fract_z
Si Si1 0.370796 0.697678 0.504698
Si Si2 0.158361 0.199837 0.190418
Si Si3 0.118851 0.796451 0.009707
Si Si4 0.481653 0.198560 0.295049
Si Si5 0.111025 0.696194 0.678183
Si Si6 0.752494 0.202533 0.206621
Si Si7 0.437532 0.303917 0.114789
O O1 0.500000 0.768101 0.500000
O O2 0.368165 0.500000 0.528121
O O3 0.381568 0.718149 0.395981
O O4 0.237060 0.768944 0.586304
O O5 0.137242 0.266489 0.099614
O O6 0.287621 0.281879 0.171091
O O7 0.026140 0.229046 0.287762
O O8 0.180836 0.000000 0.180619
O O9 0.106220 0.000000 0.021912
O O10 0.229327 0.758920 0.902048
O O11 0.000000 0.735311 0.000000
O O12 0.615205 0.262125 0.280679
O O13 0.476961 0.225772 0.192976
O O14 0.475035 0.000000 0.312769
O O15 0.102530 0.500000 0.660355
O O16 0.144822 0.721472 0.768016
O O17 0.761965 0.000000 0.211880
O O18 0.470300 0.500000 0.106064
O O19 0.500000 0.236985 0.000000
#
# Coordination Sequence:
#
# PCOD9146394 Si02
#       7
#     4   4   4   4   4   4   4
#     4  10  21  39  61  88 127 171 209 253 314 377
#     4  11  22  39  63  87 122 163 206 260 311 366
#     4   9  16  29  51  80 114 152 190 233 296 362
#     4  11  23  38  63  94 123 160 211 264 312 365
#     4  11  22  36  57  87 124 162 203 249 307 372
#     4  10  19  33  54  84 120 156 198 247 303 364
#     4  11  25  45  67  91 125 166 209 254 305 373
#
# _framework density 21.470700999999998
#
# number of rings (size 3 to 8) (size 9 to 14) (size 15 to 20)
#    0.000    1.571    2.857    2.571    0.000    4.286 
#    0.000    2.857    0.000    4.286    0.000    0.000 
#    0.000    0.000    0.000    0.000    0.000    0.000 
#
# Total GULP energy -156166.021898 kJ/mol
# GULP energy per Si atom -5577.357925 kJ/mol
# Density = 2.142183 g / cm^3
# Si number density = 21.470701 Si / 1000 Ang^3
#
#
#
# Elastic Constant Matrix: (Units=GPa)
#
#
# Indices 1 2 3 4 5 6 
#
# 1 83.2157 -9.5630 23.6572 0.0000 -17.7096 0.0000
# 2 -9.5630 26.8941 -1.5901 0.0000 -2.2833 0.0000
# 3 23.6572 -1.5901 98.2538 0.0000 -14.3902 0.0000
# 4 0.0000 0.0000 0.0000 22.5658 0.0000 1.0553
# 5 -17.7096 -2.2833 -14.3902 0.0000 28.8884 0.0000
# 6 0.0000 0.0000 0.0000 1.0553 0.0000 20.9959
#
#
#
# Elastic Compliance Matrix: (Units=1/GPa)
#
#
# Indices 1 2 3 4 5 6 
#
# 1 0.015200 0.006003 -0.002296 0.000000 0.008649 0.000000
# 2 0.006003 0.039920 0.000218 0.000000 0.006944 0.000000
# 3 -0.002296 0.000218 0.011359 0.000000 0.004268 0.000000
# 4 0.000000 0.000000 0.000000 0.044419 0.000000 -0.002233
# 5 0.008649 0.006944 0.004268 0.000000 0.042593 0.000000
# 6 0.000000 0.000000 0.000000 -0.002233 0.000000 0.047741
#
#
# Mechanical properties :
#
#
# Convention : Reuss Voigt Hill
#
# Bulk Modulus (GPa) = 13.45362 25.93020 19.69191
# Shear Modulus (GPa) = 22.91909 27.54731 25.23320
#
# Velocity S-wave (km/s) = 3.27074 3.58581 3.43189
# Velocity P-wave (km/s) = 4.53247 5.40808 4.98952
#
# Compressibility (1/GPa) = 0.07432946
#
# Stress axis : x y z
#
# Youngs Moduli (GPa) = 65.78835 25.05012 88.03477
#
# Poissons Ratio (x) = -0.15039 0.20212
# Poissons Ratio (y) = -0.39496 -0.01915
# Poissons Ratio (z) = 0.15105 -0.00545
#
# Static dielectric constant tensor:
#      x y z
#    x 1.789660 0.000000 -0.052150 
#    y 0.000000 1.760380 0.000000 
#    z -0.052150 0.000000 1.848700 
# 
# From -- ./inp_files/63613.got.cif
#   From: 2010.05.17/outbox.cif.g08.bks.cpg/sg10_32_cif.got.tgz:63613.got - 2010.06.03 11:33:40.
