data_PCOD9146004
_publ_section_title
;
Structure prediction by ZEFSAII (Michael W. Deem and Ramdas Pophale) SiO2 
 PCOD9146004
Probable space group: P 2/M
;
_chemical_formula_sum "Si O2"
_cell_formula_units_Z 28
_cell_length_a 13.568188
_cell_length_b 7.723963
_cell_length_c 13.301926
_cell_angle_alpha 90.000000
_cell_angle_beta 68.584477
_cell_angle_gamma 90.000000
_cell_volume 1297.795166
_symmetry_space_group_name_H-M "P 2/M"
_symmetry_group_IT_number 10
_symmetry_cell_setting 'monoclinic'
loop_
_space_group_symop_operation_xyz
x,y,z
-x,y,-z
-x,-y,-z
x,-y,z
loop_
_atom_site_type_symbol
_atom_site_label
_atom_site_fract_x
_atom_site_fract_y
_atom_site_fract_z
Si Si1 0.819780 0.210959 0.115976
Si Si2 0.603789 0.200210 0.909410
Si Si3 0.741018 0.704610 0.453557
Si Si4 0.607903 0.301342 0.683235
Si Si5 0.945808 0.209215 0.267144
Si Si6 0.834155 0.212200 0.883552
Si Si7 0.614035 0.798405 0.302614
O O1 0.894679 0.266638 0.179501
O O2 0.700442 0.265345 0.189192
O O3 0.820281 0.000000 0.117363
O O4 0.852604 0.263540 0.992631
O O5 0.592951 0.206020 0.793747
O O6 0.718390 0.274786 0.894761
O O7 0.607817 0.000000 0.942938
O O8 0.500000 0.279706 0.000000
O O9 0.719831 0.500000 0.459600
O O10 0.698170 0.771079 0.575894
O O11 0.863959 0.733560 0.382944
O O12 0.672653 0.783170 0.387710
O O13 0.633143 0.500000 0.698884
O O14 0.497426 0.294811 0.663990
O O15 0.067185 0.268090 0.221653
O O16 0.944369 0.000000 0.268286
O O17 0.834038 0.000000 0.880583
O O18 0.593053 0.000000 0.290760
#
# Coordination Sequence:
#
# PCOD9146004 Si02
#       7
#     4   4   4   4   4   4   4
#     4   8  14  26  48  79 109 133 161 204 260 316
#     4  10  21  37  57  80 106 137 175 219 263 310
#     4  10  21  36  52  74 107 142 174 213 263 316
#     4  11  23  37  53  74 104 143 180 215 261 314
#     4   9  17  30  52  80 105 134 174 216 259 309
#     4   9  16  29  51  78 106 135 171 217 263 306
#     4  10  19  32  55  84 109 136 172 215 263 314
#
# _framework density 21.575051999999999
#
# number of rings (size 3 to 8) (size 9 to 14) (size 15 to 20)
#    0.000    2.429    0.000    3.857    0.000    8.286 
#    0.000    1.429    0.000   12.857    0.000    0.000 
#    0.000    0.000    0.000    0.000    0.000    0.000 
#
# Total GULP energy -156312.872927 kJ/mol
# GULP energy per Si atom -5582.602605 kJ/mol
# Density = 2.152595 g / cm^3
# Si number density = 21.575052 Si / 1000 Ang^3
#
#
#
# Elastic Constant Matrix: (Units=GPa)
#
#
# Indices 1 2 3 4 5 6 
#
# 1 103.7294 3.5987 58.6919 0.0000 -41.6699 0.0000
# 2 3.5987 34.7436 -3.3295 0.0000 -3.7105 0.0000
# 3 58.6919 -3.3295 140.1047 0.0000 -40.2615 0.0000
# 4 0.0000 0.0000 0.0000 17.8221 0.0000 -8.4854
# 5 -41.6699 -3.7105 -40.2615 0.0000 31.3496 0.0000
# 6 0.0000 0.0000 0.0000 -8.4854 0.0000 8.3320
#
#
#
# Elastic Compliance Matrix: (Units=1/GPa)
#
#
# Indices 1 2 3 4 5 6 
#
# 1 0.020826 0.000533 -0.001171 0.000000 0.026242 0.000000
# 2 0.000533 0.029808 0.002698 0.000000 0.007702 0.000000
# 3 -0.001171 0.002698 0.011628 0.000000 0.013697 0.000000
# 4 0.000000 0.000000 0.000000 0.108927 0.000000 0.110932
# 5 0.026242 0.007702 0.013697 0.000000 0.085281 0.000000
# 6 0.000000 0.000000 0.000000 0.110932 0.000000 0.232993
#
#
# Mechanical properties :
#
#
# Convention : Reuss Voigt Hill
#
# Bulk Modulus (GPa) = 15.06386 44.05555 29.55970
# Shear Modulus (GPa) = 9.85281 26.14185 17.99733
#
# Velocity S-wave (km/s) = 2.13932 3.48468 2.89134
# Velocity P-wave (km/s) = 3.61932 6.05431 4.98769
#
# Compressibility (1/GPa) = 0.06638407
#
# Stress axis : x y z
#
# Youngs Moduli (GPa) = 48.01670 33.54783 85.99830
#
# Poissons Ratio (x) = -0.01789 0.10068
# Poissons Ratio (y) = -0.02560 -0.23206
# Poissons Ratio (z) = 0.05621 -0.09052
#
# Static dielectric constant tensor:
#      x y z
#    x 1.776070 0.000000 -0.032840 
#    y 0.000000 1.802160 0.000000 
#    z -0.032840 0.000000 1.780370 
# 
# From -- ./inp_files/49635.got.cif
#   From: 2010.05.17/outbox.cif.g08.bks.cpg/sg10_25_cif.got.tgz:49635.got - 2010.06.03 11:33:40.
