data_PCOD9146278
_publ_section_title
;
Structure prediction by ZEFSAII (Michael W. Deem and Ramdas Pophale) SiO2 
 PCOD9146278
Probable space group: P 2/M
;
_chemical_formula_sum "Si O2"
_cell_formula_units_Z 28
_cell_length_a 23.920313
_cell_length_b 7.465122
_cell_length_c 20.956598
_cell_angle_alpha 90.000000
_cell_angle_beta 159.979090
_cell_angle_gamma 90.000000
_cell_volume 1281.183832
_symmetry_space_group_name_H-M "P 2/M"
_symmetry_group_IT_number 10
_symmetry_cell_setting 'monoclinic'
loop_
_space_group_symop_operation_xyz
x,y,z
-x,y,-z
-x,-y,-z
x,-y,z
loop_
_atom_site_type_symbol
_atom_site_label
_atom_site_fract_x
_atom_site_fract_y
_atom_site_fract_z
Si Si1 0.705576 0.713667 0.907614
Si Si2 0.466078 0.781394 0.890950
Si Si3 0.882657 0.780414 0.541096
Si Si4 0.116395 0.293095 0.178800
Si Si5 0.935393 0.801277 0.735333
Si Si6 0.473490 0.718962 0.544465
Si Si7 0.256555 0.786492 0.910955
O O1 0.729419 0.500000 0.926695
O O2 0.593115 0.776054 0.729034
O O3 0.656252 0.749223 0.927498
O O4 0.877326 0.808882 0.084312
O O5 0.281903 0.727205 0.672626
O O6 0.465965 0.000000 0.887786
O O7 0.500000 0.728650 0.000000
O O8 0.617412 0.720933 0.008169
O O9 0.857487 0.720051 0.587969
O O10 0.064513 0.722513 0.710479
O O11 0.888230 0.000000 0.548459
O O12 0.138533 0.500000 0.182931
O O13 0.060236 0.290315 0.191354
O O14 0.294920 0.214339 0.369874
O O15 0.000000 0.212487 0.000000
O O16 0.866826 0.000000 0.671695
O O17 0.500000 0.773482 0.500000
O O18 0.482303 0.500000 0.554862
O O19 0.242895 0.000000 0.887878
#
# Coordination Sequence:
#
# PCOD9146278 Si02
#       7
#     4   4   4   4   4   4   4
#     4  10  19  33  54  76 100 133 173 215 258 312
#     4   9  17  29  49  77 106 138 175 215 263 317
#     4   8  16  30  46  71 104 135 170 213 260 310
#     4  10  20  34  53  75 100 134 174 215 259 308
#     4  10  20  34  52  75 104 135 169 214 265 313
#     4   9  18  32  50  73  99 129 169 215 258 301
#     4   9  18  32  51  75 106 138 170 216 268 312
#
# _framework density 21.854786000000001
#
# number of rings (size 3 to 8) (size 9 to 14) (size 15 to 20)
#    0.000    2.714    0.000    2.571    2.000    3.143 
#    0.000    3.571    0.000    3.429    0.000    4.000 
#    0.000    0.000    0.000    0.000    0.000    0.000 
#
# Total GULP energy -155997.353171 kJ/mol
# GULP energy per Si atom -5571.334042 kJ/mol
# Density = 2.180504 g / cm^3
# Si number density = 21.854786 Si / 1000 Ang^3
#
#
#
# Elastic Constant Matrix: (Units=GPa)
#
#
# Indices 1 2 3 4 5 6 
#
# 1 169.1072 -6.0470 83.6880 0.0000 -17.0412 0.0000
# 2 -6.0470 59.5353 2.1378 0.0000 3.4713 0.0000
# 3 83.6880 2.1378 157.2744 0.0000 -38.1476 0.0000
# 4 0.0000 0.0000 0.0000 13.3291 0.0000 -17.6482
# 5 -17.0412 3.4713 -38.1476 0.0000 34.1562 0.0000
# 6 0.0000 0.0000 0.0000 -17.6482 0.0000 26.5582
#
#
#
# Elastic Compliance Matrix: (Units=1/GPa)
#
#
# Indices 1 2 3 4 5 6 
#
# 1 0.008121 0.001063 -0.004635 0.000000 -0.001233 0.000000
# 2 0.001063 0.017127 -0.001498 0.000000 -0.002883 0.000000
# 3 -0.004635 -0.001498 0.011413 0.000000 0.010586 0.000000
# 4 0.000000 0.000000 0.000000 0.624341 0.000000 0.414882
# 5 -0.001233 -0.002883 0.010586 0.000000 0.040778 0.000000
# 6 0.000000 0.000000 0.000000 0.414882 0.000000 0.313347
#
#
# Mechanical properties :
#
#
# Convention : Reuss Voigt Hill
#
# Bulk Modulus (GPa) = 37.70545 60.60828 49.15686
# Shear Modulus (GPa) = 4.83510 35.21791 20.02650
#
# Velocity S-wave (km/s) = 1.48902 4.01864 3.03040
# Velocity P-wave (km/s) = 4.49960 7.02318 5.89795
#
# Compressibility (1/GPa) = 0.02652137
#
# Stress axis : x y z
#
# Youngs Moduli (GPa) = 123.14050 58.38866 87.62297
#
# Poissons Ratio (x) = -0.06207 0.40610
# Poissons Ratio (y) = -0.13091 0.13124
# Poissons Ratio (z) = 0.57071 0.08745
#
# Static dielectric constant tensor:
#      x y z
#    x 2.001000 0.000000 0.089730 
#    y 0.000000 1.850160 0.000000 
#    z 0.089730 0.000000 1.305570 
# 
# From -- ./inp_files/86466.got.cif
#   From: 2010.05.17/outbox.cif.g08.bks.cpg/sg10_44_cif.got.tgz:86466.got - 2010.06.03 11:33:40.
