data_PCOD9146066
_publ_section_title
;
Structure prediction by ZEFSAII (Michael W. Deem and Ramdas Pophale) SiO2 
 PCOD9146066
Probable space group: P 2/M
;
_chemical_formula_sum "Si O2"
_cell_formula_units_Z 26
_cell_length_a 7.854789
_cell_length_b 12.769981
_cell_length_c 24.543163
_cell_angle_alpha 90.000000
_cell_angle_beta 30.948828
_cell_angle_gamma 90.000000
_cell_volume 1266.042989
_symmetry_space_group_name_H-M "P 2/M"
_symmetry_group_IT_number 10
_symmetry_cell_setting 'monoclinic'
loop_
_space_group_symop_operation_xyz
x,y,z
-x,y,-z
-x,-y,-z
x,-y,z
loop_
_atom_site_type_symbol
_atom_site_label
_atom_site_fract_x
_atom_site_fract_y
_atom_site_fract_z
Si Si1 0.377160 0.272339 0.898510
Si Si2 0.644399 0.500000 0.230973
Si Si3 0.706827 0.884936 0.887961
Si Si4 0.486197 0.878433 0.668389
Si Si5 0.193977 0.500000 0.694517
Si Si6 0.547450 0.500000 0.132851
Si Si7 0.264509 0.287099 0.315818
Si Si8 0.696068 0.309515 0.540112
O O1 0.585054 0.204924 0.882568
O O2 0.361344 0.392916 0.921219
O O3 0.574099 0.272762 0.787427
O O4 0.000000 0.232697 0.000000
O O5 0.879902 0.500000 0.219510
O O6 0.719098 0.500000 0.145554
O O7 0.442556 0.391179 0.290859
O O8 0.097706 0.876189 0.789009
O O9 0.642438 0.000000 0.881064
O O10 0.500000 0.878442 0.000000
O O11 0.661349 0.816810 0.669488
O O12 0.557607 0.803665 0.596945
O O13 0.585128 0.000000 0.634436
O O14 0.417802 0.398153 0.620846
O O15 0.854316 0.500000 0.753654
O O16 0.876161 0.306820 0.432090
O O17 0.000000 0.331833 0.500000
#
# Coordination Sequence:
#
# PCOD9146066 Si02
#       8
#     4   2   4   4   2   2   4   4
#     4  11  23  42  62  84 121 154 194 251 307 359
#     4  10  19  37  58  86 124 153 206 255 285 346
#     4  10  22  41  63  87 114 150 207 258 291 351
#     4  10  20  35  56  86 121 154 194 244 296 357
#     4  12  18  37  66  84 121 170 207 242 302 355
#     4  10  25  39  59  95 127 159 198 250 306 368
#     4  10  21  36  59  85 120 157 193 253 296 351
#     4  10  19  32  59  88 118 159 203 246 290 356
#
# _framework density 20.536428000000001
#
# number of rings (size 3 to 8) (size 9 to 14) (size 15 to 20)
#    0.000    1.692    3.077    2.769    0.000    3.692 
#    0.000   10.385    0.000    1.846    0.000    0.000 
#    0.000    0.000    0.000    0.000    0.000    0.000 
#
# Total GULP energy -145036.656602 kJ/mol
# GULP energy per Si atom -5578.332946 kJ/mol
# Density = 2.048969 g / cm^3
# Si number density = 20.536428 Si / 1000 Ang^3
#
#
#
# Elastic Constant Matrix: (Units=GPa)
#
#
# Indices 1 2 3 4 5 6 
#
# 1 42.7085 25.6762 30.4479 0.0000 1.6466 0.0000
# 2 25.6762 119.9390 18.9296 0.0000 6.9464 0.0000
# 3 30.4479 18.9296 97.8646 0.0000 -3.2778 0.0000
# 4 0.0000 0.0000 0.0000 16.4692 0.0000 -9.8639
# 5 1.6466 6.9464 -3.2778 0.0000 26.1067 0.0000
# 6 0.0000 0.0000 0.0000 -9.8639 0.0000 26.1487
#
#
#
# Elastic Compliance Matrix: (Units=1/GPa)
#
#
# Indices 1 2 3 4 5 6 
#
# 1 0.033564 -0.005593 -0.009421 0.000000 -0.001812 0.000000
# 2 -0.005593 0.009699 -0.000211 0.000000 -0.002254 0.000000
# 3 -0.009421 -0.000211 0.013268 0.000000 0.002316 0.000000
# 4 0.000000 0.000000 0.000000 0.078442 0.000000 0.029590
# 5 -0.001812 -0.002254 0.002316 0.000000 0.039309 0.000000
# 6 0.000000 0.000000 0.000000 0.029590 0.000000 0.049405
#
#
# Mechanical properties :
#
#
# Convention : Reuss Voigt Hill
#
# Bulk Modulus (GPa) = 38.34558 45.62441 41.98499
# Shear Modulus (GPa) = 19.02360 26.10879 22.56620
#
# Velocity S-wave (km/s) = 3.04688 3.56945 3.31847
# Velocity P-wave (km/s) = 5.57588 6.26519 5.93056
#
# Compressibility (1/GPa) = 0.02607863
#
# Stress axis : x y z
#
# Youngs Moduli (GPa) = 29.79407 103.10445 75.37037
#
# Poissons Ratio (x) = 0.57670 0.71008
# Poissons Ratio (y) = 0.16665 0.01593
# Poissons Ratio (z) = 0.28070 0.02179
#
# Static dielectric constant tensor:
#      x y z
#    x 1.742920 0.000000 0.021650 
#    y 0.000000 1.731630 0.000000 
#    z 0.021650 0.000000 1.817610 
# 
# From -- ./inp_files/92284.got.cif
#   From: 2010.05.17/outbox.cif.g08.bks.cpg/sg10_47_cif.got.tgz:92284.got - 2010.06.03 11:33:40.
