data_PCOD9146592
_publ_section_title
;
Structure prediction by ZEFSAII (Michael W. Deem and Ramdas Pophale) SiO2 
 PCOD9146592
Probable space group: P 2/M
;
_chemical_formula_sum "Si O2"
_cell_formula_units_Z 32
_cell_length_a 23.351015
_cell_length_b 7.475039
_cell_length_c 14.823238
_cell_angle_alpha 90.000000
_cell_angle_beta 149.258403
_cell_angle_gamma 90.000000
_cell_volume 1322.589742
_symmetry_space_group_name_H-M "P 2/M"
_symmetry_group_IT_number 10
_symmetry_cell_setting 'monoclinic'
loop_
_space_group_symop_operation_xyz
x,y,z
-x,y,-z
-x,-y,-z
x,-y,z
loop_
_atom_site_type_symbol
_atom_site_label
_atom_site_fract_x
_atom_site_fract_y
_atom_site_fract_z
Si Si1 0.507772 0.206963 0.733586
Si Si2 0.116770 0.289313 0.696210
Si Si3 0.772089 0.784597 0.421514
Si Si4 0.741041 0.219549 0.584321
Si Si5 0.617347 0.216452 0.707690
Si Si6 0.980624 0.784609 0.251835
Si Si7 0.658604 0.709117 0.091110
Si Si8 0.837216 0.781288 0.896797
O O1 0.383552 0.282155 0.557403
O O2 0.598436 0.279682 0.785050
O O3 0.494744 0.000000 0.690077
O O4 0.552549 0.212802 0.895898
O O5 0.117149 0.500000 0.675247
O O6 0.228813 0.213360 0.803475
O O7 0.000000 0.212050 0.500000
O O8 0.107546 0.267870 0.790969
O O9 0.760663 0.722655 0.508658
O O10 0.894804 0.720795 0.555017
O O11 0.676815 0.730880 0.222029
O O12 0.772461 0.000000 0.422700
O O13 0.826301 0.274841 0.778260
O O14 0.742045 0.000000 0.583926
O O15 0.500000 0.259217 0.500000
O O16 0.725352 0.278823 0.799006
O O17 0.629776 0.000000 0.723835
O O18 0.983765 0.000000 0.255164
O O19 0.940900 0.725040 0.099308
O O20 0.652158 0.500000 0.062524
O O21 0.838814 0.000000 0.897801
#
# Coordination Sequence:
#
# PCOD9146592 Si02
#       8
#     4   4   4   4   4   4   4   4
#     4  10  19  33  56  82 107 138 176 217 258 308
#     4  10  20  36  56  76 103 141 176 208 261 329
#     4  10  21  36  53  77 107 140 180 221 260 303
#     4   9  18  33  53  77 108 144 177 212 258 313
#     4   9  14  24  47  79 108 133 165 208 257 308
#     4  10  20  32  53  84 111 135 170 221 265 301
#     4  11  23  38  56  77 104 139 175 217 269 318
#     4   9  16  28  48  79 112 137 167 210 263 314
#
# _framework density 24.194953999999999
#
# number of rings (size 3 to 8) (size 9 to 14) (size 15 to 20)
#    0.000    2.250    2.500    1.125    0.000    3.250 
#    0.000    5.625    0.000    1.875    0.000    1.750 
#    0.000    0.000    0.000    0.000    0.000    0.000 
#
# Total GULP energy -178795.853115 kJ/mol
# GULP energy per Si atom -5587.370410 kJ/mol
# Density = 2.413989 g / cm^3
# Si number density = 24.194954 Si / 1000 Ang^3
#
#
#
# Elastic Constant Matrix: (Units=GPa)
#
#
# Indices 1 2 3 4 5 6 
#
# 1 69.4077 -6.7897 -0.0860 0.0000 -36.9215 0.0000
# 2 -6.7897 68.3121 -10.5501 0.0000 6.7375 0.0000
# 3 -0.0860 -10.5501 83.3190 0.0000 -37.5211 0.0000
# 4 0.0000 0.0000 0.0000 11.7652 0.0000 -29.3251
# 5 -36.9215 6.7375 -37.5211 0.0000 38.9688 0.0000
# 6 0.0000 0.0000 0.0000 -29.3251 0.0000 30.8105
#
#
#
# Elastic Compliance Matrix: (Units=1/GPa)
#
#
# Indices 1 2 3 4 5 6 
#
# 1 0.136321 0.007090 0.103550 0.000000 0.227636 0.000000
# 2 0.007090 0.015339 0.006674 0.000000 0.010492 0.000000
# 3 0.103550 0.006674 0.099958 0.000000 0.193200 0.000000
# 4 0.000000 0.000000 0.000000 -0.061934 0.000000 -0.058949
# 5 0.227636 0.010492 0.193200 0.000000 0.425547 0.000000
# 6 0.000000 0.000000 0.000000 -0.058949 0.000000 -0.023650
#
#
# Mechanical properties :
#
#
# Convention : Reuss Voigt Hill
#
# Bulk Modulus (GPa) = 2.05657 20.68746 11.37202
# Shear Modulus (GPa) = 9.63327 32.20653 20.91990
#
# Velocity S-wave (km/s) = 1.99754 3.65242 2.94366
# Velocity P-wave (km/s) = 2.48436 5.13379 4.03285
#
# Compressibility (1/GPa) = 0.48624707
#
# Stress axis : x y z
#
# Youngs Moduli (GPa) = 7.33564 65.19164 10.00419
#
# Poissons Ratio (x) = -0.46221 -1.03593
# Poissons Ratio (y) = -0.05201 -0.06677
# Poissons Ratio (z) = -0.75960 -0.43512
#
# Static dielectric constant tensor:
#      x y z
#    x 1.946680 0.000000 -0.012180 
#    y 0.000000 1.938610 0.000000 
#    z -0.012180 0.000000 1.918270 
# 
# From -- ./inp_files/71582.got.cif
#   From: 2010.05.17/outbox.cif.g08.bks.cpg/sg10_36_cif.got.tgz:71582.got - 2010.06.03 11:33:40.
