data_PCOD9146082
_publ_section_title
;
Structure prediction by ZEFSAII (Michael W. Deem and Ramdas Pophale) SiO2 
 PCOD9146082
Probable space group: P 2/M
;
_chemical_formula_sum "Si O2"
_cell_formula_units_Z 28
_cell_length_a 23.098493
_cell_length_b 13.912332
_cell_length_c 19.217169
_cell_angle_alpha 90.000000
_cell_angle_beta 17.194667
_cell_angle_gamma 90.000000
_cell_volume 1825.599583
_symmetry_space_group_name_H-M "P 2/M"
_symmetry_group_IT_number 10
_symmetry_cell_setting 'monoclinic'
loop_
_space_group_symop_operation_xyz
x,y,z
-x,y,-z
-x,-y,-z
x,-y,z
loop_
_atom_site_type_symbol
_atom_site_label
_atom_site_fract_x
_atom_site_fract_y
_atom_site_fract_z
Si Si1 0.085056 0.116054 0.329787
Si Si2 0.219184 0.891464 0.780827
Si Si3 0.590924 0.386258 0.318192
Si Si4 0.075386 0.112567 0.634544
Si Si5 0.495032 0.887437 0.794992
Si Si6 0.640251 0.762977 0.502580
Si Si7 0.073980 0.237002 0.068883
O O1 0.962084 0.140749 0.402069
O O2 0.000000 0.154409 0.500000
O O3 0.079499 0.000000 0.340909
O O4 0.309356 0.140767 0.054734
O O5 0.344618 0.833800 0.580866
O O6 0.286124 0.000000 0.713862
O O7 0.195456 0.833877 0.879126
O O8 0.000000 0.895336 0.000000
O O9 0.500000 0.370487 0.500000
O O10 0.603825 0.500000 0.292417
O O11 0.454996 0.333741 0.417281
O O12 0.800477 0.333694 0.071803
O O13 0.960549 0.181970 0.819004
O O14 0.302937 0.117849 0.394260
O O15 0.015238 0.000000 0.712885
O O16 0.519545 0.818033 0.700848
O O17 0.471284 0.000000 0.800547
O O18 0.859967 0.747790 0.280033
#
# Coordination Sequence:
#
# PCOD9146082 Si02
#       7
#     4   4   4   4   4   4   4
#     4   9  17  28  42  63  95 133 166 190 214 259
#     4   9  16  27  45  68  93 121 152 186 224 268
#     4  11  23  36  48  64  88 120 163 206 238 275
#     4   9  17  29  47  70  96 126 156 190 232 274
#     4   9  17  29  47  70  96 126 156 190 232 274
#     4  10  19  33  50  68  92 122 156 195 236 275
#     4  10  19  33  50  68  92 122 156 195 236 275
#
# _framework density 15.337427
#
# number of rings (size 3 to 8) (size 9 to 14) (size 15 to 20)
#    0.000    2.429    1.429    1.714    0.000    4.571 
#    0.000    7.143    0.000    0.000    0.000    0.000 
#    0.000    9.143    0.000   25.143    0.000    1.143 
#
# Total GULP energy -156124.706604 kJ/mol
# GULP energy per Si atom -5575.882379 kJ/mol
# Density = 1.530252 g / cm^3
# Si number density = 15.337427 Si / 1000 Ang^3
#
#
#
# Elastic Constant Matrix: (Units=GPa)
#
#
# Indices 1 2 3 4 5 6 
#
# 1 107.8468 54.1409 67.2462 0.0000 19.7242 0.0000
# 2 54.1409 100.5750 51.2360 0.0000 6.2593 0.0000
# 3 67.2462 51.2360 92.1374 0.0000 14.7456 0.0000
# 4 0.0000 0.0000 0.0000 16.1729 0.0000 -7.5894
# 5 19.7242 6.2593 14.7456 0.0000 26.8352 0.0000
# 6 0.0000 0.0000 0.0000 -7.5894 0.0000 12.7563
#
#
#
# Elastic Compliance Matrix: (Units=1/GPa)
#
#
# Indices 1 2 3 4 5 6 
#
# 1 0.019513 -0.004736 -0.010404 0.000000 -0.007520 0.000000
# 2 -0.004736 0.015052 -0.005382 0.000000 0.002927 0.000000
# 3 -0.010404 -0.005382 0.021945 0.000000 -0.003156 0.000000
# 4 0.000000 0.000000 0.000000 0.085781 0.000000 0.051035
# 5 -0.007520 0.002927 -0.003156 0.000000 0.043843 0.000000
# 6 0.000000 0.000000 0.000000 0.051035 0.000000 0.108756
#
#
# Mechanical properties :
#
#
# Convention : Reuss Voigt Hill
#
# Bulk Modulus (GPa) = 64.66204 71.75614 68.20909
# Shear Modulus (GPa) = 14.65898 19.68197 17.17047
#
# Velocity S-wave (km/s) = 3.09490 3.58615 3.34954
# Velocity P-wave (km/s) = 7.41771 8.00212 7.71545
#
# Compressibility (1/GPa) = 0.01546502
#
# Stress axis : x y z
#
# Youngs Moduli (GPa) = 51.24901 66.43734 45.56868
#
# Poissons Ratio (x) = 0.31462 0.47411
# Poissons Ratio (y) = 0.24269 0.24526
# Poissons Ratio (z) = 0.53321 0.35758
#
# Static dielectric constant tensor:
#      x y z
#    x 1.517080 0.000000 -0.026570 
#    y 0.000000 1.479100 0.000000 
#    z -0.026570 0.000000 1.528840 
# 
# From -- ./inp_files/79487.got.cif
#   From: 2010.05.17/outbox.cif.g08.bks.cpg/sg10_40_cif.got.tgz:79487.got - 2010.06.03 11:33:40.
