data_PCOD9146037
_publ_section_title
;
Structure prediction by ZEFSAII (Michael W. Deem and Ramdas Pophale) SiO2 
 PCOD9146037
Probable space group: P 2/M
;
_chemical_formula_sum "Si O2"
_cell_formula_units_Z 32
_cell_length_a 11.896413
_cell_length_b 17.356905
_cell_length_c 23.903483
_cell_angle_alpha 90.000000
_cell_angle_beta 20.684721
_cell_angle_gamma 90.000000
_cell_volume 1743.417513
_symmetry_space_group_name_H-M "P 2/M"
_symmetry_group_IT_number 10
_symmetry_cell_setting 'monoclinic'
loop_
_space_group_symop_operation_xyz
x,y,z
-x,y,-z
-x,-y,-z
x,-y,z
loop_
_atom_site_type_symbol
_atom_site_label
_atom_site_fract_x
_atom_site_fract_y
_atom_site_fract_z
Si Si1 0.671425 0.868837 0.558260
Si Si2 0.061391 0.713555 0.360001
Si Si3 0.354095 0.116054 0.817476
Si Si4 0.736484 0.586897 0.573328
Si Si5 0.664824 0.083717 0.790637
Si Si6 0.357713 0.704211 0.822185
Si Si7 0.210548 0.089257 0.678633
Si Si8 0.283206 0.205847 0.149087
O O1 0.558938 0.908549 0.668187
O O2 0.359997 0.872624 0.664583
O O3 0.838845 0.784170 0.486941
O O4 0.952839 0.911941 0.393404
O O5 0.388120 0.708673 0.244528
O O6 0.121863 0.734803 0.267212
O O7 0.890463 0.632536 0.449993
O O8 0.551316 0.099237 0.781002
O O9 0.327262 0.207214 0.817805
O O10 0.000000 0.088540 0.000000
O O11 0.629708 0.500000 0.610951
O O12 0.485711 0.645550 0.716512
O O13 0.000000 0.582248 0.500000
O O14 0.536177 0.149335 0.891369
O O15 0.565678 0.000000 0.856504
O O16 0.000000 0.678198 0.000000
O O17 0.500000 0.086442 0.500000
O O18 0.951557 0.146373 0.772846
O O19 0.105722 0.000000 0.736567
O O20 0.500000 0.241274 0.000000
#
# Coordination Sequence:
#
# PCOD9146037 Si02
#       8
#     4   4   4   4   4   4   4   4
#     4  11  21  36  59  79 107 150 191 236 283 345
#     4  10  19  36  57  83 114 149 190 227 273 338
#     4  11  23  36  53  80 113 148 188 229 284 342
#     4   9  18  33  59  91 121 153 183 217 272 337
#     4  11  23  38  55  76 106 149 190 236 293 343
#     4  10  19  32  56  86 122 154 180 226 274 331
#     4  11  22  38  58  81 107 140 195 252 289 329
#     4  11  24  39  58  81 108 147 191 244 291 341
#
# _framework density 18.354755000000001
#
# number of rings (size 3 to 8) (size 9 to 14) (size 15 to 20)
#    0.000    1.500    6.250    1.125    1.750    3.000 
#    0.000    0.000    0.000    0.375    0.000    1.750 
#    0.000    0.000    0.000    0.000    0.000    0.000 
#
# Total GULP energy -178259.164816 kJ/mol
# GULP energy per Si atom -5570.598900 kJ/mol
# Density = 1.831298 g / cm^3
# Si number density = 18.354755 Si / 1000 Ang^3
#
#
#
# Elastic Constant Matrix: (Units=GPa)
#
#
# Indices 1 2 3 4 5 6 
#
# 1 99.2589 11.7791 33.8083 0.0000 4.5287 0.0000
# 2 11.7791 109.4778 27.4393 0.0000 5.3319 0.0000
# 3 33.8083 27.4393 85.9557 0.0000 15.7872 0.0000
# 4 0.0000 0.0000 0.0000 -0.5756 0.0000 -2.7741
# 5 4.5287 5.3319 15.7872 0.0000 30.3252 0.0000
# 6 0.0000 0.0000 0.0000 -2.7741 0.0000 13.4655
#
#
#
# Elastic Compliance Matrix: (Units=1/GPa)
#
#
# Indices 1 2 3 4 5 6 
#
# 1 0.011648 -0.000116 -0.004676 0.000000 0.000715 0.000000
# 2 -0.000116 0.009930 -0.003104 0.000000 -0.000113 0.000000
# 3 -0.004676 -0.003104 0.015740 0.000000 -0.006950 0.000000
# 4 0.000000 0.000000 0.000000 -0.871757 0.000000 -0.179594
# 5 0.000715 -0.000113 -0.006950 0.000000 0.036507 0.000000
# 6 0.000000 0.000000 0.000000 -0.179594 0.000000 0.037265
#
#
# Mechanical properties :
#
#
# Convention : Reuss Voigt Hill
#
# Bulk Modulus (GPa) = 46.45159 48.97173 47.71166
# Shear Modulus (GPa) = -6.77783 23.42074 8.32145
#
# Velocity S-wave (km/s) = -1.92372 3.57599 2.13155
# Velocity P-wave (km/s) = 4.51977 6.61732 5.66645
#
# Compressibility (1/GPa) = 0.02152779
#
# Stress axis : x y z
#
# Youngs Moduli (GPa) = 85.84822 100.70362 63.53114
#
# Poissons Ratio (x) = 0.01170 0.29706
# Poissons Ratio (y) = 0.00997 0.19717
# Poissons Ratio (z) = 0.40142 0.31254
#
# Static dielectric constant tensor:
#      x y z
#    x 1.663040 0.000000 -0.006370 
#    y 0.000000 1.648240 0.000000 
#    z -0.006370 0.000000 1.695980 
# 
# From -- ./inp_files/57109.got.cif
#   From: 2010.05.17/outbox.cif.g08.bks.cpg/sg10_29_cif.got.tgz:57109.got - 2010.06.03 11:33:40.
