data_PCOD9146209
_publ_section_title
;
Structure prediction by ZEFSAII (Michael W. Deem and Ramdas Pophale) SiO2 
 PCOD9146209
Probable space group: P 2/M
;
_chemical_formula_sum "Si O2"
_cell_formula_units_Z 28
_cell_length_a 9.237931
_cell_length_b 18.323635
_cell_length_c 15.526278
_cell_angle_alpha 90.000000
_cell_angle_beta 38.895994
_cell_angle_gamma 90.000000
_cell_volume 1650.251611
_symmetry_space_group_name_H-M "P 2/M"
_symmetry_group_IT_number 10
_symmetry_cell_setting 'monoclinic'
loop_
_space_group_symop_operation_xyz
x,y,z
-x,y,-z
-x,-y,-z
x,-y,z
loop_
_atom_site_type_symbol
_atom_site_label
_atom_site_fract_x
_atom_site_fract_y
_atom_site_fract_z
Si Si1 0.078903 0.372541 0.104313
Si Si2 0.256680 0.917434 0.346435
Si Si3 0.116741 0.500000 0.699171
Si Si4 0.381465 0.627600 0.802896
Si Si5 0.764989 0.918465 0.848384
Si Si6 0.421547 0.500000 0.393969
Si Si7 0.062423 0.205980 0.113345
Si Si8 0.619305 0.205543 0.201486
O O1 0.104653 0.289256 0.123413
O O2 0.028852 0.429646 0.202882
O O3 0.850665 0.373119 0.148815
O O4 0.288729 0.391244 0.941834
O O5 0.237500 0.911354 0.252605
O O6 0.426165 0.855159 0.301232
O O7 0.000000 0.909052 0.500000
O O8 0.339060 0.000000 0.328924
O O9 0.207033 0.500000 0.559248
O O10 0.349696 0.500000 0.650497
O O11 0.552570 0.570345 0.679695
O O12 0.468130 0.710931 0.761959
O O13 0.901650 0.854294 0.831283
O O14 0.850259 0.000000 0.832223
O O15 0.500000 0.913435 0.000000
O O16 0.810244 0.201591 0.187853
O O17 0.242709 0.192542 0.951826
#
# Coordination Sequence:
#
# PCOD9146209 Si02
#       8
#     4   4   2   4   4   2   4   4
#     4   8  14  25  41  63  93 125 156 196 243 287
#     4  10  21  37  53  71 100 136 169 201 244 302
#     4   9  15  23  37  61  95 127 155 193 243 285
#     4   8  14  25  42  63  90 125 162 196 235 286
#     4  10  19  33  53  76 100 128 167 209 246 290
#     4   9  15  23  37  61  93 127 161 194 231 284
#     4   9  17  30  51  79 103 125 164 214 253 287
#     4   9  17  31  51  76 103 130 165 208 251 293
#
# _framework density 16.967110000000002
#
# number of rings (size 3 to 8) (size 9 to 14) (size 15 to 20)
#    0.000    3.000    1.429    2.143    0.000    2.286 
#    2.571    2.143    0.000    2.571    0.000    2.000 
#    0.000    0.000    0.000    0.000    0.000    0.000 
#
# Total GULP energy -155941.822192 kJ/mol
# GULP energy per Si atom -5569.350793 kJ/mol
# Density = 1.692849 g / cm^3
# Si number density = 16.967110 Si / 1000 Ang^3
#
#
#
# Elastic Constant Matrix: (Units=GPa)
#
#
# Indices 1 2 3 4 5 6 
#
# 1 14.5653 36.9842 25.4885 0.0000 3.3165 0.0000
# 2 36.9842 139.1804 77.9520 0.0000 3.6512 0.0000
# 3 25.4885 77.9520 110.2790 0.0000 15.4082 0.0000
# 4 0.0000 0.0000 0.0000 18.3483 0.0000 11.2385
# 5 3.3165 3.6512 15.4082 0.0000 10.2427 0.0000
# 6 0.0000 0.0000 0.0000 11.2385 0.0000 -25.9412
#
#
#
# Elastic Compliance Matrix: (Units=1/GPa)
#
#
# Indices 1 2 3 4 5 6 
#
# 1 0.241714 -0.058399 -0.008306 0.000000 -0.044953 0.000000
# 2 -0.058399 0.026996 -0.008714 0.000000 0.022394 0.000000
# 3 -0.008306 -0.008714 0.020685 0.000000 -0.025321 0.000000
# 4 0.000000 0.000000 0.000000 0.043072 0.000000 0.018660
# 5 -0.044953 0.022394 -0.025321 0.000000 0.142294 0.000000
# 6 0.000000 0.000000 0.000000 0.018660 0.000000 -0.030465
#
#
# Mechanical properties :
#
#
# Convention : Reuss Voigt Hill
#
# Bulk Modulus (GPa) = 7.21723 60.54157 33.87940
# Shear Modulus (GPa) = 7.79643 8.76995 8.28319
#
# Velocity S-wave (km/s) = 2.14593 2.27596 2.21190
# Velocity P-wave (km/s) = 3.22535 6.53191 5.15115
#
# Compressibility (1/GPa) = 0.13855728
#
# Stress axis : x y z
#
# Youngs Moduli (GPa) = 4.13713 37.04232 48.34426
#
# Poissons Ratio (x) = 2.16323 0.40154
# Poissons Ratio (y) = 0.24160 0.42126
# Poissons Ratio (z) = 0.03436 0.32278
#
# Static dielectric constant tensor:
#      x y z
#    x 1.551890 0.000000 0.003500 
#    y 0.000000 1.592500 0.000000 
#    z 0.003500 0.000000 1.559130 
# 
# From -- ./inp_files/62350.got.cif
#   From: 2010.05.17/outbox.cif.g08.bks.cpg/sg10_32_cif.got.tgz:62350.got - 2010.06.03 11:33:40.
