data_PCOD9146022
_publ_section_title
;
Structure prediction by ZEFSAII (Michael W. Deem and Ramdas Pophale) SiO2 
 PCOD9146022
Probable space group: P 2/M
;
_chemical_formula_sum "Si O2"
_cell_formula_units_Z 32
_cell_length_a 14.964734
_cell_length_b 7.693645
_cell_length_c 11.936191
_cell_angle_alpha 90.000000
_cell_angle_beta 86.519065
_cell_angle_gamma 90.000000
_cell_volume 1371.718247
_symmetry_space_group_name_H-M "P 2/M"
_symmetry_group_IT_number 10
_symmetry_cell_setting 'monoclinic'
loop_
_space_group_symop_operation_xyz
x,y,z
-x,y,-z
-x,-y,-z
x,-y,z
loop_
_atom_site_type_symbol
_atom_site_label
_atom_site_fract_x
_atom_site_fract_y
_atom_site_fract_z
Si Si1 0.631709 0.697077 0.447414
Si Si2 0.021191 0.710681 0.625372
Si Si3 0.212019 0.805714 0.712018
Si Si4 0.141113 0.286644 0.203329
Si Si5 0.517494 0.711041 0.262104
Si Si6 0.792275 0.700173 0.032476
Si Si7 0.404725 0.200290 0.968615
Si Si8 0.679107 0.288019 0.687614
O O1 0.605448 0.500000 0.479763
O O2 0.712761 0.690115 0.352296
O O3 0.549214 0.770203 0.382328
O O4 0.667879 0.773774 0.560294
O O5 0.021537 0.500000 0.624391
O O6 0.944514 0.767112 0.718377
O O7 0.000000 0.767841 0.500000
O O8 0.117112 0.770669 0.661484
O O9 0.202864 0.785406 0.846326
O O10 0.241841 0.000000 0.684600
O O11 0.141802 0.500000 0.200862
O O12 0.231126 0.227393 0.259847
O O13 0.147625 0.229107 0.073603
O O14 0.524815 0.500000 0.256563
O O15 0.583032 0.790961 0.166075
O O16 0.414705 0.759056 0.246951
O O17 0.816355 0.500000 0.049079
O O18 0.688999 0.710145 0.997727
O O19 0.400127 0.000000 0.005757
O O20 0.500000 0.278952 0.000000
O O21 0.684527 0.500000 0.687591
#
# Coordination Sequence:
#
# PCOD9146022 Si02
#       8
#     4   4   4   4   4   4   4   4
#     4  10  19  34  58  87 119 156 198 244 295 355
#     4  10  21  41  69  96 121 153 194 242 299 362
#     4  12  25  40  60  87 123 162 200 248 302 357
#     4   9  19  35  59  90 119 149 192 249 300 347
#     4  10  19  32  55  86 117 154 199 245 293 349
#     4  11  22  39  62  87 117 155 204 252 295 348
#     4  11  23  37  54  80 119 164 205 247 297 352
#     4   9  17  32  56  89 122 150 191 247 303 353
#
# _framework density 23.328406000000001
#
# number of rings (size 3 to 8) (size 9 to 14) (size 15 to 20)
#    0.000    1.750    1.250    3.750    0.000    6.250 
#    0.000    4.375    0.000    5.250    0.000    0.000 
#    0.000    0.000    0.000    0.000    0.000    0.000 
#
# Total GULP energy -178888.229144 kJ/mol
# GULP energy per Si atom -5590.257161 kJ/mol
# Density = 2.327531 g / cm^3
# Si number density = 23.328406 Si / 1000 Ang^3
#
#
#
# Elastic Constant Matrix: (Units=GPa)
#
#
# Indices 1 2 3 4 5 6 
#
# 1 90.3850 1.8667 18.3805 0.0000 1.3564 0.0000
# 2 1.8667 56.8143 4.1348 0.0000 -1.5336 0.0000
# 3 18.3805 4.1348 100.4785 0.0000 -8.4210 0.0000
# 4 0.0000 0.0000 0.0000 34.7646 0.0000 10.2324
# 5 1.3564 -1.5336 -8.4210 0.0000 41.6876 0.0000
# 6 0.0000 0.0000 0.0000 10.2324 0.0000 -18.7998
#
#
#
# Elastic Compliance Matrix: (Units=1/GPa)
#
#
# Indices 1 2 3 4 5 6 
#
# 1 0.011522 -0.000243 -0.002167 0.000000 -0.000821 0.000000
# 2 -0.000243 0.017670 -0.000638 0.000000 0.000529 0.000000
# 3 -0.002167 -0.000638 0.010558 0.000000 0.002180 0.000000
# 4 0.000000 0.000000 0.000000 0.024793 0.000000 0.013494
# 5 -0.000821 0.000529 0.002180 0.000000 0.024474 0.000000
# 6 0.000000 0.000000 0.000000 0.013494 0.000000 -0.045847
#
#
# Mechanical properties :
#
#
# Convention : Reuss Voigt Hill
#
# Bulk Modulus (GPa) = 29.71463 32.93799 31.32631
# Shear Modulus (GPa) = 82.66770 26.41686 54.54228
#
# Velocity S-wave (km/s) = 5.95931 3.36875 4.84055
# Velocity P-wave (km/s) = 7.75348 5.41121 6.68572
#
# Compressibility (1/GPa) = 0.03365345
#
# Stress axis : x y z
#
# Youngs Moduli (GPa) = 86.79273 56.59336 94.71811
#
# Poissons Ratio (x) = 0.01376 0.20521
# Poissons Ratio (y) = 0.02110 0.06046
# Poissons Ratio (z) = 0.18804 0.03613
#
# Static dielectric constant tensor:
#      x y z
#    x 1.839070 0.000000 0.008840 
#    y 0.000000 1.883470 0.000000 
#    z 0.008840 0.000000 1.913080 
# 
# From -- ./inp_files/49841.got.cif
#   From: 2010.05.17/outbox.cif.g08.bks.cpg/sg10_25_cif.got.tgz:49841.got - 2010.06.03 11:33:40.
