data_PCOD9146169
_publ_section_title
;
Structure prediction by ZEFSAII (Michael W. Deem and Ramdas Pophale) SiO2 
 PCOD9146169
Probable space group: P 2/M
;
_chemical_formula_sum "Si O2"
_cell_formula_units_Z 28
_cell_length_a 9.046748
_cell_length_b 13.113018
_cell_length_c 20.402755
_cell_angle_alpha 90.000000
_cell_angle_beta 147.952586
_cell_angle_gamma 90.000000
_cell_volume 1284.305348
_symmetry_space_group_name_H-M "P 2/M"
_symmetry_group_IT_number 10
_symmetry_cell_setting 'monoclinic'
loop_
_space_group_symop_operation_xyz
x,y,z
-x,y,-z
-x,-y,-z
x,-y,z
loop_
_atom_site_type_symbol
_atom_site_label
_atom_site_fract_x
_atom_site_fract_y
_atom_site_fract_z
Si Si1 0.433842 0.758303 0.281779
Si Si2 0.680533 0.385769 0.652427
Si Si3 0.561971 0.622177 0.844589
Si Si4 0.758060 0.883983 0.484571
Si Si5 0.111818 0.883757 0.250509
Si Si6 0.978031 0.261619 0.312301
Si Si7 0.253808 0.617510 0.950966
O O1 0.504147 0.681139 0.368331
O O2 0.406370 0.692254 0.207210
O O3 0.679292 0.841775 0.382317
O O4 0.155850 0.820446 0.199668
O O5 0.580836 0.500000 0.607119
O O6 0.772251 0.331792 0.620424
O O7 0.971755 0.386442 0.803875
O O8 0.573824 0.500000 0.833644
O O9 0.266999 0.659744 0.763590
O O10 0.770120 0.650377 0.982478
O O11 0.439790 0.885950 0.395930
O O12 0.941576 0.808944 0.596675
O O13 0.857471 0.000000 0.521879
O O14 0.938130 0.818768 0.237300
O O15 0.019721 0.000000 0.208056
O O16 0.345345 0.500000 0.995806
O O17 0.500000 0.666541 0.000000
#
# Coordination Sequence:
#
# PCOD9146169 Si02
#       7
#     4   4   4   4   4   4   4
#     4   9  20  35  53  78 109 145 182 219 269 322
#     4  10  19  33  52  79 109 143 187 223 260 320
#     4  11  22  36  52  78 117 150 178 218 265 321
#     4   9  19  37  58  80 104 134 183 234 272 316
#     4   8  17  35  57  78 103 132 178 237 271 303
#     4  11  19  30  55  83 105 141 184 221 269 320
#     4   9  17  32  54  76 105 143 181 225 266 305
#
# _framework density 21.801669
#
# number of rings (size 3 to 8) (size 9 to 14) (size 15 to 20)
#    0.857    1.571    1.429    1.714    0.000    2.286 
#    0.000   10.000    0.000    0.000    0.000   42.000 
#    0.000    0.000    0.000    0.000    0.000    0.000 
#
# Total GULP energy -155947.595834 kJ/mol
# GULP energy per Si atom -5569.556994 kJ/mol
# Density = 2.175205 g / cm^3
# Si number density = 21.801669 Si / 1000 Ang^3
#
#
#
# Elastic Constant Matrix: (Units=GPa)
#
#
# Indices 1 2 3 4 5 6 
#
# 1 69.0081 20.2107 25.6215 0.0000 -25.5532 0.0000
# 2 20.2107 145.9004 27.1082 0.0000 -17.0740 0.0000
# 3 25.6215 27.1082 72.2174 0.0000 -15.0108 0.0000
# 4 0.0000 0.0000 0.0000 18.1194 0.0000 -4.1142
# 5 -25.5532 -17.0740 -15.0108 0.0000 30.4197 0.0000
# 6 0.0000 0.0000 0.0000 -4.1142 0.0000 29.8945
#
#
#
# Elastic Compliance Matrix: (Units=1/GPa)
#
#
# Indices 1 2 3 4 5 6 
#
# 1 0.022274 -0.000360 -0.004368 0.000000 0.016353 0.000000
# 2 -0.000360 0.007643 -0.002131 0.000000 0.002936 0.000000
# 3 -0.004368 -0.002131 0.016921 0.000000 0.003484 0.000000
# 4 0.000000 0.000000 0.000000 0.056970 0.000000 0.007840
# 5 0.016353 0.002936 0.003484 0.000000 0.049977 0.000000
# 6 0.000000 0.000000 0.000000 0.007840 0.000000 0.034530
#
#
# Mechanical properties :
#
#
# Convention : Reuss Voigt Hill
#
# Bulk Modulus (GPa) = 30.19384 48.11186 39.15285
# Shear Modulus (GPa) = 23.46612 29.96577 26.71595
#
# Velocity S-wave (km/s) = 3.28433 3.71141 3.50438
# Velocity P-wave (km/s) = 5.31618 6.36254 5.86275
#
# Compressibility (1/GPa) = 0.03311934
#
# Stress axis : x y z
#
# Youngs Moduli (GPa) = 44.89625 130.83157 59.09818
#
# Poissons Ratio (x) = 0.04712 0.25815
# Poissons Ratio (y) = 0.01617 0.12594
# Poissons Ratio (z) = 0.19611 0.27881
#
# Static dielectric constant tensor:
#      x y z
#    x 1.898810 0.000000 0.005510 
#    y 0.000000 1.838880 0.000000 
#    z 0.005510 0.000000 1.838370 
# 
# From -- ./inp_files/75128.got.cif
#   From: 2010.05.17/outbox.cif.g08.bks.cpg/sg10_38_cif.got.tgz:75128.got - 2010.06.03 11:33:40.
