data_PCOD9146325
_publ_section_title
;
Structure prediction by ZEFSAII (Michael W. Deem and Ramdas Pophale) SiO2 
 PCOD9146325
Probable space group: P 2/M
;
_chemical_formula_sum "Si O2"
_cell_formula_units_Z 24
_cell_length_a 5.038383
_cell_length_b 15.850115
_cell_length_c 16.065923
_cell_angle_alpha 90.000000
_cell_angle_beta 90.622470
_cell_angle_gamma 90.000000
_cell_volume 1282.932025
_symmetry_space_group_name_H-M "P 2/M"
_symmetry_group_IT_number 10
_symmetry_cell_setting 'monoclinic'
loop_
_space_group_symop_operation_xyz
x,y,z
-x,y,-z
-x,-y,-z
x,-y,z
loop_
_atom_site_type_symbol
_atom_site_label
_atom_site_fract_x
_atom_site_fract_y
_atom_site_fract_z
Si Si1 0.660984 0.829902 0.830122
Si Si2 0.152496 0.594356 0.827473
Si Si3 0.252877 0.183730 0.560862
Si Si4 0.252954 0.000000 0.560325
Si Si5 0.861631 0.766942 0.263609
Si Si6 0.665909 0.347545 0.916087
Si Si7 0.743831 0.000000 0.937459
O O1 0.368496 0.812526 0.791676
O O2 0.704697 0.751155 0.893485
O O3 0.869325 0.818033 0.755174
O O4 0.716146 0.916835 0.878870
O O5 0.114097 0.500000 0.795612
O O6 0.086131 0.672202 0.767773
O O7 0.459583 0.609305 0.851559
O O8 0.950528 0.608906 0.904373
O O9 0.500000 0.195409 0.500000
O O10 0.261211 0.089977 0.603330
O O11 0.225103 0.240612 0.641253
O O12 0.000000 0.188698 0.500000
O O13 0.500000 0.000000 0.500000
O O14 0.000000 0.000000 0.500000
O O15 0.500000 0.354131 0.000000
O O16 0.500000 0.000000 0.000000
O O17 0.000000 0.000000 0.000000
#
# Coordination Sequence:
#
# PCOD9146325 Si02
#       7
#     4   4   4   2   4   4   2
#     4  10  22  37  53  78 108 147 184 219 269 314
#     4  10  21  35  53  77 104 137 174 217 273 327
#     4  10  19  33  54  79 105 136 174 217 267 319
#     4   8  16  28  44  70  98 122 154 198 246 294
#     4  10  21  38  56  77 109 143 179 221 273 331
#     4  10  20  34  53  76 105 136 174 222 268 317
#     4  12  24  38  58  82 112 150 196 232 256 300
#
# _framework density 18.707148
#
# number of rings (size 3 to 8) (size 9 to 14) (size 15 to 20)
#    0.000    2.000    0.000    3.500    0.000    6.000 
#    0.000    1.667    0.000    1.000    0.000    0.000 
#    0.000    0.000    0.000    0.000    0.000    0.000 
#
# Total GULP energy -133718.304229 kJ/mol
# GULP energy per Si atom -5571.596010 kJ/mol
# Density = 1.866457 g / cm^3
# Si number density = 18.707148 Si / 1000 Ang^3
#
#
#
# Elastic Constant Matrix: (Units=GPa)
#
#
# Indices 1 2 3 4 5 6 
#
# 1 114.4834 28.5380 11.8678 0.0000 -16.3241 0.0000
# 2 28.5380 120.9447 44.5072 0.0000 -7.0000 0.0000
# 3 11.8678 44.5072 81.1711 0.0000 -21.5126 0.0000
# 4 0.0000 0.0000 0.0000 7.6902 0.0000 -2.1442
# 5 -16.3241 -7.0000 -21.5126 0.0000 25.0349 0.0000
# 6 0.0000 0.0000 0.0000 -2.1442 0.0000 16.0386
#
#
#
# Elastic Compliance Matrix: (Units=1/GPa)
#
#
# Indices 1 2 3 4 5 6 
#
# 1 0.010304 -0.002734 0.002034 0.000000 0.007702 0.000000
# 2 -0.002734 0.011213 -0.006980 0.000000 -0.004645 0.000000
# 3 0.002034 -0.006980 0.020309 0.000000 0.016826 0.000000
# 4 0.000000 0.000000 0.000000 0.135070 0.000000 0.018058
# 5 0.007702 -0.004645 0.016826 0.000000 0.058126 0.000000
# 6 0.000000 0.000000 0.000000 0.018058 0.000000 0.064764
#
#
# Mechanical properties :
#
#
# Convention : Reuss Voigt Hill
#
# Bulk Modulus (GPa) = 37.78446 54.04727 45.91586
# Shear Modulus (GPa) = 15.43367 25.19848 20.31608
#
# Velocity S-wave (km/s) = 2.87542 3.67413 3.29904
# Velocity P-wave (km/s) = 5.59158 6.85222 6.25375
#
# Compressibility (1/GPa) = 0.02646591
#
# Stress axis : x y z
#
# Youngs Moduli (GPa) = 97.05192 89.18262 49.24013
#
# Poissons Ratio (x) = 0.24382 -0.10014
# Poissons Ratio (y) = 0.26533 0.34367
# Poissons Ratio (z) = -0.19738 0.62246
#
# Static dielectric constant tensor:
#      x y z
#    x 1.662490 0.000000 0.016750 
#    y 0.000000 1.687300 0.000000 
#    z 0.016750 0.000000 1.632360 
# 
# From -- ./inp_files/59081.got.cif
#   From: 2010.05.17/outbox.cif.g08.bks.cpg/sg10_30_cif.got.tgz:59081.got - 2010.06.03 11:33:40.
