data_PCOD9146493
_publ_section_title
;
Structure prediction by ZEFSAII (Michael W. Deem and Ramdas Pophale) SiO2 
 PCOD9146493
Probable space group: P 2/M
;
_chemical_formula_sum "Si O2"
_cell_formula_units_Z 28
_cell_length_a 12.628633
_cell_length_b 8.789748
_cell_length_c 15.431258
_cell_angle_alpha 90.000000
_cell_angle_beta 105.889344
_cell_angle_gamma 90.000000
_cell_volume 1647.461862
_symmetry_space_group_name_H-M "P 2/M"
_symmetry_group_IT_number 10
_symmetry_cell_setting 'monoclinic'
loop_
_space_group_symop_operation_xyz
x,y,z
-x,y,-z
-x,-y,-z
x,-y,z
loop_
_atom_site_type_symbol
_atom_site_label
_atom_site_fract_x
_atom_site_fract_y
_atom_site_fract_z
Si Si1 0.411097 0.817481 0.092956
Si Si2 0.738386 0.680482 0.584967
Si Si3 0.385318 0.817892 0.283872
Si Si4 0.803647 0.318046 0.288051
Si Si5 0.352638 0.317945 0.904289
Si Si6 0.637345 0.181807 0.392484
Si Si7 0.974641 0.818672 0.595418
O O1 0.369540 0.778236 0.179489
O O2 0.534461 0.752348 0.108391
O O3 0.416153 0.000000 0.086784
O O4 0.341745 0.749399 0.998065
O O5 0.732595 0.500000 0.573942
O O6 0.693472 0.731812 0.667919
O O7 0.664023 0.758733 0.494158
O O8 0.862369 0.737704 0.597568
O O9 0.512286 0.784350 0.337083
O O10 0.369981 0.000000 0.290278
O O11 0.814602 0.500000 0.297967
O O12 0.745704 0.281948 0.183565
O O13 0.721995 0.258816 0.344846
O O14 0.921095 0.240144 0.327450
O O15 0.364984 0.500000 0.911664
O O16 0.653313 0.000000 0.392899
O O17 0.000000 0.785679 0.500000
O O18 0.961962 0.000000 0.601461
#
# Coordination Sequence:
#
# PCOD9146493 Si02
#       7
#     4   4   4   4   4   4   4
#     4  10  19  33  55  81 110 147 188 226 267 325
#     4  12  25  38  56  81 112 148 187 230 277 331
#     4  10  22  38  56  80 113 151 189 228 271 327
#     4  11  22  35  56  84 115 146 182 229 279 328
#     4  10  20  33  52  82 116 146 177 225 282 329
#     4  11  21  36  56  80 113 151 187 225 272 324
#     4  11  23  39  60  81 106 146 189 230 276 324
#
# _framework density 16.995840000000001
#
# number of rings (size 3 to 8) (size 9 to 14) (size 15 to 20)
#    0.000    1.286    2.857    4.714    0.000    6.286 
#    0.000    0.000    0.000    0.857    0.000    6.000 
#    0.000    0.000    0.000    0.000    0.000    0.000 
#
# Total GULP energy -156487.994596 kJ/mol
# GULP energy per Si atom -5588.856950 kJ/mol
# Density = 1.695716 g / cm^3
# Si number density = 16.995840 Si / 1000 Ang^3
#
#
#
# Elastic Constant Matrix: (Units=GPa)
#
#
# Indices 1 2 3 4 5 6 
#
# 1 45.7212 19.1977 30.2025 0.0000 -11.3287 0.0000
# 2 19.1977 42.6211 38.0409 0.0000 -2.8215 0.0000
# 3 30.2025 38.0409 132.6396 0.0000 -7.0660 0.0000
# 4 0.0000 0.0000 0.0000 46.2500 0.0000 -14.4918
# 5 -11.3287 -2.8215 -7.0660 0.0000 22.5390 0.0000
# 6 0.0000 0.0000 0.0000 -14.4918 0.0000 38.7897
#
#
#
# Elastic Compliance Matrix: (Units=1/GPa)
#
#
# Indices 1 2 3 4 5 6 
#
# 1 0.031943 -0.010271 -0.003601 0.000000 0.013641 0.000000
# 2 -0.010271 0.034866 -0.007834 0.000000 -0.003254 0.000000
# 3 -0.003601 -0.007834 0.010635 0.000000 0.000543 0.000000
# 4 0.000000 0.000000 0.000000 0.024488 0.000000 0.009149
# 5 0.013641 -0.003254 0.000543 0.000000 0.050987 0.000000
# 6 0.000000 0.000000 0.000000 0.009149 0.000000 0.029198
#
#
# Mechanical properties :
#
#
# Convention : Reuss Voigt Hill
#
# Bulk Modulus (GPa) = 29.38459 43.98491 36.68475
# Shear Modulus (GPa) = 21.10841 30.41846 25.76343
#
# Velocity S-wave (km/s) = 3.52799 4.23514 3.89764
# Velocity P-wave (km/s) = 5.82430 7.06054 6.47200
#
# Compressibility (1/GPa) = 0.03403144
#
# Stress axis : x y z
#
# Youngs Moduli (GPa) = 31.30583 28.68153 94.02936
#
# Poissons Ratio (x) = 0.29458 0.33862
# Poissons Ratio (y) = 0.32154 0.73663
# Poissons Ratio (z) = 0.11274 0.22469
#
# Static dielectric constant tensor:
#      x y z
#    x 1.539510 0.000000 0.000640 
#    y 0.000000 1.565510 0.000000 
#    z 0.000640 0.000000 1.579580 
# 
# From -- ./inp_files/63519.got.cif
#   From: 2010.05.17/outbox.cif.g08.bks.cpg/sg10_32_cif.got.tgz:63519.got - 2010.06.03 11:33:40.
