data_PCOD9146565
_publ_section_title
;
Structure prediction by ZEFSAII (Michael W. Deem and Ramdas Pophale) SiO2 
 PCOD9146565
Probable space group: P 2/M
;
_chemical_formula_sum "Si O2"
_cell_formula_units_Z 32
_cell_length_a 26.376332
_cell_length_b 8.818161
_cell_length_c 21.607508
_cell_angle_alpha 90.000000
_cell_angle_beta 20.470252
_cell_angle_gamma 90.000000
_cell_volume 1757.595108
_symmetry_space_group_name_H-M "P 2/M"
_symmetry_group_IT_number 10
_symmetry_cell_setting 'monoclinic'
loop_
_space_group_symop_operation_xyz
x,y,z
-x,y,-z
-x,-y,-z
x,-y,z
loop_
_atom_site_type_symbol
_atom_site_label
_atom_site_fract_x
_atom_site_fract_y
_atom_site_fract_z
Si Si1 0.364985 0.685107 0.197107
Si Si2 0.459077 0.317040 0.226436
Si Si3 0.046708 0.685146 0.515559
Si Si4 0.221835 0.317155 0.092492
Si Si5 0.678738 0.819567 0.146607
Si Si6 0.651925 0.324837 0.303925
Si Si7 0.852236 0.675442 0.194978
Si Si8 0.357285 0.819266 0.468179
O O1 0.363587 0.500000 0.197834
O O2 0.398232 0.731533 0.229563
O O3 0.207921 0.734650 0.351336
O O4 0.500000 0.733099 0.000000
O O5 0.453517 0.500000 0.235372
O O6 0.368758 0.250736 0.386830
O O7 0.628094 0.273168 0.044184
O O8 0.048729 0.500000 0.513053
O O9 0.000000 0.732780 0.500000
O O10 0.920759 0.732112 0.707303
O O11 0.220584 0.500000 0.090846
O O12 0.232059 0.252298 0.011725
O O13 0.716896 0.759476 0.170712
O O14 0.509794 0.776979 0.327160
O O15 0.690558 0.000000 0.130448
O O16 0.500000 0.255178 0.500000
O O17 0.625641 0.500000 0.314818
O O18 0.749377 0.325005 0.252992
O O19 0.879957 0.500000 0.181799
O O20 0.773760 0.757693 0.340970
O O21 0.000000 0.744933 0.000000
O O22 0.351279 0.000000 0.471000
#
# Coordination Sequence:
#
# PCOD9146565 Si02
#       8
#     4   4   4   4   4   4   4   4
#     4   9  16  27  46  74 104 131 164 206 251 298
#     4   9  17  30  50  73  98 132 170 207 248 298
#     4   9  16  27  46  74 105 132 161 204 255 300
#     4   9  17  30  49  72 100 133 168 206 251 300
#     4  10  20  33  52  77 103 134 172 213 253 299
#     4  10  19  33  56  80 101 129 169 213 255 302
#     4  10  21  37  55  77 103 132 167 211 260 307
#     4  10  20  34  53  75 102 136 173 211 252 302
#
# _framework density 18.206696000000001
#
# number of rings (size 3 to 8) (size 9 to 14) (size 15 to 20)
#    0.000    2.500    1.250    1.500    0.000    5.000 
#    2.250    0.000    0.000    0.750    0.000    0.000 
#    0.000    0.000    0.000    0.000    0.000    0.000 
#
# Total GULP energy -178438.241881 kJ/mol
# GULP energy per Si atom -5576.195059 kJ/mol
# Density = 1.816526 g / cm^3
# Si number density = 18.206696 Si / 1000 Ang^3
#
#
#
# Elastic Constant Matrix: (Units=GPa)
#
#
# Indices 1 2 3 4 5 6 
#
# 1 111.1967 21.0293 71.4183 0.0000 22.4643 0.0000
# 2 21.0293 12.4401 26.9137 0.0000 8.2430 0.0000
# 3 71.4183 26.9137 168.8017 0.0000 22.8077 0.0000
# 4 0.0000 0.0000 0.0000 5.0734 0.0000 -12.2927
# 5 22.4643 8.2430 22.8077 0.0000 28.0995 0.0000
# 6 0.0000 0.0000 0.0000 -12.2927 0.0000 -1.5441
#
#
#
# Elastic Compliance Matrix: (Units=1/GPa)
#
#
# Indices 1 2 3 4 5 6 
#
# 1 0.014892 -0.014855 -0.003271 0.000000 -0.004893 0.000000
# 2 -0.014855 0.151790 -0.015168 0.000000 -0.020340 0.000000
# 3 -0.003271 -0.015168 0.009852 0.000000 -0.000932 0.000000
# 4 0.000000 0.000000 0.000000 0.009715 0.000000 -0.077340
# 5 -0.004893 -0.020340 -0.000932 0.000000 0.046223 0.000000
# 6 0.000000 0.000000 0.000000 -0.077340 0.000000 -0.031919
#
#
# Mechanical properties :
#
#
# Convention : Reuss Voigt Hill
#
# Bulk Modulus (GPa) = 9.09538 59.01791 34.05664
# Shear Modulus (GPa) = 16.45876 17.86422 17.16149
#
# Velocity S-wave (km/s) = 3.00991 3.13579 3.07350
# Velocity P-wave (km/s) = 4.13351 6.75254 5.59833
#
# Compressibility (1/GPa) = 0.10994598
#
# Stress axis : x y z
#
# Youngs Moduli (GPa) = 67.15161 6.58805 101.49789
#
# Poissons Ratio (x) = 0.09787 0.33200
# Poissons Ratio (y) = 0.99753 1.53953
# Poissons Ratio (z) = 0.21965 0.09993
#
# Static dielectric constant tensor:
#      x y z
#    x 1.557300 0.000000 0.018530 
#    y 0.000000 1.611920 0.000000 
#    z 0.018530 0.000000 1.606530 
# 
# From -- ./inp_files/86837.got.cif
#   From: 2010.05.17/outbox.cif.g08.bks.cpg/sg10_44_cif.got.tgz:86837.got - 2010.06.03 11:33:40.
