data_PCOD9146596
_publ_section_title
;
Structure prediction by ZEFSAII (Michael W. Deem and Ramdas Pophale) SiO2 
 PCOD9146596
Probable space group: P 2/M
;
_chemical_formula_sum "Si O2"
_cell_formula_units_Z 24
_cell_length_a 14.947858
_cell_length_b 7.469943
_cell_length_c 17.546258
_cell_angle_alpha 90.000000
_cell_angle_beta 29.032121
_cell_angle_gamma 90.000000
_cell_volume 950.803864
_symmetry_space_group_name_H-M "P 2/M"
_symmetry_group_IT_number 10
_symmetry_cell_setting 'monoclinic'
loop_
_space_group_symop_operation_xyz
x,y,z
-x,y,-z
-x,-y,-z
x,-y,z
loop_
_atom_site_type_symbol
_atom_site_label
_atom_site_fract_x
_atom_site_fract_y
_atom_site_fract_z
Si Si1 0.441861 0.211766 0.675161
Si Si2 0.909104 0.294926 0.143364
Si Si3 0.437153 0.218383 0.847052
Si Si4 0.126792 0.714086 0.663498
Si Si5 0.207708 0.781350 0.332465
Si Si6 0.228053 0.793824 0.150553
O O1 0.309631 0.294544 0.710497
O O2 0.384558 0.279222 0.802018
O O3 0.659008 0.242341 0.505319
O O4 0.410536 0.000000 0.693968
O O5 0.973716 0.500000 0.098964
O O6 0.939020 0.214867 0.204480
O O7 0.000000 0.211534 0.000000
O O8 0.646624 0.269433 0.711764
O O9 0.427667 0.000000 0.851646
O O10 0.317216 0.284287 0.007721
O O11 0.109265 0.500000 0.675913
O O12 0.991632 0.788203 0.699652
O O13 0.272319 0.719112 0.200575
O O14 0.000000 0.720311 0.500000
O O15 0.204826 0.000000 0.332688
O O16 0.290403 0.000000 0.105946
#
# Coordination Sequence:
#
# PCOD9146596 Si02
#       6
#     4   4   4   4   4   4
#     4  11  22  36  57  83 110 140 178 225 269 312
#     4  10  22  40  59  79 107 144 181 217 265 324
#     4   9  18  32  52  82 113 140 175 220 270 318
#     4  11  23  38  56  78 108 144 179 218 268 324
#     4   9  16  28  50  80 112 143 175 215 265 319
#     4  10  19  33  56  82 108 140 180 224 265 311
#
# _framework density 25.241800000000001
#
# number of rings (size 3 to 8) (size 9 to 14) (size 15 to 20)
#    0.000    2.000    0.000    4.000    0.000    8.333 
#    0.000    0.833    0.000    7.500    0.000    0.000 
#    0.000    0.000    0.000    0.000    0.000    0.000 
#
# Total GULP energy -134305.408237 kJ/mol
# GULP energy per Si atom -5596.058677 kJ/mol
# Density = 2.518435 g / cm^3
# Si number density = 25.241800 Si / 1000 Ang^3
#
#
#
# Elastic Constant Matrix: (Units=GPa)
#
#
# Indices 1 2 3 4 5 6 
#
# 1 109.8631 -0.9137 -13.1061 0.0000 0.7162 0.0000
# 2 -0.9137 92.7755 -2.6572 0.0000 5.7476 0.0000
# 3 -13.1061 -2.6572 69.1751 0.0000 -1.7117 0.0000
# 4 0.0000 0.0000 0.0000 12.9245 0.0000 -11.7416
# 5 0.7162 5.7476 -1.7117 0.0000 47.9749 0.0000
# 6 0.0000 0.0000 0.0000 -11.7416 0.0000 14.9699
#
#
#
# Elastic Compliance Matrix: (Units=1/GPa)
#
#
# Indices 1 2 3 4 5 6 
#
# 1 0.009315 0.000148 0.001768 0.000000 -0.000094 0.000000
# 2 0.000148 0.010872 0.000414 0.000000 -0.001290 0.000000
# 3 0.001768 0.000414 0.014818 0.000000 0.000453 0.000000
# 4 0.000000 0.000000 0.000000 0.269182 0.000000 0.211133
# 5 -0.000094 -0.001290 0.000453 0.000000 0.021016 0.000000
# 6 0.000000 0.000000 0.000000 0.211133 0.000000 0.232403
#
#
# Mechanical properties :
#
#
# Convention : Reuss Voigt Hill
#
# Bulk Modulus (GPa) = 25.21080 26.49551 25.85315
# Shear Modulus (GPa) = 8.83130 34.40658 21.61894
#
# Velocity S-wave (km/s) = 1.87250 3.69600 2.92973
# Velocity P-wave (km/s) = 3.83203 5.36035 4.65928
#
# Compressibility (1/GPa) = 0.03966554
#
# Stress axis : x y z
#
# Youngs Moduli (GPa) = 107.35352 91.98000 67.48466
#
# Poissons Ratio (x) = -0.01363 -0.11933
# Poissons Ratio (y) = -0.01591 -0.02792
# Poissons Ratio (z) = -0.18983 -0.03806
#
# Static dielectric constant tensor:
#      x y z
#    x 1.926290 0.000000 0.018850 
#    y 0.000000 1.975820 0.000000 
#    z 0.018850 0.000000 2.031300 
# 
# From -- ./inp_files/27035.got.cif
#   From: 2010.05.17/outbox.cif.g08.bks.cpg/sg10_14_cif.got.tgz:27035.got - 2010.06.03 11:33:40.
