data_PCOD9146555
_publ_section_title
;
Structure prediction by ZEFSAII (Michael W. Deem and Ramdas Pophale) SiO2 
 PCOD9146555
Probable space group: P 2/M
;
_chemical_formula_sum "Si O2"
_cell_formula_units_Z 30
_cell_length_a 12.708662
_cell_length_b 17.932638
_cell_length_c 16.150838
_cell_angle_alpha 90.000000
_cell_angle_beta 26.844792
_cell_angle_gamma 90.000000
_cell_volume 1662.145939
_symmetry_space_group_name_H-M "P 2/M"
_symmetry_group_IT_number 10
_symmetry_cell_setting 'monoclinic'
loop_
_space_group_symop_operation_xyz
x,y,z
-x,y,-z
-x,-y,-z
x,-y,z
loop_
_atom_site_type_symbol
_atom_site_label
_atom_site_fract_x
_atom_site_fract_y
_atom_site_fract_z
Si Si1 0.000000 0.619487 0.000000
Si Si2 0.080419 0.814706 0.156399
Si Si3 0.603114 0.583451 0.154222
Si Si4 0.177813 0.411241 0.580209
Si Si5 0.292681 0.678143 0.081448
Si Si6 0.635857 0.912153 0.491293
Si Si7 0.215573 0.911225 0.909329
Si Si8 0.250330 0.691778 0.683215
O O1 0.159344 0.581135 0.957798
O O2 0.191127 0.665662 0.815819
O O3 0.235701 0.766239 0.109955
O O4 0.868936 0.864600 0.339291
O O5 0.949176 0.748351 0.200770
O O6 0.208657 0.865068 0.998544
O O7 0.567601 0.500000 0.144536
O O8 0.383722 0.600087 0.368502
O O9 0.635952 0.642019 0.057326
O O10 0.137007 0.500000 0.615741
O O11 0.253435 0.376589 0.615751
O O12 0.941170 0.366164 0.726255
O O13 0.500000 0.666989 0.000000
O O14 0.500000 0.898243 0.500000
O O15 0.450587 0.898033 0.693560
O O16 0.695923 0.000000 0.448045
O O17 0.191267 0.000000 0.942688
O O18 0.000000 0.890360 0.000000
O O19 0.500000 0.729002 0.500000
#
# Coordination Sequence:
#
# PCOD9146555 Si02
#       8
#     2   4   4   4   4   4   4   4
#     4  12  21  36  56  88 123 156 186 228 297 368
#     4  11  22  35  57  80 113 156 193 231 285 345
#     4  11  23  39  62  88 116 154 195 244 302 361
#     4  10  22  40  60  84 112 148 198 250 302 351
#     4  11  26  45  61  82 113 152 203 258 301 344
#     4  10  19  33  55  87 125 158 186 223 274 340
#     4  10  20  33  54  87 124 155 184 222 268 331
#     4  11  23  33  51  85 126 159 190 228 286 363
#
# _framework density 18.048957000000001
#
# number of rings (size 3 to 8) (size 9 to 14) (size 15 to 20)
#    0.000    1.333    5.333    1.400    0.933    4.533 
#    0.000    1.333    0.000    1.600    0.000    1.867 
#    0.000    0.000    0.000    0.000    0.000    0.000 
#
# Total GULP energy -167367.498594 kJ/mol
# GULP energy per Si atom -5578.916620 kJ/mol
# Density = 1.800788 g / cm^3
# Si number density = 18.048957 Si / 1000 Ang^3
#
#
#
# Elastic Constant Matrix: (Units=GPa)
#
#
# Indices 1 2 3 4 5 6 
#
# 1 75.0600 30.2023 33.4798 0.0000 -8.9564 0.0000
# 2 30.2023 90.7714 55.9151 0.0000 7.2253 0.0000
# 3 33.4798 55.9151 111.5726 0.0000 9.6526 0.0000
# 4 0.0000 0.0000 0.0000 22.1506 0.0000 -0.9323
# 5 -8.9564 7.2253 9.6526 0.0000 16.6989 0.0000
# 6 0.0000 0.0000 0.0000 -0.9323 0.0000 13.5208
#
#
#
# Elastic Compliance Matrix: (Units=1/GPa)
#
#
# Indices 1 2 3 4 5 6 
#
# 1 0.019066 -0.004647 -0.004685 0.000000 0.014945 0.000000
# 2 -0.004647 0.017161 -0.006682 0.000000 -0.006055 0.000000
# 3 -0.004685 -0.006682 0.014405 0.000000 -0.007948 0.000000
# 4 0.000000 0.000000 0.000000 0.045277 0.000000 0.003122
# 5 0.014945 -0.006055 -0.007948 0.000000 0.075114 0.000000
# 6 0.000000 0.000000 0.000000 0.003122 0.000000 0.074175
#
#
# Mechanical properties :
#
#
# Convention : Reuss Voigt Hill
#
# Bulk Modulus (GPa) = 53.75437 57.39982 55.57709
# Shear Modulus (GPa) = 17.64121 20.99452 19.31786
#
# Velocity S-wave (km/s) = 3.12975 3.41427 3.27510
# Velocity P-wave (km/s) = 6.55039 6.88581 6.72019
#
# Compressibility (1/GPa) = 0.01860314
#
# Stress axis : x y z
#
# Youngs Moduli (GPa) = 52.45050 58.27149 69.42087
#
# Poissons Ratio (x) = 0.27081 0.32523
# Poissons Ratio (y) = 0.24376 0.46386
# Poissons Ratio (z) = 0.24573 0.38936
#
# Static dielectric constant tensor:
#      x y z
#    x 1.621890 0.000000 -0.008590 
#    y 0.000000 1.644540 0.000000 
#    z -0.008590 0.000000 1.626030 
# 
# From -- ./inp_files/65325.got.cif
#   From: 2010.05.17/outbox.cif.g08.bks.cpg/sg10_33_cif.got.tgz:65325.got - 2010.06.03 11:33:40.
