data_PCOD9146867
_publ_section_title
;
Structure prediction by ZEFSAII (Michael W. Deem and Ramdas Pophale) SiO2 
 PCOD9146867
Probable space group: P 2/M
;
_chemical_formula_sum "Si O2"
_cell_formula_units_Z 22
_cell_length_a 10.223750
_cell_length_b 7.350484
_cell_length_c 15.937605
_cell_angle_alpha 90.000000
_cell_angle_beta 102.925140
_cell_angle_gamma 90.000000
_cell_volume 1167.357185
_symmetry_space_group_name_H-M "P 2/M"
_symmetry_group_IT_number 10
_symmetry_cell_setting 'monoclinic'
loop_
_space_group_symop_operation_xyz
x,y,z
-x,y,-z
-x,-y,-z
x,-y,z
loop_
_atom_site_type_symbol
_atom_site_label
_atom_site_fract_x
_atom_site_fract_y
_atom_site_fract_z
Si Si1 0.046470 0.715133 0.772949
Si Si2 0.504706 0.720697 0.405484
Si Si3 0.426465 0.000000 0.853874
Si Si4 0.270063 0.000000 0.108363
Si Si5 0.692203 0.282666 0.287903
Si Si6 0.745558 0.716904 0.746091
Si Si7 0.155246 0.000000 0.916036
O O1 0.059143 0.500000 0.791013
O O2 0.155488 0.762853 0.716936
O O3 0.892469 0.751821 0.727884
O O4 0.085111 0.827911 0.861431
O O5 0.500000 0.786828 0.500000
O O6 0.501051 0.500000 0.408345
O O7 0.637618 0.769495 0.371646
O O8 0.375457 0.775446 0.331933
O O9 0.399452 0.824752 0.791341
O O10 0.578366 0.000000 0.904799
O O11 0.308589 0.000000 0.904578
O O12 0.257169 0.172985 0.167741
O O13 0.165190 0.000000 0.017327
O O14 0.675555 0.500000 0.276724
O O15 0.732582 0.500000 0.758522
#
# Coordination Sequence:
#
# PCOD9146867 Si02
#       7
#     4   4   2   2   4   4   2
#     4   9  19  36  55  75 105 144 176 209 260 311
#     4   9  17  32  55  81 107 135 172 217 258 305
#     4  10  19  34  54  77 104 136 175 215 260 310
#     4  12  22  34  55  80 105 140 175 217 268 306
#     4   9  17  33  55  76 103 140 174 209 258 310
#     4  10  21  36  54  78 108 139 174 215 260 312
#     4  10  22  36  53  79 107 134 179 225 252 305
#
# _framework density 18.845987000000001
#
# number of rings (size 3 to 8) (size 9 to 14) (size 15 to 20)
#    0.000    2.364    1.818    0.818    0.000    2.182 
#    0.000    4.545    0.000   10.909    0.000    5.091 
#    0.000    0.000    0.000    0.000    0.000    0.000 
#
# Total GULP energy -122686.855558 kJ/mol
# GULP energy per Si atom -5576.675253 kJ/mol
# Density = 1.880309 g / cm^3
# Si number density = 18.845987 Si / 1000 Ang^3
#
#
#
# Elastic Constant Matrix: (Units=GPa)
#
#
# Indices 1 2 3 4 5 6 
#
# 1 110.0614 23.1914 45.6233 0.0000 6.5804 0.0000
# 2 23.1914 66.7050 25.9259 0.0000 -3.1210 0.0000
# 3 45.6233 25.9259 123.4319 0.0000 -12.1169 0.0000
# 4 0.0000 0.0000 0.0000 21.6259 0.0000 -3.1550
# 5 6.5804 -3.1210 -12.1169 0.0000 9.6805 0.0000
# 6 0.0000 0.0000 0.0000 -3.1550 0.0000 7.7946
#
#
#
# Elastic Compliance Matrix: (Units=1/GPa)
#
#
# Indices 1 2 3 4 5 6 
#
# 1 0.013258 -0.003110 -0.005963 0.000000 -0.017479 0.000000
# 2 -0.003110 0.017064 -0.001924 0.000000 0.005207 0.000000
# 3 -0.005963 -0.001924 0.012594 0.000000 0.019197 0.000000
# 4 0.000000 0.000000 0.000000 0.049143 0.000000 0.019891
# 5 -0.017479 0.005207 0.019197 0.000000 0.140889 0.000000
# 6 0.000000 0.000000 0.000000 0.019891 0.000000 0.136346
#
#
# Mechanical properties :
#
#
# Convention : Reuss Voigt Hill
#
# Bulk Modulus (GPa) = 47.79302 54.40884 51.10093
# Shear Modulus (GPa) = 12.55458 21.51737 17.03598
#
# Velocity S-wave (km/s) = 2.58382 3.38264 3.00985
# Velocity P-wave (km/s) = 5.85802 6.64750 6.26521
#
# Compressibility (1/GPa) = 0.02092356
#
# Stress axis : x y z
#
# Youngs Moduli (GPa) = 75.42626 58.60384 79.40082
#
# Poissons Ratio (x) = 0.18223 0.47348
# Poissons Ratio (y) = 0.23454 0.15273
# Poissons Ratio (z) = 0.44978 0.11273
#
# Static dielectric constant tensor:
#      x y z
#    x 1.688940 0.000000 -0.033190 
#    y 0.000000 1.674150 0.000000 
#    z -0.033190 0.000000 1.611880 
# 
# From -- ./inp_files/60384.got.cif
#   From: 2010.05.17/outbox.cif.g08.bks.cpg/sg10_31_cif.got.tgz:60384.got - 2010.06.03 11:33:40.
