data_PCOD9146816
_publ_section_title
;
Structure prediction by ZEFSAII (Michael W. Deem and Ramdas Pophale) SiO2 
 PCOD9146816
Probable space group: P 2/M
;
_chemical_formula_sum "Si O2"
_cell_formula_units_Z 32
_cell_length_a 21.701897
_cell_length_b 8.853085
_cell_length_c 11.789328
_cell_angle_alpha 90.000000
_cell_angle_beta 127.679602
_cell_angle_gamma 90.000000
_cell_volume 1792.668692
_symmetry_space_group_name_H-M "P 2/M"
_symmetry_group_IT_number 10
_symmetry_cell_setting 'monoclinic'
loop_
_space_group_symop_operation_xyz
x,y,z
-x,y,-z
-x,-y,-z
x,-y,z
loop_
_atom_site_type_symbol
_atom_site_label
_atom_site_fract_x
_atom_site_fract_y
_atom_site_fract_z
Si Si1 0.411898 0.181573 0.516180
Si Si2 0.426121 0.320313 0.281620
Si Si3 0.032517 0.319596 0.808671
Si Si4 0.868555 0.680351 0.532119
Si Si5 0.723809 0.179116 0.973359
Si Si6 0.158234 0.818942 0.100136
Si Si7 0.868914 0.180006 0.285956
Si Si8 0.244836 0.818283 0.426690
O O1 0.406769 0.251903 0.384343
O O2 0.491094 0.247390 0.657597
O O3 0.334034 0.219088 0.497672
O O4 0.416933 0.000000 0.511045
O O5 0.433017 0.500000 0.297160
O O6 0.355453 0.271318 0.121703
O O7 0.039165 0.500000 0.816067
O O8 0.075437 0.254269 0.745397
O O9 0.942207 0.277813 0.694439
O O10 0.078457 0.254985 0.968254
O O11 0.866591 0.500000 0.519411
O O12 0.881251 0.752353 0.423351
O O13 0.790952 0.741780 0.503427
O O14 0.776635 0.216104 0.922347
O O15 0.706389 0.000000 0.948444
O O16 0.780625 0.207539 0.143144
O O17 0.192441 0.771833 0.259269
O O18 0.148659 0.000000 0.089016
O O19 0.881787 0.000000 0.299952
O O20 0.239592 0.000000 0.431149
#
# Coordination Sequence:
#
# PCOD9146816 Si02
#       8
#     4   4   4   4   4   4   4   4
#     4  10  19  34  53  74 107 145 176 215 258 304
#     4  11  20  29  49  83 113 138 172 211 258 316
#     4  10  21  36  54  79 109 139 172 218 275 324
#     4  11  24  38  53  76 108 143 177 217 271 325
#     4   9  17  33  54  78 107 137 172 217 267 311
#     4   9  18  34  54  78 105 138 181 222 261 310
#     4  10  21  37  59  81 102 134 182 229 264 307
#     4  10  21  37  56  76 104 143 185 220 257 312
#
# _framework density 17.850482
#
# number of rings (size 3 to 8) (size 9 to 14) (size 15 to 20)
#    0.000    2.000    1.250    4.500    0.000    8.000 
#    0.000    2.500    0.000    0.750    0.000    5.250 
#    0.000    0.000    0.000    0.000    0.000    0.000 
#
# Total GULP energy -178669.301557 kJ/mol
# GULP energy per Si atom -5583.415674 kJ/mol
# Density = 1.780985 g / cm^3
# Si number density = 17.850482 Si / 1000 Ang^3
#
#
#
# Elastic Constant Matrix: (Units=GPa)
#
#
# Indices 1 2 3 4 5 6 
#
# 1 60.4060 21.5195 10.3350 0.0000 22.5966 0.0000
# 2 21.5195 46.3526 18.0505 0.0000 18.0784 0.0000
# 3 10.3350 18.0505 37.0838 0.0000 21.2377 0.0000
# 4 0.0000 0.0000 0.0000 57.3118 0.0000 11.4676
# 5 22.5966 18.0784 21.2377 0.0000 24.2018 0.0000
# 6 0.0000 0.0000 0.0000 11.4676 0.0000 15.7193
#
#
#
# Elastic Compliance Matrix: (Units=1/GPa)
#
#
# Indices 1 2 3 4 5 6 
#
# 1 0.029938 -0.005296 0.016036 0.000000 -0.038068 0.000000
# 2 -0.005296 0.031622 -0.006474 0.000000 -0.012995 0.000000
# 3 0.016036 -0.006474 0.063229 0.000000 -0.065622 0.000000
# 4 0.000000 0.000000 0.000000 0.020431 0.000000 -0.014905
# 5 -0.038068 -0.012995 -0.065622 0.000000 0.144154 0.000000
# 6 0.000000 0.000000 0.000000 -0.014905 0.000000 0.074489
#
#
# Mechanical properties :
#
#
# Convention : Reuss Voigt Hill
#
# Bulk Modulus (GPa) = 7.50069 27.07249 17.28659
# Shear Modulus (GPa) = 12.50711 25.70907 19.10809
#
# Velocity S-wave (km/s) = 2.64987 3.79917 3.27533
# Velocity P-wave (km/s) = 3.68422 5.86891 4.89988
#
# Compressibility (1/GPa) = 0.13332112
#
# Stress axis : x y z
#
# Youngs Moduli (GPa) = 33.40196 31.62351 15.81553
#
# Poissons Ratio (x) = 0.16749 -0.25362
# Poissons Ratio (y) = 0.17691 0.10238
# Poissons Ratio (z) = -0.53563 0.20472
#
# Static dielectric constant tensor:
#      x y z
#    x 1.588910 0.000000 0.023160 
#    y 0.000000 1.593980 0.000000 
#    z 0.023160 0.000000 1.620490 
# 
# From -- ./inp_files/55325.got.cif
#   From: 2010.05.17/outbox.cif.g08.bks.cpg/sg10_28_cif.got.tgz:55325.got - 2010.06.03 11:33:40.
