data_PCOD9146343
_publ_section_title
;
Structure prediction by ZEFSAII (Michael W. Deem and Ramdas Pophale) SiO2 
 PCOD9146343
Probable space group: P 2/M
;
_chemical_formula_sum "Si O2"
_cell_formula_units_Z 24
_cell_length_a 25.747172
_cell_length_b 8.923137
_cell_length_c 9.472565
_cell_angle_alpha 90.000000
_cell_angle_beta 41.244055
_cell_angle_gamma 90.000000
_cell_volume 1434.751060
_symmetry_space_group_name_H-M "P 2/M"
_symmetry_group_IT_number 10
_symmetry_cell_setting 'monoclinic'
loop_
_space_group_symop_operation_xyz
x,y,z
-x,y,-z
-x,-y,-z
x,-y,z
loop_
_atom_site_type_symbol
_atom_site_label
_atom_site_fract_x
_atom_site_fract_y
_atom_site_fract_z
Si Si1 0.149814 0.821753 0.848183
Si Si2 0.273737 0.678075 0.786672
Si Si3 0.588014 0.823098 0.352718
Si Si4 0.742780 0.823842 0.891241
Si Si5 0.012879 0.321960 0.310931
Si Si6 0.143337 0.322617 0.557257
O O1 0.230726 0.752634 0.743093
O O2 0.132454 0.756400 0.729296
O O3 0.154371 0.000000 0.834864
O O4 0.081728 0.767824 0.093578
O O5 0.268498 0.500000 0.792581
O O6 0.363552 0.733341 0.627269
O O7 0.231775 0.741242 0.015439
O O8 0.500000 0.771956 0.500000
O O9 0.585576 0.000000 0.394736
O O10 0.647647 0.809943 0.097148
O O11 0.783066 0.747166 0.676771
O O12 0.762350 0.000000 0.857652
O O13 0.032548 0.500000 0.267499
O O14 0.000000 0.278845 0.500000
O O15 0.932886 0.300245 0.385937
O O16 0.153787 0.500000 0.556729
#
# Coordination Sequence:
#
# PCOD9146343 Si02
#       6
#     4   4   4   4   4   4
#     4  12  24  37  54  77 108 146 186 228 274 322
#     4  10  19  33  54  80 109 140 180 224 269 317
#     4   8  16  32  55  83 113 142 175 218 268 321
#     4   9  18  33  54  81 110 141 179 219 265 319
#     4  10  22  39  58  79 106 140 181 227 275 323
#     4  11  22  36  55  79 110 147 183 224 273 322
#
# _framework density 16.727640000000001
#
# number of rings (size 3 to 8) (size 9 to 14) (size 15 to 20)
#    1.000    1.000    0.000    5.000    0.000    5.333 
#    0.000    0.000    0.000    1.000    0.000    7.000 
#    0.000    0.000    0.000    0.000    0.000    0.000 
#
# Total GULP energy -133751.975887 kJ/mol
# GULP energy per Si atom -5572.998995 kJ/mol
# Density = 1.668957 g / cm^3
# Si number density = 16.727640 Si / 1000 Ang^3
#
#
#
# Elastic Constant Matrix: (Units=GPa)
#
#
# Indices 1 2 3 4 5 6 
#
# 1 110.3700 76.8451 60.6680 0.0000 7.9342 0.0000
# 2 76.8451 123.5963 53.1864 0.0000 -1.3130 0.0000
# 3 60.6680 53.1864 57.7464 0.0000 5.3135 0.0000
# 4 0.0000 0.0000 0.0000 29.6698 0.0000 2.3716
# 5 7.9342 -1.3130 5.3135 0.0000 28.7735 0.0000
# 6 0.0000 0.0000 0.0000 2.3716 0.0000 15.3633
#
#
#
# Elastic Compliance Matrix: (Units=1/GPa)
#
#
# Indices 1 2 3 4 5 6 
#
# 1 0.024916 -0.007308 -0.019107 0.000000 -0.003675 0.000000
# 2 -0.007308 0.015796 -0.007246 0.000000 0.004074 0.000000
# 3 -0.019107 -0.007246 0.044364 0.000000 -0.003254 0.000000
# 4 0.000000 0.000000 0.000000 0.034125 0.000000 -0.005268
# 5 -0.003675 0.004074 -0.003254 0.000000 0.036555 0.000000
# 6 0.000000 0.000000 0.000000 -0.005268 0.000000 0.065903
#
#
# Mechanical properties :
#
#
# Convention : Reuss Voigt Hill
#
# Bulk Modulus (GPa) = 56.32582 74.79018 65.55800
# Shear Modulus (GPa) = 16.95502 21.49553 19.22528
#
# Velocity S-wave (km/s) = 3.18715 3.58862 3.39383
# Velocity P-wave (km/s) = 6.87672 7.87265 7.39148
#
# Compressibility (1/GPa) = 0.01775385
#
# Stress axis : x y z
#
# Youngs Moduli (GPa) = 40.13556 63.30828 22.54082
#
# Poissons Ratio (x) = 0.46265 0.43069
# Poissons Ratio (y) = 0.29330 0.16332
# Poissons Ratio (z) = 0.76688 0.45871
#
# Static dielectric constant tensor:
#      x y z
#    x 1.566990 0.000000 -0.013970 
#    y 0.000000 1.557900 0.000000 
#    z -0.013970 0.000000 1.556530 
# 
# From -- ./inp_files/35633.got.cif
#   From: 2010.05.17/outbox.cif.g08.bks.cpg/sg10_18_cif.got.tgz:35633.got - 2010.06.03 11:33:40.
