data_PCOD9146734
_publ_section_title
;
Structure prediction by ZEFSAII (Michael W. Deem and Ramdas Pophale) SiO2 
 PCOD9146734
Probable space group: P 2/M
;
_chemical_formula_sum "Si O2"
_cell_formula_units_Z 28
_cell_length_a 34.208107
_cell_length_b 7.759085
_cell_length_c 10.042893
_cell_angle_alpha 90.000000
_cell_angle_beta 35.499358
_cell_angle_gamma 90.000000
_cell_volume 1547.909627
_symmetry_space_group_name_H-M "P 2/M"
_symmetry_group_IT_number 10
_symmetry_cell_setting 'monoclinic'
loop_
_space_group_symop_operation_xyz
x,y,z
-x,y,-z
-x,-y,-z
x,-y,z
loop_
_atom_site_type_symbol
_atom_site_label
_atom_site_fract_x
_atom_site_fract_y
_atom_site_fract_z
Si Si1 0.792444 0.698389 0.153658
Si Si2 0.645643 0.192419 0.565617
Si Si3 0.206576 0.791254 0.542881
Si Si4 0.939652 0.708258 0.761197
Si Si5 0.446184 0.500000 0.267600
Si Si6 0.644499 0.797331 0.890987
Si Si7 0.543598 0.500000 0.247350
Si Si8 0.940684 0.206854 0.070730
O O1 0.787144 0.500000 0.124822
O O2 0.723760 0.792477 0.306040
O O3 0.793297 0.705987 0.312185
O O4 0.866198 0.770735 0.914731
O O5 0.600969 0.334102 0.618307
O O6 0.642953 0.222771 0.733498
O O7 0.620747 0.000000 0.609576
O O8 0.278741 0.752844 0.278479
O O9 0.135298 0.739434 0.677080
O O10 0.206032 0.000000 0.564449
O O11 0.937123 0.500000 0.760932
O O12 0.000000 0.769663 0.500000
O O13 0.949535 0.752446 0.889439
O O14 0.489874 0.500000 0.277911
O O15 0.500000 0.500000 0.000000
O O16 0.631992 0.000000 0.953480
O O17 0.591240 0.667382 0.100466
O O18 0.500000 0.500000 0.500000
O O19 0.941898 0.000000 0.078337
O O20 0.000000 0.276702 0.000000
#
# Coordination Sequence:
#
# PCOD9146734 Si02
#       8
#     4   4   4   4   2   4   2   4
#     4   9  15  26  48  76 106 139 175 219 267 309
#     4  10  19  33  58  88 112 135 175 228 273 312
#     4   8  15  27  47  75 102 131 175 222 261 307
#     4   9  18  31  48  72 106 144 179 215 259 313
#     4  12  22  38  60  86 111 138 174 220 267 322
#     4   9  18  34  57  83 109 140 177 219 266 316
#     4  12  26  40  58  82 113 142 176 214 261 328
#     4   9  17  30  49  74 103 135 174 223 267 301
#
# _framework density 18.088911
#
# number of rings (size 3 to 8) (size 9 to 14) (size 15 to 20)
#    0.000    2.571    2.143    1.286    3.000    2.286 
#    0.000    0.000    3.143    0.000    0.000    0.000 
#    0.000    0.000    0.000    0.000    0.000    0.000 
#
# Total GULP energy -155991.115060 kJ/mol
# GULP energy per Si atom -5571.111252 kJ/mol
# Density = 1.804774 g / cm^3
# Si number density = 18.088911 Si / 1000 Ang^3
#
#
#
# Elastic Constant Matrix: (Units=GPa)
#
#
# Indices 1 2 3 4 5 6 
#
# 1 95.8047 35.7576 63.9583 0.0000 -29.7596 0.0000
# 2 35.7576 70.0445 54.8382 0.0000 -20.4687 0.0000
# 3 63.9583 54.8382 144.2775 0.0000 -30.9931 0.0000
# 4 0.0000 0.0000 0.0000 12.2238 0.0000 -5.6905
# 5 -29.7596 -20.4687 -30.9931 0.0000 28.7036 0.0000
# 6 0.0000 0.0000 0.0000 -5.6905 0.0000 18.7065
#
#
#
# Elastic Compliance Matrix: (Units=1/GPa)
#
#
# Indices 1 2 3 4 5 6 
#
# 1 0.018105 -0.002030 -0.004600 0.000000 0.012356 0.000000
# 2 -0.002030 0.022073 -0.005938 0.000000 0.007224 0.000000
# 3 -0.004600 -0.005938 0.012099 0.000000 0.004061 0.000000
# 4 0.000000 0.000000 0.000000 0.095303 0.000000 0.028991
# 5 0.012356 0.007224 0.004061 0.000000 0.057186 0.000000
# 6 0.000000 0.000000 0.000000 0.028991 0.000000 0.062276
#
#
# Mechanical properties :
#
#
# Convention : Reuss Voigt Hill
#
# Bulk Modulus (GPa) = 36.84460 68.80391 52.82425
# Shear Modulus (GPa) = 16.59884 22.29827 19.44856
#
# Velocity S-wave (km/s) = 3.03252 3.51480 3.28253
# Velocity P-wave (km/s) = 5.71615 7.38856 6.60550
#
# Compressibility (1/GPa) = 0.02714102
#
# Stress axis : x y z
#
# Youngs Moduli (GPa) = 55.23443 45.30456 82.64818
#
# Poissons Ratio (x) = 0.09199 0.38016
# Poissons Ratio (y) = 0.11215 0.49074
# Poissons Ratio (z) = 0.25406 0.26901
#
# Static dielectric constant tensor:
#      x y z
#    x 1.609860 0.000000 -0.047720 
#    y 0.000000 1.637200 0.000000 
#    z -0.047720 0.000000 1.633010 
# 
# From -- ./inp_files/37980.got.cif
#   From: 2010.05.17/outbox.cif.g08.bks.cpg/sg10_19_cif.got.tgz:37980.got - 2010.06.03 11:33:40.
