data_PCOD9146721
_publ_section_title
;
Structure prediction by ZEFSAII (Michael W. Deem and Ramdas Pophale) SiO2 
 PCOD9146721
Probable space group: P 2/M
;
_chemical_formula_sum "Si O2"
_cell_formula_units_Z 32
_cell_length_a 32.829813
_cell_length_b 8.696862
_cell_length_c 13.213378
_cell_angle_alpha 90.000000
_cell_angle_beta 26.717049
_cell_angle_gamma 90.000000
_cell_volume 1696.119619
_symmetry_space_group_name_H-M "P 2/M"
_symmetry_group_IT_number 10
_symmetry_cell_setting 'monoclinic'
loop_
_space_group_symop_operation_xyz
x,y,z
-x,y,-z
-x,-y,-z
x,-y,z
loop_
_atom_site_type_symbol
_atom_site_label
_atom_site_fract_x
_atom_site_fract_y
_atom_site_fract_z
Si Si1 0.285849 0.312677 0.426905
Si Si2 0.357228 0.178339 0.896044
Si Si3 0.287003 0.815233 0.840664
Si Si4 0.899562 0.314113 0.254537
Si Si5 0.095658 0.682689 0.333916
Si Si6 0.426482 0.315280 0.943781
Si Si7 0.628272 0.313841 0.551375
Si Si8 0.853751 0.178455 0.573311
O O1 0.289446 0.500000 0.418921
O O2 0.181485 0.268393 0.641384
O O3 0.327679 0.261738 0.440669
O O4 0.346502 0.260644 0.196479
O O5 0.349032 0.238365 0.798925
O O6 0.415249 0.260023 0.853537
O O7 0.385025 0.000000 0.830235
O O8 0.253587 0.187125 0.165989
O O9 0.321366 0.750534 0.658623
O O10 0.289790 0.000000 0.835297
O O11 0.184081 0.762559 0.090136
O O12 0.898848 0.500000 0.262891
O O13 0.875158 0.245057 0.416872
O O14 0.000000 0.265357 0.000000
O O15 0.104547 0.500000 0.299672
O O16 0.097743 0.724316 0.447421
O O17 0.000000 0.733434 0.500000
O O18 0.422528 0.500000 0.951588
O O19 0.523008 0.268850 0.775696
O O20 0.632586 0.500000 0.539392
O O21 0.879966 0.000000 0.522950
#
# Coordination Sequence:
#
# PCOD9146721 Si02
#       8
#     4   4   4   4   4   4   4   4
#     4   9  18  35  56  79 111 147 185 236 288 334
#     4   9  19  35  55  78 107 144 183 228 279 338
#     4  10  22  39  56  80 116 153 187 227 284 341
#     4  10  20  34  55  83 111 144 188 236 285 336
#     4  10  21  37  60  86 110 143 188 234 279 330
#     4  10  19  33  58  84 105 142 193 238 285 338
#     4  10  21  36  55  81 113 149 191 237 284 341
#     4  10  20  35  55  80 112 148 183 226 281 339
#
# _framework density 18.866595
#
# number of rings (size 3 to 8) (size 9 to 14) (size 15 to 20)
#    0.000    2.250    1.250    2.250    0.000    7.250 
#    0.000    6.250    0.000    1.500    0.000    0.000 
#    0.000    0.000    0.000    0.000    0.000    0.000 
#
# Total GULP energy -178565.895532 kJ/mol
# GULP energy per Si atom -5580.184235 kJ/mol
# Density = 1.882365 g / cm^3
# Si number density = 18.866595 Si / 1000 Ang^3
#
#
#
# Elastic Constant Matrix: (Units=GPa)
#
#
# Indices 1 2 3 4 5 6 
#
# 1 132.8734 14.1238 53.4342 0.0000 -8.1978 0.0000
# 2 14.1238 6.9429 13.7087 0.0000 -5.6745 0.0000
# 3 53.4342 13.7087 69.6735 0.0000 -7.0870 0.0000
# 4 0.0000 0.0000 0.0000 8.8419 0.0000 -12.7124
# 5 -8.1978 -5.6745 -7.0870 0.0000 27.9346 0.0000
# 6 0.0000 0.0000 0.0000 -12.7124 0.0000 -95.1159
#
#
#
# Elastic Compliance Matrix: (Units=1/GPa)
#
#
# Indices 1 2 3 4 5 6 
#
# 1 0.011263 -0.010012 -0.006711 0.000000 -0.000431 0.000000
# 2 -0.010012 0.288819 -0.044631 0.000000 0.044408 0.000000
# 3 -0.006711 -0.044631 0.027878 0.000000 -0.003963 0.000000
# 4 0.000000 0.000000 0.000000 0.094868 0.000000 -0.012679
# 5 -0.000431 0.044408 -0.003963 0.000000 0.043687 0.000000
# 6 0.000000 0.000000 0.000000 -0.012679 0.000000 -0.008819
#
#
# Mechanical properties :
#
#
# Convention : Reuss Voigt Hill
#
# Bulk Modulus (GPa) = 4.87211 41.33591 23.10401
# Shear Modulus (GPa) = 7.70627 -3.11969 2.29329
#
# Velocity S-wave (km/s) = 2.02323 -1.28730 1.10371
# Velocity P-wave (km/s) = 2.83654 4.44383 3.72784
#
# Compressibility (1/GPa) = 0.20524982
#
# Stress axis : x y z
#
# Youngs Moduli (GPa) = 88.78986 3.46238 35.87032
#
# Poissons Ratio (x) = 0.03467 0.24074
# Poissons Ratio (y) = 0.88897 1.60094
# Poissons Ratio (z) = 0.59591 0.15453
#
# Static dielectric constant tensor:
#      x y z
#    x 1.652270 0.000000 -0.013720 
#    y 0.000000 1.639900 0.000000 
#    z -0.013720 0.000000 1.643230 
# 
# From -- ./inp_files/58153.got.cif
#   From: 2010.05.17/outbox.cif.g08.bks.cpg/sg10_30_cif.got.tgz:58153.got - 2010.06.03 11:33:40.
