data_PCOD9146533
_publ_section_title
;
Structure prediction by ZEFSAII (Michael W. Deem and Ramdas Pophale) SiO2 
 PCOD9146533
Probable space group: P 2/M
;
_chemical_formula_sum "Si O2"
_cell_formula_units_Z 18
_cell_length_a 7.876406
_cell_length_b 20.572296
_cell_length_c 9.117666
_cell_angle_alpha 90.000000
_cell_angle_beta 34.030591
_cell_angle_gamma 90.000000
_cell_volume 826.798654
_symmetry_space_group_name_H-M "P 2/M"
_symmetry_group_IT_number 10
_symmetry_cell_setting 'monoclinic'
loop_
_space_group_symop_operation_xyz
x,y,z
-x,y,-z
-x,-y,-z
x,-y,z
loop_
_atom_site_type_symbol
_atom_site_label
_atom_site_fract_x
_atom_site_fract_y
_atom_site_fract_z
Si Si1 0.923658 0.366992 0.386723
Si Si2 0.142789 0.500000 0.737579
Si Si3 0.709467 0.703395 0.106236
Si Si4 0.182952 0.926802 0.524315
Si Si5 0.680601 0.151830 0.026125
O O1 0.938277 0.434700 0.290554
O O2 0.000000 0.378614 0.500000
O O3 0.178225 0.321542 0.132212
O O4 0.592098 0.332691 0.620927
O O5 0.500000 0.500000 0.500000
O O6 0.000000 0.500000 0.000000
O O7 0.665557 0.780274 0.121284
O O8 0.000000 0.689096 0.000000
O O9 0.512308 0.902151 0.243442
O O10 0.000000 0.928075 0.500000
O O11 0.178015 0.000000 0.587233
O O12 0.011639 0.874678 0.747860
O O13 0.500000 0.159021 0.000000
#
# Coordination Sequence:
#
# PCOD9146533 Si02
#       5
#     4   2   4   4   4
#     4  12  25  44  68  96 127 165 213 260 306 363
#     4  12  25  44  69  98 133 168 205 250 311 372
#     4  12  25  42  64  92 128 168 209 258 318 375
#     4   9  17  30  52  82 114 150 198 254 306 359
#     4  10  19  33  55  83 115 154 202 253 304 364
#
# _framework density 21.770717999999999
#
# number of rings (size 3 to 8) (size 9 to 14) (size 15 to 20)
#    0.000    1.111    0.000    8.333    0.000    4.444 
#    0.000    3.333    0.000    4.000    0.000    0.000 
#    0.000    0.000    0.000    0.000    0.000    0.000 
#
# Total GULP energy -100738.150927 kJ/mol
# GULP energy per Si atom -5596.563940 kJ/mol
# Density = 2.172117 g / cm^3
# Si number density = 21.770718 Si / 1000 Ang^3
#
#
#
# Elastic Constant Matrix: (Units=GPa)
#
#
# Indices 1 2 3 4 5 6 
#
# 1 57.0194 18.8323 15.7605 0.0000 7.4765 0.0000
# 2 18.8323 134.5079 34.7057 0.0000 8.1815 0.0000
# 3 15.7605 34.7057 128.7532 0.0000 2.2203 0.0000
# 4 0.0000 0.0000 0.0000 67.8771 0.0000 9.7481
# 5 7.4765 8.1815 2.2203 0.0000 27.7978 0.0000
# 6 0.0000 0.0000 0.0000 9.7481 0.0000 17.1374
#
#
#
# Elastic Compliance Matrix: (Units=1/GPa)
#
#
# Indices 1 2 3 4 5 6 
#
# 1 0.019258 -0.001974 -0.001748 0.000000 -0.004459 0.000000
# 2 -0.001974 0.008327 -0.001973 0.000000 -0.001762 0.000000
# 3 -0.001748 -0.001973 0.008506 0.000000 0.000371 0.000000
# 4 0.000000 0.000000 0.000000 0.016043 0.000000 -0.009126
# 5 -0.004459 -0.001762 0.000371 0.000000 0.037662 0.000000
# 6 0.000000 0.000000 0.000000 -0.009126 0.000000 0.063543
#
#
# Mechanical properties :
#
#
# Convention : Reuss Voigt Hill
#
# Bulk Modulus (GPa) = 40.48379 50.98640 45.73509
# Shear Modulus (GPa) = 28.90798 39.29459 34.10128
#
# Velocity S-wave (km/s) = 3.64790 4.25305 3.96205
# Velocity P-wave (km/s) = 6.03149 6.89844 6.47948
#
# Compressibility (1/GPa) = 0.02470125
#
# Stress axis : x y z
#
# Youngs Moduli (GPa) = 51.92711 120.09081 117.56250
#
# Poissons Ratio (x) = 0.23705 0.20554
# Poissons Ratio (y) = 0.10250 0.23190
# Poissons Ratio (z) = 0.09079 0.23689
#
# Static dielectric constant tensor:
#      x y z
#    x 1.829810 0.000000 0.021950 
#    y 0.000000 1.879920 0.000000 
#    z 0.021950 0.000000 1.743950 
# 
# From -- ./inp_files/4033.got.cif
#   From: 2010.05.17/outbox.cif.g08.bks.cpg/sg10_3_cif.got.tgz:4033.got - 2010.06.03 11:33:40.
