data_PCOD9146298
_publ_section_title
;
Structure prediction by ZEFSAII (Michael W. Deem and Ramdas Pophale) SiO2 
 PCOD9146298
Probable space group: P 2/M
;
_chemical_formula_sum "Si O2"
_cell_formula_units_Z 26
_cell_length_a 14.740241
_cell_length_b 19.291301
_cell_length_c 15.606604
_cell_angle_alpha 90.000000
_cell_angle_beta 161.212119
_cell_angle_gamma 90.000000
_cell_volume 1429.284416
_symmetry_space_group_name_H-M "P 2/M"
_symmetry_group_IT_number 10
_symmetry_cell_setting 'monoclinic'
loop_
_space_group_symop_operation_xyz
x,y,z
-x,y,-z
-x,-y,-z
x,-y,z
loop_
_atom_site_type_symbol
_atom_site_label
_atom_site_fract_x
_atom_site_fract_y
_atom_site_fract_z
Si Si1 0.089442 0.341882 0.840870
Si Si2 0.181819 0.697075 0.742215
Si Si3 0.915365 0.836846 0.581815
Si Si4 0.469924 0.081750 0.075293
Si Si5 0.500000 0.701651 0.500000
Si Si6 0.892662 0.425576 0.807888
Si Si7 0.527054 0.257603 0.338016
O O1 0.194029 0.350857 0.837695
O O2 0.103539 0.406090 0.919360
O O3 0.764994 0.317588 0.540353
O O4 0.269467 0.280173 0.046740
O O5 0.000000 0.669366 0.500000
O O6 0.028628 0.767867 0.635572
O O7 0.500000 0.713099 0.000000
O O8 0.694592 0.809917 0.455870
O O9 0.190081 0.878678 0.856677
O O10 0.740526 0.884661 0.361217
O O11 0.452767 0.000000 0.077469
O O12 0.500000 0.091268 0.000000
O O13 0.268588 0.646583 0.323834
O O14 0.567021 0.743611 0.646485
O O15 0.751655 0.500000 0.659562
O O16 0.000000 0.434048 0.000000
#
# Coordination Sequence:
#
# PCOD9146298 Si02
#       7
#     4   4   4   4   2   4   4
#     4  10  20  34  48  78 106 133 177 217 258 311
#     4  11  20  32  53  74 102 140 175 219 264 303
#     4  11  20  33  50  76 102 132 174 207 255 311
#     4  11  22  34  50  73 104 137 168 207 251 302
#     4  10  19  34  52  80 113 132 170 214 264 320
#     4  10  19  33  54  77 107 143 171 207 266 325
#     4  10  20  32  53  75 107 137 163 217 265 304
#
# _framework density 18.190922
#
# number of rings (size 3 to 8) (size 9 to 14) (size 15 to 20)
#    0.000    1.538    1.538    7.154    0.000    1.231 
#    0.000    0.000    0.000    0.923    0.000    3.231 
#    0.000    0.000    0.000    0.000    0.000    0.000 
#
# Total GULP energy -144791.117150 kJ/mol
# GULP energy per Si atom -5568.889121 kJ/mol
# Density = 1.814952 g / cm^3
# Si number density = 18.190922 Si / 1000 Ang^3
#
#
#
# Elastic Constant Matrix: (Units=GPa)
#
#
# Indices 1 2 3 4 5 6 
#
# 1 122.6346 37.6096 22.1926 0.0000 -14.5083 0.0000
# 2 37.6096 53.4730 3.8260 0.0000 -0.8419 0.0000
# 3 22.1926 3.8260 71.7444 0.0000 -4.5602 0.0000
# 4 0.0000 0.0000 0.0000 15.8427 0.0000 -16.5732
# 5 -14.5083 -0.8419 -4.5602 0.0000 27.0118 0.0000
# 6 0.0000 0.0000 0.0000 -16.5732 0.0000 10.3904
#
#
#
# Elastic Compliance Matrix: (Units=1/GPa)
#
#
# Indices 1 2 3 4 5 6 
#
# 1 0.011788 -0.007998 -0.002864 0.000000 0.005598 0.000000
# 2 -0.007998 0.024204 0.000968 0.000000 -0.003378 0.000000
# 3 -0.002864 0.000968 0.014836 0.000000 0.000997 0.000000
# 4 0.000000 0.000000 0.000000 -0.094409 0.000000 -0.150586
# 5 0.005598 -0.003378 0.000997 0.000000 0.040091 0.000000
# 6 0.000000 0.000000 0.000000 -0.150586 0.000000 -0.143950
#
#
# Mechanical properties :
#
#
# Convention : Reuss Voigt Hill
#
# Bulk Modulus (GPa) = 32.21545 41.67874 36.94710
# Shear Modulus (GPa) = -42.62316 22.93057 -9.84630
#
# Velocity S-wave (km/s) = -4.84581 3.55427 -2.32906
# Velocity P-wave (km/s) = 3.68254 6.30915 3.62245
#
# Compressibility (1/GPa) = 0.03104100
#
# Stress axis : x y z
#
# Youngs Moduli (GPa) = 84.83481 41.31621 67.40382
#
# Poissons Ratio (x) = 0.33043 0.19304
# Poissons Ratio (y) = 0.67848 -0.06528
# Poissons Ratio (z) = 0.24296 -0.04001
#
# Static dielectric constant tensor:
#      x y z
#    x 1.973710 0.000000 0.159650 
#    y 0.000000 1.658690 0.000000 
#    z 0.159650 0.000000 1.773150 
# 
# From -- ./inp_files/67831.got.cif
#   From: 2010.05.17/outbox.cif.g08.bks.cpg/sg10_34_cif.got.tgz:67831.got - 2010.06.03 11:33:40.
