data_PCOD9146167
_publ_section_title
;
Structure prediction by ZEFSAII (Michael W. Deem and Ramdas Pophale) SiO2 
 PCOD9146167
Probable space group: P 2/M
;
_chemical_formula_sum "Si O2"
_cell_formula_units_Z 24
_cell_length_a 11.063424
_cell_length_b 14.111356
_cell_length_c 11.979015
_cell_angle_alpha 90.000000
_cell_angle_beta 36.344534
_cell_angle_gamma 90.000000
_cell_volume 1108.332196
_symmetry_space_group_name_H-M "P 2/M"
_symmetry_group_IT_number 10
_symmetry_cell_setting 'monoclinic'
loop_
_space_group_symop_operation_xyz
x,y,z
-x,y,-z
-x,-y,-z
x,-y,z
loop_
_atom_site_type_symbol
_atom_site_label
_atom_site_fract_x
_atom_site_fract_y
_atom_site_fract_z
Si Si1 0.323537 0.888776 0.725124
Si Si2 0.772924 0.111583 0.622931
Si Si3 0.372206 0.791740 0.927791
Si Si4 0.960342 0.113192 0.256177
Si Si5 0.275217 0.611284 0.689414
Si Si6 0.832385 0.609857 0.967719
O O1 0.500000 0.885945 0.500000
O O2 0.357206 0.825101 0.808339
O O3 0.125272 0.859406 0.801015
O O4 0.305850 0.000000 0.773507
O O5 0.591360 0.174353 0.805520
O O6 0.000000 0.124727 0.500000
O O7 0.799454 0.135591 0.472395
O O8 0.720068 0.000000 0.673790
O O9 0.321826 0.681405 0.975757
O O10 0.179480 0.845865 0.122356
O O11 0.976572 0.000000 0.243379
O O12 0.500000 0.653830 0.500000
O O13 0.287550 0.500000 0.647419
O O14 0.225902 0.613010 0.857559
O O15 0.067980 0.645667 0.783089
O O16 0.821199 0.500000 0.941378
#
# Coordination Sequence:
#
# PCOD9146167 Si02
#       6
#     4   4   4   4   4   4
#     4  10  19  33  52  78 117 154 181 214 265 336
#     4  10  22  41  61  82 109 140 182 236 283 328
#     4  12  22  33  56  81 112 151 186 221 277 334
#     4  10  21  35  54  83 112 142 181 220 268 335
#     4   8  15  30  48  65  96 143 184 219 263 310
#     4   9  20  33  47  75 111 146 188 231 265 316
#
# _framework density 21.654157999999999
#
# number of rings (size 3 to 8) (size 9 to 14) (size 15 to 20)
#    0.000    2.167    1.667    3.000    4.667    4.000 
#    0.000    2.500    0.000    0.500    0.000    1.167 
#    0.000    0.000    0.000    0.000    0.000    0.000 
#
# Total GULP energy -134067.585910 kJ/mol
# GULP energy per Si atom -5586.149413 kJ/mol
# Density = 2.160487 g / cm^3
# Si number density = 21.654158 Si / 1000 Ang^3
#
#
#
# Elastic Constant Matrix: (Units=GPa)
#
#
# Indices 1 2 3 4 5 6 
#
# 1 48.4388 14.4364 21.7249 0.0000 -16.9848 0.0000
# 2 14.4364 78.5814 50.1652 0.0000 -15.6534 0.0000
# 3 21.7249 50.1652 143.6675 0.0000 -35.6510 0.0000
# 4 0.0000 0.0000 0.0000 -68.5232 0.0000 -5.3281
# 5 -16.9848 -15.6534 -35.6510 0.0000 35.0662 0.0000
# 6 0.0000 0.0000 0.0000 -5.3281 0.0000 15.4338
#
#
#
# Elastic Compliance Matrix: (Units=1/GPa)
#
#
# Indices 1 2 3 4 5 6 
#
# 1 0.025291 -0.002265 -0.000327 0.000000 0.010906 0.000000
# 2 -0.002265 0.016685 -0.005226 0.000000 0.001038 0.000000
# 3 -0.000327 -0.005226 0.010989 0.000000 0.008681 0.000000
# 4 0.000000 0.000000 0.000000 -0.014212 0.000000 -0.004906
# 5 0.010906 0.001038 0.008681 0.000000 0.043089 0.000000
# 6 0.000000 0.000000 0.000000 -0.004906 0.000000 0.063099
#
#
# Mechanical properties :
#
#
# Convention : Reuss Voigt Hill
#
# Bulk Modulus (GPa) = 26.78922 49.26008 38.02465
# Shear Modulus (GPa) = 28.89866 8.68611 18.79238
#
# Velocity S-wave (km/s) = 3.65712 2.00499 2.94911
# Velocity P-wave (km/s) = 5.49827 5.30641 5.40319
#
# Compressibility (1/GPa) = 0.03732845
#
# Stress axis : x y z
#
# Youngs Moduli (GPa) = 39.54042 59.93564 91.00127
#
# Poissons Ratio (x) = 0.13574 0.02977
# Poissons Ratio (y) = 0.08955 0.47555
# Poissons Ratio (z) = 0.01294 0.31321
#
# Static dielectric constant tensor:
#      x y z
#    x 1.852740 0.000000 -0.021750 
#    y 0.000000 1.800050 0.000000 
#    z -0.021750 0.000000 1.820200 
# 
# From -- ./inp_files/51337.got.cif
#   From: 2010.05.17/outbox.cif.g08.bks.cpg/sg10_26_cif.got.tgz:51337.got - 2010.06.03 11:33:40.
