data_PCOD9146326
_publ_section_title
;
Structure prediction by ZEFSAII (Michael W. Deem and Ramdas Pophale) SiO2 
 PCOD9146326
Probable space group: P 2/M
;
_chemical_formula_sum "Si O2"
_cell_formula_units_Z 32
_cell_length_a 16.446381
_cell_length_b 14.603312
_cell_length_c 8.301528
_cell_angle_alpha 90.000000
_cell_angle_beta 118.477064
_cell_angle_gamma 90.000000
_cell_volume 1752.558816
_symmetry_space_group_name_H-M "P 2/M"
_symmetry_group_IT_number 10
_symmetry_cell_setting 'monoclinic'
loop_
_space_group_symop_operation_xyz
x,y,z
-x,y,-z
-x,-y,-z
x,-y,z
loop_
_atom_site_type_symbol
_atom_site_label
_atom_site_fract_x
_atom_site_fract_y
_atom_site_fract_z
Si Si1 0.916215 0.742546 0.320790
Si Si2 0.095363 0.825852 0.027086
Si Si3 0.775935 0.605528 0.308138
Si Si4 0.577541 0.606207 0.952802
Si Si5 0.204509 0.892599 0.633074
Si Si6 0.599176 0.739292 0.673862
Si Si7 0.767839 0.259796 0.594931
Si Si8 0.715681 0.101575 0.942051
O O1 0.834917 0.668829 0.244470
O O2 0.883753 0.833493 0.388978
O O3 0.000000 0.701963 0.500000
O O4 0.937028 0.769602 0.159465
O O5 0.145182 0.762157 0.207313
O O6 0.182411 0.884893 0.042803
O O7 0.000000 0.871132 0.000000
O O8 0.805548 0.500000 0.344631
O O9 0.672351 0.608307 0.142487
O O10 0.784000 0.658163 0.485316
O O11 0.554294 0.500000 0.895681
O O12 0.500000 0.644850 0.000000
O O13 0.587208 0.660777 0.796411
O O14 0.243884 0.833695 0.521845
O O15 0.186412 0.000000 0.580059
O O16 0.269763 0.888507 0.852325
O O17 0.500000 0.757544 0.500000
O O18 0.676886 0.718034 0.612743
O O19 0.644508 0.825232 0.808268
O O20 0.683399 0.000000 0.874792
#
# Coordination Sequence:
#
# PCOD9146326 Si02
#       8
#     4   4   4   4   4   4   4   4
#     4  10  20  36  55  77 108 143 184 221 254 316
#     4  10  19  33  54  79 107 140 176 225 280 309
#     4  10  20  36  57  77 104 144 180 214 263 321
#     4  10  21  38  60  83 106 136 178 223 266 319
#     4   9  18  35  57  76 102 142 182 223 268 309
#     4  11  22  35  56  82 112 144 171 215 273 318
#     4  10  20  34  53  81 111 135 172 223 268 318
#     4   9  20  37  54  76 108 145 185 220 254 315
#
# _framework density 18.259017
#
# number of rings (size 3 to 8) (size 9 to 14) (size 15 to 20)
#    0.000    2.125    0.000    5.250    0.000    3.750 
#    0.000    3.125    0.000    3.375    0.000    0.000 
#    0.000    0.000    0.000    0.000    0.000    0.000 
#
# Total GULP energy -178372.362691 kJ/mol
# GULP energy per Si atom -5574.136334 kJ/mol
# Density = 1.821746 g / cm^3
# Si number density = 18.259017 Si / 1000 Ang^3
#
#
#
# Elastic Constant Matrix: (Units=GPa)
#
#
# Indices 1 2 3 4 5 6 
#
# 1 81.6488 33.1739 26.9578 0.0000 -13.3533 0.0000
# 2 33.1739 91.7029 20.4010 0.0000 -11.5654 0.0000
# 3 26.9578 20.4010 70.1488 0.0000 -8.4544 0.0000
# 4 0.0000 0.0000 0.0000 15.4388 0.0000 4.4155
# 5 -13.3533 -11.5654 -8.4544 0.0000 32.1095 0.0000
# 6 0.0000 0.0000 0.0000 4.4155 0.0000 2.5406
#
#
#
# Elastic Compliance Matrix: (Units=1/GPa)
#
#
# Indices 1 2 3 4 5 6 
#
# 1 0.016134 -0.004344 -0.004458 0.000000 0.003971 0.000000
# 2 -0.004344 0.013203 -0.001874 0.000000 0.002455 0.000000
# 3 -0.004458 -0.001874 0.016740 0.000000 0.001878 0.000000
# 4 0.000000 0.000000 0.000000 0.128786 0.000000 -0.223828
# 5 0.003971 0.002455 0.001878 0.000000 0.034174 0.000000
# 6 0.000000 0.000000 0.000000 -0.223828 0.000000 0.782619
#
#
# Mechanical properties :
#
#
# Convention : Reuss Voigt Hill
#
# Bulk Modulus (GPa) = 40.44676 44.95175 42.69925
# Shear Modulus (GPa) = 4.89596 20.88229 12.88912
#
# Velocity S-wave (km/s) = 1.63927 3.38549 2.65977
# Velocity P-wave (km/s) = 5.07767 6.32095 5.73311
#
# Compressibility (1/GPa) = 0.02472386
#
# Stress axis : x y z
#
# Youngs Moduli (GPa) = 61.98116 75.74107 59.73631
#
# Poissons Ratio (x) = 0.32901 0.26632
# Poissons Ratio (y) = 0.26924 0.11197
# Poissons Ratio (z) = 0.27633 0.14197
#
# Static dielectric constant tensor:
#      x y z
#    x 1.641060 0.000000 -0.009290 
#    y 0.000000 1.614660 0.000000 
#    z -0.009290 0.000000 1.623370 
# 
# From -- ./inp_files/29542.got.cif
#   From: 2010.05.17/outbox.cif.g08.bks.cpg/sg10_15_cif.got.tgz:29542.got - 2010.06.03 11:33:40.
