data_PCOD9146440
_publ_section_title
;
Structure prediction by ZEFSAII (Michael W. Deem and Ramdas Pophale) SiO2 
 PCOD9146440
Probable space group: P 2/M
;
_chemical_formula_sum "Si O2"
_cell_formula_units_Z 32
_cell_length_a 14.140158
_cell_length_b 15.836202
_cell_length_c 19.002580
_cell_angle_alpha 90.000000
_cell_angle_beta 22.020758
_cell_angle_gamma 90.000000
_cell_volume 1595.447494
_symmetry_space_group_name_H-M "P 2/M"
_symmetry_group_IT_number 10
_symmetry_cell_setting 'monoclinic'
loop_
_space_group_symop_operation_xyz
x,y,z
-x,y,-z
-x,-y,-z
x,-y,z
loop_
_atom_site_type_symbol
_atom_site_label
_atom_site_fract_x
_atom_site_fract_y
_atom_site_fract_z
Si Si1 0.207118 0.907745 0.293625
Si Si2 0.292877 0.592255 0.706377
Si Si3 0.572883 0.248749 0.554248
Si Si4 0.961828 0.682210 0.837235
Si Si5 0.198597 0.597851 0.199910
Si Si6 0.072887 0.748748 0.554243
Si Si7 0.461827 0.817790 0.837238
Si Si8 0.301403 0.902149 0.800092
O O1 0.471763 0.883537 0.147061
O O2 0.000000 0.913642 0.500000
O O3 0.114332 0.828706 0.312002
O O4 0.212376 0.000000 0.255714
O O5 0.500000 0.586358 0.500000
O O6 0.287616 0.500000 0.744290
O O7 0.385659 0.671294 0.688003
O O8 0.028235 0.616463 0.852938
O O9 0.749995 0.250002 0.500005
O O10 0.427640 0.160753 0.656649
O O11 0.773946 0.266584 0.354200
O O12 0.888976 0.632307 0.816334
O O13 0.750000 0.750000 0.999998
O O14 0.123626 0.500000 0.259224
O O15 0.072362 0.660753 0.343352
O O16 0.500000 0.603649 0.000000
O O17 0.273947 0.766584 0.354196
O O18 0.388973 0.867693 0.816339
O O19 0.376373 0.000000 0.740780
O O20 0.000000 0.896350 0.000000
#
# Coordination Sequence:
#
# PCOD9146440 Si02
#       8
#     4   4   4   4   4   4   4   4
#     4   9  17  31  53  78 102 132 173 217 262 313
#     4   9  17  31  53  78 102 132 173 217 262 313
#     4   9  19  33  52  77 104 137 174 217 266 317
#     4  10  19  33  55  79 108 140 174 219 271 322
#     4  10  20  35  54  75 104 144 183 217 262 321
#     4   9  19  33  52  77 104 137 174 217 266 317
#     4  10  19  33  55  79 108 140 174 219 271 322
#     4  10  20  35  54  75 104 144 183 217 262 321
#
# _framework density 20.057068000000001
#
# number of rings (size 3 to 8) (size 9 to 14) (size 15 to 20)
#    0.000    2.500    0.000    2.250    0.000    6.000 
#    0.000    2.500    0.000   25.500    0.000    0.000 
#    0.000    0.000    0.000    0.000    0.000    0.000 
#
# Total GULP energy -178381.117830 kJ/mol
# GULP energy per Si atom -5574.409932 kJ/mol
# Density = 2.001142 g / cm^3
# Si number density = 20.057068 Si / 1000 Ang^3
#
#
#
# Elastic Constant Matrix: (Units=GPa)
#
#
# Indices 1 2 3 4 5 6 
#
# 1 60.3267 43.0633 3.6414 0.0000 -24.6378 0.0000
# 2 43.0633 215.9757 69.3745 0.0000 -13.0848 0.0000
# 3 3.6414 69.3745 69.1563 0.0000 -16.4448 0.0000
# 4 0.0000 0.0000 0.0000 25.8618 0.0000 0.0973
# 5 -24.6378 -13.0848 -16.4448 0.0000 23.7532 0.0000
# 6 0.0000 0.0000 0.0000 0.0973 0.0000 35.5322
#
#
#
# Elastic Compliance Matrix: (Units=1/GPa)
#
#
# Indices 1 2 3 4 5 6 
#
# 1 0.053538 -0.015973 0.029109 0.000000 0.066885 0.000000
# 2 -0.015973 0.011624 -0.015846 0.000000 -0.021135 0.000000
# 3 0.029109 -0.015846 0.040613 0.000000 0.049581 0.000000
# 4 0.000000 0.000000 0.000000 0.038668 0.000000 -0.000106
# 5 0.066885 -0.021135 0.049581 0.000000 0.134160 0.000000
# 6 0.000000 0.000000 0.000000 -0.000106 0.000000 0.028144
#
#
# Mechanical properties :
#
#
# Convention : Reuss Voigt Hill
#
# Bulk Modulus (GPa) = 9.96450 64.17970 37.07210
# Shear Modulus (GPa) = 14.46687 32.32139 23.39413
#
# Velocity S-wave (km/s) = 2.68859 4.01867 3.41893
# Velocity P-wave (km/s) = 3.82320 7.32127 5.84028
#
# Compressibility (1/GPa) = 0.10035627
#
# Stress axis : x y z
#
# Youngs Moduli (GPa) = 18.67839 86.02581 24.62266
#
# Poissons Ratio (x) = 1.37408 -0.71674
# Poissons Ratio (y) = 0.29835 0.39016
# Poissons Ratio (z) = -0.54371 1.36314
#
# Static dielectric constant tensor:
#      x y z
#    x 1.768810 0.000000 0.028370 
#    y 0.000000 1.737410 0.000000 
#    z 0.028370 0.000000 1.739580 
# 
# From -- ./inp_files/82817.got.cif
#   From: 2010.05.17/outbox.cif.g08.bks.cpg/sg10_42_cif.got.tgz:82817.got - 2010.06.03 11:33:40.
