data_PCOD9146063
_publ_section_title
;
Structure prediction by ZEFSAII (Michael W. Deem and Ramdas Pophale) SiO2 
 PCOD9146063
Probable space group: P 2/M
;
_chemical_formula_sum "Si O2"
_cell_formula_units_Z 29
_cell_length_a 8.468265
_cell_length_b 16.335920
_cell_length_c 15.026589
_cell_angle_alpha 90.000000
_cell_angle_beta 45.031378
_cell_angle_gamma 90.000000
_cell_volume 1470.690066
_symmetry_space_group_name_H-M "P 2/M"
_symmetry_group_IT_number 10
_symmetry_cell_setting 'monoclinic'
loop_
_space_group_symop_operation_xyz
x,y,z
-x,y,-z
-x,-y,-z
x,-y,z
loop_
_atom_site_type_symbol
_atom_site_label
_atom_site_fract_x
_atom_site_fract_y
_atom_site_fract_z
Si Si1 0.218790 0.413678 0.972218
Si Si2 0.630457 0.406286 0.673172
Si Si3 0.908562 0.721704 0.661381
Si Si4 0.679259 0.088571 0.010622
Si Si5 0.000000 0.000000 0.500000
Si Si6 0.389129 0.134622 0.296823
Si Si7 0.580372 0.255447 0.569442
Si Si8 0.765578 0.742121 0.913536
O O1 0.233586 0.500000 0.018633
O O2 0.433808 0.408811 0.823973
O O3 0.200991 0.332453 0.034838
O O4 0.000000 0.417366 0.000000
O O5 0.675718 0.500000 0.626523
O O6 0.835747 0.362390 0.642905
O O7 0.546120 0.343936 0.629901
O O8 0.728278 0.788780 0.704823
O O9 0.896278 0.720767 0.772198
O O10 0.151099 0.751021 0.536752
O O11 0.553116 0.099026 0.155490
O O12 0.795868 0.000000 0.963230
O O13 0.500000 0.085791 0.000000
O O14 0.822052 0.169383 0.932487
O O15 0.195488 0.071223 0.402486
O O16 0.502985 0.179222 0.336873
O O17 0.500000 0.252982 0.500000
O O18 0.500000 0.744045 0.000000
#
# Coordination Sequence:
#
# PCOD9146063 Si02
#       8
#     4   4   4   4   1   4   4   4
#     4  10  22  38  58  87 120 156 196 241 301 366
#     4  10  21  40  63  86 117 157 202 252 299 354
#     4  11  21  38  59  87 119 153 203 251 296 361
#     4  10  19  32  58  93 119 147 192 248 300 351
#     4  12  20  32  64  92 106 164 214 242 292 352
#     4  11  19  37  61  85 120 155 199 253 298 351
#     4  11  25  40  58  86 122 163 204 249 303 362
#     4  11  19  35  59  88 117 153 193 244 303 355
#
# _framework density 19.718634000000002
#
# number of rings (size 3 to 8) (size 9 to 14) (size 15 to 20)
#    0.000    1.379    6.207    2.069    1.931    2.207 
#    0.000    0.345    0.000    0.414    0.000    0.000 
#    0.000    0.000    0.000    0.000    0.000    0.000 
#
# Total GULP energy -161439.783451 kJ/mol
# GULP energy per Si atom -5566.889085 kJ/mol
# Density = 1.967375 g / cm^3
# Si number density = 19.718634 Si / 1000 Ang^3
#
#
#
# Elastic Constant Matrix: (Units=GPa)
#
#
# Indices 1 2 3 4 5 6 
#
# 1 42.3412 37.6383 14.7489 0.0000 20.4518 0.0000
# 2 37.6383 177.7621 32.0552 0.0000 34.4795 0.0000
# 3 14.7489 32.0552 77.1502 0.0000 25.4239 0.0000
# 4 0.0000 0.0000 0.0000 -4.0875 0.0000 -14.6752
# 5 20.4518 34.4795 25.4239 0.0000 30.4138 0.0000
# 6 0.0000 0.0000 0.0000 -14.6752 0.0000 23.2742
#
#
#
# Elastic Compliance Matrix: (Units=1/GPa)
#
#
# Indices 1 2 3 4 5 6 
#
# 1 0.037102 -0.003908 0.001784 0.000000 -0.022010 0.000000
# 2 -0.003908 0.007633 -0.000606 0.000000 -0.005519 0.000000
# 3 0.001784 -0.000606 0.018000 0.000000 -0.015560 0.000000
# 4 0.000000 0.000000 0.000000 -0.074958 0.000000 -0.047264
# 5 -0.022010 -0.005519 -0.015560 0.000000 0.066943 0.000000
# 6 0.000000 0.000000 0.000000 -0.047264 0.000000 0.013164
#
#
# Mechanical properties :
#
#
# Convention : Reuss Voigt Hill
#
# Bulk Modulus (GPa) = 17.45979 51.79314 34.62646
# Shear Modulus (GPa) = 54.09231 24.10751 39.09991
#
# Velocity S-wave (km/s) = 5.24325 3.50033 4.45780
# Velocity P-wave (km/s) = 6.74753 6.53142 6.64036
#
# Compressibility (1/GPa) = 0.05727447
#
# Stress axis : x y z
#
# Youngs Moduli (GPa) = 26.95305 131.01644 55.55610
#
# Poissons Ratio (x) = 0.51205 -0.09912
# Poissons Ratio (y) = 0.10534 0.03364
# Poissons Ratio (z) = -0.04809 0.07933
#
# Static dielectric constant tensor:
#      x y z
#    x 1.704380 0.000000 0.032040 
#    y 0.000000 1.736970 0.000000 
#    z 0.032040 0.000000 1.728970 
# 
# From -- ./inp_files/61800.got.cif
#   From: 2010.05.17/outbox.cif.g08.bks.cpg/sg10_31_cif.got.tgz:61800.got - 2010.06.03 11:33:40.
