data_PCOD9146909
_publ_section_title
;
Structure prediction by ZEFSAII (Michael W. Deem and Ramdas Pophale) SiO2 
 PCOD9146909
Probable space group: P 2/M
;
_chemical_formula_sum "Si O2"
_cell_formula_units_Z 28
_cell_length_a 20.119825
_cell_length_b 8.759359
_cell_length_c 15.697545
_cell_angle_alpha 90.000000
_cell_angle_beta 143.864951
_cell_angle_gamma 90.000000
_cell_volume 1631.369736
_symmetry_space_group_name_H-M "P 2/M"
_symmetry_group_IT_number 10
_symmetry_cell_setting 'monoclinic'
loop_
_space_group_symop_operation_xyz
x,y,z
-x,y,-z
-x,-y,-z
x,-y,z
loop_
_atom_site_type_symbol
_atom_site_label
_atom_site_fract_x
_atom_site_fract_y
_atom_site_fract_z
Si Si1 0.847192 0.180719 0.012799
Si Si2 0.096965 0.684997 0.292114
Si Si3 0.863399 0.324561 0.852346
Si Si4 0.248702 0.315505 0.610460
Si Si5 0.500490 0.685475 0.099198
Si Si6 0.270033 0.683188 0.949794
Si Si7 0.870131 0.182421 0.346965
O O1 0.760057 0.251581 0.989300
O O2 0.971840 0.245881 0.163950
O O3 0.849551 0.000000 0.023482
O O4 0.821624 0.228390 0.889016
O O5 0.085836 0.500000 0.278428
O O6 0.157086 0.729855 0.265272
O O7 0.170658 0.728166 0.450022
O O8 0.825474 0.500000 0.822300
O O9 0.000000 0.325007 0.000000
O O10 0.243279 0.500000 0.613679
O O11 0.379741 0.272744 0.735923
O O12 0.202559 0.241784 0.648914
O O13 0.495304 0.500000 0.091746
O O14 0.500000 0.736871 0.000000
O O15 0.390318 0.736243 0.036423
O O16 0.269096 0.500000 0.951808
O O17 0.175645 0.739740 0.785689
O O18 0.000000 0.221292 0.500000
O O19 0.860620 0.000000 0.329025
#
# Coordination Sequence:
#
# PCOD9146909 Si02
#       7
#     4   4   4   4   4   4   4
#     4  11  21  32  49  76 108 136 167 206 251 304
#     4   9  18  32  53  79 105 134 168 206 249 302
#     4   8  15  30  50  74 103 133 168 206 246 297
#     4  10  19  34  55  76  99 130 169 208 251 300
#     4   9  17  33  55  77  96 123 170 219 253 289
#     4  11  21  35  55  73  97 133 171 211 253 297
#     4  11  23  35  47  71 106 136 163 202 250 299
#
# _framework density 17.163491
#
# number of rings (size 3 to 8) (size 9 to 14) (size 15 to 20)
#    0.000    2.143    1.429    3.857    0.000    6.571 
#    0.000    2.143    0.000    0.857    0.000    6.000 
#    0.000    0.000    0.000    0.000    0.000    0.000 
#
# Total GULP energy -156214.037295 kJ/mol
# GULP energy per Si atom -5579.072761 kJ/mol
# Density = 1.712443 g / cm^3
# Si number density = 17.163491 Si / 1000 Ang^3
#
#
#
# Elastic Constant Matrix: (Units=GPa)
#
#
# Indices 1 2 3 4 5 6 
#
# 1 123.8621 31.7319 18.0574 0.0000 0.3460 0.0000
# 2 31.7319 35.0537 8.3828 0.0000 2.5568 0.0000
# 3 18.0574 8.3828 14.5972 0.0000 5.8325 0.0000
# 4 0.0000 0.0000 0.0000 4.4052 0.0000 -10.6230
# 5 0.3460 2.5568 5.8325 0.0000 28.8156 0.0000
# 6 0.0000 0.0000 0.0000 -10.6230 0.0000 -11.7683
#
#
#
# Elastic Compliance Matrix: (Units=1/GPa)
#
#
# Indices 1 2 3 4 5 6 
#
# 1 0.011774 -0.008244 -0.010953 0.000000 0.002807 0.000000
# 2 -0.008244 0.038867 -0.011733 0.000000 -0.000975 0.000000
# 3 -0.010953 -0.011733 0.096096 0.000000 -0.018278 0.000000
# 4 0.000000 0.000000 0.000000 0.071457 0.000000 -0.064503
# 5 0.002807 -0.000975 -0.018278 0.000000 0.038456 0.000000
# 6 0.000000 0.000000 0.000000 -0.064503 0.000000 -0.026748
#
#
# Mechanical properties :
#
#
# Convention : Reuss Voigt Hill
#
# Bulk Modulus (GPa) = 11.78142 32.20635 21.99389
# Shear Modulus (GPa) = 15.62232 11.97991 13.80111
#
# Velocity S-wave (km/s) = 3.02024 2.64481 2.83874
# Velocity P-wave (km/s) = 4.36366 5.30395 4.85662
#
# Compressibility (1/GPa) = 0.08487940
#
# Stress axis : x y z
#
# Youngs Moduli (GPa) = 84.92954 25.72854 10.40621
#
# Poissons Ratio (x) = 0.21211 0.11398
# Poissons Ratio (y) = 0.70017 0.12209
# Poissons Ratio (z) = 0.93021 0.30186
#
# Static dielectric constant tensor:
#      x y z
#    x 1.582980 0.000000 -0.008560 
#    y 0.000000 1.576320 0.000000 
#    z -0.008560 0.000000 1.573430 
# 
# From -- ./inp_files/54975.got.cif
#   From: 2010.05.17/outbox.cif.g08.bks.cpg/sg10_28_cif.got.tgz:54975.got - 2010.06.03 11:33:40.
