data_PCOD9146005
_publ_section_title
;
Structure prediction by ZEFSAII (Michael W. Deem and Ramdas Pophale) SiO2 
 PCOD9146005
Probable space group: P 2/M
;
_chemical_formula_sum "Si O2"
_cell_formula_units_Z 28
_cell_length_a 12.054719
_cell_length_b 7.441257
_cell_length_c 16.076480
_cell_angle_alpha 90.000000
_cell_angle_beta 122.691405
_cell_angle_gamma 90.000000
_cell_volume 1213.656714
_symmetry_space_group_name_H-M "P 2/M"
_symmetry_group_IT_number 10
_symmetry_cell_setting 'monoclinic'
loop_
_space_group_symop_operation_xyz
x,y,z
-x,y,-z
-x,-y,-z
x,-y,z
loop_
_atom_site_type_symbol
_atom_site_label
_atom_site_fract_x
_atom_site_fract_y
_atom_site_fract_z
Si Si1 0.684363 0.285385 0.738878
Si Si2 0.416721 0.215462 0.703358
Si Si3 0.436557 0.206418 0.891761
Si Si4 0.837393 0.282279 0.147239
Si Si5 0.139350 0.209164 0.527466
Si Si6 0.874418 0.282200 0.670766
Si Si7 0.149290 0.718926 0.036750
O O1 0.701965 0.500000 0.746445
O O2 0.529732 0.249458 0.681864
O O3 0.762967 0.219475 0.690212
O O4 0.753609 0.217214 0.851509
O O5 0.462675 0.287677 0.811975
O O6 0.273245 0.286560 0.620358
O O7 0.405961 0.000000 0.707453
O O8 0.279969 0.211058 0.843476
O O9 0.483974 0.000000 0.908378
O O10 0.500000 0.291163 0.000000
O O11 0.832026 0.500000 0.147205
O O12 0.981572 0.227907 0.237303
O O13 0.817713 0.223819 0.043541
O O14 0.147265 0.218876 0.431376
O O15 0.000000 0.289782 0.500000
O O16 0.136578 0.000000 0.552179
O O17 0.873112 0.500000 0.668637
O O18 0.152129 0.500000 0.037039
O O19 0.000000 0.770119 0.000000
#
# Coordination Sequence:
#
# PCOD9146005 Si02
#       7
#     4   4   4   4   4   4   4
#     4  10  20  35  57  84 114 147 182 221 271 329
#     4  10  22  39  57  79 110 146 183 226 274 327
#     4  10  21  37  56  79 111 147 181 224 277 326
#     4  10  19  32  55  84 111 142 183 227 271 324
#     4  10  22  41  62  80 103 143 190 228 271 329
#     4  10  21  36  56  85 114 140 178 230 279 320
#     4   9  15  29  53  79 111 148 180 213 260 320
#
# _framework density 23.070774
#
# number of rings (size 3 to 8) (size 9 to 14) (size 15 to 20)
#    0.000    2.143    1.429    1.714    0.000    4.571 
#    0.000    2.857    0.000    0.857    0.000    0.000 
#    0.000    0.000    0.000    0.000    0.000    0.000 
#
# Total GULP energy -156549.856513 kJ/mol
# GULP energy per Si atom -5591.066304 kJ/mol
# Density = 2.301826 g / cm^3
# Si number density = 23.070774 Si / 1000 Ang^3
#
#
#
# Elastic Constant Matrix: (Units=GPa)
#
#
# Indices 1 2 3 4 5 6 
#
# 1 142.1590 -10.9618 44.8260 0.0000 7.8707 0.0000
# 2 -10.9618 72.9429 -4.0687 0.0000 4.2971 0.0000
# 3 44.8260 -4.0687 104.5740 0.0000 2.8341 0.0000
# 4 0.0000 0.0000 0.0000 7.7560 0.0000 5.0329
# 5 7.8707 4.2971 2.8341 0.0000 38.3657 0.0000
# 6 0.0000 0.0000 0.0000 5.0329 0.0000 15.5872
#
#
#
# Elastic Compliance Matrix: (Units=1/GPa)
#
#
# Indices 1 2 3 4 5 6 
#
# 1 0.008305 0.001147 -0.003473 0.000000 -0.001576 0.000000
# 2 0.001147 0.013994 0.000102 0.000000 -0.001810 0.000000
# 3 -0.003473 0.000102 0.011058 0.000000 -0.000116 0.000000
# 4 0.000000 0.000000 0.000000 0.163108 0.000000 -0.052665
# 5 -0.001576 -0.001810 -0.000116 0.000000 0.026600 0.000000
# 6 0.000000 0.000000 0.000000 -0.052665 0.000000 0.081160
#
#
# Mechanical properties :
#
#
# Convention : Reuss Voigt Hill
#
# Bulk Modulus (GPa) = 34.59002 42.14076 38.36539
# Shear Modulus (GPa) = 15.70800 31.66715 23.68758
#
# Velocity S-wave (km/s) = 2.61216 3.70889 3.20775
# Velocity P-wave (km/s) = 4.91156 6.05365 5.51226
#
# Compressibility (1/GPa) = 0.02891008
#
# Stress axis : x y z
#
# Youngs Moduli (GPa) = 120.40815 71.45884 90.43005
#
# Poissons Ratio (x) = -0.08198 0.31403
# Poissons Ratio (y) = -0.13813 -0.00920
# Poissons Ratio (z) = 0.41814 -0.00727
#
# Static dielectric constant tensor:
#      x y z
#    x 1.835360 0.000000 0.008640 
#    y 0.000000 1.910740 0.000000 
#    z 0.008640 0.000000 1.841680 
# 
# From -- ./inp_files/28670.got.cif
#   From: 2010.05.17/outbox.cif.g08.bks.cpg/sg10_15_cif.got.tgz:28670.got - 2010.06.03 11:33:40.
