data_PCOD9146484
_publ_section_title
;
Structure prediction by ZEFSAII (Michael W. Deem and Ramdas Pophale) SiO2 
 PCOD9146484
Probable space group: P 2/M
;
_chemical_formula_sum "Si O2"
_cell_formula_units_Z 32
_cell_length_a 30.750385
_cell_length_b 7.369914
_cell_length_c 12.710377
_cell_angle_alpha 90.000000
_cell_angle_beta 28.136802
_cell_angle_gamma 90.000000
_cell_volume 1358.392590
_symmetry_space_group_name_H-M "P 2/M"
_symmetry_group_IT_number 10
_symmetry_cell_setting 'monoclinic'
loop_
_space_group_symop_operation_xyz
x,y,z
-x,y,-z
-x,-y,-z
x,-y,z
loop_
_atom_site_type_symbol
_atom_site_label
_atom_site_fract_x
_atom_site_fract_y
_atom_site_fract_z
Si Si1 0.239641 0.279832 0.168188
Si Si2 0.616169 0.720721 0.508273
Si Si3 0.211118 0.288128 0.996719
Si Si4 0.091184 0.207601 0.657863
Si Si5 0.094930 0.781421 0.048950
Si Si6 0.399077 0.794723 0.220006
Si Si7 0.547998 0.279607 0.288875
Si Si8 0.797599 0.777358 0.384167
O O1 0.236205 0.500000 0.182334
O O2 0.201490 0.218334 0.135490
O O3 0.176860 0.209396 0.395752
O O4 0.346401 0.222370 0.946626
O O5 0.619817 0.500000 0.508033
O O6 0.624351 0.798186 0.606632
O O7 0.519070 0.771837 0.663004
O O8 0.699427 0.784376 0.255885
O O9 0.231840 0.500000 0.966954
O O10 0.125702 0.273121 0.099737
O O11 0.127992 0.285317 0.688961
O O12 0.003350 0.285788 0.784175
O O13 0.064654 0.000000 0.739423
O O14 0.093910 0.000000 0.052836
O O15 0.169492 0.723017 0.802245
O O16 0.306236 0.714928 0.367922
O O17 0.409323 0.000000 0.156020
O O18 0.500000 0.706598 0.000000
O O19 0.500000 0.220346 0.500000
O O20 0.549387 0.500000 0.289291
O O21 0.795151 0.000000 0.391540
#
# Coordination Sequence:
#
# PCOD9146484 Si02
#       8
#     4   4   4   4   4   4   4   4
#     4  10  21  37  56  81 113 147 181 220 273 328
#     4  10  19  33  55  81 107 139 181 224 262 311
#     4  10  20  35  57  83 111 143 181 226 272 321
#     4  10  22  38  57  81 108 141 184 231 275 320
#     4  10  20  37  61  82 102 139 188 231 272 324
#     4  10  21  35  53  80 112 143 173 214 273 330
#     4   9  16  31  55  78 103 139 179 213 251 310
#     4   9  18  36  58  79 106 141 180 221 268 326
#
# _framework density 23.557255000000001
#
# number of rings (size 3 to 8) (size 9 to 14) (size 15 to 20)
#    0.000    2.250    2.500    0.375    1.750    3.250 
#    0.000    3.750    0.000    2.250    0.000    0.000 
#    0.000    0.000    0.000    0.000    0.000    0.000 
#
# Total GULP energy -178816.460248 kJ/mol
# GULP energy per Si atom -5588.014383 kJ/mol
# Density = 2.350364 g / cm^3
# Si number density = 23.557255 Si / 1000 Ang^3
#
#
#
# Elastic Constant Matrix: (Units=GPa)
#
#
# Indices 1 2 3 4 5 6 
#
# 1 109.9396 -10.7327 -5.3374 0.0000 -20.2047 0.0000
# 2 -10.7327 87.0340 -9.5043 0.0000 -0.7326 0.0000
# 3 -5.3374 -9.5043 49.2500 0.0000 -18.1341 0.0000
# 4 0.0000 0.0000 0.0000 11.5869 0.0000 -2.1052
# 5 -20.2047 -0.7326 -18.1341 0.0000 45.4229 0.0000
# 6 0.0000 0.0000 0.0000 -2.1052 0.0000 28.1799
#
#
#
# Elastic Compliance Matrix: (Units=1/GPa)
#
#
# Indices 1 2 3 4 5 6 
#
# 1 0.010604 0.001775 0.003797 0.000000 0.006262 0.000000
# 2 0.001775 0.012098 0.003388 0.000000 0.002337 0.000000
# 3 0.003797 0.003388 0.025805 0.000000 0.012046 0.000000
# 4 0.000000 0.000000 0.000000 0.087492 0.000000 0.006536
# 5 0.006262 0.002337 0.012046 0.000000 0.029647 0.000000
# 6 0.000000 0.000000 0.000000 0.006536 0.000000 0.035975
#
#
# Mechanical properties :
#
#
# Convention : Reuss Voigt Hill
#
# Bulk Modulus (GPa) = 15.05392 21.67497 18.36445
# Shear Modulus (GPa) = 24.29020 35.15779 29.72399
#
# Velocity S-wave (km/s) = 3.21458 3.86740 3.55600
# Velocity P-wave (km/s) = 4.49247 5.40031 4.96717
#
# Compressibility (1/GPa) = 0.06642786
#
# Stress axis : x y z
#
# Youngs Moduli (GPa) = 94.30139 82.65648 38.75185
#
# Poissons Ratio (x) = -0.14672 -0.14715
# Poissons Ratio (y) = -0.16739 -0.13128
# Poissons Ratio (z) = -0.35809 -0.28001
#
# Static dielectric constant tensor:
#      x y z
#    x 1.875270 0.000000 -0.038570 
#    y 0.000000 1.941990 0.000000 
#    z -0.038570 0.000000 1.857380 
# 
# From -- ./inp_files/49888.got.cif
#   From: 2010.05.17/outbox.cif.g08.bks.cpg/sg10_25_cif.got.tgz:49888.got - 2010.06.03 11:33:40.
