data_PCOD9146333
_publ_section_title
;
Structure prediction by ZEFSAII (Michael W. Deem and Ramdas Pophale) SiO2 
 PCOD9146333
Probable space group: P 2/M
;
_chemical_formula_sum "Si O2"
_cell_formula_units_Z 28
_cell_length_a 15.180522
_cell_length_b 11.350924
_cell_length_c 10.245187
_cell_angle_alpha 90.000000
_cell_angle_beta 80.678639
_cell_angle_gamma 90.000000
_cell_volume 1742.067293
_symmetry_space_group_name_H-M "P 2/M"
_symmetry_group_IT_number 10
_symmetry_cell_setting 'monoclinic'
loop_
_space_group_symop_operation_xyz
x,y,z
-x,y,-z
-x,-y,-z
x,-y,z
loop_
_atom_site_type_symbol
_atom_site_label
_atom_site_fract_x
_atom_site_fract_y
_atom_site_fract_z
Si Si1 0.419665 0.141433 0.920447
Si Si2 0.942845 0.860961 0.890597
Si Si3 0.574047 0.857629 0.381410
Si Si4 0.955949 0.748006 0.369749
Si Si5 0.221362 0.142204 0.675763
Si Si6 0.229378 0.245166 0.965997
Si Si7 0.985966 0.500000 0.221996
Si Si8 0.849932 0.500000 0.011381
O O1 0.442878 0.175215 0.765449
O O2 0.329111 0.208410 0.978961
O O3 0.401681 0.000000 0.925412
O O4 0.500000 0.164566 0.000000
O O5 0.993477 0.829705 0.747067
O O6 0.936046 0.000000 0.908717
O O7 0.844936 0.807142 0.920300
O O8 0.000000 0.811671 0.000000
O O9 0.500000 0.812141 0.500000
O O10 0.676917 0.827783 0.388827
O O11 0.570040 0.000000 0.386108
O O12 0.853609 0.791446 0.389445
O O13 0.968903 0.616258 0.311297
O O14 0.000000 0.758532 0.500000
O O15 0.211792 0.186037 0.827978
O O16 0.209968 0.000000 0.674356
O O17 0.210093 0.383537 0.967107
O O18 0.084067 0.500000 0.130618
O O19 0.915786 0.500000 0.119853
#
# Coordination Sequence:
#
# PCOD9146333 Si02
#       8
#     4   4   4   4   4   4   2   2
#     4   9  18  33  54  80 111 138 168 217 274 331
#     4  11  20  33  55  80 111 145 179 222 273 327
#     4   8  15  30  51  73  99 136 174 207 252 315
#     4  12  24  37  52  77 112 147 180 224 274 323
#     4  10  19  33  54  79 110 140 176 223 270 326
#     4  11  19  34  56  84 103 140 186 226 270 315
#     4  11  21  40  54  76 104 147 191 233 263 311
#     4  11  20  34  63  80  98 135 200 242 250 309
#
# _framework density 16.072858
#
# number of rings (size 3 to 8) (size 9 to 14) (size 15 to 20)
#    0.000    1.714    4.286    2.786    0.000    1.143 
#    2.571    0.357    0.000    0.000    0.000   12.500 
#    0.000    0.000    0.000    0.000    0.000    0.000 
#
# Total GULP energy -156183.847770 kJ/mol
# GULP energy per Si atom -5577.994563 kJ/mol
# Density = 1.603628 g / cm^3
# Si number density = 16.072858 Si / 1000 Ang^3
#
#
#
# Elastic Constant Matrix: (Units=GPa)
#
#
# Indices 1 2 3 4 5 6 
#
# 1 145.5771 43.4449 69.2260 0.0000 1.0167 0.0000
# 2 43.4449 67.4872 18.6859 0.0000 5.3337 0.0000
# 3 69.2260 18.6859 81.7517 0.0000 1.1821 0.0000
# 4 0.0000 0.0000 0.0000 2.3655 0.0000 5.5954
# 5 1.0167 5.3337 1.1821 0.0000 29.0050 0.0000
# 6 0.0000 0.0000 0.0000 5.5954 0.0000 10.7905
#
#
#
# Elastic Compliance Matrix: (Units=1/GPa)
#
#
# Indices 1 2 3 4 5 6 
#
# 1 0.013383 -0.005930 -0.009992 0.000000 0.001029 0.000000
# 2 -0.005930 0.018671 0.000801 0.000000 -0.003258 0.000000
# 3 -0.009992 0.000801 0.020519 0.000000 -0.000633 0.000000
# 4 0.000000 0.000000 0.000000 -1.865814 0.000000 0.967508
# 5 0.001029 -0.003258 -0.000633 0.000000 0.035066 0.000000
# 6 0.000000 0.000000 0.000000 0.967508 0.000000 -0.409022
#
#
# Mechanical properties :
#
#
# Convention : Reuss Voigt Hill
#
# Bulk Modulus (GPa) = 44.78060 61.94774 53.36417
# Shear Modulus (GPa) = -2.32611 19.32949 8.50169
#
# Velocity S-wave (km/s) = -1.20431 3.47164 2.30238
# Velocity P-wave (km/s) = 5.09781 7.39562 6.35149
#
# Compressibility (1/GPa) = 0.02233110
#
# Stress axis : x y z
#
# Youngs Moduli (GPa) = 74.71956 53.55934 48.73418
#
# Poissons Ratio (x) = 0.31762 0.48696
# Poissons Ratio (y) = 0.44310 -0.03904
# Poissons Ratio (z) = 0.74662 -0.04291
#
# Static dielectric constant tensor:
#      x y z
#    x 1.544200 0.000000 -0.010530 
#    y 0.000000 1.535160 0.000000 
#    z -0.010530 0.000000 1.535580 
# 
# From -- ./inp_files/27872.got.cif
#   From: 2010.05.17/outbox.cif.g08.bks.cpg/sg10_14_cif.got.tgz:27872.got - 2010.06.03 11:33:40.
