data_PCOD9146119
_publ_section_title
;
Structure prediction by ZEFSAII (Michael W. Deem and Ramdas Pophale) SiO2 
 PCOD9146119
Probable space group: P 2/M
;
_chemical_formula_sum "Si O2"
_cell_formula_units_Z 32
_cell_length_a 12.853720
_cell_length_b 18.965579
_cell_length_c 9.461093
_cell_angle_alpha 90.000000
_cell_angle_beta 47.297003
_cell_angle_gamma 90.000000
_cell_volume 1694.931540
_symmetry_space_group_name_H-M "P 2/M"
_symmetry_group_IT_number 10
_symmetry_cell_setting 'monoclinic'
loop_
_space_group_symop_operation_xyz
x,y,z
-x,y,-z
-x,-y,-z
x,-y,z
loop_
_atom_site_type_symbol
_atom_site_label
_atom_site_fract_x
_atom_site_fract_y
_atom_site_fract_z
Si Si1 0.318760 0.808980 0.888482
Si Si2 0.655028 0.193429 0.597200
Si Si3 0.334452 0.310459 0.656469
Si Si4 0.647618 0.582065 0.814085
Si Si5 0.089745 0.623796 0.284653
Si Si6 0.175420 0.415483 0.628851
Si Si7 0.670867 0.920121 0.362313
Si Si8 0.149800 0.214545 0.313656
O O1 0.485525 0.811074 0.774145
O O2 0.298767 0.732702 0.831334
O O3 0.282864 0.868739 0.806629
O O4 0.223698 0.819996 0.111882
O O5 0.681661 0.252928 0.454044
O O6 0.700472 0.119924 0.481891
O O7 0.741962 0.212171 0.655842
O O8 0.500000 0.330576 0.500000
O O9 0.239254 0.376720 0.705450
O O10 0.620287 0.500000 0.809715
O O11 0.757654 0.588843 0.841902
O O12 0.726086 0.607642 0.598212
O O13 0.500000 0.616303 0.000000
O O14 0.116039 0.705647 0.294179
O O15 0.000000 0.592980 0.500000
O O16 0.984687 0.610108 0.253088
O O17 0.177887 0.500000 0.635351
O O18 0.500000 0.921878 0.500000
O O19 0.723661 0.000000 0.307747
O O20 0.000000 0.183339 0.500000
#
# Coordination Sequence:
#
# PCOD9146119 Si02
#       8
#     4   4   4   4   4   4   4   4
#     4   9  19  34  56  82 109 141 176 221 267 316
#     4   9  17  33  56  82 110 138 177 223 265 310
#     4   9  18  33  52  77 106 138 178 221 271 328
#     4   9  17  28  45  72 101 128 164 213 270 328
#     4   9  18  31  47  69  98 134 173 214 266 319
#     4  10  19  33  52  71  99 140 181 223 272 328
#     4   8  15  32  59  87 113 144 181 216 253 305
#     4  11  21  33  52  79 107 137 178 224 269 315
#
# _framework density 18.879818
#
# number of rings (size 3 to 8) (size 9 to 14) (size 15 to 20)
#    0.000    2.750    0.000    4.500    0.000    4.750 
#    0.000    6.250    0.000    7.500    0.000    0.000 
#    0.000    0.000    0.000    0.000    0.000    0.000 
#
# Total GULP energy -178366.792796 kJ/mol
# GULP energy per Si atom -5573.962275 kJ/mol
# Density = 1.883685 g / cm^3
# Si number density = 18.879818 Si / 1000 Ang^3
#
#
#
# Elastic Constant Matrix: (Units=GPa)
#
#
# Indices 1 2 3 4 5 6 
#
# 1 114.1849 50.4149 43.8050 0.0000 0.2353 0.0000
# 2 50.4149 77.1711 14.1426 0.0000 -0.9589 0.0000
# 3 43.8050 14.1426 94.2891 0.0000 -2.4478 0.0000
# 4 0.0000 0.0000 0.0000 8.4774 0.0000 1.8449
# 5 0.2353 -0.9589 -2.4478 0.0000 16.8067 0.0000
# 6 0.0000 0.0000 0.0000 1.8449 0.0000 16.0560
#
#
#
# Elastic Compliance Matrix: (Units=1/GPa)
#
#
# Indices 1 2 3 4 5 6 
#
# 1 0.014697 -0.008598 -0.005577 0.000000 -0.001509 0.000000
# 2 -0.008598 0.018358 0.001276 0.000000 0.001354 0.000000
# 3 -0.005577 0.001276 0.013059 0.000000 0.002053 0.000000
# 4 0.000000 0.000000 0.000000 0.120986 0.000000 -0.013902
# 5 -0.001509 0.001354 0.002053 0.000000 0.059897 0.000000
# 6 0.000000 0.000000 0.000000 -0.013902 0.000000 0.063879
#
#
# Mechanical properties :
#
#
# Convention : Reuss Voigt Hill
#
# Bulk Modulus (GPa) = 49.22460 55.81890 52.52175
# Shear Modulus (GPa) = 15.45851 20.08685 17.77268
#
# Velocity S-wave (km/s) = 2.86455 3.26534 3.07149
# Velocity P-wave (km/s) = 6.08852 6.62164 6.36067
#
# Compressibility (1/GPa) = 0.02031505
#
# Stress axis : x y z
#
# Youngs Moduli (GPa) = 68.04327 54.47225 76.57719
#
# Poissons Ratio (x) = 0.46834 0.42710
# Poissons Ratio (y) = 0.58502 -0.09771
# Poissons Ratio (z) = 0.37950 -0.06950
#
# Static dielectric constant tensor:
#      x y z
#    x 1.667950 0.000000 -0.000460 
#    y 0.000000 1.659070 0.000000 
#    z -0.000460 0.000000 1.698210 
# 
# From -- ./inp_files/26060.got.cif
#   From: 2010.05.17/outbox.cif.g08.bks.cpg/sg10_14_cif.got.tgz:26060.got - 2010.06.03 11:33:40.
