data_PCOD9146068
_publ_section_title
;
Structure prediction by ZEFSAII (Michael W. Deem and Ramdas Pophale) SiO2 
 PCOD9146068
Probable space group: P 2/M
;
_chemical_formula_sum "Si O2"
_cell_formula_units_Z 26
_cell_length_a 11.515490
_cell_length_b 8.062181
_cell_length_c 15.598619
_cell_angle_alpha 90.000000
_cell_angle_beta 113.251409
_cell_angle_gamma 90.000000
_cell_volume 1330.556620
_symmetry_space_group_name_H-M "P 2/M"
_symmetry_group_IT_number 10
_symmetry_cell_setting 'monoclinic'
loop_
_space_group_symop_operation_xyz
x,y,z
-x,y,-z
-x,-y,-z
x,-y,z
loop_
_atom_site_type_symbol
_atom_site_label
_atom_site_fract_x
_atom_site_fract_y
_atom_site_fract_z
Si Si1 0.053178 0.000000 0.611338
Si Si2 0.195293 0.194595 0.888618
Si Si3 0.022782 0.690073 0.294795
Si Si4 0.272608 0.683737 0.083983
Si Si5 0.533615 0.000000 0.609313
Si Si6 0.450647 0.758991 0.893120
Si Si7 0.294026 0.693734 0.286664
Si Si8 0.356242 0.000000 0.718830
O O1 0.205712 0.000000 0.663404
O O2 0.000000 0.000000 0.500000
O O3 0.004959 0.833274 0.644469
O O4 0.313270 0.300930 0.885342
O O5 0.068931 0.265276 0.811263
O O6 0.212711 0.000000 0.868787
O O7 0.204461 0.206123 0.993316
O O8 0.997795 0.500000 0.316090
O O9 0.166126 0.699483 0.304112
O O10 0.217096 0.500000 0.062428
O O11 0.420845 0.674191 0.100744
O O12 0.265289 0.739864 0.179497
O O13 0.500000 0.000000 0.500000
O O14 0.611443 0.831987 0.651090
O O15 0.419183 0.000000 0.644013
O O16 0.408141 0.852580 0.794274
O O17 0.500000 0.832598 0.000000
O O18 0.339220 0.500000 0.299859
#
# Coordination Sequence:
#
# PCOD9146068 Si02
#       8
#     2   4   4   4   2   4   4   2
#     4  12  27  47  70  96 133 161 216 281 326 389
#     4  11  21  35  58  92 131 169 215 263 313 382
#     4  11  23  44  69  92 128 176 217 265 324 380
#     4  10  22  36  55  89 131 172 213 262 313 382
#     4  12  27  43  72  96 123 169 214 267 344 387
#     4  10  19  32  60  88 129 167 207 258 321 387
#     4  10  24  44  66  94 130 170 219 269 317 382
#     4  12  21  42  64 102 124 168 213 266 330 392
#
# _framework density 19.540696000000001
#
# number of rings (size 3 to 8) (size 9 to 14) (size 15 to 20)
#    0.000    1.231    4.615    1.154    6.462    4.615 
#    0.000    3.846    0.000    0.000    0.000    0.000 
#    0.000    0.000    0.000    0.000    0.000    0.000 
#
# Total GULP energy -144786.030545 kJ/mol
# GULP energy per Si atom -5568.693483 kJ/mol
# Density = 1.949622 g / cm^3
# Si number density = 19.540696 Si / 1000 Ang^3
#
#
#
# Elastic Constant Matrix: (Units=GPa)
#
#
# Indices 1 2 3 4 5 6 
#
# 1 79.6467 44.1198 46.0296 0.0000 -16.1201 0.0000
# 2 44.1198 115.0357 71.1773 0.0000 -12.4447 0.0000
# 3 46.0296 71.1773 150.7137 0.0000 -27.0616 0.0000
# 4 0.0000 0.0000 0.0000 17.5901 0.0000 -4.8607
# 5 -16.1201 -12.4447 -27.0616 0.0000 21.2886 0.0000
# 6 0.0000 0.0000 0.0000 -4.8607 0.0000 27.3519
#
#
#
# Elastic Compliance Matrix: (Units=1/GPa)
#
#
# Indices 1 2 3 4 5 6 
#
# 1 0.017988 -0.004981 -0.001579 0.000000 0.008702 0.000000
# 2 -0.004981 0.013662 -0.005409 0.000000 -0.002660 0.000000
# 3 -0.001579 -0.005409 0.011518 0.000000 0.010284 0.000000
# 4 0.000000 0.000000 0.000000 0.059786 0.000000 0.010625
# 5 0.008702 -0.002660 0.010284 0.000000 0.065081 0.000000
# 6 0.000000 0.000000 0.000000 0.010625 0.000000 0.038449
#
#
# Mechanical properties :
#
#
# Convention : Reuss Voigt Hill
#
# Bulk Modulus (GPa) = 51.99706 74.22773 63.11240
# Shear Modulus (GPa) = 21.11204 25.51742 23.31473
#
# Velocity S-wave (km/s) = 3.29053 3.61759 3.45793
# Velocity P-wave (km/s) = 6.41125 7.45104 6.95062
#
# Compressibility (1/GPa) = 0.01923186
#
# Stress axis : x y z
#
# Youngs Moduli (GPa) = 55.59164 73.19616 86.81812
#
# Poissons Ratio (x) = 0.36456 0.13709
# Poissons Ratio (y) = 0.27688 0.46957
# Poissons Ratio (z) = 0.08778 0.39589
#
# Static dielectric constant tensor:
#      x y z
#    x 1.684190 0.000000 -0.008230 
#    y 0.000000 1.714950 0.000000 
#    z -0.008230 0.000000 1.652850 
# 
# From -- ./inp_files/63611.got.cif
#   From: 2010.05.17/outbox.cif.g08.bks.cpg/sg10_32_cif.got.tgz:63611.got - 2010.06.03 11:33:40.
