data_PCOD9146160
_publ_section_title
;
Structure prediction by ZEFSAII (Michael W. Deem and Ramdas Pophale) SiO2 
 PCOD9146160
Probable space group: P 2/M
;
_chemical_formula_sum "Si O2"
_cell_formula_units_Z 32
_cell_length_a 24.000904
_cell_length_b 8.743281
_cell_length_c 32.236082
_cell_angle_alpha 90.000000
_cell_angle_beta 13.004561
_cell_angle_gamma 90.000000
_cell_volume 1522.236183
_symmetry_space_group_name_H-M "P 2/M"
_symmetry_group_IT_number 10
_symmetry_cell_setting 'monoclinic'
loop_
_space_group_symop_operation_xyz
x,y,z
-x,y,-z
-x,-y,-z
x,-y,z
loop_
_atom_site_type_symbol
_atom_site_label
_atom_site_fract_x
_atom_site_fract_y
_atom_site_fract_z
Si Si1 0.381235 0.814088 0.629244
Si Si2 0.552394 0.324916 0.671117
Si Si3 0.860483 0.820505 0.976374
Si Si4 0.332582 0.816430 0.496442
Si Si5 0.402784 0.681490 0.906012
Si Si6 0.753078 0.180713 0.896909
Si Si7 0.951758 0.313979 0.488216
Si Si8 0.136111 0.678266 0.269668
O O1 0.500000 0.764903 0.500000
O O2 0.546447 0.766128 0.548179
O O3 0.095865 0.765923 0.832303
O O4 0.384814 0.000000 0.628000
O O5 0.475580 0.500000 0.734557
O O6 0.535954 0.275431 0.635506
O O7 0.842734 0.314623 0.471604
O O8 0.380959 0.214153 0.821689
O O9 0.817991 0.743867 0.962459
O O10 0.891497 0.000000 0.946105
O O11 0.038597 0.790308 0.704360
O O12 0.368869 0.000000 0.464909
O O13 0.387940 0.500000 0.919626
O O14 0.402502 0.745714 0.952883
O O15 0.659572 0.719653 0.696026
O O16 0.728261 0.245307 0.868003
O O17 0.712096 0.000000 0.925495
O O18 0.977563 0.500000 0.468821
O O19 0.125718 0.257089 0.324392
O O20 0.000000 0.261020 0.500000
O O21 0.208760 0.500000 0.218174
#
# Coordination Sequence:
#
# PCOD9146160 Si02
#       8
#     4   4   4   4   4   4   4   4
#     4   9  18  33  51  71  99 136 180 227 271 315
#     4  10  19  33  52  77 107 139 176 223 276 324
#     4  11  21  33  54  79 104 139 181 225 271 323
#     4   9  18  34  54  75 103 140 186 230 267 313
#     4  11  21  36  57  84 113 142 178 227 275 322
#     4  10  20  34  56  84 110 145 186 226 269 321
#     4   9  18  35  60  86 110 140 181 224 266 320
#     4   9  17  34  57  81 109 143 181 223 268 317
#
# _framework density 21.021705000000001
#
# number of rings (size 3 to 8) (size 9 to 14) (size 15 to 20)
#    0.000    2.250    1.250    2.250    0.000    3.500 
#    0.000    4.375    0.000    9.750    0.000    0.000 
#    0.000    0.000    0.000    0.000    0.000    0.000 
#
# Total GULP energy -178553.679754 kJ/mol
# GULP energy per Si atom -5579.802492 kJ/mol
# Density = 2.097386 g / cm^3
# Si number density = 21.021705 Si / 1000 Ang^3
#
#
#
# Elastic Constant Matrix: (Units=GPa)
#
#
# Indices 1 2 3 4 5 6 
#
# 1 144.4532 19.5947 23.8471 0.0000 23.2972 0.0000
# 2 19.5947 22.6314 18.6624 0.0000 9.1292 0.0000
# 3 23.8471 18.6624 59.4844 0.0000 20.9611 0.0000
# 4 0.0000 0.0000 0.0000 9.7794 0.0000 29.1005
# 5 23.2972 9.1292 20.9611 0.0000 38.6881 0.0000
# 6 0.0000 0.0000 0.0000 29.1005 0.0000 -24.3285
#
#
#
# Elastic Compliance Matrix: (Units=1/GPa)
#
#
# Indices 1 2 3 4 5 6 
#
# 1 0.008289 -0.005453 -0.000379 0.000000 -0.003499 0.000000
# 2 -0.005453 0.063944 -0.016952 0.000000 -0.002621 0.000000
# 3 -0.000379 -0.016952 0.025698 0.000000 -0.009694 0.000000
# 4 0.000000 0.000000 0.000000 0.022428 0.000000 0.026827
# 5 -0.003499 -0.002621 -0.009694 0.000000 0.033826 0.000000
# 6 0.000000 0.000000 0.000000 0.026827 0.000000 -0.009015
#
#
# Mechanical properties :
#
#
# Convention : Reuss Voigt Hill
#
# Bulk Modulus (GPa) = 19.09750 38.97526 29.03638
# Shear Modulus (GPa) = 24.01638 15.79212 19.90425
#
# Velocity S-wave (km/s) = 3.38369 2.74383 3.08042
# Velocity P-wave (km/s) = 4.93662 5.34966 5.14728
#
# Compressibility (1/GPa) = 0.05236288
#
# Stress axis : x y z
#
# Youngs Moduli (GPa) = 120.63746 15.63875 38.91385
#
# Poissons Ratio (x) = 0.08527 0.01476
# Poissons Ratio (y) = 0.65779 0.65967
# Poissons Ratio (z) = 0.04576 0.26511
#
# Static dielectric constant tensor:
#      x y z
#    x 1.802620 0.000000 -0.025450 
#    y 0.000000 1.706560 0.000000 
#    z -0.025450 0.000000 1.781570 
# 
# From -- ./inp_files/93609.got.cif
#   From: 2010.05.17/outbox.cif.g08.bks.cpg/sg10_47_cif.got.tgz:93609.got - 2010.06.03 11:33:40.
