data_PCOD9146134
_publ_section_title
;
Structure prediction by ZEFSAII (Michael W. Deem and Ramdas Pophale) SiO2 
 PCOD9146134
Probable space group: P 2/M
;
_chemical_formula_sum "Si O2"
_cell_formula_units_Z 32
_cell_length_a 17.470893
_cell_length_b 14.177488
_cell_length_c 6.990217
_cell_angle_alpha 90.000000
_cell_angle_beta 51.522980
_cell_angle_gamma 90.000000
_cell_volume 1355.463778
_symmetry_space_group_name_H-M "P 2/M"
_symmetry_group_IT_number 10
_symmetry_cell_setting 'monoclinic'
loop_
_space_group_symop_operation_xyz
x,y,z
-x,y,-z
-x,-y,-z
x,-y,z
loop_
_atom_site_type_symbol
_atom_site_label
_atom_site_fract_x
_atom_site_fract_y
_atom_site_fract_z
Si Si1 0.032617 0.299041 0.667393
Si Si2 0.836489 0.390098 0.074179
Si Si3 0.579634 0.307708 0.131348
Si Si4 0.632502 0.687629 0.476234
Si Si5 0.226062 0.607919 0.279026
Si Si6 0.093531 0.897514 0.722339
Si Si7 0.698870 0.893707 0.473133
Si Si8 0.588534 0.899099 0.015635
O O1 0.128747 0.363113 0.544911
O O2 0.073230 0.193226 0.626376
O O3 0.000000 0.312821 0.500000
O O4 0.934833 0.326834 0.937834
O O5 0.859183 0.500000 0.074970
O O6 0.739128 0.357982 0.340218
O O7 0.805065 0.382636 0.897471
O O8 0.468106 0.335065 0.254189
O O9 0.604357 0.343200 0.304622
O O10 0.672774 0.334392 0.856864
O O11 0.580021 0.194329 0.147861
O O12 0.648546 0.801102 0.467051
O O13 0.250081 0.500000 0.279219
O O14 0.185417 0.883607 0.720403
O O15 0.107025 0.000000 0.603522
O O16 0.000000 0.903371 0.000000
O O17 0.680366 0.892165 0.731060
O O18 0.668605 0.000000 0.456263
O O19 0.588549 0.000000 0.116596
O O20 0.500000 0.898827 0.000000
#
# Coordination Sequence:
#
# PCOD9146134 Si02
#       8
#     4   4   4   4   4   4   4   4
#     4  10  19  34  59  85 105 133 177 225 265 301
#     4   9  18  33  54  80 107 135 173 219 265 317
#     4  10  20  33  52  80 108 137 176 221 263 307
#     4  10  20  33  52  79 108 138 175 219 265 306
#     4   9  18  33  54  80 107 136 174 220 268 313
#     4  10  21  36  54  79 110 145 177 206 258 327
#     4  10  20  35  54  75 104 143 180 211 256 318
#     4  10  19  33  52  74 101 138 177 211 256 312
#
# _framework density 23.608155
#
# number of rings (size 3 to 8) (size 9 to 14) (size 15 to 20)
#    0.000    2.250    1.250    1.875    0.000    2.750 
#    0.000    3.750    0.000   19.875    0.000    0.000 
#    0.000    0.000    0.000    0.000    0.000    0.000 
#
# Total GULP energy -178585.900609 kJ/mol
# GULP energy per Si atom -5580.809394 kJ/mol
# Density = 2.355442 g / cm^3
# Si number density = 23.608155 Si / 1000 Ang^3
#
#
#
# Elastic Constant Matrix: (Units=GPa)
#
#
# Indices 1 2 3 4 5 6 
#
# 1 92.3661 34.9050 25.5292 0.0000 -23.5455 0.0000
# 2 34.9050 105.5525 32.2554 0.0000 -42.6655 0.0000
# 3 25.5292 32.2554 114.3270 0.0000 -31.9052 0.0000
# 4 0.0000 0.0000 0.0000 33.9398 0.0000 -3.4938
# 5 -23.5455 -42.6655 -31.9052 0.0000 32.5353 0.0000
# 6 0.0000 0.0000 0.0000 -3.4938 0.0000 27.4060
#
#
#
# Elastic Compliance Matrix: (Units=1/GPa)
#
#
# Indices 1 2 3 4 5 6 
#
# 1 0.013356 -0.001187 -0.000529 0.000000 0.007590 0.000000
# 2 -0.001187 0.020725 0.002427 0.000000 0.028699 0.000000
# 3 -0.000529 0.002427 0.012338 0.000000 0.014898 0.000000
# 4 0.000000 0.000000 0.000000 0.029856 0.000000 0.003806
# 5 0.007590 0.028699 0.014898 0.000000 0.088474 0.000000
# 6 0.000000 0.000000 0.000000 0.003806 0.000000 0.036974
#
#
# Mechanical properties :
#
#
# Convention : Reuss Voigt Hill
#
# Bulk Modulus (GPa) = 20.90271 55.29167 38.09719
# Shear Modulus (GPa) = 23.12150 33.41328 28.26739
#
# Velocity S-wave (km/s) = 3.13291 3.76617 3.46404
# Velocity P-wave (km/s) = 4.68616 6.51026 5.67201
#
# Compressibility (1/GPa) = 0.04784069
#
# Stress axis : x y z
#
# Youngs Moduli (GPa) = 74.87170 48.24978 81.04987
#
# Poissons Ratio (x) = 0.05727 0.04291
# Poissons Ratio (y) = 0.08887 -0.19670
# Poissons Ratio (z) = 0.03964 -0.11709
#
# Static dielectric constant tensor:
#      x y z
#    x 1.925250 0.000000 -0.013940 
#    y 0.000000 1.899650 0.000000 
#    z -0.013940 0.000000 1.977970 
# 
# From -- ./inp_files/35096.got.cif
#   From: 2010.05.17/outbox.cif.g08.bks.cpg/sg10_18_cif.got.tgz:35096.got - 2010.06.03 11:33:40.
