data_PCOD9146861
_publ_section_title
;
Structure prediction by ZEFSAII (Michael W. Deem and Ramdas Pophale) SiO2 
 PCOD9146861
Probable space group: P 2/M
;
_chemical_formula_sum "Si O2"
_cell_formula_units_Z 28
_cell_length_a 28.573041
_cell_length_b 7.392733
_cell_length_c 8.276110
_cell_angle_alpha 90.000000
_cell_angle_beta 135.534053
_cell_angle_gamma 90.000000
_cell_volume 1224.578759
_symmetry_space_group_name_H-M "P 2/M"
_symmetry_group_IT_number 10
_symmetry_cell_setting 'monoclinic'
loop_
_space_group_symop_operation_xyz
x,y,z
-x,y,-z
-x,-y,-z
x,-y,z
loop_
_atom_site_type_symbol
_atom_site_label
_atom_site_fract_x
_atom_site_fract_y
_atom_site_fract_z
Si Si1 0.069933 0.219507 0.249556
Si Si2 0.643599 0.205977 0.687801
Si Si3 0.071504 0.707838 0.627761
Si Si4 0.422456 0.779337 0.803774
Si Si5 0.214145 0.708968 0.080354
Si Si6 0.207916 0.218515 0.435945
Si Si7 0.657511 0.778655 0.074379
O O1 0.075578 0.286799 0.445442
O O2 0.134468 0.278665 0.307630
O O3 0.070237 0.000000 0.255046
O O4 0.000000 0.277184 0.000000
O O5 0.611247 0.286181 0.445975
O O6 0.723315 0.202887 0.854267
O O7 0.618187 0.000000 0.632856
O O8 0.632533 0.286017 0.838261
O O9 0.070069 0.500000 0.685017
O O10 0.000000 0.790317 0.500000
O O11 0.140598 0.788059 0.864515
O O12 0.384985 0.721073 0.874581
O O13 0.417450 0.000000 0.791105
O O14 0.500000 0.730807 0.000000
O O15 0.213479 0.500000 0.026233
O O16 0.225418 0.719466 0.299539
O O17 0.265879 0.274513 0.702040
O O18 0.207755 0.000000 0.431625
O O19 0.656175 0.000000 0.066251
#
# Coordination Sequence:
#
# PCOD9146861 Si02
#       7
#     4   4   4   4   4   4   4
#     4  10  21  35  53  80 108 137 179 229 277 330
#     4  10  19  34  57  80 110 148 179 222 280 325
#     4  10  22  38  53  73 105 144 184 227 276 331
#     4   9  17  30  51  83 117 143 177 225 271 325
#     4  11  22  35  54  80 107 138 184 231 271 325
#     4  10  19  34  54  76 107 141 177 222 274 332
#     4   9  17  30  51  80 108 140 182 219 266 327
#
# _framework density 22.865006000000001
#
# number of rings (size 3 to 8) (size 9 to 14) (size 15 to 20)
#    0.000    2.143    1.429    2.143    0.000    4.000 
#    0.000    3.571    0.000    0.429    0.000    1.000 
#    0.000    0.000    0.000    0.000    0.000    0.000 
#
# Total GULP energy -156489.080308 kJ/mol
# GULP energy per Si atom -5588.895725 kJ/mol
# Density = 2.281296 g / cm^3
# Si number density = 22.865006 Si / 1000 Ang^3
#
#
#
# Elastic Constant Matrix: (Units=GPa)
#
#
# Indices 1 2 3 4 5 6 
#
# 1 127.3231 -1.6474 82.8446 0.0000 -13.3566 0.0000
# 2 -1.6474 80.3375 3.0285 0.0000 3.6353 0.0000
# 3 82.8446 3.0285 158.4091 0.0000 -12.2807 0.0000
# 4 0.0000 0.0000 0.0000 2.4028 0.0000 -8.6341
# 5 -13.3566 3.6353 -12.2807 0.0000 45.6000 0.0000
# 6 0.0000 0.0000 0.0000 -8.6341 0.0000 19.0130
#
#
#
# Elastic Compliance Matrix: (Units=1/GPa)
#
#
# Indices 1 2 3 4 5 6 
#
# 1 0.012072 0.000397 -0.006179 0.000000 0.001840 0.000000
# 2 0.000397 0.012522 -0.000526 0.000000 -0.001024 0.000000
# 3 -0.006179 -0.000526 0.009618 0.000000 0.000822 0.000000
# 4 0.000000 0.000000 0.000000 -0.658713 0.000000 -0.299132
# 5 0.001840 -0.001024 0.000822 0.000000 0.022772 0.000000
# 6 0.000000 0.000000 0.000000 -0.299132 0.000000 -0.083245
#
#
# Mechanical properties :
#
#
# Convention : Reuss Voigt Hill
#
# Bulk Modulus (GPa) = 46.30402 59.39125 52.84764
# Shear Modulus (GPa) = -7.51700 32.19274 12.33787
#
# Velocity S-wave (km/s) = -1.81513 3.75633 2.32544
# Velocity P-wave (km/s) = 3.98774 6.69660 5.51120
#
# Compressibility (1/GPa) = 0.02159640
#
# Stress axis : x y z
#
# Youngs Moduli (GPa) = 82.83367 79.86074 103.97353
#
# Poissons Ratio (x) = -0.03172 0.64240
# Poissons Ratio (y) = -0.03290 0.05474
# Poissons Ratio (z) = 0.51179 0.04205
#
# Static dielectric constant tensor:
#      x y z
#    x 1.800520 0.000000 0.011540 
#    y 0.000000 1.869220 0.000000 
#    z 0.011540 0.000000 1.830840 
# 
# From -- ./inp_files/38023.got.cif
#   From: 2010.05.17/outbox.cif.g08.bks.cpg/sg10_20_cif.got.tgz:38023.got - 2010.06.03 11:33:40.
