data_PCOD9146102
_publ_section_title
;
Structure prediction by ZEFSAII (Michael W. Deem and Ramdas Pophale) SiO2 
 PCOD9146102
Probable space group: P 2/M
;
_chemical_formula_sum "Si O2"
_cell_formula_units_Z 32
_cell_length_a 23.219616
_cell_length_b 7.564291
_cell_length_c 20.507213
_cell_angle_alpha 90.000000
_cell_angle_beta 154.184692
_cell_angle_gamma 90.000000
_cell_volume 1568.518939
_symmetry_space_group_name_H-M "P 2/M"
_symmetry_group_IT_number 10
_symmetry_cell_setting 'monoclinic'
loop_
_space_group_symop_operation_xyz
x,y,z
-x,y,-z
-x,-y,-z
x,-y,z
loop_
_atom_site_type_symbol
_atom_site_label
_atom_site_fract_x
_atom_site_fract_y
_atom_site_fract_z
Si Si1 0.929337 0.211849 0.651536
Si Si2 0.646497 0.707315 0.116263
Si Si3 0.481901 0.716023 0.142011
Si Si4 0.758866 0.711835 0.360050
Si Si5 0.262319 0.787057 0.428692
Si Si6 0.023095 0.709898 0.096415
Si Si7 0.836672 0.794138 0.025434
Si Si8 0.449429 0.203759 0.258391
O O1 0.885096 0.249178 0.533043
O O2 0.816143 0.277935 0.586675
O O3 0.069194 0.281002 0.821417
O O4 0.933003 0.000000 0.662545
O O5 0.678614 0.500000 0.140661
O O6 0.744727 0.781124 0.271545
O O7 0.500000 0.715651 0.000000
O O8 0.623125 0.777668 0.019857
O O9 0.479927 0.500000 0.142525
O O10 0.627820 0.771334 0.265915
O O11 0.455738 0.789205 0.186402
O O12 0.748157 0.500000 0.344459
O O13 0.169566 0.745214 0.273059
O O14 0.411173 0.716699 0.576510
O O15 0.270157 0.000000 0.442873
O O16 0.001154 0.500000 0.073854
O O17 0.923200 0.786548 0.048204
O O18 0.000000 0.777697 0.000000
O O19 0.813815 0.000000 0.018924
O O20 0.691914 0.713939 0.867965
O O21 0.449559 0.000000 0.281771
#
# Coordination Sequence:
#
# PCOD9146102 Si02
#       8
#     4   4   4   4   4   4   4   4
#     4   9  16  28  45  68  95 122 158 205 249 285
#     4   7  12  23  37  58  90 124 159 200 245 294
#     4   9  16  26  43  67  95 127 161 201 253 298
#     4   9  15  24  42  66  91 123 163 204 248 294
#     4   9  18  32  52  76 101 131 164 199 238 285
#     4  10  21  37  57  80 104 129 159 197 237 279
#     4   9  20  36  53  73 100 135 166 196 238 289
#     4  10  19  33  51  73 102 131 164 204 244 286
#
# _framework density 20.401412000000001
#
# number of rings (size 3 to 8) (size 9 to 14) (size 15 to 20)
#    0.000    3.000    1.250    2.625    0.000    4.000 
#    0.000    1.250    0.000    6.750    0.000    5.250 
#    0.000    0.000    0.000    0.000    0.000    0.000 
#
# Total GULP energy -178288.412336 kJ/mol
# GULP energy per Si atom -5571.512885 kJ/mol
# Density = 2.035498 g / cm^3
# Si number density = 20.401412 Si / 1000 Ang^3
#
#
#
# Elastic Constant Matrix: (Units=GPa)
#
#
# Indices 1 2 3 4 5 6 
#
# 1 41.7303 -12.1178 55.5821 0.0000 -19.1766 0.0000
# 2 -12.1178 48.5575 -0.3687 0.0000 6.8732 0.0000
# 3 55.5821 -0.3687 165.8180 0.0000 -13.3944 0.0000
# 4 0.0000 0.0000 0.0000 9.5218 0.0000 -6.0739
# 5 -19.1766 6.8732 -13.3944 0.0000 35.0706 0.0000
# 6 0.0000 0.0000 0.0000 -6.0739 0.0000 -21.3952
#
#
#
# Elastic Compliance Matrix: (Units=1/GPa)
#
#
# Indices 1 2 3 4 5 6 
#
# 1 0.066570 0.012751 -0.020170 0.000000 0.026198 0.000000
# 2 0.012751 0.023638 -0.004161 0.000000 0.000751 0.000000
# 3 -0.020170 -0.004161 0.012338 0.000000 -0.005501 0.000000
# 4 0.000000 0.000000 0.000000 0.088919 0.000000 -0.025243
# 5 0.026198 0.000751 -0.005501 0.000000 0.040591 0.000000
# 6 0.000000 0.000000 0.000000 -0.025243 0.000000 -0.039573
#
#
# Mechanical properties :
#
#
# Convention : Reuss Voigt Hill
#
# Bulk Modulus (GPa) = 12.59641 38.03300 25.31471
# Shear Modulus (GPa) = 20.65224 18.84013 19.74619
#
# Velocity S-wave (km/s) = 3.18511 3.04216 3.11446
# Velocity P-wave (km/s) = 4.44007 5.56978 5.03670
#
# Compressibility (1/GPa) = 0.07938769
#
# Stress axis : x y z
#
# Youngs Moduli (GPa) = 15.02183 42.30390 81.05081
#
# Poissons Ratio (x) = -0.53943 1.63476
# Poissons Ratio (y) = -0.19155 0.33726
# Poissons Ratio (z) = 0.30298 0.17603
#
# Static dielectric constant tensor:
#      x y z
#    x 1.698610 0.000000 -0.010420 
#    y 0.000000 1.756700 0.000000 
#    z -0.010420 0.000000 1.782260 
# 
# From -- ./inp_files/91225.got.cif
#   From: 2010.05.17/outbox.cif.g08.bks.cpg/sg10_46_cif.got.tgz:91225.got - 2010.06.03 11:33:40.
