data_PCOD9146536
_publ_section_title
;
Structure prediction by ZEFSAII (Michael W. Deem and Ramdas Pophale) SiO2 
 PCOD9146536
Probable space group: P 2/M
;
_chemical_formula_sum "Si O2"
_cell_formula_units_Z 28
_cell_length_a 22.545256
_cell_length_b 10.579992
_cell_length_c 12.230200
_cell_angle_alpha 90.000000
_cell_angle_beta 149.918983
_cell_angle_gamma 90.000000
_cell_volume 1462.197339
_symmetry_space_group_name_H-M "P 2/M"
_symmetry_group_IT_number 10
_symmetry_cell_setting 'monoclinic'
loop_
_space_group_symop_operation_xyz
x,y,z
-x,y,-z
-x,-y,-z
x,-y,z
loop_
_atom_site_type_symbol
_atom_site_label
_atom_site_fract_x
_atom_site_fract_y
_atom_site_fract_z
Si Si1 0.794704 0.648888 0.568555
Si Si2 0.713487 0.718531 0.663514
Si Si3 0.054725 0.858894 0.705970
Si Si4 0.327263 0.859831 0.190051
Si Si5 0.447228 0.355298 0.241486
Si Si6 0.606104 0.347755 0.090588
Si Si7 0.964638 0.359274 0.155851
O O1 0.767307 0.500000 0.550749
O O2 0.744892 0.734392 0.586418
O O3 0.727505 0.679125 0.348094
O O4 0.934753 0.658338 0.775157
O O5 0.692079 0.835397 0.711388
O O6 0.589653 0.644978 0.469612
O O7 0.831080 0.651560 0.898408
O O8 0.016445 0.748932 0.725619
O O9 0.000000 0.841657 0.500000
O O10 0.022394 0.000000 0.694467
O O11 0.196971 0.854028 0.929250
O O12 0.399960 0.744919 0.253863
O O13 0.376459 0.000000 0.248432
O O14 0.405878 0.500000 0.195493
O O15 0.406208 0.309269 0.055178
O O16 0.594373 0.500000 0.066783
O O17 0.500000 0.301415 0.000000
O O18 0.982563 0.500000 0.230252
#
# Coordination Sequence:
#
# PCOD9146536 Si02
#       7
#     4   4   4   4   4   4   4
#     4  10  19  33  55  83 119 152 182 229 287 337
#     4  11  21  36  57  81 118 157 189 225 278 344
#     4   9  20  40  60  77 107 152 193 229 278 340
#     4  10  24  42  59  82 114 152 191 237 288 335
#     4  11  22  35  59  88 115 150 192 235 277 336
#     4   9  17  32  53  81 116 149 185 230 284 334
#     4  10  21  34  55  88 117 143 184 234 284 331
#
# _framework density 19.149262
#
# number of rings (size 3 to 8) (size 9 to 14) (size 15 to 20)
#    0.000    2.000    1.429    2.143    2.000    6.571 
#    0.000    0.714    0.000    4.714    0.000    0.000 
#    0.000    0.000    0.000    0.000    0.000    0.000 
#
# Total GULP energy -156122.879037 kJ/mol
# GULP energy per Si atom -5575.817108 kJ/mol
# Density = 1.910568 g / cm^3
# Si number density = 19.149262 Si / 1000 Ang^3
#
#
#
# Elastic Constant Matrix: (Units=GPa)
#
#
# Indices 1 2 3 4 5 6 
#
# 1 99.0926 62.0703 44.4125 0.0000 -5.9481 0.0000
# 2 62.0703 92.5681 34.3591 0.0000 -4.4748 0.0000
# 3 44.4125 34.3591 91.0899 0.0000 -14.0050 0.0000
# 4 0.0000 0.0000 0.0000 17.4641 0.0000 4.9051
# 5 -5.9481 -4.4748 -14.0050 0.0000 32.1117 0.0000
# 6 0.0000 0.0000 0.0000 4.9051 0.0000 10.9868
#
#
#
# Elastic Compliance Matrix: (Units=1/GPa)
#
#
# Indices 1 2 3 4 5 6 
#
# 1 0.019367 -0.011022 -0.005327 0.000000 -0.000272 0.000000
# 2 -0.011022 0.018838 -0.001760 0.000000 -0.000184 0.000000
# 3 -0.005327 -0.001760 0.015060 0.000000 0.005336 0.000000
# 4 0.000000 0.000000 0.000000 0.065470 0.000000 -0.029229
# 5 -0.000272 -0.000184 0.005336 0.000000 0.033393 0.000000
# 6 0.000000 0.000000 0.000000 -0.029229 0.000000 0.104067
#
#
# Mechanical properties :
#
#
# Convention : Reuss Voigt Hill
#
# Bulk Modulus (GPa) = 58.66301 62.71493 60.68897
# Shear Modulus (GPa) = 16.77321 21.57309 19.17315
#
# Velocity S-wave (km/s) = 2.96280 3.36009 3.16768
# Velocity P-wave (km/s) = 6.51194 6.91920 6.71866
#
# Compressibility (1/GPa) = 0.01704652
#
# Stress axis : x y z
#
# Youngs Moduli (GPa) = 51.63470 53.08439 66.40247
#
# Poissons Ratio (x) = 0.58510 0.35372
# Poissons Ratio (y) = 0.56912 0.11687
# Poissons Ratio (z) = 0.27505 0.09343
#
# Static dielectric constant tensor:
#      x y z
#    x 1.669590 0.000000 -0.000350 
#    y 0.000000 1.647340 0.000000 
#    z -0.000350 0.000000 1.698230 
# 
# From -- ./inp_files/55869.got.cif
#   From: 2010.05.17/outbox.cif.g08.bks.cpg/sg10_28_cif.got.tgz:55869.got - 2010.06.03 11:33:40.
