data_PCOD9146157
_publ_section_title
;
Structure prediction by ZEFSAII (Michael W. Deem and Ramdas Pophale) SiO2 
 PCOD9146157
Probable space group: P 2/M
;
_chemical_formula_sum "Si O2"
_cell_formula_units_Z 28
_cell_length_a 14.242807
_cell_length_b 9.200944
_cell_length_c 12.182111
_cell_angle_alpha 90.000000
_cell_angle_beta 70.732722
_cell_angle_gamma 90.000000
_cell_volume 1507.015499
_symmetry_space_group_name_H-M "P 2/M"
_symmetry_group_IT_number 10
_symmetry_cell_setting 'monoclinic'
loop_
_space_group_symop_operation_xyz
x,y,z
-x,y,-z
-x,-y,-z
x,-y,z
loop_
_atom_site_type_symbol
_atom_site_label
_atom_site_fract_x
_atom_site_fract_y
_atom_site_fract_z
Si Si1 0.184918 0.328976 0.694784
Si Si2 0.614960 0.823038 0.969902
Si Si3 0.988921 0.324877 0.633890
Si Si4 0.708920 0.664907 0.568805
Si Si5 0.311078 0.172465 0.819026
Si Si6 0.787675 0.172234 0.735779
Si Si7 0.481919 0.663936 0.635961
O O1 0.176551 0.500000 0.722917
O O2 0.269558 0.312469 0.567932
O O3 0.219582 0.245207 0.789598
O O4 0.084495 0.282905 0.670336
O O5 0.692601 0.780387 0.845026
O O6 0.610606 0.000000 0.971202
O O7 0.500000 0.772790 0.000000
O O8 0.664294 0.778555 0.066523
O O9 0.981827 0.500000 0.638968
O O10 0.890214 0.253435 0.721685
O O11 0.000000 0.283995 0.500000
O O12 0.746023 0.500000 0.578883
O O13 0.763890 0.781868 0.620597
O O14 0.592796 0.671353 0.640845
O O15 0.409154 0.218977 0.714039
O O16 0.298110 0.000000 0.824357
O O17 0.799489 0.000000 0.743037
O O18 0.500000 0.681586 0.500000
O O19 0.441454 0.500000 0.670045
#
# Coordination Sequence:
#
# PCOD9146157 Si02
#       7
#     4   4   4   4   4   4   4
#     4  10  20  37  58  80 113 153 186 226 287 347
#     4   9  20  40  60  80 115 159 193 229 285 343
#     4  10  20  38  61  83 114 156 193 230 287 352
#     4  10  19  34  55  79 112 152 188 226 282 347
#     4  11  22  36  57  83 114 150 193 241 286 339
#     4  11  22  36  59  87 115 147 192 245 289 333
#     4  10  19  33  52  76 111 150 184 224 282 344
#
# _framework density 18.579768999999999
#
# number of rings (size 3 to 8) (size 9 to 14) (size 15 to 20)
#    0.000    1.857    2.857    1.714    0.000    3.429 
#    0.000    3.571    0.000    9.429    0.000    0.000 
#    0.000    0.000    0.000    0.000    0.000    0.000 
#
# Total GULP energy -156163.832421 kJ/mol
# GULP energy per Si atom -5577.279729 kJ/mol
# Density = 1.853748 g / cm^3
# Si number density = 18.579769 Si / 1000 Ang^3
#
#
#
# Elastic Constant Matrix: (Units=GPa)
#
#
# Indices 1 2 3 4 5 6 
#
# 1 125.6377 33.8932 46.3741 0.0000 6.1547 0.0000
# 2 33.8932 28.5392 27.1766 0.0000 6.1303 0.0000
# 3 46.3741 27.1766 69.9901 0.0000 9.1887 0.0000
# 4 0.0000 0.0000 0.0000 39.8776 0.0000 -1.4201
# 5 6.1547 6.1303 9.1887 0.0000 32.9129 0.0000
# 6 0.0000 0.0000 0.0000 -1.4201 0.0000 34.9363
#
#
#
# Elastic Compliance Matrix: (Units=1/GPa)
#
#
# Indices 1 2 3 4 5 6 
#
# 1 0.012388 -0.011065 -0.004025 0.000000 0.000868 0.000000
# 2 -0.011065 0.066127 -0.017647 0.000000 -0.005321 0.000000
# 3 -0.004025 -0.017647 0.024162 0.000000 -0.002706 0.000000
# 4 0.000000 0.000000 0.000000 0.025113 0.000000 0.001021
# 5 0.000868 -0.005321 -0.002706 0.000000 0.031967 0.000000
# 6 0.000000 0.000000 0.000000 0.001021 0.000000 0.028665
#
#
# Mechanical properties :
#
#
# Convention : Reuss Voigt Hill
#
# Bulk Modulus (GPa) = 26.87939 48.78385 37.83162
# Shear Modulus (GPa) = 18.77595 29.32690 24.05142
#
# Velocity S-wave (km/s) = 3.18238 3.97726 3.60181
# Velocity P-wave (km/s) = 5.29167 6.88512 6.14030
#
# Compressibility (1/GPa) = 0.03720322
#
# Stress axis : x y z
#
# Youngs Moduli (GPa) = 80.72558 15.12231 41.38683
#
# Poissons Ratio (x) = 0.16733 0.16660
# Poissons Ratio (y) = 0.89322 0.73034
# Poissons Ratio (z) = 0.32495 0.26686
#
# Static dielectric constant tensor:
#      x y z
#    x 1.693530 0.000000 0.008250 
#    y 0.000000 1.629810 0.000000 
#    z 0.008250 0.000000 1.633470 
# 
# From -- ./inp_files/49116.got.cif
#   From: 2010.05.17/outbox.cif.g08.bks.cpg/sg10_25_cif.got.tgz:49116.got - 2010.06.03 11:33:40.
