data_PCOD9146340
_publ_section_title
;
Structure prediction by ZEFSAII (Michael W. Deem and Ramdas Pophale) SiO2 
 PCOD9146340
Probable space group: P 2/M
;
_chemical_formula_sum "Si O2"
_cell_formula_units_Z 32
_cell_length_a 28.843413
_cell_length_b 8.755223
_cell_length_c 22.370569
_cell_angle_alpha 90.000000
_cell_angle_beta 161.269752
_cell_angle_gamma 90.000000
_cell_volume 1814.048043
_symmetry_space_group_name_H-M "P 2/M"
_symmetry_group_IT_number 10
_symmetry_cell_setting 'monoclinic'
loop_
_space_group_symop_operation_xyz
x,y,z
-x,y,-z
-x,-y,-z
x,-y,z
loop_
_atom_site_type_symbol
_atom_site_label
_atom_site_fract_x
_atom_site_fract_y
_atom_site_fract_z
Si Si1 0.402311 0.683681 0.574400
Si Si2 0.922516 0.183887 0.467907
Si Si3 0.549551 0.317068 0.875398
Si Si4 0.329054 0.317318 0.286137
Si Si5 0.831049 0.183067 0.793991
Si Si6 0.840978 0.317368 0.160698
Si Si7 0.689165 0.817825 0.863828
Si Si8 0.411150 0.815858 0.949388
O O1 0.404110 0.500000 0.571856
O O2 0.437459 0.725889 0.686033
O O3 0.255966 0.749278 0.368525
O O4 0.536045 0.747937 0.698761
O O5 0.755974 0.231322 0.261159
O O6 0.000000 0.222555 0.500000
O O7 0.012130 0.261893 0.630007
O O8 0.929056 0.000000 0.483096
O O9 0.546142 0.500000 0.877155
O O10 0.707917 0.274913 0.042624
O O11 0.528510 0.243759 0.914090
O O12 0.500000 0.283016 0.500000
O O13 0.312417 0.500000 0.265053
O O14 0.245576 0.248588 0.240503
O O15 0.277373 0.245825 0.160781
O O16 0.818102 0.000000 0.777728
O O17 0.000000 0.223685 0.000000
O O18 0.837901 0.500000 0.149671
O O19 0.804561 0.238253 0.053591
O O20 0.679182 0.000000 0.851018
O O21 0.414419 0.000000 0.954996
O O22 0.500000 0.764116 0.000000
#
# Coordination Sequence:
#
# PCOD9146340 Si02
#       8
#     4   4   4   4   4   4   4   4
#     4  10  20  36  57  84 114 148 191 235 284 340
#     4  10  19  33  54  80 107 140 184 228 274 329
#     4   9  19  34  54  80 109 141 182 229 272 329
#     4  11  22  37  60  87 116 150 190 237 286 340
#     4  11  24  40  59  87 119 154 197 239 285 342
#     4  10  20  34  54  82 114 145 184 232 284 336
#     4  11  21  34  57  86 117 149 186 237 290 338
#     4  10  21  36  54  79 111 145 182 226 276 330
#
# _framework density 17.640105999999999
#
# number of rings (size 3 to 8) (size 9 to 14) (size 15 to 20)
#    0.000    1.750    2.500    3.375    0.000    5.000 
#    0.000    1.250    0.000    4.500    0.000    0.000 
#    0.000    0.000    0.000    0.000    0.000    0.000 
#
# Total GULP energy -178712.782905 kJ/mol
# GULP energy per Si atom -5584.774466 kJ/mol
# Density = 1.759996 g / cm^3
# Si number density = 17.640106 Si / 1000 Ang^3
#
#
#
# Elastic Constant Matrix: (Units=GPa)
#
#
# Indices 1 2 3 4 5 6 
#
# 1 140.7455 47.4057 82.2042 0.0000 -16.4259 0.0000
# 2 47.4057 53.9833 50.4035 0.0000 -4.5239 0.0000
# 3 82.2042 50.4035 139.5890 0.0000 -16.6551 0.0000
# 4 0.0000 0.0000 0.0000 27.5239 0.0000 -9.9738
# 5 -16.4259 -4.5239 -16.6551 0.0000 31.1503 0.0000
# 6 0.0000 0.0000 0.0000 -9.9738 0.0000 24.8361
#
#
#
# Elastic Compliance Matrix: (Units=1/GPa)
#
#
# Indices 1 2 3 4 5 6 
#
# 1 0.012240 -0.006191 -0.004604 0.000000 0.003094 0.000000
# 2 -0.006191 0.031137 -0.007955 0.000000 -0.002996 0.000000
# 3 -0.004604 -0.007955 0.013159 0.000000 0.003453 0.000000
# 4 0.000000 0.000000 0.000000 0.042519 0.000000 0.017075
# 5 0.003094 -0.002996 0.003453 0.000000 0.035145 0.000000
# 6 0.000000 0.000000 0.000000 0.017075 0.000000 0.047121
#
#
# Mechanical properties :
#
#
# Convention : Reuss Voigt Hill
#
# Bulk Modulus (GPa) = 52.52708 77.14940 64.83824
# Shear Modulus (GPa) = 22.20576 26.98902 24.59739
#
# Velocity S-wave (km/s) = 3.55184 3.91574 3.73822
# Velocity P-wave (km/s) = 6.83099 8.01712 7.44771
#
# Compressibility (1/GPa) = 0.01903780
#
# Stress axis : x y z
#
# Youngs Moduli (GPa) = 81.69808 32.11603 75.99234
#
# Poissons Ratio (x) = 0.19884 0.34984
# Poissons Ratio (y) = 0.50581 0.60449
# Poissons Ratio (z) = 0.37610 0.25547
#
# Static dielectric constant tensor:
#      x y z
#    x 1.585140 0.000000 -0.009890 
#    y 0.000000 1.588600 0.000000 
#    z -0.009890 0.000000 1.595750 
# 
# From -- ./inp_files/86973.got.cif
#   From: 2010.05.17/outbox.cif.g08.bks.cpg/sg10_44_cif.got.tgz:86973.got - 2010.06.03 11:33:40.
