data_PCOD9146872
_publ_section_title
;
Structure prediction by ZEFSAII (Michael W. Deem and Ramdas Pophale) SiO2 
 PCOD9146872
Probable space group: P 2/M
;
_chemical_formula_sum "Si O2"
_cell_formula_units_Z 32
_cell_length_a 13.071135
_cell_length_b 9.209582
_cell_length_c 32.622246
_cell_angle_alpha 90.000000
_cell_angle_beta 26.483376
_cell_angle_gamma 90.000000
_cell_volume 1751.223961
_symmetry_space_group_name_H-M "P 2/M"
_symmetry_group_IT_number 10
_symmetry_cell_setting 'monoclinic'
loop_
_space_group_symop_operation_xyz
x,y,z
-x,y,-z
-x,-y,-z
x,-y,z
loop_
_atom_site_type_symbol
_atom_site_label
_atom_site_fract_x
_atom_site_fract_y
_atom_site_fract_z
Si Si1 0.046729 0.675064 0.074010
Si Si2 0.114760 0.667659 0.140837
Si Si3 0.258295 0.826544 0.398091
Si Si4 0.641115 0.825504 0.408969
Si Si5 0.588014 0.173070 0.209459
Si Si6 0.587285 0.174365 0.113625
Si Si7 0.432152 0.667599 0.647081
Si Si8 0.831773 0.826444 0.795445
O O1 0.037935 0.500000 0.076724
O O2 0.148463 0.720142 0.082103
O O3 0.794517 0.739893 0.156673
O O4 0.206473 0.739227 0.981293
O O5 0.189449 0.500000 0.116856
O O6 0.838828 0.672844 0.245613
O O7 0.213562 0.754701 0.143980
O O8 0.353805 0.798577 0.318260
O O9 0.428322 0.748125 0.368055
O O10 0.000000 0.779295 0.500000
O O11 0.269991 0.000000 0.400632
O O12 0.500000 0.785189 0.500000
O O13 0.535305 0.748636 0.407463
O O14 0.911927 0.785985 0.311922
O O15 0.627913 0.000000 0.409130
O O16 0.569139 0.208543 0.168246
O O17 0.637057 0.000000 0.195216
O O18 0.358354 0.210870 0.170121
O O19 0.626059 0.000000 0.096112
O O20 0.499585 0.500000 0.620208
O O21 0.829802 0.000000 0.801509
#
# Coordination Sequence:
#
# PCOD9146872 Si02
#       8
#     4   4   4   4   4   4   4   4
#     4  11  22  37  58  83 109 144 190 233 277 331
#     4   9  19  35  55  78 107 142 179 226 275 325
#     4  10  21  36  57  85 111 142 185 230 278 331
#     4   9  18  33  56  83 108 142 187 231 275 328
#     4  10  21  38  59  81 112 149 184 229 279 332
#     4  10  22  38  54  79 114 149 184 227 282 334
#     4  10  19  34  54  77 109 145 180 225 277 330
#     4   9  19  35  55  80 111 145 182 227 278 332
#
# _framework density 18.272933999999999
#
# number of rings (size 3 to 8) (size 9 to 14) (size 15 to 20)
#    0.000    2.250    1.250    1.125    0.000    6.000 
#    0.000    6.250    0.000    1.500    0.000    0.000 
#    0.000    0.000    0.000    0.000    0.000    0.000 
#
# Total GULP energy -178563.928362 kJ/mol
# GULP energy per Si atom -5580.122761 kJ/mol
# Density = 1.823134 g / cm^3
# Si number density = 18.272934 Si / 1000 Ang^3
#
#
#
# Elastic Constant Matrix: (Units=GPa)
#
#
# Indices 1 2 3 4 5 6 
#
# 1 100.5814 32.4316 46.6562 0.0000 19.1814 0.0000
# 2 32.4316 19.8280 32.8080 0.0000 7.8930 0.0000
# 3 46.6562 32.8080 96.6196 0.0000 21.6221 0.0000
# 4 0.0000 0.0000 0.0000 11.9131 0.0000 5.6826
# 5 19.1814 7.8930 21.6221 0.0000 33.5195 0.0000
# 6 0.0000 0.0000 0.0000 5.6826 0.0000 0.3780
#
#
#
# Elastic Compliance Matrix: (Units=1/GPa)
#
#
# Indices 1 2 3 4 5 6 
#
# 1 0.022567 -0.042707 0.004960 0.000000 -0.006057 0.000000
# 2 -0.042707 0.196065 -0.048022 0.000000 0.009248 0.000000
# 3 0.004960 -0.048022 0.026139 0.000000 -0.008391 0.000000
# 4 0.000000 0.000000 0.000000 -0.013601 0.000000 0.204488
# 5 -0.006057 0.009248 -0.008391 0.000000 0.036535 0.000000
# 6 0.000000 0.000000 0.000000 0.204488 0.000000 -0.428690
#
#
# Mechanical properties :
#
#
# Convention : Reuss Voigt Hill
#
# Bulk Modulus (GPa) = 13.65531 48.98006 31.31768
# Shear Modulus (GPa) = 142.99714 16.17100 79.58407
#
# Velocity S-wave (km/s) = 8.85585 2.97807 6.60663
# Velocity P-wave (km/s) = 10.58572 6.21998 8.68175
#
# Compressibility (1/GPa) = 0.07323161
#
# Stress axis : x y z
#
# Youngs Moduli (GPa) = 44.31215 5.10035 38.25663
#
# Poissons Ratio (x) = 0.21782 -0.18974
# Poissons Ratio (y) = 1.89244 1.83718
# Poissons Ratio (z) = -0.21977 0.24493
#
# Static dielectric constant tensor:
#      x y z
#    x 1.607630 0.000000 0.002040 
#    y 0.000000 1.608940 0.000000 
#    z 0.002040 0.000000 1.638550 
# 
# From -- ./inp_files/58150.got.cif
#   From: 2010.05.17/outbox.cif.g08.bks.cpg/sg10_30_cif.got.tgz:58150.got - 2010.06.03 11:33:40.
