data_PCOD9146697
_publ_section_title
;
Structure prediction by ZEFSAII (Michael W. Deem and Ramdas Pophale) SiO2 
 PCOD9146697
Probable space group: P 2/M
;
_chemical_formula_sum "Si O2"
_cell_formula_units_Z 32
_cell_length_a 20.726815
_cell_length_b 8.632580
_cell_length_c 12.601743
_cell_angle_alpha 90.000000
_cell_angle_beta 126.494154
_cell_angle_gamma 90.000000
_cell_volume 1812.655652
_symmetry_space_group_name_H-M "P 2/M"
_symmetry_group_IT_number 10
_symmetry_cell_setting 'monoclinic'
loop_
_space_group_symop_operation_xyz
x,y,z
-x,y,-z
-x,-y,-z
x,-y,z
loop_
_atom_site_type_symbol
_atom_site_label
_atom_site_fract_x
_atom_site_fract_y
_atom_site_fract_z
Si Si1 0.292510 0.685873 0.144536
Si Si2 0.212093 0.185043 0.854776
Si Si3 0.621379 0.685706 0.386094
Si Si4 0.234998 0.312272 0.313899
Si Si5 0.875924 0.687644 0.610270
Si Si6 0.470169 0.814421 0.353139
Si Si7 0.265317 0.814083 0.675816
Si Si8 0.034596 0.313470 0.650312
O O1 0.292497 0.500000 0.144956
O O2 0.244818 0.741678 0.203293
O O3 0.383441 0.744281 0.244731
O O4 0.252197 0.744539 0.997977
O O5 0.257088 0.233468 0.790219
O O6 0.119877 0.237010 0.754023
O O7 0.215831 0.000000 0.864590
O O8 0.616627 0.500000 0.380727
O O9 0.686489 0.732097 0.540535
O O10 0.536663 0.756986 0.335104
O O11 0.659225 0.744508 0.313281
O O12 0.233768 0.500000 0.310369
O O13 0.158136 0.263600 0.308192
O O14 0.871111 0.500000 0.599012
O O15 0.813759 0.754329 0.463355
O O16 0.965985 0.731893 0.667637
O O17 0.500000 0.766084 0.500000
O O18 0.465231 0.000000 0.346174
O O19 0.267877 0.000000 0.672104
O O20 0.044462 0.500000 0.663329
O O21 0.000000 0.274017 0.500000
#
# Coordination Sequence:
#
# PCOD9146697 Si02
#       8
#     4   4   4   4   4   4   4   4
#     4  11  22  38  59  81 111 150 194 234 276 333
#     4  11  24  39  55  79 116 154 188 229 287 346
#     4  10  19  34  58  85 113 143 186 234 275 326
#     4   8  16  31  53  81 109 141 180 227 278 322
#     4   9  17  32  55  83 112 141 181 233 282 330
#     4  11  22  36  57  87 120 149 183 228 279 333
#     4  10  20  34  53  80 113 147 183 227 285 341
#     4  10  19  33  57  86 112 142 190 238 277 331
#
# _framework density 17.653656999999999
#
# number of rings (size 3 to 8) (size 9 to 14) (size 15 to 20)
#    0.000    2.000    2.500    2.625    0.000    2.750 
#    0.000    1.875    0.000    7.500    0.000    0.000 
#    0.000    0.000    0.000    0.000    0.000    0.000 
#
# Total GULP energy -178590.372550 kJ/mol
# GULP energy per Si atom -5580.949142 kJ/mol
# Density = 1.761348 g / cm^3
# Si number density = 17.653657 Si / 1000 Ang^3
#
#
#
# Elastic Constant Matrix: (Units=GPa)
#
#
# Indices 1 2 3 4 5 6 
#
# 1 171.0256 40.1208 88.0897 0.0000 -21.9685 0.0000
# 2 40.1208 38.1245 38.3322 0.0000 -4.3701 0.0000
# 3 88.0897 38.3322 120.8595 0.0000 -15.8233 0.0000
# 4 0.0000 0.0000 0.0000 -415.4930 0.0000 -926.7064
# 5 -21.9685 -4.3701 -15.8233 0.0000 26.7134 0.0000
# 6 0.0000 0.0000 0.0000 -926.7064 0.0000-1943.8868
#
#
#
# Elastic Compliance Matrix: (Units=1/GPa)
#
#
# Indices 1 2 3 4 5 6 
#
# 1 0.010371 -0.004978 -0.005388 0.000000 0.004523 0.000000
# 2 -0.004978 0.040925 -0.009769 0.000000 -0.003185 0.000000
# 3 -0.005388 -0.009769 0.015730 0.000000 0.003288 0.000000
# 4 0.000000 0.000000 0.000000 0.038031 0.000000 -0.018130
# 5 0.004523 -0.003185 0.003288 0.000000 0.042581 0.000000
# 6 0.000000 0.000000 0.000000 -0.018130 0.000000 0.008129
#
#
# Mechanical properties :
#
#
# Convention : Reuss Voigt Hill
#
# Bulk Modulus (GPa) = 37.37377 73.67723 55.52550
# Shear Modulus (GPa) = 24.39554 -455.63548 -215.61997
#
# Velocity S-wave (km/s) = 3.72142 -16.08282 -11.06364
# Velocity P-wave (km/s) = 6.29935 17.40836 11.47539
#
# Compressibility (1/GPa) = 0.02675674
#
# Stress axis : x y z
#
# Youngs Moduli (GPa) = 96.42170 24.43466 63.57325
#
# Poissons Ratio (x) = 0.12164 0.34253
# Poissons Ratio (y) = 0.48002 0.62102
# Poissons Ratio (z) = 0.51952 0.23869
#
# Static dielectric constant tensor:
#      x y z
#    x 1.619020 0.000000 -0.025630 
#    y 0.000000 1.594950 0.000000 
#    z -0.025630 0.000000 1.567610 
# 
# From -- ./inp_files/55364.got.cif
#   From: 2010.05.17/outbox.cif.g08.bks.cpg/sg10_28_cif.got.tgz:55364.got - 2010.06.03 11:33:40.
