data_PCOD9146875
_publ_section_title
;
Structure prediction by ZEFSAII (Michael W. Deem and Ramdas Pophale) SiO2 
 PCOD9146875
Probable space group: P 2/M
;
_chemical_formula_sum "Si O2"
_cell_formula_units_Z 28
_cell_length_a 5.276164
_cell_length_b 13.589241
_cell_length_c 20.611025
_cell_angle_alpha 90.000000
_cell_angle_beta 90.623561
_cell_angle_gamma 90.000000
_cell_volume 1477.703687
_symmetry_space_group_name_H-M "P 2/M"
_symmetry_group_IT_number 10
_symmetry_cell_setting 'monoclinic'
loop_
_space_group_symop_operation_xyz
x,y,z
-x,y,-z
-x,-y,-z
x,-y,z
loop_
_atom_site_type_symbol
_atom_site_label
_atom_site_fract_x
_atom_site_fract_y
_atom_site_fract_z
Si Si1 0.753786 0.272600 0.461822
Si Si2 0.746721 0.887387 0.265832
Si Si3 0.570222 0.748536 0.649394
Si Si4 0.686301 0.616320 0.758890
Si Si5 0.039010 0.110745 0.402238
Si Si6 0.750869 0.613812 0.043691
Si Si7 0.818836 0.706288 0.178882
O O1 0.500000 0.295144 0.500000
O O2 0.672010 0.299348 0.387594
O O3 0.000000 0.314191 0.500000
O O4 0.823134 0.157206 0.447755
O O5 0.512541 0.830674 0.298546
O O6 0.830593 0.817230 0.207250
O O7 0.939523 0.890026 0.327476
O O8 0.693144 0.000000 0.247288
O O9 0.719347 0.665862 0.688496
O O10 0.738038 0.809382 0.598763
O O11 0.690639 0.500000 0.756275
O O12 0.414221 0.653123 0.784614
O O13 0.914744 0.655332 0.803700
O O14 0.109932 0.000000 0.419672
O O15 0.742822 0.500000 0.068826
O O16 0.765142 0.689109 0.103187
O O17 0.500000 0.628169 0.000000
O O18 0.000000 0.622392 0.000000
#
# Coordination Sequence:
#
# PCOD9146875 Si02
#       7
#     4   4   4   4   4   4   4
#     4  11  22  37  52  75 104 147 182 223 273 333
#     4   9  19  34  55  83 113 147 185 228 279 333
#     4  10  20  36  56  79 112 141 183 226 285 333
#     4  11  22  36  59  87 114 142 180 236 290 331
#     4  10  19  34  54  78 109 141 177 225 278 334
#     4  10  20  34  54  80 114 153 187 223 272 325
#     4  11  21  37  58  87 117 147 188 228 275 331
#
# _framework density 18.948318
#
# number of rings (size 3 to 8) (size 9 to 14) (size 15 to 20)
#    0.000    1.714    2.857    2.571    0.000    2.286 
#    0.000    0.000    0.000    1.714    0.000    0.000 
#    0.000    0.000    0.000    0.000    0.000    0.000 
#
# Total GULP energy -156045.083685 kJ/mol
# GULP energy per Si atom -5573.038703 kJ/mol
# Density = 1.890519 g / cm^3
# Si number density = 18.948318 Si / 1000 Ang^3
#
#
#
# Elastic Constant Matrix: (Units=GPa)
#
#
# Indices 1 2 3 4 5 6 
#
# 1 72.4999 14.4885 13.3046 0.0000 10.6365 0.0000
# 2 14.4885 85.3583 27.1614 0.0000 6.3859 0.0000
# 3 13.3046 27.1614 65.1663 0.0000 14.8437 0.0000
# 4 0.0000 0.0000 0.0000 12.2947 0.0000 0.5476
# 5 10.6365 6.3859 14.8437 0.0000 29.4707 0.0000
# 6 0.0000 0.0000 0.0000 0.5476 0.0000 10.0041
#
#
#
# Elastic Compliance Matrix: (Units=1/GPa)
#
#
# Indices 1 2 3 4 5 6 
#
# 1 0.015038 -0.001805 -0.001322 0.000000 -0.004370 0.000000
# 2 -0.001805 0.013724 -0.005448 0.000000 0.000421 0.000000
# 3 -0.001322 -0.005448 0.019777 0.000000 -0.008304 0.000000
# 4 0.000000 0.000000 0.000000 0.081535 0.000000 -0.004463
# 5 -0.004370 0.000421 -0.008304 0.000000 0.039600 0.000000
# 6 0.000000 0.000000 0.000000 -0.004463 0.000000 0.100203
#
#
# Mechanical properties :
#
#
# Convention : Reuss Voigt Hill
#
# Bulk Modulus (GPa) = 31.85824 36.99263 34.42543
# Shear Modulus (GPa) = 16.80734 21.55857 19.18296
#
# Velocity S-wave (km/s) = 2.98150 3.37672 3.18525
# Velocity P-wave (km/s) = 5.35744 5.89647 5.63341
#
# Compressibility (1/GPa) = 0.03138906
#
# Stress axis : x y z
#
# Youngs Moduli (GPa) = 66.49991 72.86750 50.56298
#
# Poissons Ratio (x) = 0.13150 0.06687
# Poissons Ratio (y) = 0.12001 0.27544
# Poissons Ratio (z) = 0.08795 0.39695
#
# Static dielectric constant tensor:
#      x y z
#    x 1.734450 0.000000 0.000990 
#    y 0.000000 1.638120 0.000000 
#    z 0.000990 0.000000 1.724850 
# 
# From -- ./inp_files/81095.got.cif
#   From: 2010.05.17/outbox.cif.g08.bks.cpg/sg10_41_cif.got.tgz:81095.got - 2010.06.03 11:33:40.
