data_PCOD9146149
_publ_section_title
;
Structure prediction by ZEFSAII (Michael W. Deem and Ramdas Pophale) SiO2 
 PCOD9146149
Probable space group: P 2/M
;
_chemical_formula_sum "Si O2"
_cell_formula_units_Z 28
_cell_length_a 6.965931
_cell_length_b 8.084311
_cell_length_c 27.804004
_cell_angle_alpha 90.000000
_cell_angle_beta 136.317407
_cell_angle_gamma 90.000000
_cell_volume 1081.422863
_symmetry_space_group_name_H-M "P 2/M"
_symmetry_group_IT_number 10
_symmetry_cell_setting 'monoclinic'
loop_
_space_group_symop_operation_xyz
x,y,z
-x,y,-z
-x,-y,-z
x,-y,z
loop_
_atom_site_type_symbol
_atom_site_label
_atom_site_fract_x
_atom_site_fract_y
_atom_site_fract_z
Si Si1 0.924393 0.299268 0.554658
Si Si2 0.773733 0.193771 0.015023
Si Si3 0.128090 0.813856 0.725352
Si Si4 0.546080 0.682046 0.129641
Si Si5 0.451278 0.312481 0.699629
Si Si6 0.592638 0.698762 0.594161
Si Si7 0.978465 0.807389 0.847055
O O1 0.941857 0.500000 0.554028
O O2 0.720724 0.243519 0.474991
O O3 0.756110 0.263381 0.573574
O O4 0.242370 0.245488 0.620945
O O5 0.024243 0.240572 0.096817
O O6 0.800256 0.000000 0.009720
O O7 0.500000 0.215863 0.000000
O O8 0.705545 0.274959 0.951722
O O9 0.332011 0.802325 0.807730
O O10 0.248066 0.684631 0.709195
O O11 0.801199 0.770651 0.672385
O O12 0.142441 0.000000 0.708693
O O13 0.511774 0.500000 0.144013
O O14 0.804791 0.689110 0.139454
O O15 0.541209 0.500000 0.704690
O O16 0.700839 0.207178 0.766201
O O17 0.581822 0.500000 0.597873
O O18 0.072994 0.000000 0.862750
#
# Coordination Sequence:
#
# PCOD9146149 Si02
#       7
#     4   4   4   4   4   4   4
#     4   7  12  24  45  69  95 127 162 202 244 286
#     4   8  16  32  52  73  99 129 161 200 247 296
#     4  11  21  33  49  73 105 136 165 205 256 299
#     4  11  21  34  54  77  99 129 170 210 245 290
#     4  10  19  33  52  76 104 134 169 206 245 293
#     4   8  13  26  46  68  94 127 166 203 241 290
#     4  10  20  35  54  77 104 133 163 200 250 300
#
# _framework density 25.891815000000001
#
# number of rings (size 3 to 8) (size 9 to 14) (size 15 to 20)
#    0.000    2.714    0.000    6.000    0.000    3.143 
#    0.000    7.143    0.000    5.143    0.000    6.000 
#    0.000    0.000    0.000    0.000    0.000    0.000 
#
# Total GULP energy -156325.826043 kJ/mol
# GULP energy per Si atom -5583.065216 kJ/mol
# Density = 2.583288 g / cm^3
# Si number density = 25.891815 Si / 1000 Ang^3
#
#
#
# Elastic Constant Matrix: (Units=GPa)
#
#
# Indices 1 2 3 4 5 6 
#
# 1 48.3804 -3.3594 46.6274 0.0000 5.8155 0.0000
# 2 -3.3594 81.3704 28.7453 0.0000 5.5353 0.0000
# 3 46.6274 28.7453 247.2131 0.0000 17.6053 0.0000
# 4 0.0000 0.0000 0.0000 6.3876 0.0000 -15.6399
# 5 5.8155 5.5353 17.6053 0.0000 59.3499 0.0000
# 6 0.0000 0.0000 0.0000 -15.6399 0.0000 -43.3774
#
#
#
# Elastic Compliance Matrix: (Units=1/GPa)
#
#
# Indices 1 2 3 4 5 6 
#
# 1 0.026005 0.002985 -0.005160 0.000000 -0.001296 0.000000
# 2 0.002985 0.013193 -0.002031 0.000000 -0.000920 0.000000
# 3 -0.005160 -0.002031 0.005317 0.000000 -0.000882 0.000000
# 4 0.000000 0.000000 0.000000 0.083149 0.000000 -0.029980
# 5 -0.001296 -0.000920 -0.000882 0.000000 0.017324 0.000000
# 6 0.000000 0.000000 0.000000 -0.029980 0.000000 -0.012244
#
#
# Mechanical properties :
#
#
# Convention : Reuss Voigt Hill
#
# Bulk Modulus (GPa) = 27.69902 57.88785 42.79344
# Shear Modulus (GPa) = 32.63896 24.80206 28.72051
#
# Velocity S-wave (km/s) = 3.55433 3.09837 3.33415
# Velocity P-wave (km/s) = 5.25029 5.93346 5.60230
#
# Compressibility (1/GPa) = 0.03610236
#
# Stress axis : x y z
#
# Youngs Moduli (GPa) = 38.45383 75.79819 188.06530
#
# Poissons Ratio (x) = -0.22622 0.97035
# Poissons Ratio (y) = -0.11477 0.38204
# Poissons Ratio (z) = 0.19841 0.15398
#
# Static dielectric constant tensor:
#      x y z
#    x 2.167910 0.000000 0.023900 
#    y 0.000000 1.863950 0.000000 
#    z 0.023900 0.000000 2.133600 
# 
# From -- ./inp_files/94548.got.cif
#   From: 2010.05.17/outbox.cif.g08.bks.cpg/sg10_48_cif.got.tgz:94548.got - 2010.06.03 11:33:40.
