data_PCOD9146958
_publ_section_title
;
Structure prediction by ZEFSAII (Michael W. Deem and Ramdas Pophale) SiO2 
 PCOD9146958
Probable space group: P 2/M
;
_chemical_formula_sum "Si O2"
_cell_formula_units_Z 32
_cell_length_a 14.872813
_cell_length_b 8.810181
_cell_length_c 11.598150
_cell_angle_alpha 90.000000
_cell_angle_beta 95.531498
_cell_angle_gamma 90.000000
_cell_volume 1512.653971
_symmetry_space_group_name_H-M "P 2/M"
_symmetry_group_IT_number 10
_symmetry_cell_setting 'monoclinic'
loop_
_space_group_symop_operation_xyz
x,y,z
-x,y,-z
-x,-y,-z
x,-y,z
loop_
_atom_site_type_symbol
_atom_site_label
_atom_site_fract_x
_atom_site_fract_y
_atom_site_fract_z
Si Si1 0.827717 0.183083 0.784983
Si Si2 0.376123 0.182268 0.217270
Si Si3 0.253921 0.677372 0.591691
Si Si4 0.560280 0.318978 0.278379
Si Si5 0.911607 0.817534 0.562394
Si Si6 0.627501 0.174150 0.051309
Si Si7 0.815575 0.169262 0.198928
Si Si8 0.101916 0.333095 0.976733
O O1 0.722540 0.221059 0.744851
O O2 0.898725 0.229260 0.694342
O O3 0.848477 0.262468 0.907655
O O4 0.832086 0.000000 0.799028
O O5 0.461483 0.254028 0.292083
O O6 0.384474 0.000000 0.220169
O O7 0.380543 0.227666 0.081403
O O8 0.256168 0.500000 0.561704
O O9 0.356897 0.733363 0.628330
O O10 0.184355 0.765937 0.502473
O O11 0.207624 0.706721 0.709691
O O12 0.559608 0.500000 0.282983
O O13 0.582487 0.267288 0.149551
O O14 0.000000 0.762973 0.500000
O O15 0.915908 0.000000 0.560813
O O16 0.732164 0.168431 0.099847
O O17 0.594313 0.000000 0.054657
O O18 0.825523 0.000000 0.250399
O O19 0.897262 0.221090 0.131505
O O20 0.140466 0.500000 0.951909
O O21 0.000000 0.349914 0.000000
#
# Coordination Sequence:
#
# PCOD9146958 Si02
#       8
#     4   4   4   4   4   4   4   4
#     4  10  22  42  63  87 120 156 201 252 300 357
#     4  10  19  34  55  81 114 155 197 242 296 350
#     4  10  22  40  60  86 123 158 197 246 300 357
#     4  10  21  34  52  83 118 156 197 239 289 348
#     4  10  23  43  67  93 115 147 201 255 300 355
#     4   9  17  31  51  78 114 154 195 236 283 343
#     4  10  19  35  59  85 116 157 199 243 294 344
#     4  11  24  38  55  86 125 159 195 238 297 365
#
# _framework density 21.154871
#
# number of rings (size 3 to 8) (size 9 to 14) (size 15 to 20)
#    0.000    2.000    1.250    1.875    1.750    6.250 
#    0.000    0.625    0.000    3.750    0.000    0.000 
#    0.000    0.000    0.000    0.000    0.000    0.000 
#
# Total GULP energy -178459.174989 kJ/mol
# GULP energy per Si atom -5576.849218 kJ/mol
# Density = 2.110672 g / cm^3
# Si number density = 21.154871 Si / 1000 Ang^3
#
#
#
# Elastic Constant Matrix: (Units=GPa)
#
#
# Indices 1 2 3 4 5 6 
#
# 1 92.0310 16.8104 18.6707 0.0000 -5.4170 0.0000
# 2 16.8104 7.4802 -1.9571 0.0000 -7.0843 0.0000
# 3 18.6707 -1.9571 34.1686 0.0000 6.5748 0.0000
# 4 0.0000 0.0000 0.0000 -5.5400 0.0000 10.7351
# 5 -5.4170 -7.0843 6.5748 0.0000 17.4439 0.0000
# 6 0.0000 0.0000 0.0000 10.7351 0.0000 27.0816
#
#
#
# Elastic Compliance Matrix: (Units=1/GPa)
#
#
# Indices 1 2 3 4 5 6 
#
# 1 0.030124 -0.092889 -0.017599 0.000000 -0.021736 0.000000
# 2 -0.092889 0.504432 0.049362 0.000000 0.157408 0.000000
# 3 -0.017599 0.049362 0.041947 0.000000 -0.001229 0.000000
# 4 0.000000 0.000000 0.000000 -0.102090 0.000000 0.040468
# 5 -0.021736 0.157408 -0.001229 0.000000 0.114966 0.000000
# 6 0.000000 0.000000 0.000000 0.040468 0.000000 0.020884
#
#
# Mechanical properties :
#
#
# Convention : Reuss Voigt Hill
#
# Bulk Modulus (GPa) = 2.20143 22.30309 12.25226
# Shear Modulus (GPa) = 5.65655 14.47416 10.06535
#
# Velocity S-wave (km/s) = 1.63697 2.61856 2.18364
# Velocity P-wave (km/s) = 2.14844 4.43938 3.48740
#
# Compressibility (1/GPa) = 0.45425099
#
# Stress axis : x y z
#
# Youngs Moduli (GPa) = 33.19618 1.98243 23.83968
#
# Poissons Ratio (x) = 0.18415 0.41955
# Poissons Ratio (y) = 3.08356 -1.17677
# Poissons Ratio (z) = 0.58421 -0.09786
#
# Static dielectric constant tensor:
#      x y z
#    x 1.818720 0.000000 0.000180 
#    y 0.000000 1.756930 0.000000 
#    z 0.000180 0.000000 1.788480 
# 
# From -- ./inp_files/49774.got.cif
#   From: 2010.05.17/outbox.cif.g08.bks.cpg/sg10_25_cif.got.tgz:49774.got - 2010.06.03 11:33:40.
