data_PCOD9146080
_publ_section_title
;
Structure prediction by ZEFSAII (Michael W. Deem and Ramdas Pophale) SiO2 
 PCOD9146080
Probable space group: P 2/M
;
_chemical_formula_sum "Si O2"
_cell_formula_units_Z 24
_cell_length_a 15.472145
_cell_length_b 11.965243
_cell_length_c 15.774125
_cell_angle_alpha 90.000000
_cell_angle_beta 27.208877
_cell_angle_gamma 90.000000
_cell_volume 1335.234300
_symmetry_space_group_name_H-M "P 2/M"
_symmetry_group_IT_number 10
_symmetry_cell_setting 'monoclinic'
loop_
_space_group_symop_operation_xyz
x,y,z
-x,y,-z
-x,-y,-z
x,-y,z
loop_
_atom_site_type_symbol
_atom_site_label
_atom_site_fract_x
_atom_site_fract_y
_atom_site_fract_z
Si Si1 0.460684 0.258303 0.130471
Si Si2 0.127355 0.705760 0.626618
Si Si3 0.048603 0.500000 0.310216
Si Si4 0.725758 0.500000 0.733459
Si Si5 0.557984 0.633649 0.203415
Si Si6 0.892051 0.131182 0.508459
Si Si7 0.954183 0.633064 0.942946
O O1 0.361368 0.379561 0.208831
O O2 0.604010 0.290018 0.080633
O O3 0.323771 0.162890 0.284649
O O4 0.500000 0.225937 0.000000
O O5 0.349081 0.672287 0.417996
O O6 0.071934 0.806878 0.612021
O O7 0.997535 0.605777 0.704863
O O8 0.074953 0.706766 0.771158
O O9 0.241782 0.500000 0.193235
O O10 0.900583 0.500000 0.516367
O O11 0.547047 0.500000 0.193362
O O12 0.731455 0.647011 0.116607
O O13 0.000000 0.174145 0.500000
O O14 0.928413 0.000000 0.470096
O O15 0.999019 0.500000 0.891094
O O16 0.000000 0.659857 0.000000
#
# Coordination Sequence:
#
# PCOD9146080 Si02
#       7
#     4   4   2   2   4   4   4
#     4  11  21  30  49  79 111 143 176 219 267 319
#     4  11  19  36  56  76 109 146 181 221 272 319
#     4  11  18  28  49  78 105 146 179 214 259 332
#     4  11  19  28  46  79 112 140 180 208 265 327
#     4  10  19  33  49  78 114 144 178 215 263 326
#     4  10  22  38  53  74 106 148 190 221 265 320
#     4  10  22  35  54  84 114 144 177 218 275 335
#
# _framework density 17.974373
#
# number of rings (size 3 to 8) (size 9 to 14) (size 15 to 20)
#    0.000    1.500    5.833    1.250    4.667    1.000 
#    0.000    2.500    0.000    0.500    0.000    4.667 
#    0.000    0.000    0.000    0.000    0.000    0.000 
#
# Total GULP energy -133674.396807 kJ/mol
# GULP energy per Si atom -5569.766534 kJ/mol
# Density = 1.793346 g / cm^3
# Si number density = 17.974373 Si / 1000 Ang^3
#
#
#
# Elastic Constant Matrix: (Units=GPa)
#
#
# Indices 1 2 3 4 5 6 
#
# 1 152.7888 30.6814 43.2368 0.0000 21.2440 0.0000
# 2 30.6814 47.3638 16.5762 0.0000 9.5270 0.0000
# 3 43.2368 16.5762 67.8032 0.0000 17.4661 0.0000
# 4 0.0000 0.0000 0.0000 5.4192 0.0000 1.1217
# 5 21.2440 9.5270 17.4661 0.0000 33.4985 0.0000
# 6 0.0000 0.0000 0.0000 1.1217 0.0000 18.8119
#
#
#
# Elastic Compliance Matrix: (Units=1/GPa)
#
#
# Indices 1 2 3 4 5 6 
#
# 1 0.008787 -0.003792 -0.004064 0.000000 -0.002375 0.000000
# 2 -0.003792 0.025244 -0.002915 0.000000 -0.003255 0.000000
# 3 -0.004064 -0.002915 0.019840 0.000000 -0.006938 0.000000
# 4 0.000000 0.000000 0.000000 0.186834 0.000000 -0.011140
# 5 -0.002375 -0.003255 -0.006938 0.000000 0.035901 0.000000
# 6 0.000000 0.000000 0.000000 -0.011140 0.000000 0.053822
#
#
# Mechanical properties :
#
#
# Convention : Reuss Voigt Hill
#
# Bulk Modulus (GPa) = 30.93232 49.88274 40.40753
# Shear Modulus (GPa) = 13.78369 23.37670 18.58020
#
# Velocity S-wave (km/s) = 2.77221 3.61024 3.21862
# Velocity P-wave (km/s) = 5.24341 6.72241 6.02844
#
# Compressibility (1/GPa) = 0.03232865
#
# Stress axis : x y z
#
# Youngs Moduli (GPa) = 113.80763 39.61273 50.40246
#
# Poissons Ratio (x) = 0.15020 0.20486
# Poissons Ratio (y) = 0.43153 0.14693
# Poissons Ratio (z) = 0.46256 0.11548
#
# Static dielectric constant tensor:
#      x y z
#    x 1.722780 0.000000 0.011930 
#    y 0.000000 1.582220 0.000000 
#    z 0.011930 0.000000 1.721390 
# 
# From -- ./inp_files/37480.got.cif
#   From: 2010.05.17/outbox.cif.g08.bks.cpg/sg10_19_cif.got.tgz:37480.got - 2010.06.03 11:33:40.
