data_PCOD9146678
_publ_section_title
;
Structure prediction by ZEFSAII (Michael W. Deem and Ramdas Pophale) SiO2 
 PCOD9146678
Probable space group: P 2/M
;
_chemical_formula_sum "Si O2"
_cell_formula_units_Z 28
_cell_length_a 12.499332
_cell_length_b 18.452975
_cell_length_c 18.730947
_cell_angle_alpha 90.000000
_cell_angle_beta 19.276886
_cell_angle_gamma 90.000000
_cell_volume 1426.273091
_symmetry_space_group_name_H-M "P 2/M"
_symmetry_group_IT_number 10
_symmetry_cell_setting 'monoclinic'
loop_
_space_group_symop_operation_xyz
x,y,z
-x,y,-z
-x,-y,-z
x,-y,z
loop_
_atom_site_type_symbol
_atom_site_label
_atom_site_fract_x
_atom_site_fract_y
_atom_site_fract_z
Si Si1 0.731545 0.081930 0.483105
Si Si2 0.877733 0.580289 0.279843
Si Si3 0.116023 0.729880 0.760749
Si Si4 0.125813 0.310715 0.229033
Si Si5 0.959853 0.187771 0.609368
Si Si6 0.360855 0.081095 0.985891
Si Si7 0.044031 0.127630 0.888466
O O1 0.406269 0.099353 0.644553
O O2 0.767618 0.139292 0.524034
O O3 0.710154 0.000000 0.523816
O O4 0.049059 0.087501 0.233562
O O5 0.500000 0.573486 0.500000
O O6 0.023356 0.500000 0.182984
O O7 0.988365 0.646479 0.158621
O O8 0.933751 0.618307 0.322030
O O9 0.500000 0.731713 0.500000
O O10 0.035051 0.788148 0.870742
O O11 0.935575 0.743910 0.799187
O O12 0.034149 0.265821 0.356410
O O13 0.500000 0.330289 0.000000
O O14 0.629685 0.142030 0.830051
O O15 0.000000 0.194204 0.500000
O O16 0.500680 0.000000 0.907668
O O17 0.217449 0.089027 0.996672
O O18 0.000000 0.116656 0.000000
#
# Coordination Sequence:
#
# PCOD9146678 Si02
#       7
#     4   4   4   4   4   4   4
#     4  11  24  40  59  78 105 150 199 245 288 336
#     4   8  17  34  60  90 111 141 187 228 262 320
#     4   9  18  34  56  78 107 149 183 230 268 339
#     4  10  19  33  57  82 111 148 183 232 266 332
#     4  12  24  37  56  83 116 150 191 236 287 341
#     4  11  24  41  58  77 108 151 197 242 289 338
#     4  12  23  35  56  85 115 146 189 240 292 340
#
# _framework density 19.631584
#
# number of rings (size 3 to 8) (size 9 to 14) (size 15 to 20)
#    0.857    0.714    0.000    6.857    0.000    6.000 
#    0.000    0.000    0.000    0.857    0.000    2.000 
#    0.000    0.000    0.000    0.000    0.000    0.000 
#
# Total GULP energy -156125.871150 kJ/mol
# GULP energy per Si atom -5575.923970 kJ/mol
# Density = 1.958690 g / cm^3
# Si number density = 19.631584 Si / 1000 Ang^3
#
#
#
# Elastic Constant Matrix: (Units=GPa)
#
#
# Indices 1 2 3 4 5 6 
#
# 1 101.7488 12.3826 23.2456 0.0000 -5.6255 0.0000
# 2 12.3826 126.1019 11.5177 0.0000 2.9963 0.0000
# 3 23.2456 11.5177 45.4759 0.0000 -11.8628 0.0000
# 4 0.0000 0.0000 0.0000 6.4079 0.0000 -18.7943
# 5 -5.6255 2.9963 -11.8628 0.0000 32.8780 0.0000
# 6 0.0000 0.0000 0.0000 -18.7943 0.0000 24.5022
#
#
#
# Elastic Compliance Matrix: (Units=1/GPa)
#
#
# Indices 1 2 3 4 5 6 
#
# 1 0.011170 -0.000587 -0.005573 0.000000 -0.000046 0.000000
# 2 -0.000587 0.008229 -0.002215 0.000000 -0.001649 0.000000
# 3 -0.005573 -0.002215 0.027822 0.000000 0.009287 0.000000
# 4 0.000000 0.000000 0.000000 -0.124873 0.000000 -0.095783
# 5 -0.000046 -0.001649 0.009287 0.000000 0.033909 0.000000
# 6 0.000000 0.000000 0.000000 -0.095783 0.000000 -0.032657
#
#
# Mechanical properties :
#
#
# Convention : Reuss Voigt Hill
#
# Bulk Modulus (GPa) = 32.81672 40.84648 36.83160
# Shear Modulus (GPa) = -101.02358 27.83633 -36.59362
#
# Velocity S-wave (km/s) = -7.18133 3.76963 -4.32211
# Velocity P-wave (km/s) = 7.21175 6.30861 2.47091
#
# Compressibility (1/GPa) = 0.03047227
#
# Stress axis : x y z
#
# Youngs Moduli (GPa) = 89.52356 121.51901 35.94289
#
# Poissons Ratio (x) = 0.07130 0.20032
# Poissons Ratio (y) = 0.05253 0.07960
# Poissons Ratio (z) = 0.49894 0.26911
#
# Static dielectric constant tensor:
#      x y z
#    x 1.707890 0.000000 -0.017310 
#    y 0.000000 1.732570 0.000000 
#    z -0.017310 0.000000 1.723140 
# 
# From -- ./inp_files/77204.got.cif
#   From: 2010.05.17/outbox.cif.g08.bks.cpg/sg10_39_cif.got.tgz:77204.got - 2010.06.03 11:33:40.
