data_PCOD9146802
_publ_section_title
;
Structure prediction by ZEFSAII (Michael W. Deem and Ramdas Pophale) SiO2 
 PCOD9146802
Probable space group: P 2/M
;
_chemical_formula_sum "Si O2"
_cell_formula_units_Z 32
_cell_length_a 11.848291
_cell_length_b 8.667766
_cell_length_c 21.167571
_cell_angle_alpha 90.000000
_cell_angle_beta 60.772810
_cell_angle_gamma 90.000000
_cell_volume 1897.117130
_symmetry_space_group_name_H-M "P 2/M"
_symmetry_group_IT_number 10
_symmetry_cell_setting 'monoclinic'
loop_
_space_group_symop_operation_xyz
x,y,z
-x,y,-z
-x,-y,-z
x,-y,z
loop_
_atom_site_type_symbol
_atom_site_label
_atom_site_fract_x
_atom_site_fract_y
_atom_site_fract_z
Si Si1 0.891061 0.184686 0.479142
Si Si2 0.692752 0.183971 0.942439
Si Si3 0.874266 0.315259 0.346510
Si Si4 0.339120 0.313460 0.243429
Si Si5 0.885250 0.184052 0.786003
Si Si6 0.468871 0.316567 0.913030
Si Si7 0.641512 0.686617 0.616412
Si Si8 0.421350 0.312323 0.583960
O O1 0.916946 0.255412 0.403608
O O2 0.755005 0.245350 0.542520
O O3 0.000000 0.230372 0.500000
O O4 0.889556 0.000000 0.474729
O O5 0.827555 0.221837 0.871219
O O6 0.586317 0.265370 0.926888
O O7 0.674233 0.000000 0.943821
O O8 0.658070 0.238682 0.022396
O O9 0.874417 0.500000 0.347113
O O10 0.726964 0.260016 0.375677
O O11 0.977368 0.256672 0.267661
O O12 0.326409 0.500000 0.244164
O O13 0.220286 0.242790 0.236498
O O14 0.473847 0.273433 0.171024
O O15 0.341523 0.264920 0.315625
O O16 0.893309 0.000000 0.778463
O O17 0.452936 0.500000 0.920217
O O18 0.650400 0.500000 0.611815
O O19 0.505235 0.731334 0.622113
O O20 0.500000 0.261608 0.500000
O O21 0.418114 0.500000 0.582530
#
# Coordination Sequence:
#
# PCOD9146802 Si02
#       8
#     4   4   4   4   4   4   4   4
#     4  11  23  35  47  68  98 126 153 188 232 279
#     4   9  16  26  41  62  90 128 161 183 222 275
#     4  11  21  34  53  71  90 121 159 196 237 283
#     4   9  18  30  47  72  99 128 158 190 233 282
#     4  10  20  32  46  68 101 130 155 194 235 277
#     4   9  15  24  40  65  95 123 154 191 225 265
#     4  10  19  34  53  70  92 122 158 195 233 281
#     4   9  17  33  54  73  89 113 155 203 241 275
#
# _framework density 16.867699999999999
#
# number of rings (size 3 to 8) (size 9 to 14) (size 15 to 20)
#    0.000    2.250    1.250    3.375    0.000    5.500 
#    0.000    1.875    0.000    0.000    0.000    0.875 
#    0.000    7.000    0.000    0.000    0.000    0.000 
#
# Total GULP energy -178370.055527 kJ/mol
# GULP energy per Si atom -5574.064235 kJ/mol
# Density = 1.682931 g / cm^3
# Si number density = 16.867700 Si / 1000 Ang^3
#
#
#
# Elastic Constant Matrix: (Units=GPa)
#
#
# Indices 1 2 3 4 5 6 
#
# 1 63.7878 14.0211 17.5497 0.0000 -24.1711 0.0000
# 2 14.0211 22.2913 15.6350 0.0000 -7.9851 0.0000
# 3 17.5497 15.6350 91.2292 0.0000 -33.6894 0.0000
# 4 0.0000 0.0000 0.0000 26.0191 0.0000 -0.6554
# 5 -24.1711 -7.9851 -33.6894 0.0000 21.6798 0.0000
# 6 0.0000 0.0000 0.0000 -0.6554 0.0000 30.0269
#
#
#
# Elastic Compliance Matrix: (Units=1/GPa)
#
#
# Indices 1 2 3 4 5 6 
#
# 1 0.041442 -0.014722 0.022553 0.000000 0.075828 0.000000
# 2 -0.014722 0.057634 -0.012361 0.000000 -0.014395 0.000000
# 3 0.022553 -0.012361 0.038356 0.000000 0.080196 0.000000
# 4 0.000000 0.000000 0.000000 0.038454 0.000000 0.000839
# 5 0.075828 -0.014395 0.080196 0.000000 0.249987 0.000000
# 6 0.000000 0.000000 0.000000 0.000839 0.000000 0.033322
#
#
# Mechanical properties :
#
#
# Convention : Reuss Voigt Hill
#
# Bulk Modulus (GPa) = 7.78989 30.19109 18.99049
# Shear Modulus (GPa) = 9.78385 24.21866 17.00125
#
# Velocity S-wave (km/s) = 2.41100 3.79331 3.17822
# Velocity P-wave (km/s) = 3.51836 6.09288 4.97504
#
# Compressibility (1/GPa) = 0.12837150
#
# Stress axis : x y z
#
# Youngs Moduli (GPa) = 24.13038 17.35083 26.07125
#
# Poissons Ratio (x) = 0.25544 -0.58798
# Poissons Ratio (y) = 0.35525 0.32227
# Poissons Ratio (z) = -0.54421 0.21447
#
# Static dielectric constant tensor:
#      x y z
#    x 1.549940 0.000000 -0.017600 
#    y 0.000000 1.569730 0.000000 
#    z -0.017600 0.000000 1.607920 
# 
# From -- ./inp_files/56452.got.cif
#   From: 2010.05.17/outbox.cif.g08.bks.cpg/sg10_29_cif.got.tgz:56452.got - 2010.06.03 11:33:40.
