data_PCOD9146469
_publ_section_title
;
Structure prediction by ZEFSAII (Michael W. Deem and Ramdas Pophale) SiO2 
 PCOD9146469
Probable space group: P 2/M
;
_chemical_formula_sum "Si O2"
_cell_formula_units_Z 32
_cell_length_a 8.654229
_cell_length_b 14.235776
_cell_length_c 18.639014
_cell_angle_alpha 90.000000
_cell_angle_beta 135.381636
_cell_angle_gamma 90.000000
_cell_volume 1612.892270
_symmetry_space_group_name_H-M "P 2/M"
_symmetry_group_IT_number 10
_symmetry_cell_setting 'monoclinic'
loop_
_space_group_symop_operation_xyz
x,y,z
-x,y,-z
-x,-y,-z
x,-y,z
loop_
_atom_site_type_symbol
_atom_site_label
_atom_site_fract_x
_atom_site_fract_y
_atom_site_fract_z
Si Si1 0.055885 0.775484 0.933569
Si Si2 0.841392 0.393331 0.664611
Si Si3 0.353839 0.107247 0.227917
Si Si4 0.368266 0.392067 0.031407
Si Si5 0.253014 0.270822 0.781977
Si Si6 0.641501 0.393736 0.437996
Si Si7 0.469043 0.893953 0.095089
Si Si8 0.777608 0.784614 0.393381
O O1 0.841663 0.818282 0.825336
O O2 0.152740 0.672357 0.950446
O O3 0.256034 0.848125 0.988729
O O4 0.000000 0.775059 0.000000
O O5 0.921832 0.500000 0.703475
O O6 0.757914 0.387523 0.554368
O O7 0.619843 0.379683 0.636850
O O8 0.039127 0.321984 0.741469
O O9 0.410044 0.106018 0.160976
O O10 0.573712 0.145701 0.337139
O O11 0.296673 0.000000 0.228835
O O12 0.322548 0.500000 0.036129
O O13 0.534473 0.339918 0.141790
O O14 0.500000 0.391396 0.000000
O O15 0.329906 0.177301 0.848078
O O16 0.205616 0.240208 0.684952
O O17 0.677535 0.500000 0.422921
O O18 0.732662 0.313570 0.417945
O O19 0.512451 0.000000 0.087900
O O20 0.000000 0.825081 0.500000
#
# Coordination Sequence:
#
# PCOD9146469 Si02
#       8
#     4   4   4   4   4   4   4   4
#     4   9  17  33  57  82 106 135 178 227 270 312
#     4   9  17  32  52  73 100 140 182 214 255 315
#     4   9  18  32  52  78 107 140 177 219 269 324
#     4  10  22  38  55  79 113 150 181 212 262 327
#     4  10  19  33  55  80 108 143 180 220 265 314
#     4   9  19  33  50  73 103 139 178 219 262 309
#     4   8  15  29  52  80 106 134 173 221 271 318
#     4  11  21  34  53  82 112 137 179 229 273 311
#
# _framework density 19.840133000000002
#
# number of rings (size 3 to 8) (size 9 to 14) (size 15 to 20)
#    0.000    2.625    1.250    2.250    0.000    4.250 
#    0.000    1.875    0.000   13.125    0.000    1.750 
#    0.000    0.000    0.000    0.000    0.000    0.000 
#
# Total GULP energy -178635.291009 kJ/mol
# GULP energy per Si atom -5582.352844 kJ/mol
# Density = 1.979498 g / cm^3
# Si number density = 19.840133 Si / 1000 Ang^3
#
#
#
# Elastic Constant Matrix: (Units=GPa)
#
#
# Indices 1 2 3 4 5 6 
#
# 1 35.7754 30.8268 30.7644 0.0000 10.0834 0.0000
# 2 30.8268 149.2228 55.8972 0.0000 32.3345 0.0000
# 3 30.7644 55.8972 109.0009 0.0000 27.1798 0.0000
# 4 0.0000 0.0000 0.0000 -4.9632 0.0000 25.4436
# 5 10.0834 32.3345 27.1798 0.0000 32.9587 0.0000
# 6 0.0000 0.0000 0.0000 25.4436 0.0000 6.0946
#
#
#
# Elastic Compliance Matrix: (Units=1/GPa)
#
#
# Indices 1 2 3 4 5 6 
#
# 1 0.039662 -0.004921 -0.008621 0.000000 -0.000196 0.000000
# 2 -0.004921 0.009902 -0.002067 0.000000 -0.006504 0.000000
# 3 -0.008621 -0.002067 0.014482 0.000000 -0.007277 0.000000
# 4 0.000000 0.000000 0.000000 -0.008994 0.000000 0.037548
# 5 -0.000196 -0.006504 -0.007277 0.000000 0.042783 0.000000
# 6 0.000000 0.000000 0.000000 0.037548 0.000000 0.007324
#
#
# Mechanical properties :
#
#
# Convention : Reuss Voigt Hill
#
# Bulk Modulus (GPa) = 30.46348 58.77509 44.61928
# Shear Modulus (GPa) = 33.93948 18.58542 26.26245
#
# Velocity S-wave (km/s) = 4.14049 3.06397 3.64222
# Velocity P-wave (km/s) = 6.18433 6.49661 6.34239
#
# Compressibility (1/GPa) = 0.03282619
#
# Stress axis : x y z
#
# Youngs Moduli (GPa) = 25.21304 100.99359 69.05051
#
# Poissons Ratio (x) = 0.49703 0.59532
# Poissons Ratio (y) = 0.12408 0.14272
# Poissons Ratio (z) = 0.21737 0.20874
#
# Static dielectric constant tensor:
#      x y z
#    x 1.705500 0.000000 -0.006740 
#    y 0.000000 1.683890 0.000000 
#    z -0.006740 0.000000 1.710920 
# 
# From -- ./inp_files/82831.got.cif
#   From: 2010.05.17/outbox.cif.g08.bks.cpg/sg10_42_cif.got.tgz:82831.got - 2010.06.03 11:33:40.
