data_PCOD9146943
_publ_section_title
;
Structure prediction by ZEFSAII (Michael W. Deem and Ramdas Pophale) SiO2 
 PCOD9146943
Probable space group: P 2/M
;
_chemical_formula_sum "Si O2"
_cell_formula_units_Z 28
_cell_length_a 24.881700
_cell_length_b 8.764609
_cell_length_c 19.595016
_cell_angle_alpha 90.000000
_cell_angle_beta 158.317457
_cell_angle_gamma 90.000000
_cell_volume 1578.810241
_symmetry_space_group_name_H-M "P 2/M"
_symmetry_group_IT_number 10
_symmetry_cell_setting 'monoclinic'
loop_
_space_group_symop_operation_xyz
x,y,z
-x,y,-z
-x,-y,-z
x,-y,z
loop_
_atom_site_type_symbol
_atom_site_label
_atom_site_fract_x
_atom_site_fract_y
_atom_site_fract_z
Si Si1 0.395993 0.181745 0.588977
Si Si2 0.669510 0.818056 0.265365
Si Si3 0.167808 0.318073 0.962114
Si Si4 0.163412 0.681024 0.410865
Si Si5 0.708190 0.181592 0.027038
Si Si6 0.447167 0.184226 0.362928
Si Si7 0.655182 0.317897 0.106303
O O1 0.261914 0.269146 0.463499
O O2 0.541884 0.210857 0.805633
O O3 0.438539 0.224831 0.562009
O O4 0.368668 0.000000 0.559534
O O5 0.774246 0.768139 0.449718
O O6 0.720044 0.755115 0.251615
O O7 0.653051 0.000000 0.243785
O O8 0.511207 0.743508 0.092044
O O9 0.183791 0.500000 0.974999
O O10 0.006428 0.283219 0.798004
O O11 0.192775 0.244581 0.917075
O O12 0.293544 0.253987 0.159342
O O13 0.178608 0.500000 0.440164
O O14 0.725430 0.000000 0.054052
O O15 0.729741 0.262244 0.124805
O O16 0.500000 0.230978 0.500000
O O17 0.433172 0.000000 0.345009
O O18 0.654739 0.500000 0.110608
#
# Coordination Sequence:
#
# PCOD9146943 Si02
#       7
#     4   4   4   4   4   4   4
#     4   9  18  32  55  82 107 138 180 223 267 322
#     4  11  21  33  51  76 108 144 185 232 277 322
#     4  10  22  37  55  81 112 146 181 222 274 329
#     4  11  22  36  53  78 112 147 184 225 274 328
#     4  10  19  34  55  80 107 141 187 232 271 324
#     4   9  19  38  62  86 111 140 178 223 269 323
#     4  11  20  32  52  78 108 142 183 231 280 324
#
# _framework density 17.734874000000001
#
# number of rings (size 3 to 8) (size 9 to 14) (size 15 to 20)
#    0.000    1.857    1.429    5.571    0.000    4.857 
#    0.000    1.429    0.000    8.571    0.000    0.000 
#    0.000    0.000    0.000    0.000    0.000    0.000 
#
# Total GULP energy -156357.849884 kJ/mol
# GULP energy per Si atom -5584.208924 kJ/mol
# Density = 1.769451 g / cm^3
# Si number density = 17.734874 Si / 1000 Ang^3
#
#
#
# Elastic Constant Matrix: (Units=GPa)
#
#
# Indices 1 2 3 4 5 6 
#
# 1 133.7320 52.8618 57.4420 0.0000 -8.0381 0.0000
# 2 52.8618 81.1312 45.3378 0.0000 6.0858 0.0000
# 3 57.4420 45.3378 75.1152 0.0000 8.8645 0.0000
# 4 0.0000 0.0000 0.0000 51.8058 0.0000 -6.0475
# 5 -8.0381 6.0858 8.8645 0.0000 26.2160 0.0000
# 6 0.0000 0.0000 0.0000 -6.0475 0.0000 21.1212
#
#
#
# Elastic Compliance Matrix: (Units=1/GPa)
#
#
# Indices 1 2 3 4 5 6 
#
# 1 0.013400 -0.004643 -0.008391 0.000000 0.008024 0.000000
# 2 -0.004643 0.020215 -0.008258 0.000000 -0.003324 0.000000
# 3 -0.008391 -0.008258 0.025822 0.000000 -0.009387 0.000000
# 4 0.000000 0.000000 0.000000 0.019970 0.000000 0.005718
# 5 0.008024 -0.003324 -0.009387 0.000000 0.044551 0.000000
# 6 0.000000 0.000000 0.000000 0.005718 0.000000 0.048983
#
#
# Mechanical properties :
#
#
# Convention : Reuss Voigt Hill
#
# Bulk Modulus (GPa) = 59.34273 66.80685 63.07479
# Shear Modulus (GPa) = 22.60966 28.78439 25.69702
#
# Velocity S-wave (km/s) = 3.57441 4.03307 3.81064
# Velocity P-wave (km/s) = 7.11118 7.70967 7.41646
#
# Compressibility (1/GPa) = 0.01685126
#
# Stress axis : x y z
#
# Youngs Moduli (GPa) = 74.62886 49.46704 38.72629
#
# Poissons Ratio (x) = 0.22969 0.32496
# Poissons Ratio (y) = 0.34653 0.31982
# Poissons Ratio (z) = 0.62623 0.40852
#
# Static dielectric constant tensor:
#      x y z
#    x 1.613140 0.000000 0.006550 
#    y 0.000000 1.592630 0.000000 
#    z 0.006550 0.000000 1.583940 
# 
# From -- ./inp_files/86523.got.cif
#   From: 2010.05.17/outbox.cif.g08.bks.cpg/sg10_44_cif.got.tgz:86523.got - 2010.06.03 11:33:40.
