data_PCOD9146180
_publ_section_title
;
Structure prediction by ZEFSAII (Michael W. Deem and Ramdas Pophale) SiO2 
 PCOD9146180
Probable space group: P 2/M
;
_chemical_formula_sum "Si O2"
_cell_formula_units_Z 20
_cell_length_a 12.513871
_cell_length_b 13.264596
_cell_length_c 10.300863
_cell_angle_alpha 90.000000
_cell_angle_beta 143.064834
_cell_angle_gamma 90.000000
_cell_volume 1027.470625
_symmetry_space_group_name_H-M "P 2/M"
_symmetry_group_IT_number 10
_symmetry_cell_setting 'monoclinic'
loop_
_space_group_symop_operation_xyz
x,y,z
-x,y,-z
-x,-y,-z
x,-y,z
loop_
_atom_site_type_symbol
_atom_site_label
_atom_site_fract_x
_atom_site_fract_y
_atom_site_fract_z
Si Si1 0.992388 0.881800 0.193578
Si Si2 0.437264 0.386823 0.089036
Si Si3 0.370087 0.119849 0.262882
Si Si4 0.651757 0.792207 0.362863
Si Si5 0.174225 0.773385 0.738403
O O1 0.897896 0.862776 0.241453
O O2 0.177501 0.823000 0.386339
O O3 0.029674 0.000000 0.208365
O O4 0.835063 0.846430 0.944058
O O5 0.405203 0.500000 0.105393
O O6 0.588346 0.323755 0.310943
O O7 0.500000 0.393861 0.000000
O O8 0.268480 0.312506 0.915513
O O9 0.500000 0.162580 0.500000
O O10 0.482537 0.142885 0.242642
O O11 0.358222 0.000000 0.268942
O O12 0.702196 0.807922 0.260795
O O13 0.000000 0.727607 0.500000
#
# Coordination Sequence:
#
# PCOD9146180 Si02
#       5
#     4   4   4   4   4
#     4  10  20  33  51  78 108 135 170 208 252 315
#     4   9  17  31  51  76 105 136 170 211 256 305
#     4  10  21  35  52  75 102 137 179 215 252 301
#     4  10  19  33  53  73 107 139 166 208 256 303
#     4   9  18  31  51  79 109 133 170 206 254 318
#
# _framework density 19.465275999999999
#
# number of rings (size 3 to 8) (size 9 to 14) (size 15 to 20)
#    0.000    2.400    2.000    0.600    0.000    5.600 
#    0.000    8.000    0.000    0.600    0.000    1.400 
#    0.000    0.000    0.000    0.000    0.000    0.000 
#
# Total GULP energy -111374.265456 kJ/mol
# GULP energy per Si atom -5568.713273 kJ/mol
# Density = 1.942097 g / cm^3
# Si number density = 19.465276 Si / 1000 Ang^3
#
#
#
# Elastic Constant Matrix: (Units=GPa)
#
#
# Indices 1 2 3 4 5 6 
#
# 1 42.7104 4.5656 21.5625 0.0000 14.0473 0.0000
# 2 4.5656 64.0489 63.0745 0.0000 3.8771 0.0000
# 3 21.5625 63.0745 177.0378 0.0000 26.2322 0.0000
# 4 0.0000 0.0000 0.0000 16.5120 0.0000 2.5203
# 5 14.0473 3.8771 26.2322 0.0000 25.8650 0.0000
# 6 0.0000 0.0000 0.0000 2.5203 0.0000 2.5173
#
#
#
# Elastic Compliance Matrix: (Units=1/GPa)
#
#
# Indices 1 2 3 4 5 6 
#
# 1 0.028801 0.000298 -0.001518 0.000000 -0.014147 0.000000
# 2 0.000298 0.024869 -0.009792 0.000000 0.006041 0.000000
# 3 -0.001518 -0.009792 0.010571 0.000000 -0.008429 0.000000
# 4 0.000000 0.000000 0.000000 0.071486 0.000000 -0.071571
# 5 -0.014147 0.006041 -0.008429 0.000000 0.053988 0.000000
# 6 0.000000 0.000000 0.000000 -0.071571 0.000000 0.468903
#
#
# Mechanical properties :
#
#
# Convention : Reuss Voigt Hill
#
# Bulk Modulus (GPa) = 23.68669 51.35581 37.52125
# Shear Modulus (GPa) = 7.19721 21.95184 14.57452
#
# Velocity S-wave (km/s) = 1.92496 3.36183 2.73929
# Velocity P-wave (km/s) = 4.13954 6.44281 5.41505
#
# Compressibility (1/GPa) = 0.04221781
#
# Stress axis : x y z
#
# Youngs Moduli (GPa) = 34.72117 40.21115 94.60025
#
# Poissons Ratio (x) = -0.01199 0.14359
# Poissons Ratio (y) = -0.01035 0.92628
# Poissons Ratio (z) = 0.05270 0.39373
#
# Static dielectric constant tensor:
#      x y z
#    x 1.743160 0.000000 -0.025080 
#    y 0.000000 1.650230 0.000000 
#    z -0.025080 0.000000 1.778950 
# 
# From -- ./inp_files/28043.got.cif
#   From: 2010.05.17/outbox.cif.g08.bks.cpg/sg10_15_cif.got.tgz:28043.got - 2010.06.03 11:33:40.
