data_PCOD9146136
_publ_section_title
;
Structure prediction by ZEFSAII (Michael W. Deem and Ramdas Pophale) SiO2 
 PCOD9146136
Probable space group: P 2/M
;
_chemical_formula_sum "Si O2"
_cell_formula_units_Z 32
_cell_length_a 11.596129
_cell_length_b 7.400195
_cell_length_c 30.004524
_cell_angle_alpha 90.000000
_cell_angle_beta 150.812198
_cell_angle_gamma 90.000000
_cell_volume 1255.660907
_symmetry_space_group_name_H-M "P 2/M"
_symmetry_group_IT_number 10
_symmetry_cell_setting 'monoclinic'
loop_
_space_group_symop_operation_xyz
x,y,z
-x,y,-z
-x,-y,-z
x,-y,z
loop_
_atom_site_type_symbol
_atom_site_label
_atom_site_fract_x
_atom_site_fract_y
_atom_site_fract_z
Si Si1 0.765348 0.282813 0.394694
Si Si2 0.721687 0.219892 0.043878
Si Si3 0.496894 0.788714 0.218377
Si Si4 0.751608 0.719039 0.562179
Si Si5 0.999682 0.782736 0.220224
Si Si6 0.238379 0.207554 0.775091
Si Si7 0.016089 0.219621 0.953314
Si Si8 0.531611 0.712315 0.400159
O O1 0.775366 0.500000 0.394714
O O2 0.701489 0.224069 0.323897
O O3 0.563986 0.218689 0.361222
O O4 0.000000 0.224854 0.500000
O O5 0.939754 0.270705 0.149883
O O6 0.784490 0.281193 0.014821
O O7 0.703180 0.000000 0.035354
O O8 0.500000 0.277681 0.000000
O O9 0.583112 0.709067 0.200436
O O10 0.245645 0.723412 0.151819
O O11 0.459868 0.000000 0.197148
O O12 0.500000 0.763588 0.500000
O O13 0.774357 0.500000 0.570833
O O14 0.712283 0.782989 0.498127
O O15 0.982096 0.793070 0.664180
O O16 0.812714 0.712836 0.193618
O O17 0.261887 0.731705 0.323254
O O18 0.987295 0.000000 0.217448
O O19 0.313639 0.000000 0.808110
O O20 0.037772 0.000000 0.960803
O O21 0.000000 0.274009 0.000000
O O22 0.584566 0.500000 0.415955
#
# Coordination Sequence:
#
# PCOD9146136 Si02
#       8
#     4   4   4   4   4   4   4   4
#     4  10  21  37  56  77 104 141 184 226 270 323
#     4   9  18  31  51  78 105 135 175 218 264 321
#     4  10  21  36  54  79 112 143 182 226 272 325
#     4  10  19  33  52  74 102 139 182 223 262 314
#     4  10  20  33  51  77 108 138 172 216 267 316
#     4  10  21  33  49  76 109 144 176 218 269 316
#     4   9  18  32  53  79 108 143 179 221 274 328
#     4  10  20  34  53  76 102 135 176 220 265 315
#
# _framework density 25.484586
#
# number of rings (size 3 to 8) (size 9 to 14) (size 15 to 20)
#    0.000    2.250    1.250    1.500    1.750    4.000 
#    0.000    0.000    0.000    0.750    0.000    0.000 
#    0.000    0.000    0.000    0.000    0.000    0.000 
#
# Total GULP energy -178724.733306 kJ/mol
# GULP energy per Si atom -5585.147916 kJ/mol
# Density = 2.542658 g / cm^3
# Si number density = 25.484586 Si / 1000 Ang^3
#
#
#
# Elastic Constant Matrix: (Units=GPa)
#
#
# Indices 1 2 3 4 5 6 
#
# 1 199.6362 0.2616 38.5245 0.0000 -9.6243 0.0000
# 2 0.2616 80.3186 -11.6579 0.0000 -1.0518 0.0000
# 3 38.5245 -11.6579 82.7087 0.0000 -6.3185 0.0000
# 4 0.0000 0.0000 0.0000 13.5462 0.0000 -10.1877
# 5 -9.6243 -1.0518 -6.3185 0.0000 46.7748 0.0000
# 6 0.0000 0.0000 0.0000 -10.1877 0.0000 16.4583
#
#
#
# Elastic Compliance Matrix: (Units=1/GPa)
#
#
# Indices 1 2 3 4 5 6 
#
# 1 0.005545 -0.000382 -0.002576 0.000000 0.000784 0.000000
# 2 -0.000382 0.012750 0.002012 0.000000 0.000480 0.000000
# 3 -0.002576 0.002012 0.013678 0.000000 0.001363 0.000000
# 4 0.000000 0.000000 0.000000 0.138121 0.000000 0.085497
# 5 0.000784 0.000480 0.001363 0.000000 0.021735 0.000000
# 6 0.000000 0.000000 0.000000 0.085497 0.000000 0.113682
#
#
# Mechanical properties :
#
#
# Convention : Reuss Voigt Hill
#
# Bulk Modulus (GPa) = 33.24512 46.32441 39.78477
# Shear Modulus (GPa) = 15.75143 37.72488 26.73815
#
# Velocity S-wave (km/s) = 2.48881 3.85164 3.24263
# Velocity P-wave (km/s) = 4.61870 6.16418 5.44654
#
# Compressibility (1/GPa) = 0.03007960
#
# Stress axis : x y z
#
# Youngs Moduli (GPa) = 180.35521 78.43184 73.10812
#
# Poissons Ratio (x) = 0.02994 0.18836
# Poissons Ratio (y) = 0.06885 -0.14706
# Poissons Ratio (z) = 0.46468 -0.15777
#
# Static dielectric constant tensor:
#      x y z
#    x 2.067160 0.000000 0.017380 
#    y 0.000000 1.995450 0.000000 
#    z 0.017380 0.000000 1.983660 
# 
# From -- ./inp_files/95038.got.cif
#   From: 2010.05.17/outbox.cif.g08.bks.cpg/sg10_48_cif.got.tgz:95038.got - 2010.06.03 11:33:40.
