data_PCOD9146123
_publ_section_title
;
Structure prediction by ZEFSAII (Michael W. Deem and Ramdas Pophale) SiO2 
 PCOD9146123
Probable space group: P 2/M
;
_chemical_formula_sum "Si O2"
_cell_formula_units_Z 24
_cell_length_a 12.176597
_cell_length_b 9.919662
_cell_length_c 9.475794
_cell_angle_alpha 90.000000
_cell_angle_beta 79.351626
_cell_angle_gamma 90.000000
_cell_volume 1124.849945
_symmetry_space_group_name_H-M "P 2/M"
_symmetry_group_IT_number 10
_symmetry_cell_setting 'monoclinic'
loop_
_space_group_symop_operation_xyz
x,y,z
-x,y,-z
-x,-y,-z
x,-y,z
loop_
_atom_site_type_symbol
_atom_site_label
_atom_site_fract_x
_atom_site_fract_y
_atom_site_fract_z
Si Si1 0.252526 0.338450 0.556600
Si Si2 0.276790 0.778432 0.105582
Si Si3 0.968538 0.146996 0.854791
Si Si4 0.103299 0.647566 0.326136
Si Si5 0.673332 0.159783 0.216479
Si Si6 0.586144 0.848188 0.655951
O O1 0.266081 0.500000 0.577302
O O2 0.151571 0.321201 0.468455
O O3 0.248848 0.249557 0.699805
O O4 0.356206 0.269019 0.448113
O O5 0.165526 0.866877 0.112233
O O6 0.213683 0.653546 0.197296
O O7 0.362921 0.835846 0.198581
O O8 0.326871 0.772775 0.938521
O O9 0.981155 0.246066 0.721211
O O10 0.021179 0.000000 0.827191
O O11 0.000000 0.204786 0.000000
O O12 0.053967 0.500000 0.333797
O O13 0.546533 0.164612 0.303860
O O14 0.703124 0.000000 0.201464
O O15 0.614612 0.000000 0.595570
#
# Coordination Sequence:
#
# PCOD9146123 Si02
#       6
#     4   4   4   4   4   4
#     4  10  21  35  49  69 102 138 171 204 242 288
#     4   9  19  32  52  74 104 127 158 210 255 285
#     4   9  17  30  54  82 101 122 158 204 252 297
#     4   8  18  34  52  72  97 132 169 198 239 296
#     4  11  21  31  49  75 101 133 170 203 245 296
#     4  10  19  33  52  72  96 133 175 205 240 295
#
# _framework density 21.336179999999999
#
# number of rings (size 3 to 8) (size 9 to 14) (size 15 to 20)
#    1.000    1.500    0.000    3.000    0.000    5.667 
#    0.000    0.000    0.000    6.000    0.000    5.833 
#    0.000    0.000    0.000    0.000    0.000    0.000 
#
# Total GULP energy -133637.242761 kJ/mol
# GULP energy per Si atom -5568.218448 kJ/mol
# Density = 2.128762 g / cm^3
# Si number density = 21.336180 Si / 1000 Ang^3
#
#
#
# Elastic Constant Matrix: (Units=GPa)
#
#
# Indices 1 2 3 4 5 6 
#
# 1 63.0960 28.6288 26.2674 0.0000 22.2600 0.0000
# 2 28.6288 94.1324 54.6799 0.0000 10.1452 0.0000
# 3 26.2674 54.6799 125.5362 0.0000 24.7515 0.0000
# 4 0.0000 0.0000 0.0000 19.6805 0.0000 8.4563
# 5 22.2600 10.1452 24.7515 0.0000 43.9892 0.0000
# 6 0.0000 0.0000 0.0000 8.4563 0.0000 2.7533
#
#
#
# Elastic Compliance Matrix: (Units=1/GPa)
#
#
# Indices 1 2 3 4 5 6 
#
# 1 0.021834 -0.005424 -0.000308 0.000000 -0.009624 0.000000
# 2 -0.005424 0.015571 -0.006164 0.000000 0.002622 0.000000
# 3 -0.000308 -0.006164 0.011703 0.000000 -0.005007 0.000000
# 4 0.000000 0.000000 0.000000 -0.158939 0.000000 0.488155
# 5 -0.009624 0.002622 -0.005007 0.000000 0.029815 0.000000
# 6 0.000000 0.000000 0.000000 0.488155 0.000000 -1.136086
#
#
# Mechanical properties :
#
#
# Convention : Reuss Voigt Hill
#
# Bulk Modulus (GPa) = 39.50416 55.76854 47.63635
# Shear Modulus (GPa) = -4.22343 24.83052 10.30354
#
# Velocity S-wave (km/s) = -1.40846 3.41512 2.19991
# Velocity P-wave (km/s) = 3.98877 6.46107 5.36916
#
# Compressibility (1/GPa) = 0.02531379
#
# Stress axis : x y z
#
# Youngs Moduli (GPa) = 45.80095 64.22140 85.45114
#
# Poissons Ratio (x) = 0.34833 0.02636
# Poissons Ratio (y) = 0.24842 0.52675
# Poissons Ratio (z) = 0.01413 0.39589
#
# Static dielectric constant tensor:
#      x y z
#    x 1.786290 0.000000 -0.036790 
#    y 0.000000 1.777470 0.000000 
#    z -0.036790 0.000000 1.842670 
# 
# From -- ./inp_files/24066.got.cif
#   From: 2010.05.17/outbox.cif.g08.bks.cpg/sg10_13_cif.got.tgz:24066.got - 2010.06.03 11:33:40.
