data_PCOD9146158
_publ_section_title
;
Structure prediction by ZEFSAII (Michael W. Deem and Ramdas Pophale) SiO2 
 PCOD9146158
Probable space group: P 2/M
;
_chemical_formula_sum "Si O2"
_cell_formula_units_Z 24
_cell_length_a 23.140974
_cell_length_b 7.464397
_cell_length_c 16.462614
_cell_angle_alpha 90.000000
_cell_angle_beta 156.812366
_cell_angle_gamma 90.000000
_cell_volume 1119.666244
_symmetry_space_group_name_H-M "P 2/M"
_symmetry_group_IT_number 10
_symmetry_cell_setting 'monoclinic'
loop_
_space_group_symop_operation_xyz
x,y,z
-x,y,-z
-x,-y,-z
x,-y,z
loop_
_atom_site_type_symbol
_atom_site_label
_atom_site_fract_x
_atom_site_fract_y
_atom_site_fract_z
Si Si1 0.109753 0.718148 0.526208
Si Si2 0.792407 0.718595 0.168909
Si Si3 0.796388 0.280234 0.528063
Si Si4 0.526804 0.707762 0.285453
Si Si5 0.390218 0.790764 0.426150
Si Si6 0.053873 0.716245 0.980785
O O1 0.110318 0.500000 0.526269
O O2 0.186657 0.770948 0.709809
O O3 0.186343 0.777185 0.542541
O O4 0.939424 0.775710 0.311742
O O5 0.795094 0.500000 0.169142
O O6 0.637208 0.783096 0.934145
O O7 0.795013 0.500000 0.527472
O O8 0.650484 0.216095 0.385470
O O9 0.938395 0.224882 0.763736
O O10 0.512804 0.500000 0.243427
O O11 0.584856 0.712449 0.452330
O O12 0.500000 0.715419 0.500000
O O13 0.221229 0.770369 0.182675
O O14 0.424149 0.000000 0.478849
O O15 0.051624 0.500000 0.979136
O O16 0.000000 0.778126 0.000000
#
# Coordination Sequence:
#
# PCOD9146158 Si02
#       6
#     4   4   4   4   4   4
#     4   8  14  26  42  70 107 136 164 203 253 307
#     4   8  15  26  44  71 105 137 165 203 253 304
#     4   9  17  28  46  74 106 134 165 207 254 302
#     4  10  19  33  52  77 103 132 172 215 258 304
#     4  11  25  40  52  73 105 140 176 216 261 312
#     4  10  19  35  56  79 106 135 170 217 261 307
#
# _framework density 21.434958999999999
#
# number of rings (size 3 to 8) (size 9 to 14) (size 15 to 20)
#    0.000    2.667    1.667    1.500    2.333    2.333 
#    0.000    3.333    0.000    0.000    0.000    5.833 
#    0.000    0.000    0.000    0.000    0.000    0.000 
#
# Total GULP energy -133998.657477 kJ/mol
# GULP energy per Si atom -5583.277395 kJ/mol
# Density = 2.138617 g / cm^3
# Si number density = 21.434959 Si / 1000 Ang^3
#
#
#
# Elastic Constant Matrix: (Units=GPa)
#
#
# Indices 1 2 3 4 5 6 
#
# 1 96.5540 3.6694 -4.0877 0.0000 27.9581 0.0000
# 2 3.6694 57.1882 1.5732 0.0000 1.0395 0.0000
# 3 -4.0877 1.5732 83.2789 0.0000 21.4469 0.0000
# 4 0.0000 0.0000 0.0000 -7.1802 0.0000 34.3717
# 5 27.9581 1.0395 21.4469 0.0000 27.8302 0.0000
# 6 0.0000 0.0000 0.0000 34.3717 0.0000 -12.0170
#
#
#
# Elastic Compliance Matrix: (Units=1/GPa)
#
#
# Indices 1 2 3 4 5 6 
#
# 1 0.017101 -0.000874 0.006577 0.000000 -0.022216 0.000000
# 2 -0.000874 0.017545 -0.000539 0.000000 0.000638 0.000000
# 3 0.006577 -0.000539 0.017513 0.000000 -0.020083 0.000000
# 4 0.000000 0.000000 0.000000 0.010973 0.000000 0.031386
# 5 -0.022216 0.000638 -0.020083 0.000000 0.073703 0.000000
# 6 0.000000 0.000000 0.000000 0.031386 0.000000 0.006557
#
#
# Mechanical properties :
#
#
# Convention : Reuss Voigt Hill
#
# Bulk Modulus (GPa) = 16.00306 26.59232 21.29769
# Shear Modulus (GPa) = 32.48989 17.45101 24.97045
#
# Velocity S-wave (km/s) = 3.89748 2.85641 3.41683
# Velocity P-wave (km/s) = 5.26648 4.82822 5.05211
#
# Compressibility (1/GPa) = 0.06248804
#
# Stress axis : x y z
#
# Youngs Moduli (GPa) = 58.47467 56.99485 57.10055
#
# Poissons Ratio (x) = 0.04984 -0.37556
# Poissons Ratio (y) = 0.05113 0.03076
# Poissons Ratio (z) = -0.38460 0.03070
#
# Static dielectric constant tensor:
#      x y z
#    x 1.741790 0.000000 0.017170 
#    y 0.000000 1.825340 0.000000 
#    z 0.017170 0.000000 1.738290 
# 
# From -- ./inp_files/68483.got.cif
#   From: 2010.05.17/outbox.cif.g08.bks.cpg/sg10_35_cif.got.tgz:68483.got - 2010.06.03 11:33:40.
