data_PCOD9146633
_publ_section_title
;
Structure prediction by ZEFSAII (Michael W. Deem and Ramdas Pophale) SiO2 
 PCOD9146633
Probable space group: P 2/M
;
_chemical_formula_sum "Si O2"
_cell_formula_units_Z 28
_cell_length_a 12.083969
_cell_length_b 7.613402
_cell_length_c 15.922636
_cell_angle_alpha 90.000000
_cell_angle_beta 57.745919
_cell_angle_gamma 90.000000
_cell_volume 1238.837748
_symmetry_space_group_name_H-M "P 2/M"
_symmetry_group_IT_number 10
_symmetry_cell_setting 'monoclinic'
loop_
_space_group_symop_operation_xyz
x,y,z
-x,y,-z
-x,-y,-z
x,-y,z
loop_
_atom_site_type_symbol
_atom_site_label
_atom_site_fract_x
_atom_site_fract_y
_atom_site_fract_z
Si Si1 0.137478 0.701957 0.473334
Si Si2 0.163468 0.206154 0.148405
Si Si3 0.147403 0.287781 0.962131
Si Si4 0.318093 0.712167 0.734289
Si Si5 0.117641 0.793754 0.670604
Si Si6 0.567040 0.299282 0.891125
Si Si7 0.416715 0.716223 0.301512
O O1 0.135398 0.500000 0.443349
O O2 0.141780 0.704011 0.572070
O O3 0.272349 0.779423 0.383913
O O4 0.000000 0.783818 0.500000
O O5 0.278512 0.298964 0.152621
O O6 0.018220 0.269310 0.232063
O O7 0.172378 0.000000 0.164312
O O8 0.183796 0.229856 0.040748
O O9 0.148515 0.500000 0.962238
O O10 0.242788 0.228923 0.849233
O O11 0.000000 0.229458 0.000000
O O12 0.315760 0.500000 0.734942
O O13 0.235896 0.770287 0.687471
O O14 0.468619 0.768290 0.681171
O O15 0.102516 0.000000 0.659575
O O16 0.516145 0.500000 0.907402
O O17 0.545987 0.224105 0.807441
O O18 0.500000 0.215050 0.000000
O O19 0.413980 0.500000 0.301799
#
# Coordination Sequence:
#
# PCOD9146633 Si02
#       7
#     4   4   4   4   4   4   4
#     4  10  21  39  63  86 109 144 191 240 287 338
#     4  11  23  36  54  82 119 156 190 234 287 344
#     4  10  19  33  56  84 112 149 195 236 279 334
#     4  10  20  37  60  85 115 148 188 236 285 340
#     4  11  24  39  56  83 117 152 191 234 284 340
#     4  10  20  37  62  88 116 149 190 238 285 338
#     4   9  19  36  59  87 114 144 186 239 292 335
#
# _framework density 22.601831000000001
#
# number of rings (size 3 to 8) (size 9 to 14) (size 15 to 20)
#    0.000    1.857    1.429    2.571    0.000    7.143 
#    0.000    5.000    0.000    0.000    0.000    0.000 
#    0.000    0.000    0.000    0.000    0.000    0.000 
#
# Total GULP energy -156536.558206 kJ/mol
# GULP energy per Si atom -5590.591364 kJ/mol
# Density = 2.255039 g / cm^3
# Si number density = 22.601831 Si / 1000 Ang^3
#
#
#
# Elastic Constant Matrix: (Units=GPa)
#
#
# Indices 1 2 3 4 5 6 
#
# 1 138.8123 -4.4230 43.5123 0.0000 -12.0915 0.0000
# 2 -4.4230 51.6026 -2.4564 0.0000 -8.3358 0.0000
# 3 43.5123 -2.4564 104.7144 0.0000 -4.5960 0.0000
# 4 0.0000 0.0000 0.0000 26.9860 0.0000 0.2601
# 5 -12.0915 -8.3358 -4.5960 0.0000 38.8380 0.0000
# 6 0.0000 0.0000 0.0000 0.2601 0.0000 -36.9132
#
#
#
# Elastic Compliance Matrix: (Units=1/GPa)
#
#
# Indices 1 2 3 4 5 6 
#
# 1 0.008517 0.000964 -0.003409 0.000000 0.002455 0.000000
# 2 0.000964 0.020230 0.000279 0.000000 0.004675 0.000000
# 3 -0.003409 0.000279 0.010986 0.000000 0.000299 0.000000
# 4 0.000000 0.000000 0.000000 0.037054 0.000000 0.000261
# 5 0.002455 0.004675 0.000299 0.000000 0.027551 0.000000
# 6 0.000000 0.000000 0.000000 0.000261 0.000000 -0.027089
#
#
# Mechanical properties :
#
#
# Convention : Reuss Voigt Hill
#
# Bulk Modulus (GPa) = 28.24673 40.93279 34.58976
# Shear Modulus (GPa) = 53.54430 23.01525 38.27978
#
# Velocity S-wave (km/s) = 4.87254 3.19453 4.11987
# Velocity P-wave (km/s) = 6.64682 5.63528 6.16184
#
# Compressibility (1/GPa) = 0.03540233
#
# Stress axis : x y z
#
# Youngs Moduli (GPa) = 117.41112 49.43142 91.02587
#
# Poissons Ratio (x) = -0.04767 0.31028
# Poissons Ratio (y) = -0.11323 -0.02540
# Poissons Ratio (z) = 0.40022 -0.01379
#
# Static dielectric constant tensor:
#      x y z
#    x 1.814780 0.000000 -0.031950 
#    y 0.000000 1.876140 0.000000 
#    z -0.031950 0.000000 1.812450 
# 
# From -- ./inp_files/49117.got.cif
#   From: 2010.05.17/outbox.cif.g08.bks.cpg/sg10_25_cif.got.tgz:49117.got - 2010.06.03 11:33:40.
