data_PCOD9146414
_publ_section_title
;
Structure prediction by ZEFSAII (Michael W. Deem and Ramdas Pophale) SiO2 
 PCOD9146414
Probable space group: P 2/M
;
_chemical_formula_sum "Si O2"
_cell_formula_units_Z 26
_cell_length_a 7.583461
_cell_length_b 7.637056
_cell_length_c 24.169845
_cell_angle_alpha 90.000000
_cell_angle_beta 46.827728
_cell_angle_gamma 90.000000
_cell_volume 1020.876972
_symmetry_space_group_name_H-M "P 2/M"
_symmetry_group_IT_number 10
_symmetry_cell_setting 'monoclinic'
loop_
_space_group_symop_operation_xyz
x,y,z
-x,y,-z
-x,-y,-z
x,-y,z
loop_
_atom_site_type_symbol
_atom_site_label
_atom_site_fract_x
_atom_site_fract_y
_atom_site_fract_z
Si Si1 0.547872 0.212567 0.318390
Si Si2 0.468991 0.698476 0.065942
Si Si3 0.211384 0.701006 0.224732
Si Si4 0.992821 0.786633 0.565132
Si Si5 0.747265 0.199034 0.387172
Si Si6 0.000000 0.740390 0.000000
Si Si7 0.701063 0.798018 0.172841
O O1 0.277802 0.259374 0.357622
O O2 0.593171 0.281805 0.370582
O O3 0.733323 0.262648 0.229538
O O4 0.559489 0.000000 0.321806
O O5 0.378322 0.500000 0.075567
O O6 0.285154 0.779734 0.149249
O O7 0.732810 0.682564 0.037395
O O8 0.500000 0.786185 0.000000
O O9 0.127346 0.500000 0.237579
O O10 0.469051 0.698020 0.199786
O O11 0.011557 0.804034 0.301297
O O12 0.000000 0.730607 0.500000
O O13 0.195984 0.722835 0.564614
O O14 0.010732 0.000000 0.561705
O O15 0.659563 0.000000 0.414231
O O16 0.910065 0.797000 0.081701
O O17 0.623950 0.000000 0.193103
#
# Coordination Sequence:
#
# PCOD9146414 Si02
#       7
#     4   4   4   4   4   2   4
#     4   9  18  31  51  79 107 139 174 210 261 316
#     4   9  19  34  49  70 104 140 176 221 270 312
#     4  10  20  34  54  78 104 139 184 222 260 315
#     4   9  17  31  53  82 111 137 169 212 262 316
#     4  10  19  33  55  78 108 141 169 214 267 311
#     4  10  20  30  52  76 101 136 183 220 261 312
#     4  10  19  35  54  75 110 143 176 219 268 315
#
# _framework density 25.468298000000001
#
# number of rings (size 3 to 8) (size 9 to 14) (size 15 to 20)
#    0.000    2.462    1.538    0.923    2.154    1.231 
#    0.000    3.846    0.000    3.231    0.000    1.077 
#    0.000    0.000    0.000    0.000    0.000    0.000 
#
# Total GULP energy -144763.061521 kJ/mol
# GULP energy per Si atom -5567.810058 kJ/mol
# Density = 2.541033 g / cm^3
# Si number density = 25.468298 Si / 1000 Ang^3
#
#
#
# Elastic Constant Matrix: (Units=GPa)
#
#
# Indices 1 2 3 4 5 6 
#
# 1 134.6204 -5.5014 34.5254 0.0000 33.9755 0.0000
# 2 -5.5014 45.6405 15.3382 0.0000 -0.6991 0.0000
# 3 34.5254 15.3382 147.0452 0.0000 42.5495 0.0000
# 4 0.0000 0.0000 0.0000 -7.1758 0.0000 1.1520
# 5 33.9755 -0.6991 42.5495 0.0000 61.7796 0.0000
# 6 0.0000 0.0000 0.0000 1.1520 0.0000 7.5609
#
#
#
# Elastic Compliance Matrix: (Units=1/GPa)
#
#
# Indices 1 2 3 4 5 6 
#
# 1 0.008781 0.001334 -0.001009 0.000000 -0.004119 0.000000
# 2 0.001334 0.023188 -0.003242 0.000000 0.001761 0.000000
# 3 -0.001009 -0.003242 0.009024 0.000000 -0.005697 0.000000
# 4 0.000000 0.000000 0.000000 -0.136031 0.000000 0.020726
# 5 -0.004119 0.001761 -0.005697 0.000000 0.022395 0.000000
# 6 0.000000 0.000000 0.000000 0.020726 0.000000 0.129102
#
#
# Mechanical properties :
#
#
# Convention : Reuss Voigt Hill
#
# Bulk Modulus (GPa) = 28.44093 46.22562 37.33327
# Shear Modulus (GPa) = 67.55652 31.29588 49.42620
#
# Velocity S-wave (km/s) = 5.15590 3.50925 4.41011
# Velocity P-wave (km/s) = 6.82904 5.88298 6.37359
#
# Compressibility (1/GPa) = 0.03516060
#
# Stress axis : x y z
#
# Youngs Moduli (GPa) = 113.87962 43.12651 110.81339
#
# Poissons Ratio (x) = -0.05755 0.11182
# Poissons Ratio (y) = -0.15197 0.35922
# Poissons Ratio (z) = 0.11491 0.13980
#
# Static dielectric constant tensor:
#      x y z
#    x 2.028110 0.000000 0.064210 
#    y 0.000000 1.988740 0.000000 
#    z 0.064210 0.000000 2.043210 
# 
# From -- ./inp_files/87983.got.cif
#   From: 2010.05.17/outbox.cif.g08.bks.cpg/sg10_44_cif.got.tgz:87983.got - 2010.06.03 11:33:40.
