data_PCOD9146174
_publ_section_title
;
Structure prediction by ZEFSAII (Michael W. Deem and Ramdas Pophale) SiO2 
 PCOD9146174
Probable space group: P 2/M
;
_chemical_formula_sum "Si O2"
_cell_formula_units_Z 18
_cell_length_a 17.174732
_cell_length_b 12.705393
_cell_length_c 5.283860
_cell_angle_alpha 90.000000
_cell_angle_beta 121.808713
_cell_angle_gamma 90.000000
_cell_volume 979.834019
_symmetry_space_group_name_H-M "P 2/M"
_symmetry_group_IT_number 10
_symmetry_cell_setting 'monoclinic'
loop_
_space_group_symop_operation_xyz
x,y,z
-x,y,-z
-x,-y,-z
x,-y,z
loop_
_atom_site_type_symbol
_atom_site_label
_atom_site_fract_x
_atom_site_fract_y
_atom_site_fract_z
Si Si1 0.253077 0.251641 0.854625
Si Si2 0.087980 0.885567 0.474774
Si Si3 0.561249 0.877075 0.855790
Si Si4 0.000000 0.703368 0.000000
Si Si5 0.193665 0.376729 0.244208
O O1 0.180791 0.154722 0.761920
O O2 0.228602 0.317645 0.558519
O O3 0.352598 0.200280 0.003107
O O4 0.239515 0.324016 0.077425
O O5 0.000000 0.897579 0.500000
O O6 0.057359 0.785829 0.262173
O O7 0.102572 0.000000 0.372384
O O8 0.500000 0.863314 0.500000
O O9 0.591528 0.000000 0.914428
O O10 0.500000 0.858892 0.000000
O O11 0.082505 0.636569 0.021634
O O12 0.214146 0.500000 0.297612
#
# Coordination Sequence:
#
# PCOD9146174 Si02
#       5
#     4   4   4   2   4
#     4  11  22  39  60  87 116 155 192 238 294 343
#     4  10  19  33  52  82 121 154 185 224 280 354
#     4  10  21  39  64  93 120 149 188 235 289 351
#     4  10  20  36  52  82 114 162 198 240 282 334
#     4  11  23  38  59  82 115 155 203 247 284 332
#
# _framework density 18.370457999999999
#
# number of rings (size 3 to 8) (size 9 to 14) (size 15 to 20)
#    0.000    1.556    2.222    3.333    0.000    0.000 
#    0.000    5.556    0.000   13.333    0.000    0.000 
#    0.000    0.000    0.000    0.000    0.000    0.000 
#
# Total GULP energy -100276.932675 kJ/mol
# GULP energy per Si atom -5570.940704 kJ/mol
# Density = 1.832865 g / cm^3
# Si number density = 18.370458 Si / 1000 Ang^3
#
#
#
# Elastic Constant Matrix: (Units=GPa)
#
#
# Indices 1 2 3 4 5 6 
#
# 1 128.3995 87.8624 67.0565 0.0000 0.7199 0.0000
# 2 87.8624 127.0656 67.8581 0.0000 11.8504 0.0000
# 3 67.0565 67.8581 91.5634 0.0000 -6.6691 0.0000
# 4 0.0000 0.0000 0.0000 29.7176 0.0000 71.5008
# 5 0.7199 11.8504 -6.6691 0.0000 33.2817 0.0000
# 6 0.0000 0.0000 0.0000 71.5008 0.0000 461.7742
#
#
#
# Elastic Compliance Matrix: (Units=1/GPa)
#
#
# Indices 1 2 3 4 5 6 
#
# 1 0.016650 -0.008620 -0.005691 0.000000 0.001569 0.000000
# 2 -0.008620 0.019131 -0.008471 0.000000 -0.008323 0.000000
# 3 -0.005691 -0.008471 0.021916 0.000000 0.007531 0.000000
# 4 0.000000 0.000000 0.000000 0.053630 0.000000 -0.008304
# 5 0.001569 -0.008323 0.007531 0.000000 0.034485 0.000000
# 6 0.000000 0.000000 0.000000 -0.008304 0.000000 0.003451
#
#
# Mechanical properties :
#
#
# Convention : Reuss Voigt Hill
#
# Bulk Modulus (GPa) = 82.42664 88.06473 85.24568
# Shear Modulus (GPa) = 25.14189 113.23813 69.19001
#
# Velocity S-wave (km/s) = 3.70348 7.85972 6.14374
# Velocity P-wave (km/s) = 7.95325 11.41969 9.84031
#
# Compressibility (1/GPa) = 0.01213200
#
# Stress axis : x y z
#
# Youngs Moduli (GPa) = 60.05888 52.27199 45.62961
#
# Poissons Ratio (x) = 0.45060 0.25968
# Poissons Ratio (y) = 0.51773 0.38653
# Poissons Ratio (z) = 0.34180 0.44279
#
# Static dielectric constant tensor:
#      x y z
#    x 1.626110 0.000000 0.030670 
#    y 0.000000 1.710940 0.000000 
#    z 0.030670 0.000000 1.634080 
# 
# From -- ./inp_files/6247.got.cif
#   From: 2010.05.17/outbox.cif.g08.bks.cpg/sg10_4_cif.got.tgz:6247.got - 2010.06.03 11:33:40.
