data_PCOD9146273
_publ_section_title
;
Structure prediction by ZEFSAII (Michael W. Deem and Ramdas Pophale) SiO2 
 PCOD9146273
Probable space group: P 2/M
;
_chemical_formula_sum "Si O2"
_cell_formula_units_Z 24
_cell_length_a 9.752919
_cell_length_b 15.056403
_cell_length_c 11.854548
_cell_angle_alpha 90.000000
_cell_angle_beta 39.158999
_cell_angle_gamma 90.000000
_cell_volume 1099.250637
_symmetry_space_group_name_H-M "P 2/M"
_symmetry_group_IT_number 10
_symmetry_cell_setting 'monoclinic'
loop_
_space_group_symop_operation_xyz
x,y,z
-x,y,-z
-x,-y,-z
x,-y,z
loop_
_atom_site_type_symbol
_atom_site_label
_atom_site_fract_x
_atom_site_fract_y
_atom_site_fract_z
Si Si1 0.817324 0.396602 0.491068
Si Si2 0.876134 0.904091 0.254826
Si Si3 0.387445 0.710034 0.830461
Si Si4 0.245563 0.715601 0.674895
Si Si5 0.248684 0.397247 0.124994
Si Si6 0.350583 0.905546 0.837632
O O1 0.784812 0.500000 0.536062
O O2 0.610023 0.344474 0.671593
O O3 0.803738 0.371790 0.365533
O O4 0.077225 0.376583 0.335225
O O5 0.856281 0.804812 0.315647
O O6 0.704587 0.903828 0.260471
O O7 0.846275 0.000000 0.334299
O O8 0.115189 0.906270 0.047632
O O9 0.234620 0.707081 0.816680
O O10 0.453881 0.812687 0.805369
O O11 0.246915 0.670584 0.021997
O O12 0.500000 0.731275 0.500000
O O13 0.205576 0.500000 0.119546
O O14 0.500000 0.393710 0.000000
O O15 0.459370 0.000000 0.794984
#
# Coordination Sequence:
#
# PCOD9146273 Si02
#       6
#     4   4   4   4   4   4
#     4  10  21  35  51  75 104 132 167 207 247 299
#     4   8  13  23  40  65 100 137 168 198 236 284
#     4  10  19  33  54  75 104 139 164 198 252 300
#     4   9  18  29  45  74 107 137 167 200 241 301
#     4  10  22  38  55  76  98 125 170 218 253 293
#     4   8  14  25  44  70  98 130 167 203 239 288
#
# _framework density 21.833055999999999
#
# number of rings (size 3 to 8) (size 9 to 14) (size 15 to 20)
#    0.000    2.833    0.000    2.500    0.000    6.667 
#    0.000    6.667    0.000    1.500    0.000    1.167 
#    0.000    0.000    0.000    0.000    0.000    0.000 
#
# Total GULP energy -133620.597060 kJ/mol
# GULP energy per Si atom -5567.524877 kJ/mol
# Density = 2.178336 g / cm^3
# Si number density = 21.833056 Si / 1000 Ang^3
#
#
#
# Elastic Constant Matrix: (Units=GPa)
#
#
# Indices 1 2 3 4 5 6 
#
# 1 9.7814 14.0034 2.8440 0.0000 -5.6885 0.0000
# 2 14.0034 111.9883 47.3941 0.0000 -8.6028 0.0000
# 3 2.8440 47.3941 125.8399 0.0000 -13.4814 0.0000
# 4 0.0000 0.0000 0.0000 21.5050 0.0000 -10.2890
# 5 -5.6885 -8.6028 -13.4814 0.0000 24.7399 0.0000
# 6 0.0000 0.0000 0.0000 -10.2890 0.0000 -7.0972
#
#
#
# Elastic Compliance Matrix: (Units=1/GPa)
#
#
# Indices 1 2 3 4 5 6 
#
# 1 0.144839 -0.018750 0.007070 0.000000 0.030636 0.000000
# 2 -0.018750 0.013110 -0.004766 0.000000 -0.002349 0.000000
# 3 0.007070 -0.004766 0.010172 0.000000 0.005512 0.000000
# 4 0.000000 0.000000 0.000000 0.027457 0.000000 -0.039804
# 5 0.030636 -0.002349 0.005512 0.000000 0.049651 0.000000
# 6 0.000000 0.000000 0.000000 -0.039804 0.000000 -0.083195
#
#
# Mechanical properties :
#
#
# Convention : Reuss Voigt Hill
#
# Bulk Modulus (GPa) = 7.39476 41.78807 24.59142
# Shear Modulus (GPa) = 20.83318 20.05407 20.44362
#
# Velocity S-wave (km/s) = 3.09237 3.03400 3.06332
# Velocity P-wave (km/s) = 4.01804 5.60846 4.87850
#
# Compressibility (1/GPa) = 0.13523095
#
# Stress axis : x y z
#
# Youngs Moduli (GPa) = 6.90423 76.27520 98.30800
#
# Poissons Ratio (x) = 1.43015 -0.69507
# Poissons Ratio (y) = 0.12945 0.46850
# Poissons Ratio (z) = -0.04881 0.36350
#
# Static dielectric constant tensor:
#      x y z
#    x 1.915550 0.000000 0.011360 
#    y 0.000000 1.854560 0.000000 
#    z 0.011360 0.000000 1.867040 
# 
# From -- ./inp_files/65010.got.cif
#   From: 2010.05.17/outbox.cif.g08.bks.cpg/sg10_33_cif.got.tgz:65010.got - 2010.06.03 11:33:40.
