data_PCOD9146035
_publ_section_title
;
Structure prediction by ZEFSAII (Michael W. Deem and Ramdas Pophale) SiO2 
 PCOD9146035
Probable space group: P 2/M
;
_chemical_formula_sum "Si O2"
_cell_formula_units_Z 32
_cell_length_a 14.944224
_cell_length_b 7.536282
_cell_length_c 14.648928
_cell_angle_alpha 90.000000
_cell_angle_beta 114.371432
_cell_angle_gamma 90.000000
_cell_volume 1502.803027
_symmetry_space_group_name_H-M "P 2/M"
_symmetry_group_IT_number 10
_symmetry_cell_setting 'monoclinic'
loop_
_space_group_symop_operation_xyz
x,y,z
-x,y,-z
-x,-y,-z
x,-y,z
loop_
_atom_site_type_symbol
_atom_site_label
_atom_site_fract_x
_atom_site_fract_y
_atom_site_fract_z
Si Si1 0.610481 0.710127 0.049526
Si Si2 0.581741 0.216277 0.406182
Si Si3 0.983424 0.211611 0.207722
Si Si4 0.293053 0.214731 0.714487
Si Si5 0.174181 0.788798 0.184350
Si Si6 0.633688 0.216740 0.631260
Si Si7 0.065944 0.217310 0.613096
Si Si8 0.790346 0.289023 0.011098
O O1 0.601847 0.500000 0.027282
O O2 0.659227 0.731421 0.169465
O O3 0.688090 0.784238 0.008486
O O4 0.500000 0.784614 0.000000
O O5 0.641359 0.277054 0.343187
O O6 0.628817 0.269407 0.522983
O O7 0.467826 0.271713 0.363038
O O8 0.582567 0.000000 0.404941
O O9 0.978565 0.278351 0.309175
O O10 0.879844 0.240610 0.114961
O O11 0.073234 0.282499 0.184834
O O12 0.996106 0.000000 0.219621
O O13 0.179936 0.273001 0.657262
O O14 0.292355 0.000000 0.712791
O O15 0.270091 0.718542 0.276631
O O16 0.173604 0.000000 0.199427
O O17 0.184618 0.764175 0.081018
O O18 0.633769 0.000000 0.632273
O O19 0.000000 0.274174 0.500000
O O20 0.066110 0.000000 0.612830
O O21 0.782905 0.500000 0.008696
#
# Coordination Sequence:
#
# PCOD9146035 Si02
#       8
#     4   4   4   4   4   4   4   4
#     4  10  23  41  57  75 105 145 181 218 275 333
#     4   8  15  27  47  75 109 138 166 206 258 308
#     4  10  20  36  55  79 109 139 173 215 264 313
#     4  10  19  32  56  86 108 135 178 225 265 311
#     4  10  21  33  54  81 106 137 175 217 262 311
#     4   8  15  29  46  74 111 140 164 205 259 312
#     4   9  18  31  51  81 114 142 171 213 264 316
#     4  11  23  39  57  75 101 138 178 220 266 317
#
# _framework density 21.293543
#
# number of rings (size 3 to 8) (size 9 to 14) (size 15 to 20)
#    0.000    2.500    1.250    1.500    3.500    2.750 
#    0.000    0.000    0.000    2.250    0.000    1.750 
#    0.000    0.000    0.000    0.000    0.000    0.000 
#
# Total GULP energy -178715.111726 kJ/mol
# GULP energy per Si atom -5584.847241 kJ/mol
# Density = 2.124508 g / cm^3
# Si number density = 21.293543 Si / 1000 Ang^3
#
#
#
# Elastic Constant Matrix: (Units=GPa)
#
#
# Indices 1 2 3 4 5 6 
#
# 1 217.0630 6.1025 115.1506 0.0000 -13.4420 0.0000
# 2 6.1025 52.3469 -5.8301 0.0000 1.3982 0.0000
# 3 115.1506 -5.8301 121.3764 0.0000 10.8452 0.0000
# 4 0.0000 0.0000 0.0000 116.6226 0.0000 -4.7169
# 5 -13.4420 1.3982 10.8452 0.0000 40.0843 0.0000
# 6 0.0000 0.0000 0.0000 -4.7169 0.0000 5.1300
#
#
#
# Elastic Compliance Matrix: (Units=1/GPa)
#
#
# Indices 1 2 3 4 5 6 
#
# 1 0.011078 -0.002728 -0.011253 0.000000 0.006855 0.000000
# 2 -0.002728 0.019913 0.003780 0.000000 -0.002632 0.000000
# 3 -0.011253 0.003780 0.019927 0.000000 -0.009297 0.000000
# 4 0.000000 0.000000 0.000000 0.008906 0.000000 0.008189
# 5 0.006855 -0.002632 -0.009297 0.000000 0.029853 0.000000
# 6 0.000000 0.000000 0.000000 0.008189 0.000000 0.202461
#
#
# Mechanical properties :
#
#
# Convention : Reuss Voigt Hill
#
# Bulk Modulus (GPa) = 32.77120 69.07023 50.92071
# Shear Modulus (GPa) = 15.49368 50.72492 33.10930
#
# Velocity S-wave (km/s) = 2.70038 4.88605 3.94750
# Velocity P-wave (km/s) = 5.01461 8.02115 6.68899
#
# Compressibility (1/GPa) = 0.03051460
#
# Stress axis : x y z
#
# Youngs Moduli (GPa) = 90.27019 50.21952 50.18317
#
# Poissons Ratio (x) = 0.13699 0.56472
# Poissons Ratio (y) = 0.24624 -0.18967
# Poissons Ratio (z) = 1.01582 -0.18981
#
# Static dielectric constant tensor:
#      x y z
#    x 1.769550 0.000000 0.018980 
#    y 0.000000 1.824670 0.000000 
#    z 0.018980 0.000000 1.614550 
# 
# From -- ./inp_files/66574.got.cif
#   From: 2010.05.17/outbox.cif.g08.bks.cpg/sg10_34_cif.got.tgz:66574.got - 2010.06.03 11:33:40.
