data_PCOD9146162
_publ_section_title
;
Structure prediction by ZEFSAII (Michael W. Deem and Ramdas Pophale) SiO2 
 PCOD9146162
Probable space group: P 2/M
;
_chemical_formula_sum "Si O2"
_cell_formula_units_Z 32
_cell_length_a 16.153835
_cell_length_b 20.614870
_cell_length_c 15.680390
_cell_angle_alpha 90.000000
_cell_angle_beta 160.967137
_cell_angle_gamma 90.000000
_cell_volume 1702.855430
_symmetry_space_group_name_H-M "P 2/M"
_symmetry_group_IT_number 10
_symmetry_cell_setting 'monoclinic'
loop_
_space_group_symop_operation_xyz
x,y,z
-x,y,-z
-x,-y,-z
x,-y,z
loop_
_atom_site_type_symbol
_atom_site_label
_atom_site_fract_x
_atom_site_fract_y
_atom_site_fract_z
Si Si1 0.409042 0.821077 0.502482
Si Si2 0.240888 0.421428 0.287807
Si Si3 0.710402 0.423251 0.462721
Si Si4 0.863608 0.134182 0.179046
Si Si5 0.234193 0.751984 0.790393
Si Si6 0.624756 0.075145 0.377106
Si Si7 0.800370 0.349863 0.089356
Si Si8 0.105095 0.237486 0.945399
O O1 0.500000 0.847313 0.500000
O O2 0.386616 0.878555 0.550402
O O3 0.145510 0.781336 0.245904
O O4 0.634834 0.773738 0.751577
O O5 0.500000 0.395595 0.500000
O O6 0.240010 0.500000 0.275739
O O7 0.246749 0.411368 0.394503
O O8 0.000000 0.396237 0.000000
O O9 0.677073 0.500000 0.418364
O O10 0.964808 0.397768 0.664952
O O11 0.459281 0.386362 0.186769
O O12 0.815502 0.178018 0.214713
O O13 0.890890 0.185734 0.128302
O O14 0.124198 0.094526 0.431114
O O15 0.622971 0.090699 0.920229
O O16 0.242489 0.698785 0.873730
O O17 0.000000 0.737483 0.500000
O O18 0.500000 0.752111 0.000000
O O19 0.632770 0.000000 0.409261
O O20 0.887345 0.306225 0.093502
#
# Coordination Sequence:
#
# PCOD9146162 Si02
#       8
#     4   4   4   4   4   4   4   4
#     4  10  19  33  52  77 113 149 189 240 280 314
#     4   9  17  31  50  72 101 139 184 225 255 291
#     4  11  22  37  59  84 115 155 188 222 276 342
#     4   9  19  35  56  81 109 142 183 227 272 326
#     4  11  22  39  66  91 109 136 181 239 291 335
#     4  10  19  33  55  81 113 157 195 221 265 328
#     4  11  22  39  60  84 112 140 185 233 277 350
#     4   9  19  35  53  74 103 144 185 231 283 318
#
# _framework density 18.791965999999999
#
# number of rings (size 3 to 8) (size 9 to 14) (size 15 to 20)
#    0.000    2.000    0.000    4.125    0.000    6.250 
#    0.000    6.250    0.000   19.500    0.000    0.000 
#    0.000    0.000    0.000    0.000    0.000    0.000 
#
# Total GULP energy -178649.088343 kJ/mol
# GULP energy per Si atom -5582.784011 kJ/mol
# Density = 1.874919 g / cm^3
# Si number density = 18.791966 Si / 1000 Ang^3
#
#
#
# Elastic Constant Matrix: (Units=GPa)
#
#
# Indices 1 2 3 4 5 6 
#
# 1 97.9458 45.6166 56.6270 0.0000 19.5517 0.0000
# 2 45.6166 89.3583 60.3062 0.0000 4.1132 0.0000
# 3 56.6270 60.3062 167.7651 0.0000 27.9855 0.0000
# 4 0.0000 0.0000 0.0000 32.9016 0.0000 6.0711
# 5 19.5517 4.1132 27.9855 0.0000 26.7116 0.0000
# 6 0.0000 0.0000 0.0000 6.0711 0.0000 23.0359
#
#
#
# Elastic Compliance Matrix: (Units=1/GPa)
#
#
# Indices 1 2 3 4 5 6 
#
# 1 0.016040 -0.006794 -0.001440 0.000000 -0.009186 0.000000
# 2 -0.006794 0.018012 -0.005512 0.000000 0.007974 0.000000
# 3 -0.001440 -0.005512 0.009828 0.000000 -0.008394 0.000000
# 4 0.000000 0.000000 0.000000 0.031947 0.000000 -0.008420
# 5 -0.009186 0.007974 -0.008394 0.000000 0.051728 0.000000
# 6 0.000000 0.000000 0.000000 -0.008420 0.000000 0.045630
#
#
# Mechanical properties :
#
#
# Convention : Reuss Voigt Hill
#
# Bulk Modulus (GPa) = 61.01341 75.57430 68.29386
# Shear Modulus (GPa) = 24.25567 29.36444 26.81005
#
# Velocity S-wave (km/s) = 3.59659 3.95727 3.78123
# Velocity P-wave (km/s) = 7.05589 7.82199 7.44880
#
# Compressibility (1/GPa) = 0.01638984
#
# Stress axis : x y z
#
# Youngs Moduli (GPa) = 62.34492 55.51941 101.74847
#
# Poissons Ratio (x) = 0.37719 0.14647
# Poissons Ratio (y) = 0.42356 0.56080
# Poissons Ratio (z) = 0.08975 0.30600
#
# Static dielectric constant tensor:
#      x y z
#    x 1.651010 0.000000 -0.007170 
#    y 0.000000 1.639400 0.000000 
#    z -0.007170 0.000000 1.653520 
# 
# From -- ./inp_files/67947.got.cif
#   From: 2010.05.17/outbox.cif.g08.bks.cpg/sg10_34_cif.got.tgz:67947.got - 2010.06.03 11:33:40.
