data_PCOD9146388
_publ_section_title
;
Structure prediction by ZEFSAII (Michael W. Deem and Ramdas Pophale) SiO2 
 PCOD9146388
Probable space group: P 2/M
;
_chemical_formula_sum "Si O2"
_cell_formula_units_Z 32
_cell_length_a 10.572851
_cell_length_b 15.972900
_cell_length_c 14.956435
_cell_angle_alpha 90.000000
_cell_angle_beta 144.614966
_cell_angle_gamma 90.000000
_cell_volume 1462.627436
_symmetry_space_group_name_H-M "P 2/M"
_symmetry_group_IT_number 10
_symmetry_cell_setting 'monoclinic'
loop_
_space_group_symop_operation_xyz
x,y,z
-x,y,-z
-x,-y,-z
x,-y,z
loop_
_atom_site_type_symbol
_atom_site_label
_atom_site_fract_x
_atom_site_fract_y
_atom_site_fract_z
Si Si1 0.817308 0.091219 0.613427
Si Si2 0.373656 0.402913 0.663796
Si Si3 0.817067 0.721069 0.109565
Si Si4 0.118703 0.592936 0.985684
Si Si5 0.816814 0.089513 0.318273
Si Si6 0.098647 0.158097 0.150675
Si Si7 0.533591 0.745263 0.415484
Si Si8 0.308802 0.272431 0.769934
O O1 0.819758 0.096699 0.722905
O O2 0.691249 0.173183 0.505766
O O3 0.055505 0.093160 0.703165
O O4 0.723199 0.000000 0.532927
O O5 0.300415 0.500000 0.607822
O O6 0.626021 0.409570 0.842920
O O7 0.383869 0.336971 0.587958
O O8 0.254464 0.347806 0.671789
O O9 0.842482 0.726115 0.229766
O O10 0.918376 0.791710 0.104919
O O11 0.919834 0.637564 0.129331
O O12 0.559571 0.716439 0.942975
O O13 0.028197 0.500000 0.926906
O O14 0.000000 0.636786 0.000000
O O15 0.699276 0.176967 0.269155
O O16 0.000000 0.085439 0.500000
O O17 0.693212 0.000000 0.249470
O O18 0.302325 0.219424 0.246319
O O19 0.000000 0.126607 0.000000
O O20 0.500000 0.724287 0.500000
#
# Coordination Sequence:
#
# PCOD9146388 Si02
#       8
#     4   4   4   4   4   4   4   4
#     4  10  22  41  62  89 120 155 202 250 297 358
#     4  10  20  35  56  85 118 152 196 244 297 351
#     4  10  19  33  54  83 117 156 193 234 290 357
#     4   9  17  30  52  81 114 149 192 242 285 344
#     4  10  20  37  62  85 109 151 203 248 291 351
#     4  11  21  36  60  89 123 160 197 241 298 355
#     4  10  22  38  62  89 118 162 197 245 297 356
#     4  10  20  35  56  83 118 155 190 241 297 343
#
# _framework density 21.878436000000001
#
# number of rings (size 3 to 8) (size 9 to 14) (size 15 to 20)
#    0.000    2.000    1.250    3.375    0.000    3.250 
#    0.000    4.375    0.000    7.125    0.000    0.000 
#    0.000    0.500    0.000    0.000    0.000    0.000 
#
# Total GULP energy -178360.956468 kJ/mol
# GULP energy per Si atom -5573.779890 kJ/mol
# Density = 2.182864 g / cm^3
# Si number density = 21.878436 Si / 1000 Ang^3
#
#
#
# Elastic Constant Matrix: (Units=GPa)
#
#
# Indices 1 2 3 4 5 6 
#
# 1 73.9944 48.5514 13.5562 0.0000 -14.4340 0.0000
# 2 48.5514 186.9209 25.6579 0.0000 -21.6543 0.0000
# 3 13.5562 25.6579 42.4999 0.0000 -9.5717 0.0000
# 4 0.0000 0.0000 0.0000 20.6258 0.0000 -2.3781
# 5 -14.4340 -21.6543 -9.5717 0.0000 26.4499 0.0000
# 6 0.0000 0.0000 0.0000 -2.3781 0.0000 20.1325
#
#
#
# Elastic Compliance Matrix: (Units=1/GPa)
#
#
# Indices 1 2 3 4 5 6 
#
# 1 0.017359 -0.003549 -0.002085 0.000000 0.005813 0.000000
# 2 -0.003549 0.006935 -0.002408 0.000000 0.002869 0.000000
# 3 -0.002085 -0.002408 0.027162 0.000000 0.006720 0.000000
# 4 0.000000 0.000000 0.000000 0.049152 0.000000 0.005806
# 5 0.005813 0.002869 0.006720 0.000000 0.045760 0.000000
# 6 0.000000 0.000000 0.000000 0.005806 0.000000 0.050357
#
#
# Mechanical properties :
#
#
# Convention : Reuss Voigt Hill
#
# Bulk Modulus (GPa) = 28.27232 53.21624 40.74428
# Shear Modulus (GPa) = 22.26173 27.81831 25.04002
#
# Velocity S-wave (km/s) = 3.19332 3.56967 3.38673
# Velocity P-wave (km/s) = 5.15237 6.43168 5.82724
#
# Compressibility (1/GPa) = 0.03537028
#
# Stress axis : x y z
#
# Youngs Moduli (GPa) = 57.60589 144.20206 36.81623
#
# Poissons Ratio (x) = 0.51182 0.07677
# Poissons Ratio (y) = 0.20446 0.08867
# Poissons Ratio (z) = 0.12012 0.34729
#
# Static dielectric constant tensor:
#      x y z
#    x 1.848800 0.000000 -0.003580 
#    y 0.000000 1.843900 0.000000 
#    z -0.003580 0.000000 1.829190 
# 
# From -- ./inp_files/65105.got.cif
#   From: 2010.05.17/outbox.cif.g08.bks.cpg/sg10_33_cif.got.tgz:65105.got - 2010.06.03 11:33:40.
