data_PCOD9146742
_publ_section_title
;
Structure prediction by ZEFSAII (Michael W. Deem and Ramdas Pophale) SiO2 
 PCOD9146742
Probable space group: P 2/M
;
_chemical_formula_sum "Si O2"
_cell_formula_units_Z 29
_cell_length_a 14.455061
_cell_length_b 7.647036
_cell_length_c 22.147230
_cell_angle_alpha 90.000000
_cell_angle_beta 148.177691
_cell_angle_gamma 90.000000
_cell_volume 1290.860392
_symmetry_space_group_name_H-M "P 2/M"
_symmetry_group_IT_number 10
_symmetry_cell_setting 'monoclinic'
loop_
_space_group_symop_operation_xyz
x,y,z
-x,y,-z
-x,-y,-z
x,-y,z
loop_
_atom_site_type_symbol
_atom_site_label
_atom_site_fract_x
_atom_site_fract_y
_atom_site_fract_z
Si Si1 0.359899 0.785765 0.473152
Si Si2 0.200885 0.211480 0.625044
Si Si3 0.781532 0.800107 0.920203
Si Si4 0.463523 0.212956 0.664891
Si Si5 0.344257 0.701876 0.024338
Si Si6 0.965659 0.200537 0.231437
Si Si7 0.705954 0.700752 0.188017
Si Si8 0.000000 0.500000 0.000000
O O1 0.500000 0.733184 0.500000
O O2 0.417612 0.728332 0.572146
O O3 0.161417 0.727433 0.348583
O O4 0.357251 0.000000 0.472820
O O5 0.322874 0.269462 0.637130
O O6 0.252170 0.288977 0.717837
O O7 0.000000 0.254264 0.500000
O O8 0.216230 0.000000 0.638308
O O9 0.655017 0.736421 0.795690
O O10 0.931374 0.656370 0.007762
O O11 0.834909 0.000000 0.939832
O O12 0.670721 0.796925 0.920313
O O13 0.462011 0.000000 0.663897
O O14 0.385182 0.500000 0.059713
O O15 0.162536 0.713428 0.888091
O O16 0.506624 0.770380 0.074459
O O17 0.856761 0.206434 0.233526
O O18 0.985089 0.000000 0.222565
O O19 0.707245 0.500000 0.166886
#
# Coordination Sequence:
#
# PCOD9146742 Si02
#       8
#     4   4   4   4   4   4   4   1
#     4   9  19  38  63  93 127 164 214 278 335 392
#     4  10  19  33  58  91 127 164 209 265 323 389
#     4  11  23  42  69  98 132 180 224 272 344 403
#     4   9  18  35  62  92 126 167 213 265 327 401
#     4  11  23  42  64  92 137 176 217 276 336 395
#     4  11  23  38  64  97 129 171 225 274 330 406
#     4  11  23  38  60  89 131 177 215 265 337 398
#     4  12  26  44  64  98 138 168 222 296 322 388
#
# _framework density 22.465634999999999
#
# number of rings (size 3 to 8) (size 9 to 14) (size 15 to 20)
#    0.000    1.655    2.069    2.690    0.000    6.897 
#    0.000    2.759    3.034    1.655    0.000    0.000 
#    0.000    0.000    0.000    0.000    0.000    0.000 
#
# Total GULP energy -161851.523644 kJ/mol
# GULP energy per Si atom -5581.087022 kJ/mol
# Density = 2.241450 g / cm^3
# Si number density = 22.465635 Si / 1000 Ang^3
#
#
#
# Elastic Constant Matrix: (Units=GPa)
#
#
# Indices 1 2 3 4 5 6 
#
# 1 107.1371 8.2717 61.9311 0.0000 18.0566 0.0000
# 2 8.2717 75.8844 8.6841 0.0000 6.9140 0.0000
# 3 61.9311 8.6841 136.0128 0.0000 -2.7113 0.0000
# 4 0.0000 0.0000 0.0000 21.2763 0.0000 -3.1809
# 5 18.0566 6.9140 -2.7113 0.0000 31.5689 0.0000
# 6 0.0000 0.0000 0.0000 -3.1809 0.0000 16.8590
#
#
#
# Elastic Compliance Matrix: (Units=1/GPa)
#
#
# Indices 1 2 3 4 5 6 
#
# 1 0.014897 0.000004 -0.006965 0.000000 -0.009120 0.000000
# 2 0.000004 0.013562 -0.000929 0.000000 -0.003052 0.000000
# 3 -0.006965 -0.000929 0.010685 0.000000 0.005105 0.000000
# 4 0.000000 0.000000 0.000000 0.048365 0.000000 0.009125
# 5 -0.009120 -0.003052 0.005105 0.000000 0.038000 0.000000
# 6 0.000000 0.000000 0.000000 0.009125 0.000000 0.061037
#
#
# Mechanical properties :
#
#
# Convention : Reuss Voigt Hill
#
# Bulk Modulus (GPa) = 42.80038 52.97869 47.88953
# Shear Modulus (GPa) = 23.79680 29.95067 26.87373
#
# Velocity S-wave (km/s) = 3.25815 3.65523 3.46239
# Velocity P-wave (km/s) = 5.76601 6.43798 6.11124
#
# Compressibility (1/GPa) = 0.02336428
#
# Stress axis : x y z
#
# Youngs Moduli (GPa) = 67.12927 73.73622 93.59193
#
# Poissons Ratio (x) = -0.00031 0.65187
# Poissons Ratio (y) = -0.00028 0.08691
# Poissons Ratio (z) = 0.46755 0.06847
#
# Static dielectric constant tensor:
#      x y z
#    x 1.852860 0.000000 0.034780 
#    y 0.000000 1.815170 0.000000 
#    z 0.034780 0.000000 1.846860 
# 
# From -- ./inp_files/85027.got.cif
#   From: 2010.05.17/outbox.cif.g08.bks.cpg/sg10_43_cif.got.tgz:85027.got - 2010.06.03 11:33:40.
