data_PCOD9146292
_publ_section_title
;
Structure prediction by ZEFSAII (Michael W. Deem and Ramdas Pophale) SiO2 
 PCOD9146292
Probable space group: P 2/M
;
_chemical_formula_sum "Si O2"
_cell_formula_units_Z 32
_cell_length_a 13.194899
_cell_length_b 7.735258
_cell_length_c 32.817579
_cell_angle_alpha 90.000000
_cell_angle_beta 26.859669
_cell_angle_gamma 90.000000
_cell_volume 1513.352949
_symmetry_space_group_name_H-M "P 2/M"
_symmetry_group_IT_number 10
_symmetry_cell_setting 'monoclinic'
loop_
_space_group_symop_operation_xyz
x,y,z
-x,y,-z
-x,-y,-z
x,-y,z
loop_
_atom_site_type_symbol
_atom_site_label
_atom_site_fract_x
_atom_site_fract_y
_atom_site_fract_z
Si Si1 0.167666 0.294401 0.712843
Si Si2 0.246691 0.792193 0.900896
Si Si3 0.108095 0.794654 0.645078
Si Si4 0.397169 0.791943 0.161924
Si Si5 0.575544 0.287850 0.622258
Si Si6 0.582651 0.292001 0.713215
Si Si7 0.059039 0.707459 0.573213
Si Si8 0.659314 0.707250 0.907216
O O1 0.157536 0.500000 0.722300
O O2 0.226531 0.267102 0.643961
O O3 0.355448 0.228684 0.676499
O O4 0.916124 0.224843 0.812087
O O5 0.424405 0.724193 0.870104
O O6 0.355202 0.753607 0.818339
O O7 0.238928 0.000000 0.907532
O O8 0.000000 0.725701 0.000000
O O9 0.172507 0.752340 0.575736
O O10 0.852952 0.724285 0.739954
O O11 0.106035 0.000000 0.649060
O O12 0.452998 0.745461 0.095800
O O13 0.388216 0.000000 0.168672
O O14 0.574701 0.500000 0.622938
O O15 0.584503 0.230925 0.665851
O O16 0.789928 0.233780 0.518797
O O17 0.597445 0.500000 0.706968
O O18 0.803486 0.227288 0.658606
O O19 0.050516 0.500000 0.574889
O O20 0.675842 0.500000 0.906205
O O21 0.500000 0.775520 0.000000
#
# Coordination Sequence:
#
# PCOD9146292 Si02
#       8
#     4   4   4   4   4   4   4   4
#     4   9  18  34  53  73 104 142 177 214 266 323
#     4  10  21  37  55  77 107 142 177 215 266 321
#     4  10  19  33  54  77 104 136 175 223 265 309
#     4   9  18  33  51  71  98 134 171 209 255 309
#     4   9  19  35  54  78 109 144 178 219 270 324
#     4  10  20  35  57  82 108 138 179 227 267 312
#     4  10  19  33  56  81 105 139 182 220 266 324
#     4   9  18  31  50  76 101 130 170 216 262 309
#
# _framework density 21.145101
#
# number of rings (size 3 to 8) (size 9 to 14) (size 15 to 20)
#    0.000    2.500    1.250    0.750    0.000    4.500 
#    0.000    5.625    0.000    1.500    0.000    0.000 
#    0.000    0.000    0.000    0.000    0.000    0.000 
#
# Total GULP energy -178554.442757 kJ/mol
# GULP energy per Si atom -5579.826336 kJ/mol
# Density = 2.109697 g / cm^3
# Si number density = 21.145101 Si / 1000 Ang^3
#
#
#
# Elastic Constant Matrix: (Units=GPa)
#
#
# Indices 1 2 3 4 5 6 
#
# 1 88.7947 -8.9964 28.5109 0.0000 12.2964 0.0000
# 2 -8.9964 28.7880 -6.4551 0.0000 -8.1673 0.0000
# 3 28.5109 -6.4551 86.1419 0.0000 16.6403 0.0000
# 4 0.0000 0.0000 0.0000 10.6373 0.0000 10.2624
# 5 12.2964 -8.1673 16.6403 0.0000 35.5786 0.0000
# 6 0.0000 0.0000 0.0000 10.2624 0.0000 20.0926
#
#
#
# Elastic Compliance Matrix: (Units=1/GPa)
#
#
# Indices 1 2 3 4 5 6 
#
# 1 0.013013 0.002624 -0.003692 0.000000 -0.002169 0.000000
# 2 0.002624 0.037808 0.000509 0.000000 0.007534 0.000000
# 3 -0.003692 0.000509 0.013851 0.000000 -0.005085 0.000000
# 4 0.000000 0.000000 0.000000 0.185330 0.000000 -0.094658
# 5 -0.002169 0.007534 -0.005085 0.000000 0.032964 0.000000
# 6 0.000000 0.000000 0.000000 -0.094658 0.000000 0.098116
#
#
# Mechanical properties :
#
#
# Convention : Reuss Voigt Hill
#
# Bulk Modulus (GPa) = 15.73415 25.53815 20.63615
# Shear Modulus (GPa) = 12.39509 25.97273 19.18391
#
# Velocity S-wave (km/s) = 2.42377 3.50853 3.01533
# Velocity P-wave (km/s) = 3.91025 5.34011 4.68011
#
# Compressibility (1/GPa) = 0.06355603
#
# Stress axis : x y z
#
# Youngs Moduli (GPa) = 76.84385 26.44916 72.19633
#
# Poissons Ratio (x) = -0.06940 0.26652
# Poissons Ratio (y) = -0.20162 -0.03678
# Poissons Ratio (z) = 0.28367 -0.01347
#
# Static dielectric constant tensor:
#      x y z
#    x 1.760610 0.000000 -0.009500 
#    y 0.000000 1.768110 0.000000 
#    z -0.009500 0.000000 1.777170 
# 
# From -- ./inp_files/63755.got.cif
#   From: 2010.05.17/outbox.cif.g08.bks.cpg/sg10_32_cif.got.tgz:63755.got - 2010.06.03 11:33:40.
