data_PCOD9146085
_publ_section_title
;
Structure prediction by ZEFSAII (Michael W. Deem and Ramdas Pophale) SiO2 
 PCOD9146085
Probable space group: P 2/M
;
_chemical_formula_sum "Si O2"
_cell_formula_units_Z 32
_cell_length_a 25.102930
_cell_length_b 17.235670
_cell_length_c 9.763841
_cell_angle_alpha 90.000000
_cell_angle_beta 154.406147
_cell_angle_gamma 90.000000
_cell_volume 1824.928968
_symmetry_space_group_name_H-M "P 2/M"
_symmetry_group_IT_number 10
_symmetry_cell_setting 'monoclinic'
loop_
_space_group_symop_operation_xyz
x,y,z
-x,y,-z
-x,-y,-z
x,-y,z
loop_
_atom_site_type_symbol
_atom_site_label
_atom_site_fract_x
_atom_site_fract_y
_atom_site_fract_z
Si Si1 0.299962 0.678451 0.297736
Si Si2 0.961429 0.089098 0.749167
Si Si3 0.039097 0.661210 0.234442
Si Si4 0.157503 0.213067 0.137508
Si Si5 0.354423 0.413914 0.693154
Si Si6 0.766763 0.591239 0.118771
Si Si7 0.232221 0.200858 0.616247
Si Si8 0.410245 0.321071 0.090884
O O1 0.247994 0.761831 0.225176
O O2 0.298025 0.624684 0.428547
O O3 0.443072 0.679307 0.582459
O O4 0.223678 0.638609 0.999985
O O5 0.826169 0.127507 0.442051
O O6 0.963084 0.000000 0.709537
O O7 0.000000 0.093097 0.000000
O O8 0.059265 0.143056 0.895606
O O9 0.112833 0.607081 0.509174
O O10 0.132883 0.730874 0.413443
O O11 0.000000 0.622988 0.000000
O O12 0.925031 0.709325 0.031098
O O13 0.232054 0.193642 0.450697
O O14 0.304917 0.500000 0.605942
O O15 0.500000 0.420499 0.000000
O O16 0.350502 0.359797 0.816109
O O17 0.748362 0.500000 0.053160
O O18 0.649181 0.628275 0.925899
O O19 0.357787 0.233921 0.969010
#
# Coordination Sequence:
#
# PCOD9146085 Si02
#       8
#     4   4   4   4   4   4   4   4
#     4  11  21  31  48  73 102 136 170 211 265 311
#     4   8  14  26  50  83 110 133 165 211 259 297
#     4   8  17  34  53  71  92 128 175 213 258 309
#     4   9  16  30  50  73 104 134 164 208 251 309
#     4   9  17  29  45  65  90 124 170 215 253 295
#     4  11  23  36  50  70  99 133 173 227 273 304
#     4   8  14  28  51  75  99 131 169 210 244 300
#     4  10  19  33  50  70  95 136 181 212 253 307
#
# _framework density 17.534929999999999
#
# number of rings (size 3 to 8) (size 9 to 14) (size 15 to 20)
#    0.000    2.750    1.250    2.625    0.000    2.750 
#    0.000    1.875    0.000    0.750    0.000   19.250 
#    0.000   10.000    0.000    0.000    0.000    0.000 
#
# Total GULP energy -178215.596492 kJ/mol
# GULP energy per Si atom -5569.237390 kJ/mol
# Density = 1.749502 g / cm^3
# Si number density = 17.534930 Si / 1000 Ang^3
#
#
#
# Elastic Constant Matrix: (Units=GPa)
#
#
# Indices 1 2 3 4 5 6 
#
# 1 51.1986 31.2444 18.3951 0.0000 -8.9367 0.0000
# 2 31.2444 101.8526 27.1617 0.0000 3.2293 0.0000
# 3 18.3951 27.1617 64.2110 0.0000 -5.4063 0.0000
# 4 0.0000 0.0000 0.0000 11.1009 0.0000 2.4127
# 5 -8.9367 3.2293 -5.4063 0.0000 22.9855 0.0000
# 6 0.0000 0.0000 0.0000 2.4127 0.0000 16.9054
#
#
#
# Elastic Compliance Matrix: (Units=1/GPa)
#
#
# Indices 1 2 3 4 5 6 
#
# 1 0.027525 -0.007815 -0.003659 0.000000 0.010939 0.000000
# 2 -0.007815 0.013453 -0.003945 0.000000 -0.005856 0.000000
# 3 -0.003659 -0.003945 0.018586 0.000000 0.003503 0.000000
# 4 0.000000 0.000000 0.000000 0.092967 0.000000 -0.013268
# 5 0.010939 -0.005856 0.003503 0.000000 0.049405 0.000000
# 6 0.000000 0.000000 0.000000 -0.013268 0.000000 0.061046
#
#
# Mechanical properties :
#
#
# Convention : Reuss Voigt Hill
#
# Bulk Modulus (GPa) = 34.81094 41.20717 38.00906
# Shear Modulus (GPa) = 16.48025 19.56243 18.02134
#
# Velocity S-wave (km/s) = 3.06903 3.34372 3.20932
# Velocity P-wave (km/s) = 5.69684 6.20148 5.95451
#
# Compressibility (1/GPa) = 0.02872660
#
# Stress axis : x y z
#
# Youngs Moduli (GPa) = 36.33118 74.33249 53.80538
#
# Poissons Ratio (x) = 0.58088 0.19685
# Poissons Ratio (y) = 0.28391 0.21227
# Poissons Ratio (z) = 0.13292 0.29325
#
# Static dielectric constant tensor:
#      x y z
#    x 1.638240 0.000000 0.009460 
#    y 0.000000 1.599660 0.000000 
#    z 0.009460 0.000000 1.634450 
# 
# From -- ./inp_files/36474.got.cif
#   From: 2010.05.17/outbox.cif.g08.bks.cpg/sg10_19_cif.got.tgz:36474.got - 2010.06.03 11:33:40.
