data_PCOD9146969
_publ_section_title
;
Structure prediction by ZEFSAII (Michael W. Deem and Ramdas Pophale) SiO2 
 PCOD9146969
Probable space group: P 2/M
;
_chemical_formula_sum "Si O2"
_cell_formula_units_Z 28
_cell_length_a 14.902159
_cell_length_b 7.554648
_cell_length_c 12.925148
_cell_angle_alpha 90.000000
_cell_angle_beta 59.203210
_cell_angle_gamma 90.000000
_cell_volume 1249.931873
_symmetry_space_group_name_H-M "P 2/M"
_symmetry_group_IT_number 10
_symmetry_cell_setting 'monoclinic'
loop_
_space_group_symop_operation_xyz
x,y,z
-x,y,-z
-x,-y,-z
x,-y,z
loop_
_atom_site_type_symbol
_atom_site_label
_atom_site_fract_x
_atom_site_fract_y
_atom_site_fract_z
Si Si1 0.879961 0.216526 0.081902
Si Si2 0.505490 0.793996 0.183728
Si Si3 0.195426 0.787993 0.649656
Si Si4 0.106010 0.712241 0.489483
Si Si5 0.712229 0.706094 0.764376
Si Si6 0.575845 0.783475 0.548621
Si Si7 0.268781 0.214483 0.017970
O O1 0.835452 0.277257 0.218734
O O2 0.878251 0.000000 0.083163
O O3 0.808786 0.272446 0.027290
O O4 0.000000 0.271099 0.000000
O O5 0.403816 0.785824 0.171284
O O6 0.468526 0.719060 0.315846
O O7 0.528941 0.000000 0.189053
O O8 0.613329 0.720198 0.075931
O O9 0.114380 0.749970 0.605917
O O10 0.307635 0.720492 0.544720
O O11 0.203926 0.000000 0.653421
O O12 0.107143 0.500000 0.475331
O O13 0.208767 0.781513 0.368400
O O14 0.000000 0.779805 0.500000
O O15 0.697164 0.500000 0.751305
O O16 0.760195 0.726937 0.849700
O O17 0.500000 0.735064 0.500000
O O18 0.579336 0.000000 0.550958
O O19 0.267896 0.000000 0.020336
#
# Coordination Sequence:
#
# PCOD9146969 Si02
#       7
#     4   4   4   4   4   4   4
#     4   9  19  35  55  84 117 144 176 227 283 326
#     4  10  19  34  55  83 114 145 183 226 275 329
#     4  10  19  34  59  87 110 138 182 229 273 327
#     4  10  23  41  58  78 110 149 185 229 283 330
#     4  11  23  38  57  81 111 147 187 231 278 326
#     4   9  16  28  51  81 111 141 176 219 266 322
#     4  10  21  36  57  83 115 151 184 223 275 331
#
# _framework density 22.401223000000002
#
# number of rings (size 3 to 8) (size 9 to 14) (size 15 to 20)
#    0.000    2.143    1.429    1.714    2.000    6.571 
#    0.000    0.714    0.000    4.286    0.000    0.000 
#    0.000    0.000    0.000    0.000    0.000    0.000 
#
# Total GULP energy -156485.742859 kJ/mol
# GULP energy per Si atom -5588.776531 kJ/mol
# Density = 2.235024 g / cm^3
# Si number density = 22.401223 Si / 1000 Ang^3
#
#
#
# Elastic Constant Matrix: (Units=GPa)
#
#
# Indices 1 2 3 4 5 6 
#
# 1 109.0421 -11.2806 27.5165 0.0000 21.6589 0.0000
# 2 -11.2806 53.1007 -5.1127 0.0000 -7.6136 0.0000
# 3 27.5165 -5.1127 99.0263 0.0000 23.6431 0.0000
# 4 0.0000 0.0000 0.0000 38.7622 0.0000 63.5968
# 5 21.6589 -7.6136 23.6431 0.0000 40.3436 0.0000
# 6 0.0000 0.0000 0.0000 63.5968 0.0000 81.8085
#
#
#
# Elastic Compliance Matrix: (Units=1/GPa)
#
#
# Indices 1 2 3 4 5 6 
#
# 1 0.010654 0.001460 -0.001843 0.000000 -0.004364 0.000000
# 2 0.001460 0.019558 -0.000105 0.000000 0.002968 0.000000
# 3 -0.001843 -0.000105 0.012061 0.000000 -0.006099 0.000000
# 4 0.000000 0.000000 0.000000 -0.093659 0.000000 0.072809
# 5 -0.004364 0.002968 -0.006099 0.000000 0.031264 0.000000
# 6 0.000000 0.000000 0.000000 0.072809 0.000000 -0.044377
#
#
# Mechanical properties :
#
#
# Convention : Reuss Voigt Hill
#
# Bulk Modulus (GPa) = 24.21457 31.49060 27.85259
# Shear Modulus (GPa) = -100.48599 48.85258 -25.81671
#
# Velocity S-wave (km/s) = -6.70483 4.67497 -3.39849
# Velocity P-wave (km/s) = 7.00762 6.57484 1.71438
#
# Compressibility (1/GPa) = 0.04129745
#
# Stress axis : x y z
#
# Youngs Moduli (GPa) = 93.86404 51.13034 82.91084
#
# Poissons Ratio (x) = -0.07466 0.15281
# Poissons Ratio (y) = -0.13705 0.00868
# Poissons Ratio (z) = 0.17300 0.00535
#
# Static dielectric constant tensor:
#      x y z
#    x 1.797120 0.000000 -0.009380 
#    y 0.000000 1.872950 0.000000 
#    z -0.009380 0.000000 1.807250 
# 
# From -- ./inp_files/49127.got.cif
#   From: 2010.05.17/outbox.cif.g08.bks.cpg/sg10_25_cif.got.tgz:49127.got - 2010.06.03 11:33:40.
