data_PCOD9146522
_publ_section_title
;
Structure prediction by ZEFSAII (Michael W. Deem and Ramdas Pophale) SiO2 
 PCOD9146522
Probable space group: P 2/M
;
_chemical_formula_sum "Si O2"
_cell_formula_units_Z 32
_cell_length_a 24.859577
_cell_length_b 7.579516
_cell_length_c 25.927567
_cell_angle_alpha 90.000000
_cell_angle_beta 17.738453
_cell_angle_gamma 90.000000
_cell_volume 1488.435506
_symmetry_space_group_name_H-M "P 2/M"
_symmetry_group_IT_number 10
_symmetry_cell_setting 'monoclinic'
loop_
_space_group_symop_operation_xyz
x,y,z
-x,y,-z
-x,-y,-z
x,-y,z
loop_
_atom_site_type_symbol
_atom_site_label
_atom_site_fract_x
_atom_site_fract_y
_atom_site_fract_z
Si Si1 0.371168 0.792137 0.265259
Si Si2 0.391980 0.290080 0.048814
Si Si3 0.535631 0.293048 0.409821
Si Si4 0.914088 0.783957 0.912076
Si Si5 0.709587 0.212802 0.458651
Si Si6 0.910906 0.798816 0.030716
Si Si7 0.997780 0.212236 0.442843
Si Si8 0.530667 0.783515 0.226783
O O1 0.179824 0.719972 0.422736
O O2 0.451155 0.720724 0.245327
O O3 0.343228 0.000000 0.299822
O O4 0.511846 0.775146 0.090533
O O5 0.410833 0.500000 0.031185
O O6 0.184572 0.250230 0.245016
O O7 0.500000 0.220389 0.000000
O O8 0.500000 0.226625 0.500000
O O9 0.579933 0.500000 0.373166
O O10 0.371408 0.270830 0.521842
O O11 0.702676 0.199877 0.231663
O O12 0.087775 0.731696 0.722504
O O13 0.907886 0.000000 0.919868
O O14 0.935513 0.720735 0.951596
O O15 0.730692 0.726254 0.054899
O O16 0.589170 0.273766 0.615709
O O17 0.705026 0.000000 0.462968
O O18 0.980800 0.000000 0.964016
O O19 0.000000 0.715463 0.000000
O O20 0.000000 0.278056 0.500000
O O21 0.982825 0.000000 0.459059
O O22 0.531816 0.000000 0.225321
#
# Coordination Sequence:
#
# PCOD9146522 Si02
#       8
#     4   4   4   4   4   4   4   4
#     4  10  21  37  60  88 117 152 193 238 287 342
#     4  11  23  37  57  85 118 157 196 237 288 342
#     4  11  23  36  51  77 113 147 183 226 277 336
#     4   9  17  31  55  86 111 136 176 229 279 327
#     4  10  19  35  60  82 107 142 182 230 279 325
#     4  10  19  33  55  83 110 137 180 230 277 332
#     4  10  20  35  58  88 119 151 191 239 290 342
#     4   9  18  34  57  86 114 142 184 232 278 329
#
# _framework density 21.499084
#
# number of rings (size 3 to 8) (size 9 to 14) (size 15 to 20)
#    0.000    2.000    2.500    1.500    0.000    4.500 
#    0.000    5.000    0.000    1.500    0.000    0.000 
#    0.000    0.000    0.000    0.000    0.000    0.000 
#
# Total GULP energy -178766.876801 kJ/mol
# GULP energy per Si atom -5586.464900 kJ/mol
# Density = 2.145015 g / cm^3
# Si number density = 21.499084 Si / 1000 Ang^3
#
#
#
# Elastic Constant Matrix: (Units=GPa)
#
#
# Indices 1 2 3 4 5 6 
#
# 1 178.5701 0.6989 82.9345 0.0000 -17.6402 0.0000
# 2 0.6989 49.3563 -11.2201 0.0000 -4.4579 0.0000
# 3 82.9345 -11.2201 161.3761 0.0000 -23.1725 0.0000
# 4 0.0000 0.0000 0.0000 -0.9227 0.0000 -0.1054
# 5 -17.6402 -4.4579 -23.1725 0.0000 32.7782 0.0000
# 6 0.0000 0.0000 0.0000 -0.1054 0.0000 5.7650
#
#
#
# Elastic Compliance Matrix: (Units=1/GPa)
#
#
# Indices 1 2 3 4 5 6 
#
# 1 0.007449 -0.000832 -0.003703 0.000000 0.001278 0.000000
# 2 -0.000832 0.021223 0.002508 0.000000 0.004212 0.000000
# 3 -0.003703 0.002508 0.008945 0.000000 0.004672 0.000000
# 4 0.000000 0.000000 0.000000 -1.081543 0.000000 -0.019765
# 5 0.001278 0.004212 0.004672 0.000000 0.035072 0.000000
# 6 0.000000 0.000000 0.000000 -0.019765 0.000000 0.173099
#
#
# Mechanical properties :
#
#
# Convention : Reuss Voigt Hill
#
# Bulk Modulus (GPa) = 29.79381 59.34769 44.57075
# Shear Modulus (GPa) = -6.09374 28.65005 11.27816
#
# Velocity S-wave (km/s) = -1.68540 3.65446 2.29287
# Velocity P-wave (km/s) = 3.17818 6.74325 5.27126
#
# Compressibility (1/GPa) = 0.03356402
#
# Stress axis : x y z
#
# Youngs Moduli (GPa) = 134.24300 47.11850 111.79741
#
# Poissons Ratio (x) = 0.03919 0.41394
# Poissons Ratio (y) = 0.11165 -0.28037
# Poissons Ratio (z) = 0.49704 -0.11816
#
# Static dielectric constant tensor:
#      x y z
#    x 1.770980 0.000000 -0.013460 
#    y 0.000000 1.802670 0.000000 
#    z -0.013460 0.000000 1.747620 
# 
# From -- ./inp_files/90616.got.cif
#   From: 2010.05.17/outbox.cif.g08.bks.cpg/sg10_46_cif.got.tgz:90616.got - 2010.06.03 11:33:40.
