data_PCOD9146438
_publ_section_title
;
Structure prediction by ZEFSAII (Michael W. Deem and Ramdas Pophale) SiO2 
 PCOD9146438
Probable space group: P 2/M
;
_chemical_formula_sum "Si O2"
_cell_formula_units_Z 28
_cell_length_a 8.246370
_cell_length_b 8.842729
_cell_length_c 26.665764
_cell_angle_alpha 90.000000
_cell_angle_beta 46.235792
_cell_angle_gamma 90.000000
_cell_volume 1404.287772
_symmetry_space_group_name_H-M "P 2/M"
_symmetry_group_IT_number 10
_symmetry_cell_setting 'monoclinic'
loop_
_space_group_symop_operation_xyz
x,y,z
-x,y,-z
-x,-y,-z
x,-y,z
loop_
_atom_site_type_symbol
_atom_site_label
_atom_site_fract_x
_atom_site_fract_y
_atom_site_fract_z
Si Si1 0.162126 0.183027 0.828740
Si Si2 0.350207 0.184335 0.079140
Si Si3 0.761797 0.164415 0.439669
Si Si4 0.113808 0.320209 0.312259
Si Si5 0.259643 0.336424 0.458040
Si Si6 0.486944 0.816608 0.161472
Si Si7 0.429429 0.179504 0.328371
O O1 0.292241 0.227448 0.852716
O O2 0.330992 0.223479 0.747095
O O3 0.908189 0.236848 0.873235
O O4 0.150334 0.000000 0.832777
O O5 0.465422 0.225803 0.107590
O O6 0.344438 0.000000 0.080109
O O7 0.500000 0.233297 0.000000
O O8 0.500000 0.139246 0.500000
O O9 0.770420 0.295612 0.478200
O O10 0.879226 0.229659 0.365239
O O11 0.868144 0.000000 0.429400
O O12 0.087117 0.500000 0.315715
O O13 0.274508 0.257953 0.234505
O O14 0.244033 0.269329 0.335404
O O15 0.365339 0.500000 0.427638
O O16 0.388600 0.219185 0.394991
O O17 0.000000 0.339077 0.500000
O O18 0.470209 0.000000 0.168661
O O19 0.404558 0.000000 0.325749
#
# Coordination Sequence:
#
# PCOD9146438 Si02
#       7
#     4   4   4   4   4   4   4
#     4   8  16  30  48  77 111 142 182 227 272 325
#     4   9  17  30  52  83 115 143 176 224 277 330
#     4  11  24  39  55  77 106 144 188 233 283 337
#     4  11  21  35  55  78 106 141 181 228 279 332
#     4  11  22  35  54  81 110 143 183 231 283 333
#     4   9  18  33  54  79 109 145 181 223 276 332
#     4  10  19  33  55  79 107 145 186 231 276 329
#
# _framework density 19.938932000000001
#
# number of rings (size 3 to 8) (size 9 to 14) (size 15 to 20)
#    0.000    2.143    1.429    3.429    0.000    3.429 
#    0.000    5.714    0.000    3.857    0.000    4.000 
#    0.000    0.000    0.000    0.000    0.000    0.000 
#
# Total GULP energy -155880.220225 kJ/mol
# GULP energy per Si atom -5567.150722 kJ/mol
# Density = 1.989355 g / cm^3
# Si number density = 19.938932 Si / 1000 Ang^3
#
#
#
# Elastic Constant Matrix: (Units=GPa)
#
#
# Indices 1 2 3 4 5 6 
#
# 1 47.2826 4.3261 31.3963 0.0000 -4.9897 0.0000
# 2 4.3261 31.4469 5.2453 0.0000 -9.2945 0.0000
# 3 31.3963 5.2453 106.5655 0.0000 -3.1303 0.0000
# 4 0.0000 0.0000 0.0000 10.4992 0.0000 3.6318
# 5 -4.9897 -9.2945 -3.1303 0.0000 29.6138 0.0000
# 6 0.0000 0.0000 0.0000 3.6318 0.0000 30.8581
#
#
#
# Elastic Compliance Matrix: (Units=1/GPa)
#
#
# Indices 1 2 3 4 5 6 
#
# 1 0.026745 -0.001435 -0.007714 0.000000 0.003241 0.000000
# 2 -0.001435 0.035339 -0.001001 0.000000 0.010744 0.000000
# 3 -0.007714 -0.001001 0.011695 0.000000 -0.000378 0.000000
# 4 0.000000 0.000000 0.000000 0.099288 0.000000 -0.011686
# 5 0.003241 0.010744 -0.000378 0.000000 0.037646 0.000000
# 6 0.000000 0.000000 0.000000 -0.011686 0.000000 0.033782
#
#
# Mechanical properties :
#
#
# Convention : Reuss Voigt Hill
#
# Bulk Modulus (GPa) = 18.69872 29.69226 24.19549
# Shear Modulus (GPa) = 17.69157 23.81604 20.75381
#
# Velocity S-wave (km/s) = 2.98197 3.45983 3.22975
# Velocity P-wave (km/s) = 4.61026 5.55738 5.10583
#
# Compressibility (1/GPa) = 0.05347959
#
# Stress axis : x y z
#
# Youngs Moduli (GPa) = 37.39060 28.29696 85.50893
#
# Poissons Ratio (x) = 0.04060 0.65959
# Poissons Ratio (y) = 0.05365 0.08560
# Poissons Ratio (z) = 0.28842 0.02833
#
# Static dielectric constant tensor:
#      x y z
#    x 1.758010 0.000000 -0.003260 
#    y 0.000000 1.729650 0.000000 
#    z -0.003260 0.000000 1.686150 
# 
# From -- ./inp_files/91982.got.cif
#   From: 2010.05.17/outbox.cif.g08.bks.cpg/sg10_46_cif.got.tgz:91982.got - 2010.06.03 11:33:40.
