data_PCOD9146662
_publ_section_title
;
Structure prediction by ZEFSAII (Michael W. Deem and Ramdas Pophale) SiO2 
 PCOD9146662
Probable space group: P 2/M
;
_chemical_formula_sum "Si O2"
_cell_formula_units_Z 20
_cell_length_a 8.470580
_cell_length_b 8.418041
_cell_length_c 22.783653
_cell_angle_alpha 90.000000
_cell_angle_beta 145.676707
_cell_angle_gamma 90.000000
_cell_volume 916.052259
_symmetry_space_group_name_H-M "P 2/M"
_symmetry_group_IT_number 10
_symmetry_cell_setting 'monoclinic'
loop_
_space_group_symop_operation_xyz
x,y,z
-x,y,-z
-x,-y,-z
x,-y,z
loop_
_atom_site_type_symbol
_atom_site_label
_atom_site_fract_x
_atom_site_fract_y
_atom_site_fract_z
Si Si1 0.731266 0.181282 0.955987
Si Si2 0.833128 0.817434 0.107582
Si Si3 0.197485 0.313979 0.320049
Si Si4 0.690477 0.810003 0.387076
Si Si5 0.753550 0.310896 0.274703
O O1 0.487322 0.268480 0.846405
O O2 0.626565 0.000000 0.937142
O O3 0.878174 0.258086 0.058160
O O4 0.000000 0.161588 0.000000
O O5 0.955421 0.717897 0.197602
O O6 0.942337 0.000000 0.145144
O O7 0.500000 0.822645 0.000000
O O8 0.250691 0.500000 0.344793
O O9 0.467000 0.244799 0.368054
O O10 0.050872 0.253244 0.336013
O O11 0.662475 0.756583 0.310303
O O12 0.000000 0.753649 0.500000
O O13 0.682400 0.000000 0.384587
O O14 0.776392 0.500000 0.287400
#
# Coordination Sequence:
#
# PCOD9146662 Si02
#       5
#     4   4   4   4   4
#     4  10  20  34  55  85 123 169 215 257 302 360
#     4  10  19  33  56  87 125 169 211 251 298 357
#     4  11  24  41  65  97 133 171 209 258 319 382
#     4  11  26  47  70  94 121 160 213 271 325 379
#     4  11  24  41  64  95 129 167 208 256 319 384
#
# _framework density 21.832816000000001
#
# number of rings (size 3 to 8) (size 9 to 14) (size 15 to 20)
#    0.000    1.400    2.000    3.000    0.000    8.000 
#    0.000    4.000    0.000    0.000    0.000    0.000 
#    0.000    0.000    0.000    0.000    0.000    0.000 
#
# Total GULP energy -111342.711173 kJ/mol
# GULP energy per Si atom -5567.135559 kJ/mol
# Density = 2.178312 g / cm^3
# Si number density = 21.832816 Si / 1000 Ang^3
#
#
#
# Elastic Constant Matrix: (Units=GPa)
#
#
# Indices 1 2 3 4 5 6 
#
# 1 115.3510 16.8917 19.5506 0.0000 26.4225 0.0000
# 2 16.8917 37.2937 0.0349 0.0000 10.3193 0.0000
# 3 19.5506 0.0349 47.3710 0.0000 25.8923 0.0000
# 4 0.0000 0.0000 0.0000 52.4292 0.0000 -7.2085
# 5 26.4225 10.3193 25.8923 0.0000 35.2421 0.0000
# 6 0.0000 0.0000 0.0000 -7.2085 0.0000 38.0340
#
#
#
# Elastic Compliance Matrix: (Units=1/GPa)
#
#
# Indices 1 2 3 4 5 6 
#
# 1 0.010762 -0.003066 -0.000869 0.000000 -0.006533 0.000000
# 2 -0.003066 0.031869 0.008499 0.000000 -0.013277 0.000000
# 3 -0.000869 0.008499 0.037543 0.000000 -0.029420 0.000000
# 4 0.000000 0.000000 0.000000 0.019584 0.000000 0.003712
# 5 -0.006533 -0.013277 -0.029420 0.000000 0.058775 0.000000
# 6 0.000000 0.000000 0.000000 0.003712 0.000000 0.026996
#
#
# Mechanical properties :
#
#
# Convention : Reuss Voigt Hill
#
# Bulk Modulus (GPa) = 11.19796 30.32998 20.76397
# Shear Modulus (GPa) = 24.25223 36.04364 30.14793
#
# Velocity S-wave (km/s) = 3.33651 4.06753 3.72002
# Velocity P-wave (km/s) = 4.47025 5.99848 5.28984
#
# Compressibility (1/GPa) = 0.08930201
#
# Stress axis : x y z
#
# Youngs Moduli (GPa) = 92.92158 31.37869 26.63631
#
# Poissons Ratio (x) = 0.09621 0.02314
# Poissons Ratio (y) = 0.28490 -0.22638
# Poissons Ratio (z) = 0.08071 -0.26669
#
# Static dielectric constant tensor:
#      x y z
#    x 1.315870 0.000000 0.093270 
#    y 0.000000 1.786780 0.000000 
#    z 0.093270 0.000000 1.795020 
# 
# From -- ./inp_files/60108.got.cif
#   From: 2010.05.17/outbox.cif.g08.bks.cpg/sg10_31_cif.got.tgz:60108.got - 2010.06.03 11:33:40.
