data_PCOD9146964
_publ_section_title
;
Structure prediction by ZEFSAII (Michael W. Deem and Ramdas Pophale) SiO2 
 PCOD9146964
Probable space group: P 2/M
;
_chemical_formula_sum "Si O2"
_cell_formula_units_Z 28
_cell_length_a 8.987320
_cell_length_b 19.040103
_cell_length_c 16.075197
_cell_angle_alpha 90.000000
_cell_angle_beta 149.514249
_cell_angle_gamma 90.000000
_cell_volume 1395.536719
_symmetry_space_group_name_H-M "P 2/M"
_symmetry_group_IT_number 10
_symmetry_cell_setting 'monoclinic'
loop_
_space_group_symop_operation_xyz
x,y,z
-x,y,-z
-x,-y,-z
x,-y,z
loop_
_atom_site_type_symbol
_atom_site_label
_atom_site_fract_x
_atom_site_fract_y
_atom_site_fract_z
Si Si1 0.656237 0.915944 0.831010
Si Si2 0.730553 0.579931 0.684376
Si Si3 0.368426 0.857805 0.523158
Si Si4 0.336854 0.848299 0.836172
Si Si5 0.762979 0.423825 0.187899
Si Si6 0.585935 0.708613 0.384929
Si Si7 0.291748 0.704043 0.739381
O O1 0.492613 0.894948 0.666084
O O2 0.490291 0.883342 0.830297
O O3 0.648782 0.000000 0.834202
O O4 0.000000 0.893802 0.000000
O O5 0.500000 0.570852 0.500000
O O6 0.794586 0.500000 0.748300
O O7 0.594388 0.638993 0.678409
O O8 0.000442 0.609629 0.760532
O O9 0.500000 0.885023 0.500000
O O10 0.474240 0.776756 0.588045
O O11 0.014300 0.861652 0.342510
O O12 0.368248 0.764066 0.841607
O O13 0.500000 0.870705 0.000000
O O14 0.876952 0.500000 0.272709
O O15 0.643781 0.374579 0.202222
O O16 0.500000 0.434723 0.000000
O O17 0.551486 0.724138 0.270733
O O18 0.937936 0.700109 0.561445
#
# Coordination Sequence:
#
# PCOD9146964 Si02
#       7
#     4   4   4   4   4   4   4
#     4  11  25  47  71 100 137 171 210 262 320 387
#     4  10  19  34  55  82 115 158 211 261 315 379
#     4  11  23  41  67  98 134 175 216 268 324 380
#     4  11  23  42  67  98 133 172 222 268 318 389
#     4  10  21  37  55  79 119 163 208 262 321 380
#     4  10  20  35  58  88 122 156 206 269 316 373
#     4  10  20  36  57  87 122 159 207 261 322 375
#
# _framework density 20.063966000000001
#
# number of rings (size 3 to 8) (size 9 to 14) (size 15 to 20)
#    0.000    1.571    2.857    2.143    2.000    2.286 
#    2.571    2.143    0.000    2.571    0.000    0.000 
#    0.000    0.000    0.000    0.000    0.000    0.000 
#
# Total GULP energy -155929.333208 kJ/mol
# GULP energy per Si atom -5568.904757 kJ/mol
# Density = 2.001830 g / cm^3
# Si number density = 20.063966 Si / 1000 Ang^3
#
#
#
# Elastic Constant Matrix: (Units=GPa)
#
#
# Indices 1 2 3 4 5 6 
#
# 1 130.3151 35.0871 57.8226 0.0000 -8.6915 0.0000
# 2 35.0871 66.7586 21.7678 0.0000 -4.8595 0.0000
# 3 57.8226 21.7678 101.3039 0.0000 -12.6514 0.0000
# 4 0.0000 0.0000 0.0000 28.0113 0.0000 -2.4988
# 5 -8.6915 -4.8595 -12.6514 0.0000 29.4374 0.0000
# 6 0.0000 0.0000 0.0000 -2.4988 0.0000 27.0012
#
#
#
# Elastic Compliance Matrix: (Units=1/GPa)
#
#
# Indices 1 2 3 4 5 6 
#
# 1 0.011233 -0.004091 -0.005498 0.000000 0.000278 0.000000
# 2 -0.004091 0.017641 -0.001313 0.000000 0.001140 0.000000
# 3 -0.005498 -0.001313 0.013803 0.000000 0.004092 0.000000
# 4 0.000000 0.000000 0.000000 0.035997 0.000000 0.003331
# 5 0.000278 0.001140 0.004092 0.000000 0.035999 0.000000
# 6 0.000000 0.000000 0.000000 0.003331 0.000000 0.037344
#
#
# Mechanical properties :
#
#
# Convention : Reuss Voigt Hill
#
# Bulk Modulus (GPa) = 47.91019 58.63696 53.27358
# Shear Modulus (GPa) = 27.65819 29.13666 28.39743
#
# Velocity S-wave (km/s) = 3.71684 3.81489 3.76619
# Velocity P-wave (km/s) = 6.50772 6.97804 6.74698
#
# Compressibility (1/GPa) = 0.02087238
#
# Stress axis : x y z
#
# Youngs Moduli (GPa) = 89.02110 56.68725 72.45011
#
# Poissons Ratio (x) = 0.23191 0.39833
# Poissons Ratio (y) = 0.36419 0.09513
# Poissons Ratio (z) = 0.48943 0.07444
#
# Static dielectric constant tensor:
#      x y z
#    x 1.693460 0.000000 -0.039760 
#    y 0.000000 1.779540 0.000000 
#    z -0.039760 0.000000 1.668260 
# 
# From -- ./inp_files/62607.got.cif
#   From: 2010.05.17/outbox.cif.g08.bks.cpg/sg10_32_cif.got.tgz:62607.got - 2010.06.03 11:33:40.
