data_PCOD9146572
_publ_section_title
;
Structure prediction by ZEFSAII (Michael W. Deem and Ramdas Pophale) SiO2 
 PCOD9146572
Probable space group: P 2/M
;
_chemical_formula_sum "Si O2"
_cell_formula_units_Z 32
_cell_length_a 20.694700
_cell_length_b 7.516374
_cell_length_c 10.231890
_cell_angle_alpha 90.000000
_cell_angle_beta 105.861094
_cell_angle_gamma 90.000000
_cell_volume 1530.966003
_symmetry_space_group_name_H-M "P 2/M"
_symmetry_group_IT_number 10
_symmetry_cell_setting 'monoclinic'
loop_
_space_group_symop_operation_xyz
x,y,z
-x,y,-z
-x,-y,-z
x,-y,z
loop_
_atom_site_type_symbol
_atom_site_label
_atom_site_fract_x
_atom_site_fract_y
_atom_site_fract_z
Si Si1 0.574544 0.784902 0.500261
Si Si2 0.789821 0.283917 0.495931
Si Si3 0.796165 0.208690 0.803781
Si Si4 0.654297 0.706577 0.285321
Si Si5 0.429684 0.203589 0.006954
Si Si6 0.944929 0.784515 0.866117
Si Si7 0.058944 0.711067 0.440127
Si Si8 0.344082 0.781576 0.199912
O O1 0.500000 0.726814 0.500000
O O2 0.603005 0.719879 0.378557
O O3 0.624312 0.731493 0.643971
O O4 0.573641 0.000000 0.492345
O O5 0.789325 0.500000 0.495558
O O6 0.780258 0.225581 0.640635
O O7 0.726668 0.223797 0.374465
O O8 0.864594 0.221681 0.496302
O O9 0.870634 0.283896 0.862147
O O10 0.732739 0.281717 0.847210
O O11 0.800551 0.000000 0.837979
O O12 0.662856 0.500000 0.255592
O O13 0.621030 0.797450 0.142505
O O14 0.446339 0.000000 0.055435
O O15 0.500000 0.286847 0.000000
O O16 0.391518 0.282565 0.109864
O O17 0.957694 0.736560 0.722178
O O18 0.943674 0.000000 0.869504
O O19 0.000000 0.722619 0.000000
O O20 0.062553 0.500000 0.466894
O O21 0.000000 0.784289 0.500000
O O22 0.342746 0.000000 0.194907
#
# Coordination Sequence:
#
# PCOD9146572 Si02
#       8
#     4   4   4   4   4   4   4   4
#     4  10  19  33  56  81 101 127 169 216 253 295
#     4   9  18  33  52  75 105 136 169 210 256 302
#     4   9  16  30  53  75  99 131 169 211 254 300
#     4  11  22  35  52  77 109 139 167 206 260 316
#     4  10  21  38  56  73 100 138 176 214 256 302
#     4   9  18  32  50  75 107 136 162 204 260 309
#     4   9  18  34  55  76 101 137 178 215 249 294
#     4   9  17  31  52  76  97 125 170 214 249 293
#
# _framework density 20.901835999999999
#
# number of rings (size 3 to 8) (size 9 to 14) (size 15 to 20)
#    0.000    2.500    1.250    1.125    0.000    3.500 
#    2.250    1.250    0.000    0.000    0.000    0.000 
#    0.000    0.000    0.000    0.000    0.000    0.000 
#
# Total GULP energy -178594.835792 kJ/mol
# GULP energy per Si atom -5581.088618 kJ/mol
# Density = 2.085426 g / cm^3
# Si number density = 20.901836 Si / 1000 Ang^3
#
#
#
# Elastic Constant Matrix: (Units=GPa)
#
#
# Indices 1 2 3 4 5 6 
#
# 1 128.6044 -1.1617 -0.5282 0.0000 -6.6011 0.0000
# 2 -1.1617 53.7131 -12.9448 0.0000 -2.4111 0.0000
# 3 -0.5282 -12.9448 12.3953 0.0000 0.7129 0.0000
# 4 0.0000 0.0000 0.0000 28.1453 0.0000 2.3572
# 5 -6.6011 -2.4111 0.7129 0.0000 39.7968 0.0000
# 6 0.0000 0.0000 0.0000 2.3572 0.0000 14.8634
#
#
#
# Elastic Compliance Matrix: (Units=1/GPa)
#
#
# Indices 1 2 3 4 5 6 
#
# 1 0.007849 0.000389 0.000665 0.000000 0.001314 0.000000
# 2 0.000389 0.024942 0.026000 0.000000 0.001110 0.000000
# 3 0.000665 0.026000 0.107871 0.000000 -0.000247 0.000000
# 4 0.000000 0.000000 0.000000 0.036008 0.000000 -0.005711
# 5 0.001314 0.001110 -0.000247 0.000000 0.025417 0.000000
# 6 0.000000 0.000000 0.000000 -0.005711 0.000000 0.068185
#
#
# Mechanical properties :
#
#
# Convention : Reuss Voigt Hill
#
# Bulk Modulus (GPa) = 5.13424 18.38261 11.75843
# Shear Modulus (GPa) = 17.78806 30.51759 24.15283
#
# Velocity S-wave (km/s) = 2.92040 3.82520 3.40301
# Velocity P-wave (km/s) = 3.71932 5.32197 4.59112
#
# Compressibility (1/GPa) = 0.19477064
#
# Stress axis : x y z
#
# Youngs Moduli (GPa) = 127.39728 40.09361 9.27034
#
# Poissons Ratio (x) = -0.01560 -0.00617
# Poissons Ratio (y) = -0.04956 -0.24103
# Poissons Ratio (z) = -0.08475 -1.04243
#
# Static dielectric constant tensor:
#      x y z
#    x 1.696830 0.000000 -0.003220 
#    y 0.000000 1.877240 0.000000 
#    z -0.003220 0.000000 1.686630 
# 
# From -- ./inp_files/33937.got.cif
#   From: 2010.05.17/outbox.cif.g08.bks.cpg/sg10_17_cif.got.tgz:33937.got - 2010.06.03 11:33:40.
