data_PCOD9146850
_publ_section_title
;
Structure prediction by ZEFSAII (Michael W. Deem and Ramdas Pophale) SiO2 
 PCOD9146850
Probable space group: P 2/M
;
_chemical_formula_sum "Si O2"
_cell_formula_units_Z 26
_cell_length_a 9.413658
_cell_length_b 21.945522
_cell_length_c 7.377322
_cell_angle_alpha 90.000000
_cell_angle_beta 49.666724
_cell_angle_gamma 90.000000
_cell_volume 1161.782293
_symmetry_space_group_name_H-M "P 2/M"
_symmetry_group_IT_number 10
_symmetry_cell_setting 'monoclinic'
loop_
_space_group_symop_operation_xyz
x,y,z
-x,y,-z
-x,-y,-z
x,-y,z
loop_
_atom_site_type_symbol
_atom_site_label
_atom_site_fract_x
_atom_site_fract_y
_atom_site_fract_z
Si Si1 0.853587 0.705064 0.391679
Si Si2 0.000000 0.396852 0.500000
Si Si3 0.443936 0.069096 0.331354
Si Si4 0.143458 0.836840 0.618835
Si Si5 0.665573 0.434840 0.008632
Si Si6 0.727766 0.171463 0.062068
Si Si7 0.719142 0.303118 0.112968
O O1 0.852549 0.648802 0.526616
O O2 0.813978 0.771397 0.506497
O O3 0.724455 0.696896 0.325518
O O4 0.066192 0.703357 0.137317
O O5 0.128901 0.432785 0.254166
O O6 0.500000 0.066759 0.500000
O O7 0.247299 0.103032 0.469048
O O8 0.591471 0.116625 0.130648
O O9 0.447483 0.000000 0.261919
O O10 0.214009 0.829526 0.770944
O O11 0.921654 0.840274 0.801718
O O12 0.654487 0.500000 0.121586
O O13 0.647032 0.369063 0.116982
O O14 0.500000 0.436908 0.000000
O O15 0.638813 0.238592 0.110497
#
# Coordination Sequence:
#
# PCOD9146850 Si02
#       7
#     4   2   4   4   4   4   4
#     4   8  15  29  51  75  96 124 165 207 247 291
#     4  10  19  34  54  76 101 126 160 208 251 290
#     4   9  16  23  34  59  92 122 153 189 235 288
#     4   8  14  25  39  58  86 117 151 195 239 277
#     4  10  21  36  52  73 103 134 163 200 246 292
#     4   8  14  25  41  58  83 120 158 194 232 275
#     4   8  15  31  51  71  97 131 168 204 242 291
#
# _framework density 22.379408000000002
#
# number of rings (size 3 to 8) (size 9 to 14) (size 15 to 20)
#    0.000    3.385    0.000    2.077    0.000    1.846 
#    0.000   12.308    0.000    1.846    0.000    0.538 
#    0.000   20.308    0.000    1.538    0.000    0.923 
#
# Total GULP energy -144985.308792 kJ/mol
# GULP energy per Si atom -5576.358030 kJ/mol
# Density = 2.232847 g / cm^3
# Si number density = 22.379408 Si / 1000 Ang^3
#
#
#
# Elastic Constant Matrix: (Units=GPa)
#
#
# Indices 1 2 3 4 5 6 
#
# 1 53.1652 59.3798 21.6876 0.0000 -8.2192 0.0000
# 2 59.3798 273.1732 40.9954 0.0000 -18.2613 0.0000
# 3 21.6876 40.9954 35.1548 0.0000 -11.1458 0.0000
# 4 0.0000 0.0000 0.0000 17.2787 0.0000 -1.8317
# 5 -8.2192 -18.2613 -11.1458 0.0000 24.3647 0.0000
# 6 0.0000 0.0000 0.0000 -1.8317 0.0000 121.6953
#
#
#
# Elastic Compliance Matrix: (Units=1/GPa)
#
#
# Indices 1 2 3 4 5 6 
#
# 1 0.028889 -0.004352 -0.012505 0.000000 0.000763 0.000000
# 2 -0.004352 0.005119 -0.002964 0.000000 0.001013 0.000000
# 3 -0.012505 -0.002964 0.043949 0.000000 0.013665 0.000000
# 4 0.000000 0.000000 0.000000 0.057967 0.000000 0.000873
# 5 0.000763 0.001013 0.013665 0.000000 0.048311 0.000000
# 6 0.000000 0.000000 0.000000 0.000873 0.000000 0.008230
#
#
# Mechanical properties :
#
#
# Convention : Reuss Voigt Hill
#
# Bulk Modulus (GPa) = 26.09923 67.29097 46.69510
# Shear Modulus (GPa) = 20.41823 48.62979 34.52401
#
# Velocity S-wave (km/s) = 3.02382 4.66657 3.93194
# Velocity P-wave (km/s) = 4.88659 7.69216 6.44392
#
# Compressibility (1/GPa) = 0.03831531
#
# Stress axis : x y z
#
# Youngs Moduli (GPa) = 34.61494 195.34509 22.75367
#
# Poissons Ratio (x) = 0.85014 0.28454
# Poissons Ratio (y) = 0.15064 0.06743
# Poissons Ratio (z) = 0.43287 0.57894
#
# Static dielectric constant tensor:
#      x y z
#    x 1.864630 0.000000 0.002820 
#    y 0.000000 1.825020 0.000000 
#    z 0.002820 0.000000 1.943420 
# 
# From -- ./inp_files/26017.got.cif
#   From: 2010.05.17/outbox.cif.g08.bks.cpg/sg10_14_cif.got.tgz:26017.got - 2010.06.03 11:33:40.
