data_PCOD9146300
_publ_section_title
;
Structure prediction by ZEFSAII (Michael W. Deem and Ramdas Pophale) SiO2 
 PCOD9146300
Probable space group: P 2/M
;
_chemical_formula_sum "Si O2"
_cell_formula_units_Z 32
_cell_length_a 21.043034
_cell_length_b 7.738190
_cell_length_c 25.334365
_cell_angle_alpha 90.000000
_cell_angle_beta 17.233914
_cell_angle_gamma 90.000000
_cell_volume 1222.223096
_symmetry_space_group_name_H-M "P 2/M"
_symmetry_group_IT_number 10
_symmetry_cell_setting 'monoclinic'
loop_
_space_group_symop_operation_xyz
x,y,z
-x,y,-z
-x,-y,-z
x,-y,z
loop_
_atom_site_type_symbol
_atom_site_label
_atom_site_fract_x
_atom_site_fract_y
_atom_site_fract_z
Si Si1 0.558541 0.806845 0.144291
Si Si2 0.923509 0.287992 0.617424
Si Si3 0.524721 0.698053 0.058550
Si Si4 0.051944 0.709858 0.742459
Si Si5 0.060886 0.204135 0.891989
Si Si6 0.009085 0.289392 0.660602
Si Si7 0.381775 0.301227 0.789003
Si Si8 0.506503 0.290824 0.573723
O O1 0.510673 0.769665 0.243438
O O2 0.817982 0.785227 0.937249
O O3 0.499199 0.000000 0.177929
O O4 0.474767 0.697085 0.161251
O O5 0.924765 0.500000 0.615777
O O6 0.674857 0.230866 0.815444
O O7 0.056308 0.232227 0.563439
O O8 0.000000 0.227671 0.500000
O O9 0.547804 0.500000 0.023534
O O10 0.761684 0.771577 0.864455
O O11 0.031705 0.500000 0.760787
O O12 0.246114 0.766021 0.626173
O O13 0.116641 0.758127 0.630627
O O14 0.314439 0.239365 0.687320
O O15 0.878617 0.290625 0.000833
O O16 0.025615 0.000000 0.916184
O O17 0.000000 0.264532 0.000000
O O18 0.018227 0.500000 0.652790
O O19 0.446004 0.500000 0.736170
O O20 0.436105 0.226495 0.688333
O O21 0.508172 0.500000 0.571848
#
# Coordination Sequence:
#
# PCOD9146300 Si02
#       8
#     4   4   4   4   4   4   4   4
#     4  11  22  35  51  73 102 135 172 211 253 303
#     4   9  16  25  44  76 104 123 155 207 255 292
#     4   9  17  31  50  69  94 130 167 203 248 300
#     4   9  18  34  54  75 101 132 168 211 257 302
#     4   9  17  30  49  74 105 139 171 204 246 299
#     4   8  14  26  45  68  94 126 160 195 240 294
#     4  10  19  33  54  78 103 132 169 212 256 302
#     4   9  18  32  53  79 103 131 168 210 255 303
#
# _framework density 26.181798000000001
#
# number of rings (size 3 to 8) (size 9 to 14) (size 15 to 20)
#    0.000    2.750    0.000    3.000    0.000    5.000 
#    0.000    4.375    0.000   10.125    0.000    0.000 
#    0.000    0.000    0.000    0.000    0.000    0.000 
#
# Total GULP energy -178791.210010 kJ/mol
# GULP energy per Si atom -5587.225313 kJ/mol
# Density = 2.612221 g / cm^3
# Si number density = 26.181798 Si / 1000 Ang^3
#
#
#
# Elastic Constant Matrix: (Units=GPa)
#
#
# Indices 1 2 3 4 5 6 
#
# 1 172.8983 0.1964 14.8031 0.0000 -20.5739 0.0000
# 2 0.1964 55.4863 -7.3752 0.0000 -3.6626 0.0000
# 3 14.8031 -7.3752 79.2063 0.0000 -22.6935 0.0000
# 4 0.0000 0.0000 0.0000 37.3049 0.0000 -20.1255
# 5 -20.5739 -3.6626 -22.6935 0.0000 51.8296 0.0000
# 6 0.0000 0.0000 0.0000 -20.1255 0.0000 9.0982
#
#
#
# Elastic Compliance Matrix: (Units=1/GPa)
#
#
# Indices 1 2 3 4 5 6 
#
# 1 0.006089 0.000057 -0.000502 0.000000 0.002201 0.000000
# 2 0.000057 0.018497 0.002393 0.000000 0.002377 0.000000
# 3 -0.000502 0.002393 0.014788 0.000000 0.006445 0.000000
# 4 0.000000 0.000000 0.000000 -0.138627 0.000000 -0.306648
# 5 0.002201 0.002377 0.006445 0.000000 0.023158 0.000000
# 6 0.000000 0.000000 0.000000 -0.306648 0.000000 -0.568407
#
#
# Mechanical properties :
#
#
# Convention : Reuss Voigt Hill
#
# Bulk Modulus (GPa) = 23.11064 35.87105 29.49084
# Shear Modulus (GPa) = -7.88675 39.64430 15.87878
#
# Velocity S-wave (km/s) = -1.73748 3.89549 2.46536
# Velocity P-wave (km/s) = 2.19568 5.82783 4.40367
#
# Compressibility (1/GPa) = 0.04327012
#
# Stress axis : x y z
#
# Youngs Moduli (GPa) = 164.24187 54.06209 67.62043
#
# Poissons Ratio (x) = -0.00308 0.03394
# Poissons Ratio (y) = -0.00937 -0.16181
# Poissons Ratio (z) = 0.08244 -0.12936
#
# Static dielectric constant tensor:
#      x y z
#    x 2.076900 0.000000 0.083750 
#    y 0.000000 1.976500 0.000000 
#    z 0.083750 0.000000 2.162870 
# 
# From -- ./inp_files/93649.got.cif
#   From: 2010.05.17/outbox.cif.g08.bks.cpg/sg10_47_cif.got.tgz:93649.got - 2010.06.03 11:33:40.
