data_PCOD9146276
_publ_section_title
;
Structure prediction by ZEFSAII (Michael W. Deem and Ramdas Pophale) SiO2 
 PCOD9146276
Probable space group: P 2/M
;
_chemical_formula_sum "Si O2"
_cell_formula_units_Z 32
_cell_length_a 27.519054
_cell_length_b 7.601570
_cell_length_c 21.893771
_cell_angle_alpha 90.000000
_cell_angle_beta 159.621806
_cell_angle_gamma 90.000000
_cell_volume 1594.796327
_symmetry_space_group_name_H-M "P 2/M"
_symmetry_group_IT_number 10
_symmetry_cell_setting 'monoclinic'
loop_
_space_group_symop_operation_xyz
x,y,z
-x,y,-z
-x,-y,-z
x,-y,z
loop_
_atom_site_type_symbol
_atom_site_label
_atom_site_fract_x
_atom_site_fract_y
_atom_site_fract_z
Si Si1 0.002571 0.210428 0.680361
Si Si2 0.697136 0.787964 0.010991
Si Si3 0.108348 0.287973 0.935816
Si Si4 0.614817 0.796710 0.587694
Si Si5 0.926705 0.701494 0.972467
Si Si6 0.421997 0.214733 0.000508
Si Si7 0.589210 0.708458 0.753322
Si Si8 0.711208 0.214932 0.283154
O O1 0.015176 0.244931 0.767434
O O2 0.859886 0.277988 0.482802
O O3 0.002833 0.000000 0.672307
O O4 0.146243 0.278216 0.819331
O O5 0.635293 0.723715 0.002045
O O6 0.603331 0.743611 0.841765
O O7 0.704537 0.000000 0.023048
O O8 0.117372 0.500000 0.950769
O O9 0.055812 0.220336 0.939200
O O10 0.265701 0.224109 0.105963
O O11 0.500000 0.725439 0.500000
O O12 0.761338 0.701337 0.765401
O O13 0.542654 0.786868 0.436714
O O14 0.641084 0.000000 0.634734
O O15 0.979381 0.500000 0.038162
O O16 0.000000 0.785587 0.000000
O O17 0.579908 0.268920 0.170295
O O18 0.421920 0.000000 0.001383
O O19 0.325898 0.267414 0.829832
O O20 0.583360 0.500000 0.736948
O O21 0.713068 0.000000 0.286025
#
# Coordination Sequence:
#
# PCOD9146276 Si02
#       8
#     4   4   4   4   4   4   4   4
#     4   9  17  28  46  71  96 123 160 202 242 289
#     4   9  17  29  46  71 100 125 156 207 254 286
#     4   9  18  33  52  72  97 132 167 202 248 300
#     4  11  22  35  56  82 105 132 170 216 260 305
#     4  10  21  38  57  76 103 138 175 213 255 307
#     4   8  14  26  45  67  97 129 157 196 245 294
#     4  10  19  33  54  75  99 134 172 207 248 305
#     4   8  14  26  44  68  95 128 163 193 238 299
#
# _framework density 20.065256999999999
#
# number of rings (size 3 to 8) (size 9 to 14) (size 15 to 20)
#    0.000    2.750    1.250    1.500    0.000    2.250 
#    2.250    2.500    0.000    0.750    0.000    5.250 
#    0.000    0.000    0.000    0.000    0.000    0.000 
#
# Total GULP energy -178517.414807 kJ/mol
# GULP energy per Si atom -5578.669213 kJ/mol
# Density = 2.001959 g / cm^3
# Si number density = 20.065257 Si / 1000 Ang^3
#
#
#
# Elastic Constant Matrix: (Units=GPa)
#
#
# Indices 1 2 3 4 5 6 
#
# 1 176.1163 1.3241 54.5703 0.0000 -12.8089 0.0000
# 2 1.3241 46.5748 -6.5289 0.0000 2.1998 0.0000
# 3 54.5703 -6.5289 96.6964 0.0000 -16.9429 0.0000
# 4 0.0000 0.0000 0.0000 -93.1556 0.0000 97.4660
# 5 -12.8089 2.1998 -16.9429 0.0000 18.8145 0.0000
# 6 0.0000 0.0000 0.0000 97.4660 0.0000 -91.5894
#
#
#
# Elastic Compliance Matrix: (Units=1/GPa)
#
#
# Indices 1 2 3 4 5 6 
#
# 1 0.006941 -0.000787 -0.003712 0.000000 0.001475 0.000000
# 2 -0.000787 0.021798 0.001633 0.000000 -0.001614 0.000000
# 3 -0.003712 0.001633 0.014332 0.000000 0.010188 0.000000
# 4 0.000000 0.000000 0.000000 0.094660 0.000000 0.100734
# 5 0.001475 -0.001614 0.010188 0.000000 0.063518 0.000000
# 6 0.000000 0.000000 0.000000 0.100734 0.000000 0.096279
#
#
# Mechanical properties :
#
#
# Convention : Reuss Voigt Hill
#
# Bulk Modulus (GPa) = 26.78115 46.45762 36.61938
# Shear Modulus (GPa) = 15.83741 -15.18462 0.32640
#
# Velocity S-wave (km/s) = 2.81249 -2.75391 0.40376
# Velocity P-wave (km/s) = 4.89109 3.61821 4.30199
#
# Compressibility (1/GPa) = 0.03733970
#
# Stress axis : x y z
#
# Youngs Moduli (GPa) = 144.06159 45.87488 69.77398
#
# Poissons Ratio (x) = 0.03612 0.25901
# Poissons Ratio (y) = 0.11343 -0.11397
# Poissons Ratio (z) = 0.53477 -0.07493
#
# Static dielectric constant tensor:
#      x y z
#    x 1.716120 0.000000 0.000180 
#    y 0.000000 1.756110 0.000000 
#    z 0.000180 0.000000 1.678250 
# 
# From -- ./inp_files/86952.got.cif
#   From: 2010.05.17/outbox.cif.g08.bks.cpg/sg10_44_cif.got.tgz:86952.got - 2010.06.03 11:33:40.
