data_PCOD9146788
_publ_section_title
;
Structure prediction by ZEFSAII (Michael W. Deem and Ramdas Pophale) SiO2 
 PCOD9146788
Probable space group: P 2/M
;
_chemical_formula_sum "Si O2"
_cell_formula_units_Z 28
_cell_length_a 8.677281
_cell_length_b 19.145146
_cell_length_c 20.158290
_cell_angle_alpha 90.000000
_cell_angle_beta 29.350928
_cell_angle_gamma 90.000000
_cell_volume 1641.464909
_symmetry_space_group_name_H-M "P 2/M"
_symmetry_group_IT_number 10
_symmetry_cell_setting 'monoclinic'
loop_
_space_group_symop_operation_xyz
x,y,z
-x,y,-z
-x,-y,-z
x,-y,z
loop_
_atom_site_type_symbol
_atom_site_label
_atom_site_fract_x
_atom_site_fract_y
_atom_site_fract_z
Si Si1 0.261229 0.796801 0.530331
Si Si2 0.107593 0.678123 0.033304
Si Si3 0.879698 0.578551 0.853118
Si Si4 0.144320 0.205705 0.781297
Si Si5 0.136698 0.919102 0.878454
Si Si6 0.849024 0.707705 0.774684
Si Si7 0.878866 0.923482 0.620497
O O1 0.500000 0.814740 0.500000
O O2 0.498267 0.787171 0.379621
O O3 0.053506 0.731985 0.634854
O O4 0.029320 0.860485 0.603819
O O5 0.032088 0.613493 0.110183
O O6 0.916170 0.742749 0.135068
O O7 0.478748 0.698306 0.899235
O O8 0.000000 0.663223 0.000000
O O9 0.997418 0.500000 0.798836
O O10 0.960674 0.634578 0.765571
O O11 0.500000 0.575838 0.000000
O O12 0.075646 0.129396 0.837396
O O13 0.921022 0.234182 0.805215
O O14 0.507422 0.918467 0.753023
O O15 0.035602 0.000000 0.906191
O O16 0.000000 0.893137 0.000000
O O17 0.000000 0.920090 0.500000
O O18 0.963880 0.000000 0.616404
#
# Coordination Sequence:
#
# PCOD9146788 Si02
#       7
#     4   4   4   4   4   4   4
#     4  10  21  34  51  75 103 136 175 220 258 306
#     4  10  20  32  52  81 105 137 171 213 259 303
#     4   8  15  32  55  78 107 139 169 207 253 302
#     4  10  19  34  52  73 103 139 170 216 261 310
#     4  10  21  35  53  78 104 136 177 221 267 315
#     4   9  20  35  52  78 108 135 175 213 251 314
#     4  10  20  35  53  73 101 137 179 218 264 311
#
# _framework density 17.057932999999998
#
# number of rings (size 3 to 8) (size 9 to 14) (size 15 to 20)
#    0.000    2.429    1.429    1.714    4.000    0.571 
#    0.000    2.143    0.000   12.429    0.000    0.000 
#    0.000   23.429    0.000    0.000    0.000    0.000 
#
# Total GULP energy -155920.295890 kJ/mol
# GULP energy per Si atom -5568.581996 kJ/mol
# Density = 1.701911 g / cm^3
# Si number density = 17.057933 Si / 1000 Ang^3
#
#
#
# Elastic Constant Matrix: (Units=GPa)
#
#
# Indices 1 2 3 4 5 6 
#
# 1 53.0300 52.7721 24.9420 0.0000 4.7425 0.0000
# 2 52.7721 118.8220 34.6798 0.0000 10.2857 0.0000
# 3 24.9420 34.6798 77.1540 0.0000 18.6267 0.0000
# 4 0.0000 0.0000 0.0000 5.3422 0.0000 -1.6179
# 5 4.7425 10.2857 18.6267 0.0000 21.4885 0.0000
# 6 0.0000 0.0000 0.0000 -1.6179 0.0000 11.7542
#
#
#
# Elastic Compliance Matrix: (Units=1/GPa)
#
#
# Indices 1 2 3 4 5 6 
#
# 1 0.035731 -0.014465 -0.006092 0.000000 0.004318 0.000000
# 2 -0.014465 0.015563 -0.001633 0.000000 -0.002841 0.000000
# 3 -0.006092 -0.001633 0.019161 0.000000 -0.014483 0.000000
# 4 0.000000 0.000000 0.000000 0.195332 0.000000 0.026886
# 5 0.004318 -0.002841 -0.014483 0.000000 0.059497 0.000000
# 6 0.000000 0.000000 0.000000 0.026886 0.000000 0.088777
#
#
# Mechanical properties :
#
#
# Convention : Reuss Voigt Hill
#
# Bulk Modulus (GPa) = 38.35082 52.64376 45.49729
# Shear Modulus (GPa) = 10.70360 16.82445 13.76403
#
# Velocity S-wave (km/s) = 2.50768 3.14397 2.84368
# Velocity P-wave (km/s) = 5.56023 6.64139 6.12471
#
# Compressibility (1/GPa) = 0.02607506
#
# Stress axis : x y z
#
# Youngs Moduli (GPa) = 27.98714 64.25568 52.18937
#
# Poissons Ratio (x) = 0.92945 0.31792
# Poissons Ratio (y) = 0.40483 0.08524
# Poissons Ratio (z) = 0.17049 0.10495
#
# Static dielectric constant tensor:
#      x y z
#    x 1.576830 0.000000 0.015380 
#    y 0.000000 1.602180 0.000000 
#    z 0.015380 0.000000 1.571370 
# 
# From -- ./inp_files/30175.got.cif
#   From: 2010.05.17/outbox.cif.g08.bks.cpg/sg10_16_cif.got.tgz:30175.got - 2010.06.03 11:33:40.
