data_PCOD9146027
_publ_section_title
;
Structure prediction by ZEFSAII (Michael W. Deem and Ramdas Pophale) SiO2 
 PCOD9146027
Probable space group: P 2/M
;
_chemical_formula_sum "Si O2"
_cell_formula_units_Z 32
_cell_length_a 14.043269
_cell_length_b 19.497773
_cell_length_c 11.724444
_cell_angle_alpha 90.000000
_cell_angle_beta 147.840169
_cell_angle_gamma 90.000000
_cell_volume 1708.787237
_symmetry_space_group_name_H-M "P 2/M"
_symmetry_group_IT_number 10
_symmetry_cell_setting 'monoclinic'
loop_
_space_group_symop_operation_xyz
x,y,z
-x,y,-z
-x,-y,-z
x,-y,z
loop_
_atom_site_type_symbol
_atom_site_label
_atom_site_fract_x
_atom_site_fract_y
_atom_site_fract_z
Si Si1 0.315999 0.803588 0.156554
Si Si2 0.026519 0.076768 0.890918
Si Si3 0.197106 0.283955 0.246120
Si Si4 0.477364 0.610104 0.109422
Si Si5 0.764376 0.269608 0.372116
Si Si6 0.714584 0.835662 0.497987
Si Si7 0.164660 0.703605 0.812287
Si Si8 0.620303 0.425499 0.505148
O O1 0.307802 0.753467 0.257775
O O2 0.511321 0.835726 0.334903
O O3 0.254714 0.752673 0.995108
O O4 0.174457 0.865325 0.018785
O O5 0.837980 0.099040 0.643761
O O6 0.079046 0.000000 0.908357
O O7 0.000000 0.076744 0.000000
O O8 0.191873 0.225426 0.335738
O O9 0.274024 0.354472 0.372632
O O10 0.000000 0.296974 0.000000
O O11 0.602620 0.678170 0.231625
O O12 0.531773 0.576941 0.287385
O O13 0.500000 0.581240 0.000000
O O14 0.270968 0.632023 0.916343
O O15 0.722179 0.195394 0.379905
O O16 0.795548 0.264408 0.270100
O O17 0.951588 0.300339 0.609856
O O18 0.500000 0.425315 0.500000
O O19 0.716408 0.500000 0.606390
#
# Coordination Sequence:
#
# PCOD9146027 Si02
#       8
#     4   4   4   4   4   4   4   4
#     4  12  21  34  60  88 116 153 192 243 299 342
#     4  11  24  40  55  83 121 155 193 234 291 362
#     4  12  21  36  61  87 115 149 200 244 295 353
#     4  10  20  37  60  88 118 154 202 254 301 352
#     4  10  19  32  55  89 115 143 191 252 290 338
#     4  12  20  35  59  86 115 150 190 243 290 343
#     4  10  19  32  56  87 116 144 189 248 297 338
#     4  11  24  40  57  85 125 163 200 246 300 364
#
# _framework density 18.726731000000001
#
# number of rings (size 3 to 8) (size 9 to 14) (size 15 to 20)
#    0.000    1.000    6.250    1.875    0.000    1.000 
#    0.000    1.250    0.000    1.500    0.000    5.250 
#    0.000    0.000    0.000    0.000    0.000    0.000 
#
# Total GULP energy -178297.401620 kJ/mol
# GULP energy per Si atom -5571.793801 kJ/mol
# Density = 1.868411 g / cm^3
# Si number density = 18.726731 Si / 1000 Ang^3
#
#
#
# Elastic Constant Matrix: (Units=GPa)
#
#
# Indices 1 2 3 4 5 6 
#
# 1 69.6616 20.2113 33.6230 0.0000 -1.2255 0.0000
# 2 20.2113 83.9084 20.2725 0.0000 -1.9566 0.0000
# 3 33.6230 20.2725 80.2596 0.0000 2.3760 0.0000
# 4 0.0000 0.0000 0.0000 -92.2617 0.0000 187.5348
# 5 -1.2255 -1.9566 2.3760 0.0000 30.6767 0.0000
# 6 0.0000 0.0000 0.0000 187.5348 0.0000 -333.9487
#
#
#
# Elastic Compliance Matrix: (Units=1/GPa)
#
#
# Indices 1 2 3 4 5 6 
#
# 1 0.018614 -0.002732 -0.007141 0.000000 0.001122 0.000000
# 2 -0.002732 0.013128 -0.002198 0.000000 0.000898 0.000000
# 3 -0.007141 -0.002198 0.016056 0.000000 -0.001669 0.000000
# 4 0.000000 0.000000 0.000000 0.076618 0.000000 0.043026
# 5 0.001122 0.000898 -0.001669 0.000000 0.032829 0.000000
# 6 0.000000 0.000000 0.000000 0.043026 0.000000 0.021168
#
#
# Mechanical properties :
#
#
# Convention : Reuss Voigt Hill
#
# Bulk Modulus (GPa) = 42.27369 42.44925 42.36147
# Shear Modulus (GPa) = 23.75970 -68.45855 -22.34942
#
# Velocity S-wave (km/s) = 3.56583 -6.05276 -3.45838
# Velocity P-wave (km/s) = 6.29099 5.11185 2.59283
#
# Compressibility (1/GPa) = 0.02365537
#
# Stress axis : x y z
#
# Youngs Moduli (GPa) = 53.72203 76.17398 62.28286
#
# Poissons Ratio (x) = 0.20812 0.44477
# Poissons Ratio (y) = 0.14678 0.13689
# Poissons Ratio (z) = 0.38364 0.16742
#
# Static dielectric constant tensor:
#      x y z
#    x 1.683440 0.000000 -0.000840 
#    y 0.000000 1.622800 0.000000 
#    z -0.000840 0.000000 1.640630 
# 
# From -- ./inp_files/51992.got.cif
#   From: 2010.05.17/outbox.cif.g08.bks.cpg/sg10_26_cif.got.tgz:51992.got - 2010.06.03 11:33:40.
