data_PCOD9146524
_publ_section_title
;
Structure prediction by ZEFSAII (Michael W. Deem and Ramdas Pophale) SiO2 
 PCOD9146524
Probable space group: P 2/M
;
_chemical_formula_sum "Si O2"
_cell_formula_units_Z 32
_cell_length_a 14.579836
_cell_length_b 7.508440
_cell_length_c 25.125614
_cell_angle_alpha 90.000000
_cell_angle_beta 149.787785
_cell_angle_gamma 90.000000
_cell_volume 1384.086674
_symmetry_space_group_name_H-M "P 2/M"
_symmetry_group_IT_number 10
_symmetry_cell_setting 'monoclinic'
loop_
_space_group_symop_operation_xyz
x,y,z
-x,y,-z
-x,-y,-z
x,-y,z
loop_
_atom_site_type_symbol
_atom_site_label
_atom_site_fract_x
_atom_site_fract_y
_atom_site_fract_z
Si Si1 0.020498 0.205388 0.842491
Si Si2 0.347325 0.704838 0.462831
Si Si3 0.880458 0.706251 0.989387
Si Si4 0.292077 0.780890 0.888479
Si Si5 0.987155 0.794990 0.335372
Si Si6 0.142732 0.217119 0.525370
Si Si7 0.354789 0.215783 0.309889
Si Si8 0.449172 0.214879 0.242380
O O1 0.167447 0.280318 0.875550
O O2 0.816563 0.283175 0.742170
O O3 0.996992 0.000000 0.815015
O O4 0.086077 0.209214 0.936497
O O5 0.500000 0.785989 0.500000
O O6 0.318431 0.500000 0.433458
O O7 0.152427 0.790411 0.375353
O O8 0.455764 0.715873 0.572688
O O9 0.931295 0.500000 0.020532
O O10 0.669560 0.719616 0.866310
O O11 0.000000 0.782448 0.000000
O O12 0.189467 0.720458 0.783217
O O13 0.293160 0.000000 0.888486
O O14 0.500000 0.724238 0.000000
O O15 0.065361 0.717210 0.429647
O O16 0.943600 0.000000 0.325740
O O17 0.344104 0.276643 0.644368
O O18 0.000000 0.259346 0.500000
O O19 0.156467 0.000000 0.527852
O O20 0.339935 0.266868 0.241074
O O21 0.359611 0.000000 0.314306
O O22 0.452513 0.000000 0.240778
#
# Coordination Sequence:
#
# PCOD9146524 Si02
#       8
#     4   4   4   4   4   4   4   4
#     4  10  20  35  57  84 113 146 186 236 283 332
#     4  11  23  35  51  80 115 150 188 229 279 336
#     4  11  23  36  53  80 114 154 191 228 280 338
#     4   9  19  35  58  88 114 142 187 238 285 327
#     4  10  19  36  60  83 112 148 187 233 278 329
#     4   9  18  33  56  87 115 144 184 227 276 330
#     4  10  19  33  55  83 111 141 183 228 280 335
#     4  10  19  34  56  82 111 144 184 231 278 329
#
# _framework density 23.11994
#
# number of rings (size 3 to 8) (size 9 to 14) (size 15 to 20)
#    0.000    2.000    2.500    1.500    0.000    4.500 
#    0.000    4.375    0.000    4.500    0.000    0.000 
#    0.000    0.000    0.000    0.000    0.000    0.000 
#
# Total GULP energy -178763.995495 kJ/mol
# GULP energy per Si atom -5586.374859 kJ/mol
# Density = 2.306732 g / cm^3
# Si number density = 23.119940 Si / 1000 Ang^3
#
#
#
# Elastic Constant Matrix: (Units=GPa)
#
#
# Indices 1 2 3 4 5 6 
#
# 1 87.2990 3.6535 53.3538 0.0000 9.4396 0.0000
# 2 3.6535 65.4144 2.8172 0.0000 3.2048 0.0000
# 3 53.3538 2.8172 189.0297 0.0000 9.7195 0.0000
# 4 0.0000 0.0000 0.0000 27.1535 0.0000 -10.1982
# 5 9.4396 3.2048 9.7195 0.0000 36.5256 0.0000
# 6 0.0000 0.0000 0.0000 -10.1982 0.0000 -2.1761
#
#
#
# Elastic Compliance Matrix: (Units=1/GPa)
#
#
# Indices 1 2 3 4 5 6 
#
# 1 0.014101 -0.000496 -0.003840 0.000000 -0.002579 0.000000
# 2 -0.000496 0.015375 -0.000027 0.000000 -0.001214 0.000000
# 3 -0.003840 -0.000027 0.006411 0.000000 -0.000711 0.000000
# 4 0.000000 0.000000 0.000000 0.013343 0.000000 -0.062531
# 5 -0.002579 -0.001214 -0.000711 0.000000 0.028340 0.000000
# 6 0.000000 0.000000 0.000000 -0.062531 0.000000 -0.166492
#
#
# Mechanical properties :
#
#
# Convention : Reuss Voigt Hill
#
# Bulk Modulus (GPa) = 36.81566 51.26581 44.04074
# Shear Modulus (GPa) = -70.28212 31.09517 -19.59348
#
# Velocity S-wave (km/s) = -5.51950 3.67133 -2.91429
# Velocity P-wave (km/s) = 4.96604 6.33984 2.78676
#
# Compressibility (1/GPa) = 0.02716235
#
# Stress axis : x y z
#
# Youngs Moduli (GPa) = 70.91470 65.03869 155.98123
#
# Poissons Ratio (x) = 0.03225 0.59899
# Poissons Ratio (y) = 0.03516 0.00418
# Poissons Ratio (z) = 0.27232 0.00174
#
# Static dielectric constant tensor:
#      x y z
#    x 1.871320 0.000000 -0.019030 
#    y 0.000000 1.876620 0.000000 
#    z -0.019030 0.000000 1.873850 
# 
# From -- ./inp_files/93143.got.cif
#   From: 2010.05.17/outbox.cif.g08.bks.cpg/sg10_47_cif.got.tgz:93143.got - 2010.06.03 11:33:40.
