data_PCOD9146661
_publ_section_title
;
Structure prediction by ZEFSAII (Michael W. Deem and Ramdas Pophale) SiO2 
 PCOD9146661
Probable space group: P 2/M
;
_chemical_formula_sum "Si O2"
_cell_formula_units_Z 28
_cell_length_a 8.699467
_cell_length_b 9.498946
_cell_length_c 24.094798
_cell_angle_alpha 90.000000
_cell_angle_beta 41.134095
_cell_angle_gamma 90.000000
_cell_volume 1309.787291
_symmetry_space_group_name_H-M "P 2/M"
_symmetry_group_IT_number 10
_symmetry_cell_setting 'monoclinic'
loop_
_space_group_symop_operation_xyz
x,y,z
-x,y,-z
-x,-y,-z
x,-y,z
loop_
_atom_site_type_symbol
_atom_site_label
_atom_site_fract_x
_atom_site_fract_y
_atom_site_fract_z
Si Si1 0.514935 0.156228 0.783909
Si Si2 0.101219 0.345343 0.152883
Si Si3 0.940782 0.667365 0.649194
Si Si4 0.188375 0.168838 0.684223
Si Si5 0.487770 0.849105 0.084426
Si Si6 0.006468 0.259104 0.060577
Si Si7 0.395610 0.658591 0.465347
O O1 0.681888 0.271536 0.710813
O O2 0.571348 0.157289 0.834384
O O3 0.239435 0.185988 0.859324
O O4 0.563306 0.000000 0.748667
O O5 0.079188 0.500000 0.184559
O O6 0.356930 0.280539 0.092612
O O7 0.050785 0.353553 0.101704
O O8 0.930112 0.234614 0.229119
O O9 0.936490 0.500000 0.663072
O O10 0.052361 0.757231 0.669588
O O11 0.121328 0.685939 0.549136
O O12 0.453521 0.225963 0.607532
O O13 0.173375 0.000000 0.685855
O O14 0.402086 0.000000 0.086083
O O15 0.765975 0.840132 0.003225
O O16 0.000000 0.322310 0.000000
O O17 0.500000 0.656231 0.500000
O O18 0.430833 0.500000 0.433102
#
# Coordination Sequence:
#
# PCOD9146661 Si02
#       7
#     4   4   4   4   4   4   4
#     4  10  20  36  60  89 121 160 202 245 293 353
#     4  12  25  40  61  88 120 158 199 249 305 358
#     4  10  19  33  56  87 124 162 196 238 292 351
#     4  11  21  34  56  87 120 155 198 247 297 347
#     4  10  21  39  63  89 118 154 197 248 302 356
#     4  10  24  43  62  87 117 156 200 253 301 360
#     4   8  16  31  52  82 121 159 193 235 291 350
#
# _framework density 21.377517000000001
#
# number of rings (size 3 to 8) (size 9 to 14) (size 15 to 20)
#    0.000    1.857    1.429    3.857    0.000    9.714 
#    0.000    2.857    0.000    0.857    0.000    5.000 
#    0.000    0.000    0.000    0.000    0.000    0.000 
#
# Total GULP energy -156247.935609 kJ/mol
# GULP energy per Si atom -5580.283415 kJ/mol
# Density = 2.132886 g / cm^3
# Si number density = 21.377517 Si / 1000 Ang^3
#
#
#
# Elastic Constant Matrix: (Units=GPa)
#
#
# Indices 1 2 3 4 5 6 
#
# 1 53.1845 34.3078 21.6597 0.0000 -4.6799 0.0000
# 2 34.3078 178.8646 76.5787 0.0000 -18.0059 0.0000
# 3 21.6597 76.5787 141.4966 0.0000 -37.3130 0.0000
# 4 0.0000 0.0000 0.0000 26.6947 0.0000 -8.2304
# 5 -4.6799 -18.0059 -37.3130 0.0000 19.1989 0.0000
# 6 0.0000 0.0000 0.0000 -8.2304 0.0000 28.0108
#
#
#
# Elastic Compliance Matrix: (Units=1/GPa)
#
#
# Indices 1 2 3 4 5 6 
#
# 1 0.021688 -0.003540 -0.001817 0.000000 -0.001564 0.000000
# 2 -0.003540 0.007882 -0.004107 0.000000 -0.001452 0.000000
# 3 -0.001817 -0.004107 0.017304 0.000000 0.029336 0.000000
# 4 0.000000 0.000000 0.000000 0.041192 0.000000 0.012104
# 5 -0.001564 -0.001452 0.029336 0.000000 0.107357 0.000000
# 6 0.000000 0.000000 0.000000 0.012104 0.000000 0.039257
#
#
# Mechanical properties :
#
#
# Convention : Reuss Voigt Hill
#
# Bulk Modulus (GPa) = 35.78110 70.95982 53.37046
# Shear Modulus (GPa) = 19.01704 30.84752 24.93228
#
# Velocity S-wave (km/s) = 2.98582 3.80279 3.41880
# Velocity P-wave (km/s) = 5.35359 7.24895 6.37214
#
# Compressibility (1/GPa) = 0.02794772
#
# Stress axis : x y z
#
# Youngs Moduli (GPa) = 46.10840 126.87383 57.79024
#
# Poissons Ratio (x) = 0.44908 0.10498
# Poissons Ratio (y) = 0.16321 0.23734
# Poissons Ratio (z) = 0.08376 0.52106
#
# Static dielectric constant tensor:
#      x y z
#    x 1.814690 0.000000 -0.017750 
#    y 0.000000 1.760100 0.000000 
#    z -0.017750 0.000000 1.797660 
# 
# From -- ./inp_files/91957.got.cif
#   From: 2010.05.17/outbox.cif.g08.bks.cpg/sg10_46_cif.got.tgz:91957.got - 2010.06.03 11:33:40.
