data_PCOD9146771
_publ_section_title
;
Structure prediction by ZEFSAII (Michael W. Deem and Ramdas Pophale) SiO2 
 PCOD9146771
Probable space group: P 2/M
;
_chemical_formula_sum "Si O2"
_cell_formula_units_Z 26
_cell_length_a 19.939733
_cell_length_b 16.511951
_cell_length_c 5.203758
_cell_angle_alpha 90.000000
_cell_angle_beta 117.336464
_cell_angle_gamma 90.000000
_cell_volume 1521.972426
_symmetry_space_group_name_H-M "P 2/M"
_symmetry_group_IT_number 10
_symmetry_cell_setting 'monoclinic'
loop_
_space_group_symop_operation_xyz
x,y,z
-x,y,-z
-x,-y,-z
x,-y,z
loop_
_atom_site_type_symbol
_atom_site_label
_atom_site_fract_x
_atom_site_fract_y
_atom_site_fract_z
Si Si1 0.298498 0.807078 0.156361
Si Si2 0.500000 0.162123 0.000000
Si Si3 0.781347 0.650631 0.912976
Si Si4 0.309398 0.594402 0.753163
Si Si5 0.663404 0.094410 0.291131
Si Si6 0.432138 0.701699 0.237869
Si Si7 0.953195 0.597813 0.166619
O O1 0.228972 0.745782 0.045062
O O2 0.298038 0.869359 0.388151
O O3 0.369715 0.744889 0.307528
O O4 0.310822 0.853275 0.909922
O O5 0.573757 0.108572 0.179161
O O6 0.474230 0.223707 0.175781
O O7 0.733562 0.626864 0.574690
O O8 0.745791 0.605087 0.097374
O O9 0.867970 0.628800 0.023377
O O10 0.327668 0.500000 0.750602
O O11 0.383407 0.647250 0.956586
O O12 0.678282 0.000000 0.278182
O O13 0.500000 0.655533 0.500000
O O14 0.949034 0.500000 0.155189
O O15 0.000000 0.622090 0.500000
O O16 0.000000 0.624166 0.000000
#
# Coordination Sequence:
#
# PCOD9146771 Si02
#       7
#     4   2   4   4   4   4   4
#     4  10  21  36  53  76 100 142 175 211 267 323
#     4  10  19  34  49  72  98 138 170 218 283 334
#     4  11  21  39  57  76 110 146 178 214 261 325
#     4  11  23  35  53  76 100 142 192 232 269 300
#     4  11  21  34  53  78 104 128 172 223 270 326
#     4  10  20  34  52  68 101 140 187 231 271 314
#     4  10  20  33  54  84 114 141 170 211 258 301
#
# _framework density 17.083096999999999
#
# number of rings (size 3 to 8) (size 9 to 14) (size 15 to 20)
#    0.000    1.538    1.538    5.769    2.154    1.538 
#    0.000    2.692    0.000    0.000    0.000    0.000 
#    0.000   12.308    0.000    0.000    0.000    0.000 
#
# Total GULP energy -145105.530475 kJ/mol
# GULP energy per Si atom -5580.981941 kJ/mol
# Density = 1.704421 g / cm^3
# Si number density = 17.083097 Si / 1000 Ang^3
#
#
#
# Elastic Constant Matrix: (Units=GPa)
#
#
# Indices 1 2 3 4 5 6 
#
# 1 74.7428 25.5378 53.8917 0.0000 -8.8540 0.0000
# 2 25.5378 88.5832 37.8881 0.0000 0.0495 0.0000
# 3 53.8917 37.8881 107.9729 0.0000 -8.5611 0.0000
# 4 0.0000 0.0000 0.0000 164.1372 0.0000 130.3095
# 5 -8.8540 0.0495 -8.5611 0.0000 27.7637 0.0000
# 6 0.0000 0.0000 0.0000 130.3095 0.0000 134.5358
#
#
#
# Elastic Compliance Matrix: (Units=1/GPa)
#
#
# Indices 1 2 3 4 5 6 
#
# 1 0.021557 -0.002055 -0.009731 0.000000 0.003878 0.000000
# 2 -0.002055 0.013539 -0.003874 0.000000 -0.001874 0.000000
# 3 -0.009731 -0.003874 0.015614 0.000000 0.001718 0.000000
# 4 0.000000 0.000000 0.000000 0.026370 0.000000 -0.025542
# 5 0.003878 -0.001874 0.001718 0.000000 0.037788 0.000000
# 6 0.000000 0.000000 0.000000 -0.025542 0.000000 0.032173
#
#
# Mechanical properties :
#
#
# Convention : Reuss Voigt Hill
#
# Bulk Modulus (GPa) = 51.57092 56.21490 53.89291
# Shear Modulus (GPa) = 27.05261 75.55276 51.30268
#
# Velocity S-wave (km/s) = 3.98375 6.65752 5.48602
# Velocity P-wave (km/s) = 7.17037 9.59557 8.47022
#
# Compressibility (1/GPa) = 0.01939077
#
# Stress axis : x y z
#
# Youngs Moduli (GPa) = 46.38851 73.85976 64.04412
#
# Poissons Ratio (x) = 0.15177 0.62322
# Poissons Ratio (y) = 0.09532 0.24810
# Poissons Ratio (z) = 0.45141 0.28613
#
# Static dielectric constant tensor:
#      x y z
#    x 1.591400 0.000000 -0.013150 
#    y 0.000000 1.572650 0.000000 
#    z -0.013150 0.000000 1.615770 
# 
# From -- ./inp_files/12634.got.cif
#   From: 2010.05.17/outbox.cif.g08.bks.cpg/sg10_7_cif.got.tgz:12634.got - 2010.06.03 11:33:40.
