data_PCOD9146967
_publ_section_title
;
Structure prediction by ZEFSAII (Michael W. Deem and Ramdas Pophale) SiO2 
 PCOD9146967
Probable space group: P 2/M
;
_chemical_formula_sum "Si O2"
_cell_formula_units_Z 26
_cell_length_a 19.535401
_cell_length_b 7.555472
_cell_length_c 9.682833
_cell_angle_alpha 90.000000
_cell_angle_beta 52.723942
_cell_angle_gamma 90.000000
_cell_volume 1137.235130
_symmetry_space_group_name_H-M "P 2/M"
_symmetry_group_IT_number 10
_symmetry_cell_setting 'monoclinic'
loop_
_space_group_symop_operation_xyz
x,y,z
-x,y,-z
-x,-y,-z
x,-y,z
loop_
_atom_site_type_symbol
_atom_site_label
_atom_site_fract_x
_atom_site_fract_y
_atom_site_fract_z
Si Si1 0.817145 0.785953 0.242117
Si Si2 0.377592 0.784317 0.553269
Si Si3 0.144449 0.301847 0.502288
Si Si4 0.289689 0.788434 0.132899
Si Si5 0.867240 0.214731 0.878986
Si Si6 0.553570 0.215943 0.226479
Si Si7 0.000000 0.248891 0.500000
O O1 0.718015 0.723787 0.363160
O O2 0.860778 0.726821 0.329589
O O3 0.816198 0.000000 0.243106
O O4 0.860556 0.731111 0.045917
O O5 0.404495 0.735869 0.676652
O O6 0.454406 0.727066 0.357633
O O7 0.376250 0.000000 0.552431
O O8 0.116678 0.500000 0.498538
O O9 0.241473 0.278939 0.327864
O O10 0.081384 0.179973 0.490265
O O11 0.223299 0.751635 0.087932
O O12 0.294974 0.000000 0.141349
O O13 0.383362 0.722620 0.972142
O O14 0.942059 0.307572 0.701613
O O15 0.882065 0.000000 0.855149
O O16 0.553434 0.000000 0.221749
#
# Coordination Sequence:
#
# PCOD9146967 Si02
#       7
#     4   4   4   4   4   4   2
#     4  10  19  34  55  83 113 141 170 210 263 314
#     4   8  13  23  46  81 116 139 166 210 257 302
#     4  11  24  40  55  73 102 139 180 222 267 315
#     4   9  16  31  55  82 107 138 178 217 258 306
#     4   9  17  31  56  85 111 133 165 214 266 316
#     4   8  12  22  47  82 112 139 171 212 254 297
#     4  10  22  40  58  76  99 132 177 220 267 320
#
# _framework density 22.862466000000001
#
# number of rings (size 3 to 8) (size 9 to 14) (size 15 to 20)
#    0.000    2.769    1.538    1.846    0.000    2.462 
#    0.000    6.923    0.000    5.538    0.000    2.154 
#    0.000    0.000    0.000    0.000    0.000    0.000 
#
# Total GULP energy -144883.108072 kJ/mol
# GULP energy per Si atom -5572.427234 kJ/mol
# Density = 2.281043 g / cm^3
# Si number density = 22.862466 Si / 1000 Ang^3
#
#
#
# Elastic Constant Matrix: (Units=GPa)
#
#
# Indices 1 2 3 4 5 6 
#
# 1 62.8856 9.4756 59.5828 0.0000 0.6563 0.0000
# 2 9.4756 71.4299 27.7876 0.0000 -3.0432 0.0000
# 3 59.5828 27.7876 203.3737 0.0000 -5.2523 0.0000
# 4 0.0000 0.0000 0.0000 35.5275 0.0000 7.9292
# 5 0.6563 -3.0432 -5.2523 0.0000 45.5882 0.0000
# 6 0.0000 0.0000 0.0000 7.9292 0.0000 -3.8976
#
#
#
# Elastic Compliance Matrix: (Units=1/GPa)
#
#
# Indices 1 2 3 4 5 6 
#
# 1 0.022079 -0.000473 -0.006432 0.000000 -0.001090 0.000000
# 2 -0.000473 0.014822 -0.001866 0.000000 0.000781 0.000000
# 3 -0.006432 -0.001866 0.007077 0.000000 0.000783 0.000000
# 4 0.000000 0.000000 0.000000 0.019358 0.000000 0.039381
# 5 -0.001090 0.000781 0.000783 0.000000 0.022094 0.000000
# 6 0.000000 0.000000 0.000000 0.039381 0.000000 -0.176454
#
#
# Mechanical properties :
#
#
# Convention : Reuss Voigt Hill
#
# Bulk Modulus (GPa) = 37.82968 59.04234 48.43601
# Shear Modulus (GPa) = -77.31488 31.49985 -22.90751
#
# Velocity S-wave (km/s) = -5.82158 3.71590 -3.16883
# Velocity P-wave (km/s) = 5.34838 6.65519 2.80057
#
# Compressibility (1/GPa) = 0.02643427
#
# Stress axis : x y z
#
# Youngs Moduli (GPa) = 45.29251 67.46797 141.30926
#
# Poissons Ratio (x) = 0.03192 0.90889
# Poissons Ratio (y) = 0.02143 0.26373
# Poissons Ratio (z) = 0.29132 0.12592
#
# Static dielectric constant tensor:
#      x y z
#    x 1.806150 0.000000 -0.030970 
#    y 0.000000 2.000250 0.000000 
#    z -0.030970 0.000000 1.841610 
# 
# From -- ./inp_files/34214.got.cif
#   From: 2010.05.17/outbox.cif.g08.bks.cpg/sg10_18_cif.got.tgz:34214.got - 2010.06.03 11:33:40.
