data_PCOD9146452
_publ_section_title
;
Structure prediction by ZEFSAII (Michael W. Deem and Ramdas Pophale) SiO2 
 PCOD9146452
Probable space group: P 2/M
;
_chemical_formula_sum "Si O2"
_cell_formula_units_Z 32
_cell_length_a 14.494506
_cell_length_b 9.192520
_cell_length_c 20.846518
_cell_angle_alpha 90.000000
_cell_angle_beta 43.407736
_cell_angle_gamma 90.000000
_cell_volume 1908.734752
_symmetry_space_group_name_H-M "P 2/M"
_symmetry_group_IT_number 10
_symmetry_cell_setting 'monoclinic'
loop_
_space_group_symop_operation_xyz
x,y,z
-x,y,-z
-x,-y,-z
x,-y,z
loop_
_atom_site_type_symbol
_atom_site_label
_atom_site_fract_x
_atom_site_fract_y
_atom_site_fract_z
Si Si1 0.408628 0.826764 0.483183
Si Si2 0.587500 0.673778 0.136168
Si Si3 0.856632 0.828854 0.958066
Si Si4 0.860597 0.671654 0.338044
Si Si5 0.863041 0.827939 0.800678
Si Si6 0.402871 0.673828 0.109685
Si Si7 0.573302 0.674111 0.288191
Si Si8 0.129417 0.670671 0.821219
O O1 0.500000 0.799455 0.500000
O O2 0.266337 0.749847 0.566435
O O3 0.484675 0.759530 0.383971
O O4 0.392248 0.000000 0.484796
O O5 0.609803 0.500000 0.119502
O O6 0.483080 0.715382 0.133363
O O7 0.534961 0.703321 0.234099
O O8 0.729047 0.751670 0.053532
O O9 0.845986 0.806695 0.886235
O O10 0.998566 0.760310 0.906971
O O11 0.855092 0.000000 0.971678
O O12 0.861135 0.500000 0.351884
O O13 0.850774 0.688105 0.265568
O O14 0.000125 0.746418 0.287139
O O15 0.734570 0.759375 0.831164
O O16 0.873630 0.000000 0.783657
O O17 0.376500 0.500000 0.124417
O O18 0.500000 0.702165 0.000000
O O19 0.563196 0.500000 0.305606
O O20 0.730417 0.713677 0.217427
O O21 0.105066 0.500000 0.846344
#
# Coordination Sequence:
#
# PCOD9146452 Si02
#       8
#     4   4   4   4   4   4   4   4
#     4  11  22  35  55  82 111 141 174 218 268 316
#     4  10  21  36  54  76 106 142 182 225 266 313
#     4  10  20  32  49  74 107 143 179 217 262 316
#     4  10  19  33  56  81 106 138 178 221 262 311
#     4  10  20  33  52  80 111 140 174 220 271 319
#     4  10  19  33  55  80 105 139 181 224 268 315
#     4  10  21  37  55  77 105 142 184 222 263 314
#     4   9  18  32  51  74 103 140 180 217 256 307
#
# _framework density 16.765032999999999
#
# number of rings (size 3 to 8) (size 9 to 14) (size 15 to 20)
#    0.000    2.000    2.500    1.500    0.000    4.250 
#    0.000    2.500    0.000    0.750    0.000    5.250 
#    0.000    0.000    0.000    0.000    0.000    0.000 
#
# Total GULP energy -178667.852147 kJ/mol
# GULP energy per Si atom -5583.370380 kJ/mol
# Density = 1.672687 g / cm^3
# Si number density = 16.765033 Si / 1000 Ang^3
#
#
#
# Elastic Constant Matrix: (Units=GPa)
#
#
# Indices 1 2 3 4 5 6 
#
# 1 102.7180 56.9063 66.2716 0.0000 -8.2832 0.0000
# 2 56.9063 70.9265 74.8016 0.0000 -6.0197 0.0000
# 3 66.2716 74.8016 106.3519 0.0000 -12.7652 0.0000
# 4 0.0000 0.0000 0.0000 14.1395 0.0000 3.6312
# 5 -8.2832 -6.0197 -12.7652 0.0000 23.1781 0.0000
# 6 0.0000 0.0000 0.0000 3.6312 0.0000 12.7554
#
#
#
# Elastic Compliance Matrix: (Units=1/GPa)
#
#
# Indices 1 2 3 4 5 6 
#
# 1 0.018035 -0.010411 -0.003712 0.000000 0.001697 0.000000
# 2 -0.010411 0.061841 -0.038041 0.000000 -0.008611 0.000000
# 3 -0.003712 -0.038041 0.039755 0.000000 0.010688 0.000000
# 4 0.000000 0.000000 0.000000 0.076302 0.000000 -0.021721
# 5 0.001697 -0.008611 0.010688 0.000000 0.047401 0.000000
# 6 0.000000 0.000000 0.000000 -0.021721 0.000000 0.084581
#
#
# Mechanical properties :
#
#
# Convention : Reuss Voigt Hill
#
# Bulk Modulus (GPa) = 65.35135 75.10616 70.22876
# Shear Modulus (GPa) = 11.43263 15.48242 13.45752
#
# Velocity S-wave (km/s) = 2.61422 3.04220 2.83629
# Velocity P-wave (km/s) = 6.94100 7.56548 7.25996
#
# Compressibility (1/GPa) = 0.01530190
#
# Stress axis : x y z
#
# Youngs Moduli (GPa) = 55.44800 16.17044 25.15420
#
# Poissons Ratio (x) = 0.16835 0.09337
# Poissons Ratio (y) = 0.57728 0.95690
# Poissons Ratio (z) = 0.20582 0.61515
#
# Static dielectric constant tensor:
#      x y z
#    x 1.560580 0.000000 0.013620 
#    y 0.000000 1.554600 0.000000 
#    z 0.013620 0.000000 1.536190 
# 
# From -- ./inp_files/58366.got.cif
#   From: 2010.05.17/outbox.cif.g08.bks.cpg/sg10_30_cif.got.tgz:58366.got - 2010.06.03 11:33:40.
