data_PCOD9146705
_publ_section_title
;
Structure prediction by ZEFSAII (Michael W. Deem and Ramdas Pophale) SiO2 
 PCOD9146705
Probable space group: P 2/M
;
_chemical_formula_sum "Si O2"
_cell_formula_units_Z 24
_cell_length_a 14.220735
_cell_length_b 19.415250
_cell_length_c 8.718472
_cell_angle_alpha 90.000000
_cell_angle_beta 150.179479
_cell_angle_gamma 90.000000
_cell_volume 1197.045143
_symmetry_space_group_name_H-M "P 2/M"
_symmetry_group_IT_number 10
_symmetry_cell_setting 'monoclinic'
loop_
_space_group_symop_operation_xyz
x,y,z
-x,y,-z
-x,-y,-z
x,-y,z
loop_
_atom_site_type_symbol
_atom_site_label
_atom_site_fract_x
_atom_site_fract_y
_atom_site_fract_z
Si Si1 0.205614 0.578632 0.205615
Si Si2 0.417210 0.171945 0.626007
Si Si3 0.643368 0.323483 0.333066
Si Si4 0.046330 0.676517 0.736028
Si Si5 0.894480 0.079057 0.683440
Si Si6 0.791586 0.828055 0.000382
O O1 0.264531 0.500000 0.264531
O O2 0.341187 0.622129 0.508002
O O3 0.000000 0.577004 0.000000
O O4 0.174372 0.622129 0.007557
O O5 0.419244 0.248644 0.696414
O O6 0.298691 0.120853 0.564940
O O7 0.305142 0.175731 0.305142
O O8 0.629081 0.148722 0.887242
O O9 0.851969 0.315495 0.555906
O O10 0.500000 0.347332 0.000000
O O11 0.000000 0.652668 0.500000
O O12 0.142075 0.751356 0.864906
O O13 0.866186 0.000000 0.598558
O O14 0.000000 0.078760 0.000000
O O15 0.032441 0.120853 0.766192
#
# Coordination Sequence:
#
# PCOD9146705 Si02
#       6
#     4   4   4   4   4   4
#     4   9  20  38  61  87 123 167 203 248 315 372
#     4  10  19  33  57  86 119 157 205 258 302 360
#     4  11  21  36  60  89 121 159 211 257 302 364
#     4  11  21  36  60  89 121 159 211 257 302 364
#     4   9  18  32  54  86 122 161 202 249 313 370
#     4  10  19  33  57  86 119 157 205 258 302 360
#
# _framework density 20.049368999999999
#
# number of rings (size 3 to 8) (size 9 to 14) (size 15 to 20)
#    0.000    2.000    3.333    1.000    0.000    1.333 
#    0.000    3.333    0.000    8.000    0.000    0.000 
#    0.000    0.000    0.000    0.000    0.000    0.000 
#
# Total GULP energy -134127.441503 kJ/mol
# GULP energy per Si atom -5588.643396 kJ/mol
# Density = 2.000374 g / cm^3
# Si number density = 20.049369 Si / 1000 Ang^3
#
#
#
# Elastic Constant Matrix: (Units=GPa)
#
#
# Indices 1 2 3 4 5 6 
#
# 1 98.8816 60.3975 51.8907 0.0000 11.9992 0.0000
# 2 60.3975 168.1104 64.5481 0.0000 -4.2226 0.0000
# 3 51.8907 64.5481 86.1946 0.0000 0.9066 0.0000
# 4 0.0000 0.0000 0.0000 -19.2692 0.0000 12.7834
# 5 11.9992 -4.2226 0.9066 0.0000 28.8820 0.0000
# 6 0.0000 0.0000 0.0000 12.7834 0.0000 -6.7040
#
#
#
# Elastic Compliance Matrix: (Units=1/GPa)
#
#
# Indices 1 2 3 4 5 6 
#
# 1 0.017105 -0.003377 -0.007691 0.000000 -0.007359 0.000000
# 2 -0.003377 0.009074 -0.004793 0.000000 0.002880 0.000000
# 3 -0.007691 -0.004793 0.019801 0.000000 0.001873 0.000000
# 4 0.000000 0.000000 0.000000 0.195827 0.000000 0.373407
# 5 -0.007359 0.002880 0.001873 0.000000 0.038043 0.000000
# 6 0.000000 0.000000 0.000000 0.373407 0.000000 0.562859
#
#
# Mechanical properties :
#
#
# Convention : Reuss Voigt Hill
#
# Bulk Modulus (GPa) = 70.13243 78.53993 74.33618
# Shear Modulus (GPa) = 5.68710 12.33844 9.01277
#
# Velocity S-wave (km/s) = 1.68603 2.48342 2.12251
# Velocity P-wave (km/s) = 6.23266 6.89068 6.56992
#
# Compressibility (1/GPa) = 0.01425874
#
# Stress axis : x y z
#
# Youngs Moduli (GPa) = 58.46274 110.20117 50.50200
#
# Poissons Ratio (x) = 0.37216 0.38842
# Poissons Ratio (y) = 0.19743 0.24204
# Poissons Ratio (z) = 0.44964 0.52816
#
# Static dielectric constant tensor:
#      x y z
#    x 1.731460 0.000000 -0.011590 
#    y 0.000000 1.648930 0.000000 
#    z -0.011590 0.000000 1.742850 
# 
# From -- ./inp_files/30231.got.cif
#   From: 2010.05.17/outbox.cif.g08.bks.cpg/sg10_16_cif.got.tgz:30231.got - 2010.06.03 11:33:40.
