data_PCOD9146938
_publ_section_title
;
Structure prediction by ZEFSAII (Michael W. Deem and Ramdas Pophale) SiO2 
 PCOD9146938
Probable space group: P 2/M
;
_chemical_formula_sum "Si O2"
_cell_formula_units_Z 28
_cell_length_a 26.736600
_cell_length_b 8.951235
_cell_length_c 10.353638
_cell_angle_alpha 90.000000
_cell_angle_beta 39.742643
_cell_angle_gamma 90.000000
_cell_volume 1584.215205
_symmetry_space_group_name_H-M "P 2/M"
_symmetry_group_IT_number 10
_symmetry_cell_setting 'monoclinic'
loop_
_space_group_symop_operation_xyz
x,y,z
-x,y,-z
-x,-y,-z
x,-y,z
loop_
_atom_site_type_symbol
_atom_site_label
_atom_site_fract_x
_atom_site_fract_y
_atom_site_fract_z
Si Si1 0.665420 0.676757 0.307301
Si Si2 0.090971 0.179629 0.800640
Si Si3 0.907327 0.824457 0.680704
Si Si4 0.493551 0.828706 0.356282
Si Si5 0.332565 0.820173 0.981994
Si Si6 0.813737 0.822842 0.129342
Si Si7 0.179079 0.322904 0.384881
O O1 0.667894 0.500000 0.284360
O O2 0.580660 0.727830 0.527723
O O3 0.734751 0.732266 0.261550
O O4 0.676728 0.755546 0.144807
O O5 0.139981 0.214210 0.832362
O O6 0.130030 0.260362 0.602189
O O7 0.093643 0.000000 0.774693
O O8 0.000000 0.220530 0.000000
O O9 0.866386 0.724280 0.654834
O O10 0.000000 0.800119 0.500000
O O11 0.893569 0.000000 0.675460
O O12 0.869762 0.796883 0.894977
O O13 0.500000 0.829594 0.500000
O O14 0.479052 0.000000 0.344477
O O15 0.580223 0.780679 0.141526
O O16 0.263712 0.754876 0.205399
O O17 0.328131 0.000000 0.983159
O O18 0.795331 0.000000 0.168119
O O19 0.187702 0.500000 0.375158
#
# Coordination Sequence:
#
# PCOD9146938 Si02
#       7
#     4   4   4   4   4   4   4
#     4  11  20  30  50  82 118 149 180 225 284 340
#     4  10  22  42  64  83 105 146 199 239 277 334
#     4  10  20  36  59  83 107 142 187 235 280 329
#     4   8  16  30  50  76 108 146 186 228 273 324
#     4  10  19  34  55  79 110 149 192 233 271 325
#     4  10  20  35  58  82 109 146 189 236 278 329
#     4  12  24  36  55  85 118 150 181 229 292 342
#
# _framework density 17.674365999999999
#
# number of rings (size 3 to 8) (size 9 to 14) (size 15 to 20)
#    0.000    1.857    1.429    4.714    0.000    6.571 
#    0.000    1.429    0.000    0.857    0.000    6.000 
#    0.000    0.000    0.000    0.000    0.000    0.000 
#
# Total GULP energy -156340.608937 kJ/mol
# GULP energy per Si atom -5583.593176 kJ/mol
# Density = 1.763414 g / cm^3
# Si number density = 17.674366 Si / 1000 Ang^3
#
#
#
# Elastic Constant Matrix: (Units=GPa)
#
#
# Indices 1 2 3 4 5 6 
#
# 1 55.5679 39.0801 30.6639 0.0000 -15.9144 0.0000
# 2 39.0801 69.7289 45.8078 0.0000 -10.5804 0.0000
# 3 30.6639 45.8078 100.9373 0.0000 -19.5790 0.0000
# 4 0.0000 0.0000 0.0000 12.8354 0.0000 1.5717
# 5 -15.9144 -10.5804 -19.5790 0.0000 33.2189 0.0000
# 6 0.0000 0.0000 0.0000 1.5717 0.0000 -17.5700
#
#
#
# Elastic Compliance Matrix: (Units=1/GPa)
#
#
# Indices 1 2 3 4 5 6 
#
# 1 0.032791 -0.016509 -0.000499 0.000000 0.010157 0.000000
# 2 -0.016509 0.028785 -0.008811 0.000000 -0.003934 0.000000
# 3 -0.000499 -0.008811 0.015205 0.000000 0.005916 0.000000
# 4 0.000000 0.000000 0.000000 0.077065 0.000000 0.006894
# 5 0.010157 -0.003934 0.005916 0.000000 0.037203 0.000000
# 6 0.000000 0.000000 0.000000 0.006894 0.000000 -0.056299
#
#
# Mechanical properties :
#
#
# Convention : Reuss Voigt Hill
#
# Bulk Modulus (GPa) = 39.77332 50.81531 45.29431
# Shear Modulus (GPa) = 25.67125 13.07569 19.37347
#
# Velocity S-wave (km/s) = 3.81525 2.72290 3.31438
# Velocity P-wave (km/s) = 6.47768 6.22084 6.35056
#
# Compressibility (1/GPa) = 0.02514249
#
# Stress axis : x y z
#
# Youngs Moduli (GPa) = 30.49647 34.74005 65.76690
#
# Poissons Ratio (x) = 0.57351 0.03285
# Poissons Ratio (y) = 0.50345 0.57949
# Poissons Ratio (z) = 0.01523 0.30611
#
# Static dielectric constant tensor:
#      x y z
#    x 1.591380 0.000000 -0.022710 
#    y 0.000000 1.588160 0.000000 
#    z -0.022710 0.000000 1.601720 
# 
# From -- ./inp_files/37023.got.cif
#   From: 2010.05.17/outbox.cif.g08.bks.cpg/sg10_19_cif.got.tgz:37023.got - 2010.06.03 11:33:40.
