data_PCOD9146799
_publ_section_title
;
Structure prediction by ZEFSAII (Michael W. Deem and Ramdas Pophale) SiO2 
 PCOD9146799
Probable space group: P 2/M
;
_chemical_formula_sum "Si O2"
_cell_formula_units_Z 30
_cell_length_a 17.798342
_cell_length_b 13.680264
_cell_length_c 9.538584
_cell_angle_alpha 90.000000
_cell_angle_beta 36.750709
_cell_angle_gamma 90.000000
_cell_volume 1389.638990
_symmetry_space_group_name_H-M "P 2/M"
_symmetry_group_IT_number 10
_symmetry_cell_setting 'monoclinic'
loop_
_space_group_symop_operation_xyz
x,y,z
-x,y,-z
-x,-y,-z
x,-y,z
loop_
_atom_site_type_symbol
_atom_site_label
_atom_site_fract_x
_atom_site_fract_y
_atom_site_fract_z
Si Si1 0.901238 0.889100 0.824510
Si Si2 0.919120 0.748189 0.363140
Si Si3 0.500000 0.720485 0.000000
Si Si4 0.424350 0.109039 0.285851
Si Si5 0.383257 0.115361 0.769594
Si Si6 0.901214 0.611621 0.779548
Si Si7 0.159961 0.890828 0.761737
Si Si8 0.716015 0.616691 0.823812
O O1 0.760674 0.848254 0.004925
O O2 0.901279 0.889419 0.995186
O O3 0.906291 0.000000 0.766143
O O4 0.030643 0.831047 0.602877
O O5 0.876614 0.802900 0.286053
O O6 0.809830 0.678996 0.585085
O O7 0.044756 0.680421 0.179686
O O8 0.591373 0.799181 0.790557
O O9 0.577686 0.655087 0.992904
O O10 0.556054 0.118591 0.166525
O O11 0.308941 0.114600 0.565230
O O12 0.413828 0.000000 0.239021
O O13 0.500000 0.156320 0.500000
O O14 0.371860 0.000000 0.747337
O O15 0.902179 0.500000 0.826199
O O16 0.768172 0.632117 0.903705
O O17 0.000000 0.618279 0.500000
O O18 0.138001 0.000000 0.732165
O O19 0.726597 0.500000 0.781198
#
# Coordination Sequence:
#
# PCOD9146799 Si02
#       8
#     4   4   2   4   4   4   4   4
#     4  10  20  32  52  82 113 148 186 221 259 314
#     4  11  19  32  54  80 104 142 181 220 264 323
#     4  12  22  36  60  86 106 138 178 228 280 336
#     4  10  20  34  53  80 116 150 178 217 272 327
#     4   9  16  31  53  75 106 148 191 225 253 301
#     4   8  17  35  56  73  97 132 172 222 275 322
#     4  10  19  34  52  77 115 151 179 215 262 318
#     4  10  22  40  59  80 103 132 179 235 283 328
#
# _framework density 21.588341
#
# number of rings (size 3 to 8) (size 9 to 14) (size 15 to 20)
#    0.000    2.133    2.667    2.400    1.867    1.067 
#    0.000    0.000    0.000   20.800    0.000    0.000 
#    0.000    6.400    0.000    0.000    0.000    0.000 
#
# Total GULP energy -167027.422371 kJ/mol
# GULP energy per Si atom -5567.580746 kJ/mol
# Density = 2.153920 g / cm^3
# Si number density = 21.588341 Si / 1000 Ang^3
#
#
#
# Elastic Constant Matrix: (Units=GPa)
#
#
# Indices 1 2 3 4 5 6 
#
# 1 104.4264 53.9014 5.3587 0.0000 -27.4410 0.0000
# 2 53.9014 137.7799 6.9958 0.0000 -14.5831 0.0000
# 3 5.3587 6.9958 51.5835 0.0000 -19.3393 0.0000
# 4 0.0000 0.0000 0.0000 -21.1571 0.0000 -5.8674
# 5 -27.4410 -14.5831 -19.3393 0.0000 35.7312 0.0000
# 6 0.0000 0.0000 0.0000 -5.8674 0.0000 38.3751
#
#
#
# Elastic Compliance Matrix: (Units=1/GPa)
#
#
# Indices 1 2 3 4 5 6 
#
# 1 0.014824 -0.004779 0.003318 0.000000 0.011230 0.000000
# 2 -0.004779 0.009128 -0.000904 0.000000 -0.000434 0.000000
# 3 0.003318 -0.000904 0.025068 0.000000 0.015747 0.000000
# 4 0.000000 0.000000 0.000000 -0.045343 0.000000 -0.006933
# 5 0.011230 -0.000434 0.015747 0.000000 0.044957 0.000000
# 6 0.000000 0.000000 0.000000 -0.006933 0.000000 0.024999
#
#
# Mechanical properties :
#
#
# Convention : Reuss Voigt Hill
#
# Bulk Modulus (GPa) = 22.57898 47.36685 34.97292
# Shear Modulus (GPa) = 53.69162 25.75877 39.72519
#
# Velocity S-wave (km/s) = 4.99246 3.45799 4.29432
# Velocity P-wave (km/s) = 6.61169 6.15891 6.38931
#
# Compressibility (1/GPa) = 0.04428898
#
# Stress axis : x y z
#
# Youngs Moduli (GPa) = 67.45999 109.55873 39.89185
#
# Poissons Ratio (x) = 0.52359 -0.13238
# Poissons Ratio (y) = 0.32240 0.03607
# Poissons Ratio (z) = -0.22386 0.09907
#
# Static dielectric constant tensor:
#      x y z
#    x 1.833530 0.000000 -0.013750 
#    y 0.000000 1.825350 0.000000 
#    z -0.013750 0.000000 1.877360 
# 
# From -- ./inp_files/53653.got.cif
#   From: 2010.05.17/outbox.cif.g08.bks.cpg/sg10_27_cif.got.tgz:53653.got - 2010.06.03 11:33:40.
