data_PCOD9146202
_publ_section_title
;
Structure prediction by ZEFSAII (Michael W. Deem and Ramdas Pophale) SiO2 
 PCOD9146202
Probable space group: P 2/M
;
_chemical_formula_sum "Si O2"
_cell_formula_units_Z 32
_cell_length_a 8.167305
_cell_length_b 17.658142
_cell_length_c 23.268679
_cell_angle_alpha 90.000000
_cell_angle_beta 146.106267
_cell_angle_gamma 90.000000
_cell_volume 1871.373941
_symmetry_space_group_name_H-M "P 2/M"
_symmetry_group_IT_number 10
_symmetry_cell_setting 'monoclinic'
loop_
_space_group_symop_operation_xyz
x,y,z
-x,y,-z
-x,-y,-z
x,-y,z
loop_
_atom_site_type_symbol
_atom_site_label
_atom_site_fract_x
_atom_site_fract_y
_atom_site_fract_z
Si Si1 0.786407 0.413426 0.122931
Si Si2 0.624857 0.586974 0.211346
Si Si3 0.704384 0.778131 0.444361
Si Si4 0.160625 0.267943 0.215685
Si Si5 0.718502 0.737763 0.878298
Si Si6 0.825065 0.327945 0.587988
Si Si7 0.110995 0.794807 0.753442
Si Si8 0.656363 0.914468 0.607248
O O1 0.883530 0.500000 0.142114
O O2 0.703918 0.405430 0.166371
O O3 0.027338 0.351892 0.176945
O O4 0.500000 0.400514 0.000000
O O5 0.543208 0.500000 0.198351
O O6 0.378851 0.649379 0.152546
O O7 0.913510 0.611870 0.331464
O O8 0.480851 0.734122 0.337803
O O9 0.801575 0.723833 0.524760
O O10 0.532424 0.853439 0.412785
O O11 0.000000 0.801770 0.500000
O O12 0.200758 0.238214 0.162848
O O13 0.941938 0.221018 0.194331
O O14 0.434962 0.779351 0.823495
O O15 0.000000 0.746831 0.000000
O O16 0.500000 0.361818 0.500000
O O17 0.903593 0.267962 0.661457
O O18 0.977230 0.875979 0.698037
O O19 0.500000 0.916341 0.500000
O O20 0.664313 0.000000 0.632316
#
# Coordination Sequence:
#
# PCOD9146202 Si02
#       8
#     4   4   4   4   4   4   4   4
#     4  10  19  33  53  75 104 140 183 237 287 325
#     4  10  21  35  50  74 110 146 183 232 286 326
#     4  11  20  33  55  82 113 145 181 225 264 317
#     4  11  21  34  57  79 104 148 183 225 281 321
#     4  11  23  36  58  83 106 140 190 238 279 325
#     4  11  16  33  54  74 106 145 186 223 263 326
#     4  10  19  37  55  82 114 141 179 228 260 327
#     4  10  19  33  57  84 114 152 177 206 274 331
#
# _framework density 17.099736
#
# number of rings (size 3 to 8) (size 9 to 14) (size 15 to 20)
#    0.000    1.500    6.250    2.250    0.000    1.250 
#    0.000    0.625    0.000    1.875    0.000    3.500 
#    0.000    0.000    0.000    0.000    0.000    0.000 
#
# Total GULP energy -178414.488101 kJ/mol
# GULP energy per Si atom -5575.452753 kJ/mol
# Density = 1.706082 g / cm^3
# Si number density = 17.099736 Si / 1000 Ang^3
#
#
#
# Elastic Constant Matrix: (Units=GPa)
#
#
# Indices 1 2 3 4 5 6 
#
# 1 92.6133 26.1296 47.2464 0.0000 -5.5947 0.0000
# 2 26.1296 87.4870 41.7927 0.0000 5.1505 0.0000
# 3 47.2464 41.7927 113.1696 0.0000 -2.9847 0.0000
# 4 0.0000 0.0000 0.0000 12.6076 0.0000 -1.7025
# 5 -5.5947 5.1505 -2.9847 0.0000 22.0065 0.0000
# 6 0.0000 0.0000 0.0000 -1.7025 0.0000 13.0371
#
#
#
# Elastic Compliance Matrix: (Units=1/GPa)
#
#
# Indices 1 2 3 4 5 6 
#
# 1 0.014159 -0.001999 -0.005084 0.000000 0.003378 0.000000
# 2 -0.001999 0.014513 -0.004645 0.000000 -0.004535 0.000000
# 3 -0.005084 -0.004645 0.012714 0.000000 0.001519 0.000000
# 4 0.000000 0.000000 0.000000 0.080741 0.000000 0.010544
# 5 0.003378 -0.004535 0.001519 0.000000 0.047567 0.000000
# 6 0.000000 0.000000 0.000000 0.010544 0.000000 0.078081
#
#
# Mechanical properties :
#
#
# Convention : Reuss Voigt Hill
#
# Bulk Modulus (GPa) = 55.76917 58.17858 56.97387
# Shear Modulus (GPa) = 18.03702 21.40367 19.72034
#
# Velocity S-wave (km/s) = 3.25131 3.54177 3.39964
# Velocity P-wave (km/s) = 6.83956 7.12899 6.98577
#
# Compressibility (1/GPa) = 0.01793106
#
# Stress axis : x y z
#
# Youngs Moduli (GPa) = 70.62536 68.90349 78.65370
#
# Poissons Ratio (x) = 0.13775 0.39986
# Poissons Ratio (y) = 0.14120 0.36531
# Poissons Ratio (z) = 0.35905 0.32002
#
# Static dielectric constant tensor:
#      x y z
#    x 1.622970 0.000000 -0.010460 
#    y 0.000000 1.568290 0.000000 
#    z -0.010460 0.000000 1.584240 
# 
# From -- ./inp_files/85516.got.cif
#   From: 2010.05.17/outbox.cif.g08.bks.cpg/sg10_43_cif.got.tgz:85516.got - 2010.06.03 11:33:40.
