data_PCOD9146917
_publ_section_title
;
Structure prediction by ZEFSAII (Michael W. Deem and Ramdas Pophale) SiO2 
 PCOD9146917
Probable space group: P 2/M
;
_chemical_formula_sum "Si O2"
_cell_formula_units_Z 32
_cell_length_a 11.081098
_cell_length_b 11.089480
_cell_length_c 12.254311
_cell_angle_alpha 90.000000
_cell_angle_beta 75.924968
_cell_angle_gamma 90.000000
_cell_volume 1460.645408
_symmetry_space_group_name_H-M "P 2/M"
_symmetry_group_IT_number 10
_symmetry_cell_setting 'monoclinic'
loop_
_space_group_symop_operation_xyz
x,y,z
-x,y,-z
-x,-y,-z
x,-y,z
loop_
_atom_site_type_symbol
_atom_site_label
_atom_site_fract_x
_atom_site_fract_y
_atom_site_fract_z
Si Si1 0.060562 0.137129 0.366493
Si Si2 0.671534 0.870710 0.591265
Si Si3 0.558586 0.369534 0.242890
Si Si4 0.045164 0.361681 0.740742
Si Si5 0.539157 0.837555 0.830843
Si Si6 0.175584 0.634907 0.938851
Si Si7 0.719284 0.870469 0.988936
Si Si8 0.316207 0.641022 0.565740
O O1 0.206071 0.134675 0.360267
O O2 0.000000 0.157252 0.500000
O O3 0.027870 0.247537 0.293438
O O4 0.023383 0.000000 0.338276
O O5 0.561237 0.876995 0.702904
O O6 0.673131 0.748076 0.523027
O O7 0.675889 0.000000 0.528424
O O8 0.507921 0.500000 0.272947
O O9 0.465262 0.304940 0.182739
O O10 0.691646 0.372742 0.153316
O O11 0.591514 0.324037 0.355979
O O12 0.996202 0.500000 0.735109
O O13 0.075817 0.347119 0.863140
O O14 0.177566 0.358097 0.647764
O O15 0.401862 0.869266 0.904009
O O16 0.647588 0.869892 0.889317
O O17 0.156671 0.500000 0.991656
O O18 0.196420 0.753089 0.008666
O O19 0.784522 0.000000 0.987574
O O20 0.338773 0.500000 0.528760
#
# Coordination Sequence:
#
# PCOD9146917 Si02
#       8
#     4   4   4   4   4   4   4   4
#     4  10  20  33  50  74 104 135 170 206 245 294
#     4  11  22  35  49  71 105 139 168 205 251 296
#     4   8  16  32  51  73 102 135 169 204 245 294
#     4   9  17  32  54  77 102 132 169 208 247 294
#     4  10  20  34  52  73 101 134 169 210 252 295
#     4   8  16  31  52  78 102 127 163 207 253 300
#     4  10  19  34  55  77  99 128 169 211 251 300
#     4   9  18  33  52  74 102 136 172 207 242 290
#
# _framework density 21.908124999999998
#
# number of rings (size 3 to 8) (size 9 to 14) (size 15 to 20)
#    0.000    2.625    1.250    3.000    0.000    2.750 
#    0.000   10.625    0.000    0.750    0.000    4.375 
#    0.000    0.000    0.000    0.000    0.000    0.000 
#
# Total GULP energy -178241.079799 kJ/mol
# GULP energy per Si atom -5570.033744 kJ/mol
# Density = 2.185826 g / cm^3
# Si number density = 21.908125 Si / 1000 Ang^3
#
#
#
# Elastic Constant Matrix: (Units=GPa)
#
#
# Indices 1 2 3 4 5 6 
#
# 1 33.7234 52.2199 16.2635 0.0000 0.6499 0.0000
# 2 52.2199 206.3723 72.1546 0.0000 38.1889 0.0000
# 3 16.2635 72.1546 57.9434 0.0000 -0.0134 0.0000
# 4 0.0000 0.0000 0.0000 62.6832 0.0000 47.3165
# 5 0.6499 38.1889 -0.0134 0.0000 24.7790 0.0000
# 6 0.0000 0.0000 0.0000 47.3165 0.0000 37.0959
#
#
#
# Elastic Compliance Matrix: (Units=1/GPa)
#
#
# Indices 1 2 3 4 5 6 
#
# 1 0.079971 -0.042973 0.031082 0.000000 0.064149 0.000000
# 2 -0.042973 0.040449 -0.038322 0.000000 -0.061233 0.000000
# 3 0.031082 -0.038322 0.056269 0.000000 0.058277 0.000000
# 4 0.000000 0.000000 0.000000 0.429168 0.000000 -0.547412
# 5 0.064149 -0.061233 0.058277 0.000000 0.133077 0.000000
# 6 0.000000 0.000000 0.000000 -0.547412 0.000000 0.725192
#
#
# Mechanical properties :
#
#
# Convention : Reuss Voigt Hill
#
# Bulk Modulus (GPa) = 13.11287 64.36836 38.74062
# Shear Modulus (GPa) = 3.14470 35.40504 19.27487
#
# Velocity S-wave (km/s) = 1.19938 4.02440 2.96937
# Velocity P-wave (km/s) = 2.81361 7.14417 5.42935
#
# Compressibility (1/GPa) = 0.07626095
#
# Stress axis : x y z
#
# Youngs Moduli (GPa) = 12.50460 24.72226 17.77180
#
# Poissons Ratio (x) = 1.06240 -0.55238
# Poissons Ratio (y) = 0.53737 0.68106
# Poissons Ratio (z) = -0.38867 0.94742
#
# Static dielectric constant tensor:
#      x y z
#    x 1.798040 0.000000 -0.059380 
#    y 0.000000 1.912900 0.000000 
#    z -0.059380 0.000000 1.844580 
# 
# From -- ./inp_files/46704.got.cif
#   From: 2010.05.17/outbox.cif.g08.bks.cpg/sg10_24_cif.got.tgz:46704.got - 2010.06.03 11:33:40.
