data_PCOD9146736
_publ_section_title
;
Structure prediction by ZEFSAII (Michael W. Deem and Ramdas Pophale) SiO2 
 PCOD9146736
Probable space group: P 2/M
;
_chemical_formula_sum "Si O2"
_cell_formula_units_Z 28
_cell_length_a 27.368051
_cell_length_b 9.112957
_cell_length_c 12.105307
_cell_angle_alpha 90.000000
_cell_angle_beta 152.584421
_cell_angle_gamma 90.000000
_cell_volume 1390.122739
_symmetry_space_group_name_H-M "P 2/M"
_symmetry_group_IT_number 10
_symmetry_cell_setting 'monoclinic'
loop_
_space_group_symop_operation_xyz
x,y,z
-x,y,-z
-x,-y,-z
x,-y,z
loop_
_atom_site_type_symbol
_atom_site_label
_atom_site_fract_x
_atom_site_fract_y
_atom_site_fract_z
Si Si1 0.786187 0.173321 0.460046
Si Si2 0.048082 0.167861 0.753527
Si Si3 0.627934 0.674293 0.527588
Si Si4 0.160437 0.672877 0.656872
Si Si5 0.185746 0.826171 0.235067
Si Si6 0.565861 0.669952 0.018429
Si Si7 0.270960 0.829330 0.069119
O O1 0.832659 0.264148 0.452414
O O2 0.832377 0.209478 0.673657
O O3 0.799705 0.000000 0.467537
O O4 0.662778 0.218874 0.217120
O O5 0.955383 0.276429 0.534099
O O6 0.008586 0.000000 0.662869
O O7 0.084975 0.194579 0.953640
O O8 0.157049 0.179213 0.903938
O O9 0.642586 0.500000 0.569471
O O10 0.717229 0.735660 0.622479
O O11 0.514461 0.700217 0.243216
O O12 0.647130 0.753190 0.682911
O O13 0.171949 0.500000 0.683371
O O14 0.250325 0.747587 0.913049
O O15 0.213345 0.000000 0.283515
O O16 0.603890 0.500000 0.085040
O O17 0.500000 0.679238 0.000000
O O18 0.296214 0.000000 0.103621
#
# Coordination Sequence:
#
# PCOD9146736 Si02
#       7
#     4   4   4   4   4   4   4
#     4  11  23  38  58  83 115 154 195 235 279 335
#     4   9  19  37  60  84 112 147 188 234 283 333
#     4  10  19  33  58  88 118 148 183 231 283 332
#     4  12  25  39  56  81 115 152 191 236 287 340
#     4   9  19  35  56  84 115 149 189 234 280 331
#     4  10  20  36  58  87 120 152 183 226 284 339
#     4  10  21  39  62  85 113 148 191 237 280 331
#
# _framework density 20.142106999999999
#
# number of rings (size 3 to 8) (size 9 to 14) (size 15 to 20)
#    0.000    1.857    1.429    3.857    0.000    7.143 
#    0.000    3.571    0.000    4.286    0.000    0.000 
#    0.000    0.000    0.000    0.000    0.000    0.000 
#
# Total GULP energy -156471.792819 kJ/mol
# GULP energy per Si atom -5588.278315 kJ/mol
# Density = 2.009626 g / cm^3
# Si number density = 20.142107 Si / 1000 Ang^3
#
#
#
# Elastic Constant Matrix: (Units=GPa)
#
#
# Indices 1 2 3 4 5 6 
#
# 1 41.1602 23.1901 15.6019 0.0000 -23.3293 0.0000
# 2 23.1901 84.7527 39.2562 0.0000 -25.6833 0.0000
# 3 15.6019 39.2562 69.3621 0.0000 -33.9631 0.0000
# 4 0.0000 0.0000 0.0000 25.9753 0.0000 -3.6672
# 5 -23.3293 -25.6833 -33.9631 0.0000 34.1944 0.0000
# 6 0.0000 0.0000 0.0000 -3.6672 0.0000 41.0410
#
#
#
# Elastic Compliance Matrix: (Units=1/GPa)
#
#
# Indices 1 2 3 4 5 6 
#
# 1 0.044624 -0.006370 0.011939 0.000000 0.037518 0.000000
# 2 -0.006370 0.017532 -0.008118 0.000000 0.000759 0.000000
# 3 0.011939 -0.008118 0.033736 0.000000 0.035555 0.000000
# 4 0.000000 0.000000 0.000000 0.038990 0.000000 0.003484
# 5 0.037518 0.000759 0.035555 0.000000 0.090726 0.000000
# 6 0.000000 0.000000 0.000000 0.003484 0.000000 0.024677
#
#
# Mechanical properties :
#
#
# Convention : Reuss Voigt Hill
#
# Bulk Modulus (GPa) = 11.01412 39.04126 25.02769
# Shear Modulus (GPa) = 17.50398 28.05726 22.78062
#
# Velocity S-wave (km/s) = 2.95112 3.73629 3.36668
# Velocity P-wave (km/s) = 4.13427 6.16751 5.25026
#
# Compressibility (1/GPa) = 0.09079252
#
# Stress axis : x y z
#
# Youngs Moduli (GPa) = 22.40942 57.03772 29.64215
#
# Poissons Ratio (x) = 0.36336 -0.35389
# Poissons Ratio (y) = 0.14276 0.24063
# Poissons Ratio (z) = -0.26754 0.46303
#
# Static dielectric constant tensor:
#      x y z
#    x 1.754530 0.000000 -0.012720 
#    y 0.000000 1.675110 0.000000 
#    z -0.012720 0.000000 1.710130 
# 
# From -- ./inp_files/57481.got.cif
#   From: 2010.05.17/outbox.cif.g08.bks.cpg/sg10_29_cif.got.tgz:57481.got - 2010.06.03 11:33:40.
