data_PCOD9146744
_publ_section_title
;
Structure prediction by ZEFSAII (Michael W. Deem and Ramdas Pophale) SiO2 
 PCOD9146744
Probable space group: P 2/M
;
_chemical_formula_sum "Si O2"
_cell_formula_units_Z 24
_cell_length_a 11.532499
_cell_length_b 11.298486
_cell_length_c 17.690259
_cell_angle_alpha 90.000000
_cell_angle_beta 150.523090
_cell_angle_gamma 90.000000
_cell_volume 1134.245857
_symmetry_space_group_name_H-M "P 2/M"
_symmetry_group_IT_number 10
_symmetry_cell_setting 'monoclinic'
loop_
_space_group_symop_operation_xyz
x,y,z
-x,y,-z
-x,-y,-z
x,-y,z
loop_
_atom_site_type_symbol
_atom_site_label
_atom_site_fract_x
_atom_site_fract_y
_atom_site_fract_z
Si Si1 0.591781 0.369252 0.148911
Si Si2 0.035909 0.861120 0.904282
Si Si3 0.202694 0.500000 0.174764
Si Si4 0.363114 0.239914 0.225023
Si Si5 0.753423 0.635663 0.402618
Si Si6 0.106941 0.293000 0.800423
Si Si7 0.218861 0.500000 0.353986
O O1 0.685516 0.500000 0.182241
O O2 0.579514 0.367608 0.231463
O O3 0.774381 0.276503 0.214811
O O4 0.332376 0.354545 0.968854
O O5 0.051530 0.810842 0.828029
O O6 0.776442 0.834184 0.790942
O O7 0.084495 0.000000 0.933995
O O8 0.220282 0.797835 0.067529
O O9 0.329151 0.376729 0.230949
O O10 0.114462 0.500000 0.209957
O O11 0.000000 0.500000 0.000000
O O12 0.647835 0.247663 0.383519
O O13 0.762758 0.500000 0.440351
O O14 0.000000 0.653341 0.500000
O O15 0.886046 0.381513 0.668774
O O16 0.500000 0.500000 0.500000
#
# Coordination Sequence:
#
# PCOD9146744 Si02
#       7
#     4   4   2   4   4   4   2
#     4  10  19  33  59  84 116 155 192 233 294 372
#     4  11  23  37  60  88 114 154 212 269 292 333
#     4  12  20  32  59  96 117 154 192 245 316 367
#     4  11  19  34  58  86 123 150 194 250 311 352
#     4  10  21  33  53  91 129 154 182 231 306 381
#     4  11  19  38  58  83 116 155 196 238 298 360
#     4  12  24  35  56  96 130 153 187 244 320 380
#
# _framework density 21.159433
#
# number of rings (size 3 to 8) (size 9 to 14) (size 15 to 20)
#    0.000    1.167    7.500    1.500    0.000    1.333 
#    0.000    1.667    0.000    2.500    0.000    0.000 
#    0.000    0.000    0.000    0.000    0.000    0.000 
#
# Total GULP energy -133621.542714 kJ/mol
# GULP energy per Si atom -5567.564280 kJ/mol
# Density = 2.111127 g / cm^3
# Si number density = 21.159433 Si / 1000 Ang^3
#
#
#
# Elastic Constant Matrix: (Units=GPa)
#
#
# Indices 1 2 3 4 5 6 
#
# 1 79.1994 35.7202 8.7526 0.0000 10.5367 0.0000
# 2 35.7202 100.6647 12.5895 0.0000 16.6672 0.0000
# 3 8.7526 12.5895 60.4507 0.0000 27.4590 0.0000
# 4 0.0000 0.0000 0.0000 4.9706 0.0000 -3.6936
# 5 10.5367 16.6672 27.4590 0.0000 44.4289 0.0000
# 6 0.0000 0.0000 0.0000 -3.6936 0.0000 15.1018
#
#
#
# Elastic Compliance Matrix: (Units=1/GPa)
#
#
# Indices 1 2 3 4 5 6 
#
# 1 0.015160 -0.005089 -0.000513 0.000000 -0.001369 0.000000
# 2 -0.005089 0.012313 -0.000386 0.000000 -0.003174 0.000000
# 3 -0.000513 -0.000386 0.023046 0.000000 -0.013977 0.000000
# 4 0.000000 0.000000 0.000000 0.245868 0.000000 0.060134
# 5 -0.001369 -0.003174 -0.013977 0.000000 0.032662 0.000000
# 6 0.000000 0.000000 0.000000 0.060134 0.000000 0.080925
#
#
# Mechanical properties :
#
#
# Convention : Reuss Voigt Hill
#
# Bulk Modulus (GPa) = 25.94445 39.38214 32.66329
# Shear Modulus (GPa) = 11.49960 25.11711 18.30835
#
# Velocity S-wave (km/s) = 2.33378 3.44908 2.94472
# Velocity P-wave (km/s) = 4.42155 5.87487 5.19924
#
# Compressibility (1/GPa) = 0.03854388
#
# Stress axis : x y z
#
# Youngs Moduli (GPa) = 65.96176 81.21221 43.39165
#
# Poissons Ratio (x) = 0.41326 0.02228
# Poissons Ratio (y) = 0.33566 0.01674
# Poissons Ratio (z) = 0.03386 0.03134
#
# Static dielectric constant tensor:
#      x y z
#    x 1.948230 0.000000 0.047460 
#    y 0.000000 1.697780 0.000000 
#    z 0.047460 0.000000 1.890460 
# 
# From -- ./inp_files/83905.got.cif
#   From: 2010.05.17/outbox.cif.g08.bks.cpg/sg10_42_cif.got.tgz:83905.got - 2010.06.03 11:33:40.
