data_PCOD9146006
_publ_section_title
;
Structure prediction by ZEFSAII (Michael W. Deem and Ramdas Pophale) SiO2 
 PCOD9146006
Probable space group: P 2/M
;
_chemical_formula_sum "Si O2"
_cell_formula_units_Z 32
_cell_length_a 24.933857
_cell_length_b 7.669038
_cell_length_c 14.665159
_cell_angle_alpha 90.000000
_cell_angle_beta 149.888763
_cell_angle_gamma 90.000000
_cell_volume 1406.838572
_symmetry_space_group_name_H-M "P 2/M"
_symmetry_group_IT_number 10
_symmetry_cell_setting 'monoclinic'
loop_
_space_group_symop_operation_xyz
x,y,z
-x,y,-z
-x,-y,-z
x,-y,z
loop_
_atom_site_type_symbol
_atom_site_label
_atom_site_fract_x
_atom_site_fract_y
_atom_site_fract_z
Si Si1 0.105512 0.793414 0.703820
Si Si2 0.314980 0.788637 0.360393
Si Si3 0.524620 0.790018 0.137956
Si Si4 0.459306 0.701536 0.346418
Si Si5 0.160917 0.796926 0.984050
Si Si6 0.244227 0.210483 0.449918
Si Si7 0.666557 0.708064 0.004118
Si Si8 0.989383 0.703059 0.880747
O O1 0.129266 0.718951 0.840026
O O2 0.000000 0.720737 0.500000
O O3 0.086667 0.000000 0.688650
O O4 0.213204 0.771036 0.803175
O O5 0.430636 0.709944 0.548144
O O6 0.243286 0.742050 0.341383
O O7 0.323753 0.000000 0.371697
O O8 0.262779 0.724208 0.189479
O O9 0.641874 0.728390 0.342995
O O10 0.424806 0.750478 0.057175
O O11 0.532230 0.000000 0.146894
O O12 0.500000 0.726224 0.000000
O O13 0.500000 0.787599 0.500000
O O14 0.432242 0.500000 0.325078
O O15 0.371161 0.780486 0.150494
O O16 0.065097 0.787105 0.916350
O O17 0.185779 0.000000 0.005686
O O18 0.134591 0.279457 0.330054
O O19 0.241738 0.000000 0.452944
O O20 0.669884 0.500000 0.001382
O O21 0.019109 0.500000 0.928162
O O22 0.000000 0.775970 0.000000
#
# Coordination Sequence:
#
# PCOD9146006 Si02
#       8
#     4   4   4   4   4   4   4   4
#     4  10  23  43  65  87 114 153 200 245 288 340
#     4  10  19  32  55  84 111 144 188 239 288 333
#     4  10  22  41  64  88 117 156 199 241 286 342
#     4  10  21  35  53  82 119 156 189 226 284 352
#     4  10  21  38  60  86 116 152 196 245 293 343
#     4  10  20  36  58  83 113 150 192 239 288 338
#     4  11  23  39  62  90 121 156 191 237 295 347
#     4  11  23  36  55  85 120 158 195 237 294 355
#
# _framework density 22.746036
#
# number of rings (size 3 to 8) (size 9 to 14) (size 15 to 20)
#    0.000    1.750    2.500    1.500    0.000    4.750 
#    0.000    5.000    0.000    0.000    0.000    0.000 
#    0.000    0.000    0.000    0.000    0.000    0.000 
#
# Total GULP energy -178746.730086 kJ/mol
# GULP energy per Si atom -5585.835315 kJ/mol
# Density = 2.269426 g / cm^3
# Si number density = 22.746036 Si / 1000 Ang^3
#
#
#
# Elastic Constant Matrix: (Units=GPa)
#
#
# Indices 1 2 3 4 5 6 
#
# 1 84.2069 -1.0312 52.6972 0.0000 -1.1709 0.0000
# 2 -1.0312 49.7843 6.7342 0.0000 -8.9394 0.0000
# 3 52.6972 6.7342 178.5998 0.0000 3.2408 0.0000
# 4 0.0000 0.0000 0.0000 19.7232 0.0000 15.5954
# 5 -1.1709 -8.9394 3.2408 0.0000 39.9719 0.0000
# 6 0.0000 0.0000 0.0000 15.5954 0.0000 26.6753
#
#
#
# Elastic Compliance Matrix: (Units=1/GPa)
#
#
# Indices 1 2 3 4 5 6 
#
# 1 0.014644 0.001080 -0.004380 0.000000 0.001026 0.000000
# 2 0.001080 0.021144 -0.001204 0.000000 0.004858 0.000000
# 3 -0.004380 -0.001204 0.006954 0.000000 -0.000961 0.000000
# 4 0.000000 0.000000 0.000000 0.094290 0.000000 -0.055126
# 5 0.001026 0.004858 -0.000961 0.000000 0.026212 0.000000
# 6 0.000000 0.000000 0.000000 -0.055126 0.000000 0.069717
#
#
# Mechanical properties :
#
#
# Convention : Reuss Voigt Hill
#
# Bulk Modulus (GPa) = 29.64350 47.71015 38.67683
# Shear Modulus (GPa) = 19.74607 34.22012 26.98310
#
# Velocity S-wave (km/s) = 2.94957 3.88292 3.44797
# Velocity P-wave (km/s) = 4.96594 6.41276 5.73516
#
# Compressibility (1/GPa) = 0.03373421
#
# Stress axis : x y z
#
# Youngs Moduli (GPa) = 68.28661 47.29425 143.79451
#
# Poissons Ratio (x) = -0.05108 0.62985
# Poissons Ratio (y) = -0.07375 0.17314
# Poissons Ratio (z) = 0.29911 0.05695
#
# Static dielectric constant tensor:
#      x y z
#    x 1.875030 0.000000 -0.009450 
#    y 0.000000 1.832260 0.000000 
#    z -0.009450 0.000000 1.882350 
# 
# From -- ./inp_files/71637.got.cif
#   From: 2010.05.17/outbox.cif.g08.bks.cpg/sg10_36_cif.got.tgz:71637.got - 2010.06.03 11:33:40.
