data_PCOD9146851
_publ_section_title
;
Structure prediction by ZEFSAII (Michael W. Deem and Ramdas Pophale) SiO2 
 PCOD9146851
Probable space group: P 2/M
;
_chemical_formula_sum "Si O2"
_cell_formula_units_Z 32
_cell_length_a 18.364641
_cell_length_b 7.826657
_cell_length_c 18.305650
_cell_angle_alpha 90.000000
_cell_angle_beta 37.370943
_cell_angle_gamma 90.000000
_cell_volume 1597.030415
_symmetry_space_group_name_H-M "P 2/M"
_symmetry_group_IT_number 10
_symmetry_cell_setting 'monoclinic'
loop_
_space_group_symop_operation_xyz
x,y,z
-x,y,-z
-x,-y,-z
x,-y,z
loop_
_atom_site_type_symbol
_atom_site_label
_atom_site_fract_x
_atom_site_fract_y
_atom_site_fract_z
Si Si1 0.048757 0.208793 0.539681
Si Si2 0.390460 0.805726 0.636387
Si Si3 0.314710 0.198938 0.351073
Si Si4 0.477358 0.692090 0.717202
Si Si5 0.385045 0.298280 0.135328
Si Si6 0.860939 0.208740 0.096478
Si Si7 0.755442 0.793807 0.024458
Si Si8 0.175275 0.792871 0.191075
O O1 0.181305 0.271009 0.450333
O O2 0.000000 0.265820 0.500000
O O3 0.954638 0.257422 0.676242
O O4 0.054181 0.000000 0.532176
O O5 0.500000 0.727921 0.500000
O O6 0.445996 0.808217 0.673453
O O7 0.252973 0.736432 0.760446
O O8 0.373690 0.000000 0.622001
O O9 0.394629 0.286984 0.348299
O O10 0.369129 0.213726 0.226585
O O11 0.309242 0.000000 0.375409
O O12 0.459152 0.500000 0.705468
O O13 0.380501 0.734454 0.856481
O O14 0.400833 0.500000 0.135970
O O15 0.271768 0.270164 0.172987
O O16 0.500000 0.231802 0.000000
O O17 0.859172 0.000000 0.100954
O O18 0.825426 0.261145 0.042000
O O19 0.000000 0.260979 0.000000
O O20 0.802183 0.732881 0.909158
O O21 0.758521 0.000000 0.021660
O O22 0.182180 0.000000 0.186179
#
# Coordination Sequence:
#
# PCOD9146851 Si02
#       8
#     4   4   4   4   4   4   4   4
#     4   9  17  33  54  76 101 132 172 221 273 319
#     4   9  18  35  58  85 112 142 182 224 267 319
#     4  11  21  36  57  77 103 137 177 222 265 314
#     4  11  22  36  55  79 111 145 178 217 267 319
#     4  11  23  35  49  74 105 136 172 217 266 318
#     4   8  14  28  51  81 112 138 170 219 271 315
#     4   9  18  33  55  80 106 138 180 222 266 317
#     4  10  19  34  54  76 101 135 178 221 267 318
#
# _framework density 20.037188
#
# number of rings (size 3 to 8) (size 9 to 14) (size 15 to 20)
#    0.000    2.250    1.250    3.375    0.000    3.750 
#    2.250    1.875    0.000    6.000    0.000    0.000 
#    0.000    0.000    0.000    0.000    0.000    0.000 
#
# Total GULP energy -178441.480232 kJ/mol
# GULP energy per Si atom -5576.296257 kJ/mol
# Density = 1.999158 g / cm^3
# Si number density = 20.037188 Si / 1000 Ang^3
#
#
#
# Elastic Constant Matrix: (Units=GPa)
#
#
# Indices 1 2 3 4 5 6 
#
# 1 70.9354 -0.3033 37.6893 0.0000 -22.8947 0.0000
# 2 -0.3033 28.7064 0.3645 0.0000 2.7780 0.0000
# 3 37.6893 0.3645 130.1531 0.0000 -12.5462 0.0000
# 4 0.0000 0.0000 0.0000 -44.0671 0.0000 -29.4981
# 5 -22.8947 2.7780 -12.5462 0.0000 35.9258 0.0000
# 6 0.0000 0.0000 0.0000 -29.4981 0.0000 -15.8648
#
#
#
# Elastic Compliance Matrix: (Units=1/GPa)
#
#
# Indices 1 2 3 4 5 6 
#
# 1 0.020289 -0.000821 -0.004781 0.000000 0.011323 0.000000
# 2 -0.000821 0.035149 -0.000179 0.000000 -0.003304 0.000000
# 3 -0.004781 -0.000179 0.009082 0.000000 0.000138 0.000000
# 4 0.000000 0.000000 0.000000 0.092764 0.000000 -0.172481
# 5 0.011323 -0.003304 0.000138 0.000000 0.035355 0.000000
# 6 0.000000 0.000000 0.000000 -0.172481 0.000000 0.257668
#
#
# Mechanical properties :
#
#
# Convention : Reuss Voigt Hill
#
# Bulk Modulus (GPa) = 18.88335 33.92177 26.40256
# Shear Modulus (GPa) = 10.42706 8.00173 9.21440
#
# Velocity S-wave (km/s) = 2.28367 2.00053 2.14677
# Velocity P-wave (km/s) = 4.04946 4.72253 4.39889
#
# Compressibility (1/GPa) = 0.05295670
#
# Stress axis : x y z
#
# Youngs Moduli (GPa) = 49.28798 28.45054 110.11188
#
# Poissons Ratio (x) = 0.02335 0.52649
# Poissons Ratio (y) = 0.04045 0.01973
# Poissons Ratio (z) = 0.23566 0.00510
#
# Static dielectric constant tensor:
#      x y z
#    x 1.667670 0.000000 -0.016740 
#    y 0.000000 1.752060 0.000000 
#    z -0.016740 0.000000 1.733050 
# 
# From -- ./inp_files/86121.got.cif
#   From: 2010.05.17/outbox.cif.g08.bks.cpg/sg10_44_cif.got.tgz:86121.got - 2010.06.03 11:33:40.
