data_PCOD9146283
_publ_section_title
;
Structure prediction by ZEFSAII (Michael W. Deem and Ramdas Pophale) SiO2 
 PCOD9146283
Probable space group: P 2/M
;
_chemical_formula_sum "Si O2"
_cell_formula_units_Z 24
_cell_length_a 24.585708
_cell_length_b 7.627599
_cell_length_c 18.379813
_cell_angle_alpha 90.000000
_cell_angle_beta 19.668501
_cell_angle_gamma 90.000000
_cell_volume 1160.103937
_symmetry_space_group_name_H-M "P 2/M"
_symmetry_group_IT_number 10
_symmetry_cell_setting 'monoclinic'
loop_
_space_group_symop_operation_xyz
x,y,z
-x,y,-z
-x,-y,-z
x,-y,z
loop_
_atom_site_type_symbol
_atom_site_label
_atom_site_fract_x
_atom_site_fract_y
_atom_site_fract_z
Si Si1 0.665405 0.785608 0.255152
Si Si2 0.841030 0.293694 0.425634
Si Si3 0.986703 0.788032 0.934340
Si Si4 0.498894 0.714202 0.916565
Si Si5 0.169387 0.297695 0.260112
Si Si6 0.166830 0.203387 0.098637
O O1 0.500000 0.726743 0.500000
O O2 0.663624 0.000000 0.255576
O O3 0.816672 0.731980 0.113929
O O4 0.707064 0.728024 0.120725
O O5 0.846521 0.500000 0.435144
O O6 0.665627 0.225487 0.669564
O O7 0.877814 0.267887 0.294016
O O8 0.990501 0.214039 0.282722
O O9 0.988894 0.000000 0.932765
O O10 0.000000 0.725014 0.000000
O O11 0.500001 0.500000 0.910531
O O12 0.500000 0.761151 0.000000
O O13 0.334829 0.777650 0.084645
O O14 0.166694 0.500000 0.289336
O O15 0.171864 0.294364 0.169849
O O16 0.000000 0.216278 0.500000
O O17 0.203321 0.000000 0.066300
#
# Coordination Sequence:
#
# PCOD9146283 Si02
#       6
#     4   4   4   4   4   4
#     4   8  15  29  48  69  94 128 167 203 244 295
#     4  10  19  33  54  76 102 137 173 211 253 299
#     4   9  18  32  50  72 100 134 170 209 253 301
#     4   9  18  33  53  77 102 131 170 210 250 301
#     4  10  20  35  56  78 101 133 171 210 254 304
#     4  10  20  34  53  77 105 135 169 211 256 303
#
# _framework density 20.687801
#
# number of rings (size 3 to 8) (size 9 to 14) (size 15 to 20)
#    0.000    2.667    0.000    3.000    0.000    4.667 
#    0.000    3.333    0.000   16.000    0.000    0.000 
#    0.000    0.000    0.000    0.000    0.000    0.000 
#
# Total GULP energy -133936.859500 kJ/mol
# GULP energy per Si atom -5580.702479 kJ/mol
# Density = 2.064071 g / cm^3
# Si number density = 20.687801 Si / 1000 Ang^3
#
#
#
# Elastic Constant Matrix: (Units=GPa)
#
#
# Indices 1 2 3 4 5 6 
#
# 1 131.7925 -10.9825 87.1697 0.0000 17.0735 0.0000
# 2 -10.9825 42.0401 -2.0496 0.0000 -2.1521 0.0000
# 3 87.1697 -2.0496 217.1924 0.0000 18.5789 0.0000
# 4 0.0000 0.0000 0.0000 10.4772 0.0000 0.2955
# 5 17.0735 -2.1521 18.5789 0.0000 22.1629 0.0000
# 6 0.0000 0.0000 0.0000 0.2955 0.0000 11.5758
#
#
#
# Elastic Compliance Matrix: (Units=1/GPa)
#
#
# Indices 1 2 3 4 5 6 
#
# 1 0.011078 0.002446 -0.004000 0.000000 -0.004943 0.000000
# 2 0.002446 0.024446 -0.000854 0.000000 0.001206 0.000000
# 3 -0.004000 -0.000854 0.006404 0.000000 -0.002370 0.000000
# 4 0.000000 0.000000 0.000000 0.095514 0.000000 -0.002438
# 5 -0.004943 0.001206 -0.002370 0.000000 0.051032 0.000000
# 6 0.000000 0.000000 0.000000 -0.002438 0.000000 0.086449
#
#
# Mechanical properties :
#
#
# Convention : Reuss Voigt Hill
#
# Bulk Modulus (GPa) = 26.94605 59.92224 43.43415
# Shear Modulus (GPa) = 17.11684 29.96901 23.54292
#
# Velocity S-wave (km/s) = 2.87956 3.81022 3.37710
# Velocity P-wave (km/s) = 4.91011 6.95593 6.02055
#
# Compressibility (1/GPa) = 0.03711119
#
# Stress axis : x y z
#
# Youngs Moduli (GPa) = 90.27254 40.90672 156.14510
#
# Poissons Ratio (x) = -0.10005 0.62459
# Poissons Ratio (y) = -0.22079 0.13336
# Poissons Ratio (z) = 0.36109 0.03494
#
# Static dielectric constant tensor:
#      x y z
#    x 1.694400 0.000000 0.003360 
#    y 0.000000 1.775250 0.000000 
#    z 0.003360 0.000000 1.737530 
# 
# From -- ./inp_files/77895.got.cif
#   From: 2010.05.17/outbox.cif.g08.bks.cpg/sg10_39_cif.got.tgz:77895.got - 2010.06.03 11:33:40.
