data_PCOD9146051
_publ_section_title
;
Structure prediction by ZEFSAII (Michael W. Deem and Ramdas Pophale) SiO2 
 PCOD9146051
Probable space group: P 2/M
;
_chemical_formula_sum "Si O2"
_cell_formula_units_Z 18
_cell_length_a 5.136022
_cell_length_b 18.693093
_cell_length_c 9.999607
_cell_angle_alpha 90.000000
_cell_angle_beta 77.449109
_cell_angle_gamma 90.000000
_cell_volume 937.101837
_symmetry_space_group_name_H-M "P 2/M"
_symmetry_group_IT_number 10
_symmetry_cell_setting 'monoclinic'
loop_
_space_group_symop_operation_xyz
x,y,z
-x,y,-z
-x,-y,-z
x,-y,z
loop_
_atom_site_type_symbol
_atom_site_label
_atom_site_fract_x
_atom_site_fract_y
_atom_site_fract_z
Si Si1 0.958641 0.706183 0.348972
Si Si2 0.712753 0.080527 0.095601
Si Si3 0.500000 0.680892 0.000000
Si Si4 0.530244 0.223778 0.232301
Si Si5 0.080826 0.583072 0.147944
O O1 0.693811 0.749061 0.340900
O O2 0.000000 0.692061 0.500000
O O3 0.219223 0.752834 0.273170
O O4 0.925655 0.632154 0.269792
O O5 0.597958 0.140964 0.205415
O O6 0.737888 0.000000 0.149839
O O7 0.500000 0.077966 0.000000
O O8 0.000000 0.100036 0.000000
O O9 0.645010 0.734910 0.086422
O O10 0.359010 0.624927 0.114442
O O11 0.090803 0.500000 0.181845
O O12 0.000000 0.588380 0.000000
#
# Coordination Sequence:
#
# PCOD9146051 Si02
#       5
#     4   4   2   4   4
#     4  11  24  40  58  84 116 157 200 238 285 342
#     4  10  20  33  55  91 127 150 181 238 299 344
#     4  10  19  32  57  86 112 148 184 246 279 348
#     4  11  21  36  62  83 118 152 194 236 289 340
#     4  10  20  35  56  83 114 147 190 241 295 347
#
# _framework density 19.208157
#
# number of rings (size 3 to 8) (size 9 to 14) (size 15 to 20)
#    0.000    1.556    3.333    2.333    3.111    0.444 
#    0.000    0.000    0.000    8.000    0.000    0.000 
#    0.000    0.000    0.000    0.000    0.000    0.000 
#
# Total GULP energy -100215.946450 kJ/mol
# GULP energy per Si atom -5567.552581 kJ/mol
# Density = 1.916444 g / cm^3
# Si number density = 19.208157 Si / 1000 Ang^3
#
#
#
# Elastic Constant Matrix: (Units=GPa)
#
#
# Indices 1 2 3 4 5 6 
#
# 1 74.6995 12.1117 2.2854 0.0000 5.9387 0.0000
# 2 12.1117 137.9559 39.0753 0.0000 -2.9778 0.0000
# 3 2.2854 39.0753 74.0681 0.0000 16.7892 0.0000
# 4 0.0000 0.0000 0.0000 9.3248 0.0000 3.7088
# 5 5.9387 -2.9778 16.7892 0.0000 30.4517 0.0000
# 6 0.0000 0.0000 0.0000 3.7088 0.0000 21.4577
#
#
#
# Elastic Compliance Matrix: (Units=1/GPa)
#
#
# Indices 1 2 3 4 5 6 
#
# 1 0.013900 -0.001651 0.001249 0.000000 -0.003561 0.000000
# 2 -0.001651 0.009118 -0.005753 0.000000 0.004386 0.000000
# 3 0.001249 -0.005753 0.019063 0.000000 -0.011316 0.000000
# 4 0.000000 0.000000 0.000000 0.115158 0.000000 -0.019904
# 5 -0.003561 0.004386 -0.011316 0.000000 0.040201 0.000000
# 6 0.000000 0.000000 0.000000 -0.019904 0.000000 0.050044
#
#
# Mechanical properties :
#
#
# Convention : Reuss Voigt Hill
#
# Bulk Modulus (GPa) = 33.59075 43.74093 38.66584
# Shear Modulus (GPa) = 18.53797 27.79692 23.16744
#
# Velocity S-wave (km/s) = 3.10999 3.80826 3.47670
# Velocity P-wave (km/s) = 5.51559 6.49297 6.02413
#
# Compressibility (1/GPa) = 0.02977010
#
# Stress axis : x y z
#
# Youngs Moduli (GPa) = 71.94485 109.67403 52.45793
#
# Poissons Ratio (x) = 0.18107 -0.06554
# Poissons Ratio (y) = 0.11878 0.30181
# Poissons Ratio (z) = -0.08988 0.63100
#
# Static dielectric constant tensor:
#      x y z
#    x 1.821830 0.000000 -0.066670 
#    y 0.000000 1.673410 0.000000 
#    z -0.066670 0.000000 1.711020 
# 
# From -- ./inp_files/3803.got.cif
#   From: 2010.05.17/outbox.cif.g08.bks.cpg/sg10_2_cif.got.tgz:3803.got - 2010.06.03 11:33:40.
