data_PCOD9146446
_publ_section_title
;
Structure prediction by ZEFSAII (Michael W. Deem and Ramdas Pophale) SiO2 
 PCOD9146446
Probable space group: P 2/M
;
_chemical_formula_sum "Si O2"
_cell_formula_units_Z 28
_cell_length_a 8.461912
_cell_length_b 7.523469
_cell_length_c 24.870540
_cell_angle_alpha 90.000000
_cell_angle_beta 44.327550
_cell_angle_gamma 90.000000
_cell_volume 1106.367678
_symmetry_space_group_name_H-M "P 2/M"
_symmetry_group_IT_number 10
_symmetry_cell_setting 'monoclinic'
loop_
_space_group_symop_operation_xyz
x,y,z
-x,y,-z
-x,-y,-z
x,-y,z
loop_
_atom_site_type_symbol
_atom_site_label
_atom_site_fract_x
_atom_site_fract_y
_atom_site_fract_z
Si Si1 0.946285 0.789937 0.822768
Si Si2 0.073753 0.202701 0.400523
Si Si3 0.170347 0.287268 0.034798
Si Si4 0.563977 0.784037 0.312574
Si Si5 0.586582 0.783221 0.536456
Si Si6 0.799433 0.294485 0.739465
Si Si7 0.322739 0.717298 0.885180
O O1 0.202764 0.720656 0.770525
O O2 0.792138 0.756513 0.912313
O O3 0.867545 0.715678 0.785045
O O4 0.958057 0.000000 0.812433
O O5 0.321378 0.281922 0.350733
O O6 0.047398 0.200841 0.342140
O O7 0.845596 0.279552 0.480818
O O8 0.087350 0.000000 0.416951
O O9 0.171642 0.500000 0.031192
O O10 0.915894 0.225720 0.081440
O O11 0.324053 0.225655 0.947642
O O12 0.564685 0.736529 0.375654
O O13 0.562589 0.000000 0.307890
O O14 0.500000 0.720434 0.500000
O O15 0.593591 0.000000 0.533050
O O16 0.800143 0.500000 0.723812
O O17 0.543698 0.219441 0.800542
O O18 0.328803 0.500000 0.882573
#
# Coordination Sequence:
#
# PCOD9146446 Si02
#       7
#     4   4   4   4   4   4   4
#     4  11  22  35  51  76 108 138 171 212 259 305
#     4  10  19  33  55  80 104 132 171 217 259 299
#     4   9  17  35  59  79 100 131 173 215 256 303
#     4   9  18  32  52  78 106 137 173 211 252 303
#     4   9  16  28  50  79 108 137 169 206 250 303
#     4  11  22  36  53  75 104 138 174 210 256 310
#     4   8  17  34  57  79 100 133 175 213 250 306
#
# _framework density 25.308042
#
# number of rings (size 3 to 8) (size 9 to 14) (size 15 to 20)
#    0.000    2.429    0.000    3.857    0.000    4.571 
#    0.000    7.143    0.000    6.429    0.000    0.000 
#    0.000    0.000    0.000    0.000    0.000    0.000 
#
# Total GULP energy -156538.375687 kJ/mol
# GULP energy per Si atom -5590.656275 kJ/mol
# Density = 2.525044 g / cm^3
# Si number density = 25.308042 Si / 1000 Ang^3
#
#
#
# Elastic Constant Matrix: (Units=GPa)
#
#
# Indices 1 2 3 4 5 6 
#
# 1 64.1539 -6.1529 -7.2286 0.0000 19.1955 0.0000
# 2 -6.1529 77.1031 -1.1409 0.0000 -1.0089 0.0000
# 3 -7.2286 -1.1409 107.9740 0.0000 19.3177 0.0000
# 4 0.0000 0.0000 0.0000 7.5078 0.0000 6.4904
# 5 19.1955 -1.0089 19.3177 0.0000 44.6048 0.0000
# 6 0.0000 0.0000 0.0000 6.4904 0.0000 10.7516
#
#
#
# Elastic Compliance Matrix: (Units=1/GPa)
#
#
# Indices 1 2 3 4 5 6 
#
# 1 0.018858 0.001426 0.002953 0.000000 -0.009362 0.000000
# 2 0.001426 0.013082 0.000315 0.000000 -0.000454 0.000000
# 3 0.002953 0.000315 0.010502 0.000000 -0.005812 0.000000
# 4 0.000000 0.000000 0.000000 0.278564 0.000000 -0.168159
# 5 -0.009362 -0.000454 -0.005812 0.000000 0.028955 0.000000
# 6 0.000000 0.000000 0.000000 -0.168159 0.000000 0.194521
#
#
# Mechanical properties :
#
#
# Convention : Reuss Voigt Hill
#
# Bulk Modulus (GPa) = 19.29390 24.46513 21.87952
# Shear Modulus (GPa) = 9.05189 30.15641 19.60415
#
# Velocity S-wave (km/s) = 1.89326 3.45566 2.78622
# Velocity P-wave (km/s) = 3.52412 5.06064 4.36059
#
# Compressibility (1/GPa) = 0.05182985
#
# Stress axis : x y z
#
# Youngs Moduli (GPa) = 53.02735 76.43996 95.21731
#
# Poissons Ratio (x) = -0.10901 -0.28113
# Poissons Ratio (y) = -0.07562 -0.02999
# Poissons Ratio (z) = -0.15657 -0.02408
#
# Static dielectric constant tensor:
#      x y z
#    x 2.066030 0.000000 0.002190 
#    y 0.000000 1.965330 0.000000 
#    z 0.002190 0.000000 1.955740 
# 
# From -- ./inp_files/91986.got.cif
#   From: 2010.05.17/outbox.cif.g08.bks.cpg/sg10_46_cif.got.tgz:91986.got - 2010.06.03 11:33:40.
