data_PCOD9146238
_publ_section_title
;
Structure prediction by ZEFSAII (Michael W. Deem and Ramdas Pophale) SiO2 
 PCOD9146238
Probable space group: P 2/M
;
_chemical_formula_sum "Si O2"
_cell_formula_units_Z 32
_cell_length_a 24.394809
_cell_length_b 13.014447
_cell_length_c 12.648675
_cell_angle_alpha 90.000000
_cell_angle_beta 27.368146
_cell_angle_gamma 90.000000
_cell_volume 1846.071283
_symmetry_space_group_name_H-M "P 2/M"
_symmetry_group_IT_number 10
_symmetry_cell_setting 'monoclinic'
loop_
_space_group_symop_operation_xyz
x,y,z
-x,y,-z
-x,-y,-z
x,-y,z
loop_
_atom_site_type_symbol
_atom_site_label
_atom_site_fract_x
_atom_site_fract_y
_atom_site_fract_z
Si Si1 0.365092 0.620053 0.755297
Si Si2 0.698519 0.377576 0.690808
Si Si3 0.176492 0.699454 0.911181
Si Si4 0.623194 0.291516 0.043951
Si Si5 0.044510 0.620245 0.812136
Si Si6 0.625024 0.624714 0.581812
Si Si7 0.063050 0.878307 0.224965
Si Si8 0.814101 0.121797 0.756530
O O1 0.500000 0.658872 0.500000
O O2 0.365220 0.500000 0.729336
O O3 0.265066 0.671051 0.854355
O O4 0.336122 0.637914 0.927634
O O5 0.700543 0.500000 0.705831
O O6 0.625565 0.362863 0.707393
O O7 0.830733 0.336547 0.439890
O O8 0.655557 0.328231 0.871803
O O9 0.254265 0.670357 0.674771
O O10 0.057888 0.631975 0.099229
O O11 0.123821 0.811572 0.028817
O O12 0.480759 0.308716 0.287866
O O13 0.693752 0.185526 0.942572
O O14 0.068515 0.500000 0.790997
O O15 0.000000 0.665300 0.000000
O O16 0.615572 0.500000 0.576229
O O17 0.137006 0.862238 0.207620
O O18 0.925889 0.848749 0.488754
O O19 0.064620 0.000000 0.199795
O O20 0.794348 0.000000 0.777377
#
# Coordination Sequence:
#
# PCOD9146238 Si02
#       8
#     4   4   4   4   4   4   4   4
#     4  11  22  34  50  78 120 159 185 220 277 343
#     4  10  21  36  54  80 111 149 196 237 271 323
#     4  12  20  34  57  82 110 147 190 228 278 341
#     4  12  21  35  56  83 111 147 194 234 274 328
#     4  10  19  33  53  78 109 146 188 231 274 328
#     4  11  22  36  56  80 115 161 195 222 264 331
#     4   9  19  37  60  83 108 142 187 238 289 343
#     4   9  19  38  60  81 108 144 188 234 290 347
#
# _framework density 17.334109000000002
#
# number of rings (size 3 to 8) (size 9 to 14) (size 15 to 20)
#    0.000    1.500    3.750    4.125    0.000    1.000 
#    0.000    0.625    0.000    7.875    0.000    0.000 
#    0.000    0.000    0.000    0.000    0.000    0.000 
#
# Total GULP energy -178235.119062 kJ/mol
# GULP energy per Si atom -5569.847471 kJ/mol
# Density = 1.729466 g / cm^3
# Si number density = 17.334109 Si / 1000 Ang^3
#
#
#
# Elastic Constant Matrix: (Units=GPa)
#
#
# Indices 1 2 3 4 5 6 
#
# 1 59.8498 7.7456 22.5598 0.0000 -3.0506 0.0000
# 2 7.7456 50.0407 29.7688 0.0000 -1.3882 0.0000
# 3 22.5598 29.7688 68.2029 0.0000 -3.6824 0.0000
# 4 0.0000 0.0000 0.0000 27.9604 0.0000 -0.7036
# 5 -3.0506 -1.3882 -3.6824 0.0000 36.3273 0.0000
# 6 0.0000 0.0000 0.0000 -0.7036 0.0000 9.5776
#
#
#
# Elastic Compliance Matrix: (Units=1/GPa)
#
#
# Indices 1 2 3 4 5 6 
#
# 1 0.019166 0.001081 -0.006759 0.000000 0.000966 0.000000
# 2 0.001081 0.027054 -0.012172 0.000000 -0.000109 0.000000
# 3 -0.006759 -0.012172 0.022277 0.000000 0.001225 0.000000
# 4 0.000000 0.000000 0.000000 0.035831 0.000000 0.002632
# 5 0.000966 -0.000109 0.001225 0.000000 0.027729 0.000000
# 6 0.000000 0.000000 0.000000 0.002632 0.000000 0.104604
#
#
# Mechanical properties :
#
#
# Convention : Reuss Voigt Hill
#
# Bulk Modulus (GPa) = 30.49089 33.13796 31.81442
# Shear Modulus (GPa) = 17.64957 22.64101 20.14529
#
# Velocity S-wave (km/s) = 3.19438 3.61800 3.41277
# Velocity P-wave (km/s) = 5.58872 6.05078 5.82433
#
# Compressibility (1/GPa) = 0.03279669
#
# Stress axis : x y z
#
# Youngs Moduli (GPa) = 52.17676 36.96257 44.88956
#
# Poissons Ratio (x) = -0.03997 0.30342
# Poissons Ratio (y) = -0.05642 0.54640
# Poissons Ratio (z) = 0.35268 0.44991
#
# Static dielectric constant tensor:
#      x y z
#    x 1.608570 0.000000 0.000520 
#    y 0.000000 1.562370 0.000000 
#    z 0.000520 0.000000 1.648340 
# 
# From -- ./inp_files/46996.got.cif
#   From: 2010.05.17/outbox.cif.g08.bks.cpg/sg10_24_cif.got.tgz:46996.got - 2010.06.03 11:33:40.
