data_PCOD9146730
_publ_section_title
;
Structure prediction by ZEFSAII (Michael W. Deem and Ramdas Pophale) SiO2 
 PCOD9146730
Probable space group: P 2/M
;
_chemical_formula_sum "Si O2"
_cell_formula_units_Z 22
_cell_length_a 11.959802
_cell_length_b 14.320716
_cell_length_c 15.961537
_cell_angle_alpha 90.000000
_cell_angle_beta 155.721515
_cell_angle_gamma 90.000000
_cell_volume 1124.053699
_symmetry_space_group_name_H-M "P 2/M"
_symmetry_group_IT_number 10
_symmetry_cell_setting 'monoclinic'
loop_
_space_group_symop_operation_xyz
x,y,z
-x,y,-z
-x,-y,-z
x,-y,z
loop_
_atom_site_type_symbol
_atom_site_label
_atom_site_fract_x
_atom_site_fract_y
_atom_site_fract_z
Si Si1 0.542407 0.394886 0.806010
Si Si2 0.765379 0.896296 0.239637
Si Si3 0.411392 0.893463 0.161240
Si Si4 0.000000 0.342087 0.000000
Si Si5 0.978315 0.742233 0.157544
Si Si6 0.770914 0.756359 0.496721
O O1 0.486462 0.500000 0.795864
O O2 0.289065 0.334274 0.600836
O O3 0.722267 0.330496 0.991784
O O4 0.746336 0.397421 0.864815
O O5 0.651066 0.891642 0.255563
O O6 0.966777 0.813919 0.354197
O O7 0.889600 0.000000 0.311156
O O8 0.500000 0.890990 0.000000
O O9 0.515074 0.825082 0.305038
O O10 0.361931 0.000000 0.151866
O O11 0.153286 0.844608 0.941413
O O12 0.094724 0.283707 0.145804
O O13 0.176959 0.733577 0.370952
#
# Coordination Sequence:
#
# PCOD9146730 Si02
#       6
#     4   4   4   2   4   4
#     4   9  20  38  59  83 107 139 184 233 281 330
#     4  10  19  33  58  86 113 147 186 222 266 319
#     4  10  20  35  55  84 115 145 184 227 266 320
#     4   8  19  40  59  78 106 144 181 234 279 328
#     4   9  20  35  56  80 113 143 180 230 280 319
#     4  11  20  33  56  88 113 142 178 233 277 324
#
# _framework density 19.572018
#
# number of rings (size 3 to 8) (size 9 to 14) (size 15 to 20)
#    1.091    1.273    1.818    1.364    0.000    3.636 
#    0.000    1.364    0.000   10.364    0.000    0.000 
#    0.000    0.000    0.000    0.000    0.000    0.000 
#
# Total GULP energy -122536.102693 kJ/mol
# GULP energy per Si atom -5569.822850 kJ/mol
# Density = 1.952747 g / cm^3
# Si number density = 19.572018 Si / 1000 Ang^3
#
#
#
# Elastic Constant Matrix: (Units=GPa)
#
#
# Indices 1 2 3 4 5 6 
#
# 1 28.3162 5.3413 9.3401 0.0000 -13.2214 0.0000
# 2 5.3413 126.9232 34.7079 0.0000 -8.3964 0.0000
# 3 9.3401 34.7079 94.7506 0.0000 -29.6348 0.0000
# 4 0.0000 0.0000 0.0000 14.6291 0.0000 9.0697
# 5 -13.2214 -8.3964 -29.6348 0.0000 36.7223 0.0000
# 6 0.0000 0.0000 0.0000 9.0697 0.0000 25.5752
#
#
#
# Elastic Compliance Matrix: (Units=1/GPa)
#
#
# Indices 1 2 3 4 5 6 
#
# 1 0.042625 -0.001063 0.001219 0.000000 0.016088 0.000000
# 2 -0.001063 0.008799 -0.003490 0.000000 -0.001187 0.000000
# 3 0.001219 -0.003490 0.015516 0.000000 0.012163 0.000000
# 4 0.000000 0.000000 0.000000 0.087621 0.000000 -0.031073
# 5 0.016088 -0.001187 0.012163 0.000000 0.042567 0.000000
# 6 0.000000 0.000000 0.000000 -0.031073 0.000000 0.050120
#
#
# Mechanical properties :
#
#
# Convention : Reuss Voigt Hill
#
# Bulk Modulus (GPa) = 16.59094 38.75210 27.67152
# Shear Modulus (GPa) = 18.24767 28.75872 23.50319
#
# Velocity S-wave (km/s) = 3.05673 3.83741 3.46910
# Velocity P-wave (km/s) = 4.57749 6.28307 5.49683
#
# Compressibility (1/GPa) = 0.06027386
#
# Stress axis : x y z
#
# Youngs Moduli (GPa) = 23.46020 113.64578 64.44879
#
# Poissons Ratio (x) = 0.12080 -0.07857
# Poissons Ratio (y) = 0.02494 0.22491
# Poissons Ratio (z) = -0.02860 0.39659
#
# Static dielectric constant tensor:
#      x y z
#    x 1.711370 0.000000 0.006130 
#    y 0.000000 1.706170 0.000000 
#    z 0.006130 0.000000 1.719260 
# 
# From -- ./inp_files/78318.got.cif
#   From: 2010.05.17/outbox.cif.g08.bks.cpg/sg10_40_cif.got.tgz:78318.got - 2010.06.03 11:33:40.
