data_PCOD9146016
_publ_section_title
;
Structure prediction by ZEFSAII (Michael W. Deem and Ramdas Pophale) SiO2 
 PCOD9146016
Probable space group: P 2/M
;
_chemical_formula_sum "Si O2"
_cell_formula_units_Z 16
_cell_length_a 7.758085
_cell_length_b 19.375497
_cell_length_c 5.353296
_cell_angle_alpha 90.000000
_cell_angle_beta 119.836366
_cell_angle_gamma 90.000000
_cell_volume 698.028278
_symmetry_space_group_name_H-M "P 2/M"
_symmetry_group_IT_number 10
_symmetry_cell_setting 'monoclinic'
loop_
_space_group_symop_operation_xyz
x,y,z
-x,y,-z
-x,-y,-z
x,-y,z
loop_
_atom_site_type_symbol
_atom_site_label
_atom_site_fract_x
_atom_site_fract_y
_atom_site_fract_z
Si Si1 0.273610 0.648305 0.052081
Si Si2 0.721567 0.703804 0.443766
Si Si3 0.135144 0.849922 0.347301
Si Si4 0.135521 0.000000 0.347250
Si Si5 0.867361 0.500000 0.154173
O O1 0.499047 0.674772 0.249382
O O2 0.186562 0.658522 0.266404
O O3 0.188126 0.694836 0.766785
O O4 0.259426 0.569867 0.952765
O O5 0.728353 0.782854 0.533229
O O6 0.239815 0.925268 0.419202
O O7 0.000000 0.849081 0.500000
O O8 0.000000 0.844163 0.000000
O O9 0.000000 0.000000 0.500000
O O10 0.000000 0.000000 0.000000
O O11 0.000000 0.500000 0.500000
O O12 0.000000 0.500000 0.000000
#
# Coordination Sequence:
#
# PCOD9146016 Si02
#       5
#     4   4   4   2   2
#     4  10  23  40  58  81 112 148 184 223 284 345
#     4  10  21  37  59  82 113 152 187 224 276 335
#     4  10  19  32  55  85 116 150 190 232 271 317
#     4   8  16  30  48  78 116 150 184 226 276 318
#     4  12  26  42  62  86 110 138 182 238 288 340
#
# _framework density 22.921709
#
# number of rings (size 3 to 8) (size 9 to 14) (size 15 to 20)
#    0.000    2.000    0.000    3.000    0.000   10.000 
#    0.000    0.000    0.000    6.000    0.000    0.000 
#    0.000    0.000    0.000    0.000    0.000    0.000 
#
# Total GULP energy -89330.640083 kJ/mol
# GULP energy per Si atom -5583.165005 kJ/mol
# Density = 2.286954 g / cm^3
# Si number density = 22.921709 Si / 1000 Ang^3
#
#
#
# Elastic Constant Matrix: (Units=GPa)
#
#
# Indices 1 2 3 4 5 6 
#
# 1 64.1899 13.8766 47.0506 0.0000 -8.3711 0.0000
# 2 13.8766 266.6301 71.0721 0.0000 22.9103 0.0000
# 3 47.0506 71.0721 200.9637 0.0000 -32.9483 0.0000
# 4 0.0000 0.0000 0.0000 40.1488 0.0000 -3.1897
# 5 -8.3711 22.9103 -32.9483 0.0000 45.8265 0.0000
# 6 0.0000 0.0000 0.0000 -3.1897 0.0000 21.6629
#
#
#
# Elastic Compliance Matrix: (Units=1/GPa)
#
#
# Indices 1 2 3 4 5 6 
#
# 1 0.018818 0.000195 -0.004452 0.000000 0.000139 0.000000
# 2 0.000195 0.004720 -0.002376 0.000000 -0.004033 0.000000
# 3 -0.004452 -0.002376 0.007845 0.000000 0.006015 0.000000
# 4 0.000000 0.000000 0.000000 0.025202 0.000000 0.003711
# 5 0.000139 -0.004033 0.006015 0.000000 0.028187 0.000000
# 6 0.000000 0.000000 0.000000 0.003711 0.000000 0.046708
#
#
# Mechanical properties :
#
#
# Convention : Reuss Voigt Hill
#
# Bulk Modulus (GPa) = 55.19586 88.42027 71.80806
# Shear Modulus (GPa) = 33.15957 48.17994 40.66976
#
# Velocity S-wave (km/s) = 3.80760 4.58966 4.21680
# Velocity P-wave (km/s) = 6.59264 8.16978 7.42321
#
# Compressibility (1/GPa) = 0.01811730
#
# Stress axis : x y z
#
# Youngs Moduli (GPa) = 53.14066 211.85320 127.47097
#
# Poissons Ratio (x) = -0.04141 0.56752
# Poissons Ratio (y) = -0.01039 0.30290
# Poissons Ratio (z) = 0.23659 0.50342
#
# Static dielectric constant tensor:
#      x y z
#    x 1.298440 0.000000 -0.075970 
#    y 0.000000 1.862780 0.000000 
#    z -0.075970 0.000000 1.861810 
# 
# From -- ./inp_files/4242.got.cif
#   From: 2010.05.17/outbox.cif.g08.bks.cpg/sg10_3_cif.got.tgz:4242.got - 2010.06.03 11:33:40.
