data_PCOD9146153
_publ_section_title
;
Structure prediction by ZEFSAII (Michael W. Deem and Ramdas Pophale) SiO2 
 PCOD9146153
Probable space group: P 2/M
;
_chemical_formula_sum "Si O2"
_cell_formula_units_Z 24
_cell_length_a 20.563795
_cell_length_b 8.470448
_cell_length_c 9.944914
_cell_angle_alpha 90.000000
_cell_angle_beta 49.770032
_cell_angle_gamma 90.000000
_cell_volume 1322.501011
_symmetry_space_group_name_H-M "P 2/M"
_symmetry_group_IT_number 10
_symmetry_cell_setting 'monoclinic'
loop_
_space_group_symop_operation_xyz
x,y,z
-x,y,-z
-x,-y,-z
x,-y,z
loop_
_atom_site_type_symbol
_atom_site_label
_atom_site_fract_x
_atom_site_fract_y
_atom_site_fract_z
Si Si1 0.863387 0.688406 0.983193
Si Si2 0.403864 0.311414 0.658014
Si Si3 0.219945 0.809843 0.402568
Si Si4 0.735061 0.188548 0.363183
Si Si5 0.276203 0.188914 0.037475
Si Si6 0.970053 0.309194 0.390665
O O1 0.862738 0.500000 0.003603
O O2 0.822079 0.769072 0.168180
O O3 0.800081 0.730580 0.944608
O O4 0.957572 0.739020 0.812835
O O5 0.500000 0.259287 0.500000
O O6 0.402935 0.500000 0.675010
O O7 0.341046 0.265394 0.620082
O O8 0.362402 0.235525 0.846118
O O9 0.258834 0.754631 0.491716
O O10 0.122677 0.755160 0.518263
O O11 0.220684 0.000000 0.405189
O O12 0.269456 0.760899 0.201410
O O13 0.723819 0.000000 0.374815
O O14 0.264926 0.000000 0.043922
O O15 0.966802 0.500000 0.395419
O O16 0.000000 0.258775 0.500000
#
# Coordination Sequence:
#
# PCOD9146153 Si02
#       6
#     4   4   4   4   4   4
#     4  10  19  33  52  76 105 140 184 225 261 306
#     4  10  21  38  60  84 106 132 170 213 260 319
#     4  10  22  36  52  78 110 143 178 219 263 309
#     4  10  21  37  55  78 109 141 175 215 265 316
#     4  10  19  33  55  80 105 138 177 214 261 312
#     4  10  20  33  51  76 106 143 186 225 261 305
#
# _framework density 18.147434000000001
#
# number of rings (size 3 to 8) (size 9 to 14) (size 15 to 20)
#    0.000    2.000    1.667    4.000    0.000    5.667 
#    0.000    4.167    0.000    5.000    0.000    0.000 
#    0.000    0.000    0.000    0.000    0.000    0.000 
#
# Total GULP energy -133969.860972 kJ/mol
# GULP energy per Si atom -5582.077541 kJ/mol
# Density = 1.810613 g / cm^3
# Si number density = 18.147434 Si / 1000 Ang^3
#
#
#
# Elastic Constant Matrix: (Units=GPa)
#
#
# Indices 1 2 3 4 5 6 
#
# 1 68.6256 -1.2619 67.7302 0.0000 0.6533 0.0000
# 2 -1.2619 5.0909 -2.6269 0.0000 -1.4393 0.0000
# 3 67.7302 -2.6269 137.3275 0.0000 -0.5872 0.0000
# 4 0.0000 0.0000 0.0000 31.5443 0.0000 -12.1637
# 5 0.6533 -1.4393 -0.5872 0.0000 36.3720 0.0000
# 6 0.0000 0.0000 0.0000 -12.1637 0.0000 13.3494
#
#
#
# Elastic Compliance Matrix: (Units=1/GPa)
#
#
# Indices 1 2 3 4 5 6 
#
# 1 0.028413 -0.000406 -0.014024 0.000000 -0.000753 0.000000
# 2 -0.000406 0.200695 0.004074 0.000000 0.008015 0.000000
# 3 -0.014024 0.004074 0.014279 0.000000 0.000644 0.000000
# 4 0.000000 0.000000 0.000000 0.048873 0.000000 0.044533
# 5 -0.000753 0.008015 0.000644 0.000000 0.027835 0.000000
# 6 0.000000 0.000000 0.000000 0.044533 0.000000 0.115487
#
#
# Mechanical properties :
#
#
# Convention : Reuss Voigt Hill
#
# Bulk Modulus (GPa) = 4.49088 37.63631 21.06360
# Shear Modulus (GPa) = 9.42471 26.06664 17.74567
#
# Velocity S-wave (km/s) = 2.28138 3.79407 3.13047
# Velocity P-wave (km/s) = 3.06914 6.32278 4.96977
#
# Compressibility (1/GPa) = 0.22267328
#
# Stress axis : x y z
#
# Youngs Moduli (GPa) = 35.19543 4.98269 70.03133
#
# Poissons Ratio (x) = 0.00202 0.98214
# Poissons Ratio (y) = 0.01430 -0.28528
# Poissons Ratio (z) = 0.49359 -0.02030
#
# Static dielectric constant tensor:
#      x y z
#    x 1.593830 0.000000 0.015100 
#    y 0.000000 1.618200 0.000000 
#    z 0.015100 0.000000 1.641990 
# 
# From -- ./inp_files/33731.got.cif
#   From: 2010.05.17/outbox.cif.g08.bks.cpg/sg10_17_cif.got.tgz:33731.got - 2010.06.03 11:33:40.
