data_PCOD9146970
_publ_section_title
;
Structure prediction by ZEFSAII (Michael W. Deem and Ramdas Pophale) SiO2 
 PCOD9146970
Probable space group: P 2/M
;
_chemical_formula_sum "Si O2"
_cell_formula_units_Z 28
_cell_length_a 15.382926
_cell_length_b 12.787690
_cell_length_c 9.218240
_cell_angle_alpha 90.000000
_cell_angle_beta 52.007880
_cell_angle_gamma 90.000000
_cell_volume 1429.084354
_symmetry_space_group_name_H-M "P 2/M"
_symmetry_group_IT_number 10
_symmetry_cell_setting 'monoclinic'
loop_
_space_group_symop_operation_xyz
x,y,z
-x,y,-z
-x,-y,-z
x,-y,z
loop_
_atom_site_type_symbol
_atom_site_label
_atom_site_fract_x
_atom_site_fract_y
_atom_site_fract_z
Si Si1 0.321375 0.327203 0.951033
Si Si2 0.093005 0.321167 0.302722
Si Si3 0.945355 0.762919 0.205137
Si Si4 0.570998 0.614668 0.739638
Si Si5 0.850798 0.116144 0.564273
Si Si6 0.620009 0.820217 0.877799
Si Si7 0.256831 0.622737 0.694360
O O1 0.439965 0.381548 0.846446
O O2 0.289063 0.330496 0.816609
O O3 0.213753 0.368825 0.149548
O O4 0.343713 0.212541 0.997237
O O5 0.115653 0.210100 0.361319
O O6 0.000000 0.374281 0.500000
O O7 0.035974 0.298843 0.207511
O O8 0.900035 0.852389 0.358279
O O9 0.844800 0.685506 0.270205
O O10 0.000000 0.800052 0.000000
O O11 0.599662 0.500000 0.770364
O O12 0.604587 0.709217 0.809782
O O13 0.639566 0.628298 0.521422
O O14 0.718310 0.120842 0.699544
O O15 0.883789 0.000000 0.575253
O O16 0.500000 0.870883 0.000000
O O17 0.229075 0.500000 0.741626
#
# Coordination Sequence:
#
# PCOD9146970 Si02
#       7
#     4   4   4   4   4   4   4
#     4  10  19  34  55  83 115 151 188 233 274 325
#     4   9  20  37  59  79 113 151 189 231 284 336
#     4  11  21  38  60  82 117 151 188 236 282 335
#     4  10  20  35  57  85 116 150 193 237 279 331
#     4  10  21  39  63  87 111 143 188 241 293 345
#     4   9  19  35  59  86 117 149 186 233 288 336
#     4  11  22  36  57  84 115 156 195 228 277 338
#
# _framework density 19.592966000000001
#
# number of rings (size 3 to 8) (size 9 to 14) (size 15 to 20)
#    0.000    2.000    2.857    0.857    0.000    7.714 
#    0.000    0.000    0.000    5.571    0.000    2.000 
#    0.000    0.000    0.000    0.000    0.000    0.000 
#
# Total GULP energy -156144.360676 kJ/mol
# GULP energy per Si atom -5576.584310 kJ/mol
# Density = 1.954837 g / cm^3
# Si number density = 19.592966 Si / 1000 Ang^3
#
#
#
# Elastic Constant Matrix: (Units=GPa)
#
#
# Indices 1 2 3 4 5 6 
#
# 1 106.9775 29.0282 51.4419 0.0000 -16.9844 0.0000
# 2 29.0282 71.6132 27.4243 0.0000 -2.4677 0.0000
# 3 51.4419 27.4243 133.9122 0.0000 -16.4755 0.0000
# 4 0.0000 0.0000 0.0000 -29.1257 0.0000 18.8921
# 5 -16.9844 -2.4677 -16.4755 0.0000 48.6470 0.0000
# 6 0.0000 0.0000 0.0000 18.8921 0.0000 -6.1605
#
#
#
# Elastic Compliance Matrix: (Units=1/GPa)
#
#
# Indices 1 2 3 4 5 6 
#
# 1 0.012582 -0.003566 -0.003741 0.000000 0.002945 0.000000
# 2 -0.003566 0.016167 -0.002080 0.000000 -0.001129 0.000000
# 3 -0.003741 -0.002080 0.009555 0.000000 0.001825 0.000000
# 4 0.000000 0.000000 0.000000 0.034710 0.000000 0.106444
# 5 0.002945 -0.001129 0.001825 0.000000 0.022145 0.000000
# 6 0.000000 0.000000 0.000000 0.106444 0.000000 0.164104
#
#
# Mechanical properties :
#
#
# Convention : Reuss Voigt Hill
#
# Bulk Modulus (GPa) = 51.20197 58.69907 54.95052
# Shear Modulus (GPa) = 17.57188 16.31274 16.94231
#
# Velocity S-wave (km/s) = 2.99799 2.88858 2.94379
# Velocity P-wave (km/s) = 6.17847 6.41479 6.29774
#
# Compressibility (1/GPa) = 0.01953050
#
# Stress axis : x y z
#
# Youngs Moduli (GPa) = 79.48062 61.85444 104.65783
#
# Poissons Ratio (x) = 0.22057 0.39148
# Poissons Ratio (y) = 0.28343 0.21768
# Poissons Ratio (z) = 0.29730 0.12865
#
# Static dielectric constant tensor:
#      x y z
#    x 1.702460 0.000000 -0.031790 
#    y 0.000000 1.675780 0.000000 
#    z -0.031790 0.000000 1.713800 
# 
# From -- ./inp_files/28936.got.cif
#   From: 2010.05.17/outbox.cif.g08.bks.cpg/sg10_15_cif.got.tgz:28936.got - 2010.06.03 11:33:40.
