data_PCOD9146499
_publ_section_title
;
Structure prediction by ZEFSAII (Michael W. Deem and Ramdas Pophale) SiO2 
 PCOD9146499
Probable space group: P 2/M
;
_chemical_formula_sum "Si O2"
_cell_formula_units_Z 28
_cell_length_a 22.112525
_cell_length_b 7.416217
_cell_length_c 15.299091
_cell_angle_alpha 90.000000
_cell_angle_beta 28.345606
_cell_angle_gamma 90.000000
_cell_volume 1191.206207
_symmetry_space_group_name_H-M "P 2/M"
_symmetry_group_IT_number 10
_symmetry_cell_setting 'monoclinic'
loop_
_space_group_symop_operation_xyz
x,y,z
-x,y,-z
-x,-y,-z
x,-y,z
loop_
_atom_site_type_symbol
_atom_site_label
_atom_site_fract_x
_atom_site_fract_y
_atom_site_fract_z
Si Si1 0.040407 0.280993 0.545862
Si Si2 0.600395 0.217705 0.053736
Si Si3 0.324649 0.780167 0.423866
Si Si4 0.324616 0.793923 0.228193
Si Si5 0.798812 0.291885 0.946618
Si Si6 0.353244 0.716116 0.694602
Si Si7 0.146657 0.216480 0.803028
O O1 0.045247 0.500000 0.543269
O O2 0.000000 0.230373 0.500000
O O3 0.178634 0.206934 0.386084
O O4 0.936526 0.215124 0.747946
O O5 0.468609 0.265631 0.269366
O O6 0.717755 0.286707 0.960536
O O7 0.609645 0.000000 0.038904
O O8 0.603120 0.280896 0.949070
O O9 0.321096 0.712288 0.329068
O O10 0.214441 0.716128 0.628061
O O11 0.316053 0.000000 0.433569
O O12 0.367931 0.000000 0.184843
O O13 0.820879 0.500000 0.942565
O O14 0.714906 0.211684 0.130911
O O15 0.500000 0.783719 0.500000
O O16 0.365103 0.500000 0.687475
O O17 0.251286 0.748153 0.746215
O O18 0.137184 0.000000 0.809454
O O19 0.000000 0.282568 0.000000
#
# Coordination Sequence:
#
# PCOD9146499 Si02
#       7
#     4   4   4   4   4   4   4
#     4  10  20  35  52  73 107 145 175 213 267 322
#     4  10  19  33  55  82 108 139 179 219 263 319
#     4   9  19  36  55  77 110 144 174 218 273 320
#     4  10  20  33  54  80 106 138 179 221 261 313
#     4  10  21  36  55  78 109 144 176 217 272 324
#     4  10  22  40  61  85 112 145 189 238 284 331
#     4  10  22  39  59  84 114 149 189 232 281 336
#
# _framework density 23.505586999999998
#
# number of rings (size 3 to 8) (size 9 to 14) (size 15 to 20)
#    0.000    2.143    1.429    1.286    2.000    3.714 
#    0.000    1.429    0.000    1.714    0.000    0.000 
#    0.000    0.000    0.000    0.000    0.000    0.000 
#
# Total GULP energy -156347.647839 kJ/mol
# GULP energy per Si atom -5583.844566 kJ/mol
# Density = 2.345209 g / cm^3
# Si number density = 23.505587 Si / 1000 Ang^3
#
#
#
# Elastic Constant Matrix: (Units=GPa)
#
#
# Indices 1 2 3 4 5 6 
#
# 1 90.6649 -8.7271 63.8571 0.0000 5.6643 0.0000
# 2 -8.7271 77.8625 15.7169 0.0000 2.0869 0.0000
# 3 63.8571 15.7169 248.1774 0.0000 8.0736 0.0000
# 4 0.0000 0.0000 0.0000 -32.3993 0.0000 -5.5285
# 5 5.6643 2.0869 8.0736 0.0000 42.7063 0.0000
# 6 0.0000 0.0000 0.0000 -5.5285 0.0000 20.5066
#
#
#
# Elastic Compliance Matrix: (Units=1/GPa)
#
#
# Indices 1 2 3 4 5 6 
#
# 1 0.013935 0.002341 -0.003693 0.000000 -0.001265 0.000000
# 2 0.002341 0.013413 -0.001429 0.000000 -0.000696 0.000000
# 3 -0.003693 -0.001429 0.005083 0.000000 -0.000401 0.000000
# 4 0.000000 0.000000 0.000000 -0.029507 0.000000 -0.007955
# 5 -0.001265 -0.000696 -0.000401 0.000000 0.023693 0.000000
# 6 0.000000 0.000000 0.000000 -0.007955 0.000000 0.046620
#
#
# Mechanical properties :
#
#
# Convention : Reuss Voigt Hill
#
# Bulk Modulus (GPa) = 37.21730 62.04429 49.63080
# Shear Modulus (GPa) = 56.97728 29.21991 43.09859
#
# Velocity S-wave (km/s) = 4.92874 3.52959 4.28664
# Velocity P-wave (km/s) = 6.94678 6.56228 6.75727
#
# Compressibility (1/GPa) = 0.02686922
#
# Stress axis : x y z
#
# Youngs Moduli (GPa) = 71.76310 74.55624 196.73190
#
# Poissons Ratio (x) = -0.17455 0.72645
# Poissons Ratio (y) = -0.16801 0.28116
# Poissons Ratio (z) = 0.26499 0.10655
#
# Static dielectric constant tensor:
#      x y z
#    x 1.865620 0.000000 0.017630 
#    y 0.000000 1.868170 0.000000 
#    z 0.017630 0.000000 1.894220 
# 
# From -- ./inp_files/49180.got.cif
#   From: 2010.05.17/outbox.cif.g08.bks.cpg/sg10_25_cif.got.tgz:49180.got - 2010.06.03 11:33:40.
