data_PCOD9146018
_publ_section_title
;
Structure prediction by ZEFSAII (Michael W. Deem and Ramdas Pophale) SiO2 
 PCOD9146018
Probable space group: P 2/M
;
_chemical_formula_sum "Si O2"
_cell_formula_units_Z 32
_cell_length_a 12.601275
_cell_length_b 24.964086
_cell_length_c 5.349540
_cell_angle_alpha 90.000000
_cell_angle_beta 80.757322
_cell_angle_gamma 90.000000
_cell_volume 1661.005948
_symmetry_space_group_name_H-M "P 2/M"
_symmetry_group_IT_number 10
_symmetry_cell_setting 'monoclinic'
loop_
_space_group_symop_operation_xyz
x,y,z
-x,y,-z
-x,-y,-z
x,-y,z
loop_
_atom_site_type_symbol
_atom_site_label
_atom_site_fract_x
_atom_site_fract_y
_atom_site_fract_z
Si Si1 0.618413 0.666437 0.048252
Si Si2 0.369391 0.938692 0.541045
Si Si3 0.748712 0.230699 0.068090
Si Si4 0.308781 0.439743 0.745550
Si Si5 0.096582 0.556485 0.157785
Si Si6 0.874168 0.251994 0.499249
Si Si7 0.370166 0.122651 0.039230
Si Si8 0.198749 0.636013 0.411705
O O1 0.670423 0.718526 0.158486
O O2 0.615817 0.610000 0.201128
O O3 0.500000 0.679017 0.000000
O O4 0.701223 0.655553 0.791621
O O5 0.500000 0.938731 0.500000
O O6 0.337288 0.916556 0.824401
O O7 0.334740 0.000000 0.514405
O O8 0.336083 0.901161 0.321228
O O9 0.821168 0.219978 0.287313
O O10 0.678046 0.179938 0.014084
O O11 0.818217 0.243645 0.791755
O O12 0.353901 0.500000 0.693419
O O13 0.245433 0.415385 0.536018
O O14 0.212895 0.443912 0.981925
O O15 0.090111 0.500000 0.303227
O O16 0.099735 0.611995 0.296989
O O17 0.000000 0.556789 0.000000
O O18 0.848103 0.313431 0.426700
O O19 0.000000 0.243337 0.500000
O O20 0.500000 0.126177 0.000000
#
# Coordination Sequence:
#
# PCOD9146018 Si02
#       8
#     4   4   4   4   4   4   4   4
#     4  10  22  39  55  74 104 143 183 233 284 332
#     4   9  17  30  50  83 127 170 206 237 278 331
#     4  11  22  41  58  88 116 149 197 241 281 349
#     4  10  20  36  53  74 102 131 178 229 280 350
#     4   9  19  32  50  75 101 129 164 216 280 345
#     4  11  24  39  61  82 112 146 186 238 305 354
#     4  10  19  32  55  85 122 168 202 239 284 329
#     4  10  21  35  53  76 100 134 174 224 282 356
#
# _framework density 19.265432000000001
#
# number of rings (size 3 to 8) (size 9 to 14) (size 15 to 20)
#    0.000    2.000    1.250    2.250    1.750    2.750 
#    0.000    3.750    0.000    0.000    0.000    0.000 
#    0.000   35.000    0.000    0.000    0.000    0.000 
#
# Total GULP energy -178267.527572 kJ/mol
# GULP energy per Si atom -5570.860237 kJ/mol
# Density = 1.922158 g / cm^3
# Si number density = 19.265432 Si / 1000 Ang^3
#
#
#
# Elastic Constant Matrix: (Units=GPa)
#
#
# Indices 1 2 3 4 5 6 
#
# 1 76.5557 22.3114 21.7257 0.0000 20.7743 0.0000
# 2 22.3114 88.9356 17.2745 0.0000 16.6272 0.0000
# 3 21.7257 17.2745 72.6691 0.0000 19.9482 0.0000
# 4 0.0000 0.0000 0.0000 26.4949 0.0000 2.7952
# 5 20.7743 16.6272 19.9482 0.0000 25.9759 0.0000
# 6 0.0000 0.0000 0.0000 2.7952 0.0000 6.6690
#
#
#
# Elastic Compliance Matrix: (Units=1/GPa)
#
#
# Indices 1 2 3 4 5 6 
#
# 1 0.017117 -0.001880 -0.001575 0.000000 -0.011277 0.000000
# 2 -0.001880 0.013037 -0.000835 0.000000 -0.006200 0.000000
# 3 -0.001575 -0.000835 0.017661 0.000000 -0.011769 0.000000
# 4 0.000000 0.000000 0.000000 0.039489 0.000000 -0.016551
# 5 -0.011277 -0.006200 -0.011769 0.000000 0.060522 0.000000
# 6 0.000000 0.000000 0.000000 -0.016551 0.000000 0.156886
#
#
# Mechanical properties :
#
#
# Convention : Reuss Voigt Hill
#
# Bulk Modulus (GPa) = 25.48739 40.08706 32.78722
# Shear Modulus (GPa) = 15.31998 23.61787 19.46892
#
# Velocity S-wave (km/s) = 2.82300 3.50511 3.18238
# Velocity P-wave (km/s) = 4.88713 6.10197 5.52802
#
# Compressibility (1/GPa) = 0.03923510
#
# Stress axis : x y z
#
# Youngs Moduli (GPa) = 58.42031 76.70408 56.62205
#
# Poissons Ratio (x) = 0.14421 0.08918
# Poissons Ratio (y) = 0.10983 0.04728
# Poissons Ratio (z) = 0.09202 0.06405
#
# Static dielectric constant tensor:
#      x y z
#    x 1.647390 0.000000 0.025870 
#    y 0.000000 1.716220 0.000000 
#    z 0.025870 0.000000 1.796510 
# 
# From -- ./inp_files/8027.got.cif
#   From: 2010.05.17/outbox.cif.g08.bks.cpg/sg10_5_cif.got.tgz:8027.got - 2010.06.03 11:33:40.
