data_PCOD9146028
_publ_section_title
;
Structure prediction by ZEFSAII (Michael W. Deem and Ramdas Pophale) SiO2 
 PCOD9146028
Probable space group: P 2/M
;
_chemical_formula_sum "Si O2"
_cell_formula_units_Z 24
_cell_length_a 7.095767
_cell_length_b 16.779776
_cell_length_c 8.371117
_cell_angle_alpha 90.000000
_cell_angle_beta 102.399636
_cell_angle_gamma 90.000000
_cell_volume 973.460614
_symmetry_space_group_name_H-M "P 2/M"
_symmetry_group_IT_number 10
_symmetry_cell_setting 'monoclinic'
loop_
_space_group_symop_operation_xyz
x,y,z
-x,y,-z
-x,-y,-z
x,-y,z
loop_
_atom_site_type_symbol
_atom_site_label
_atom_site_fract_x
_atom_site_fract_y
_atom_site_fract_z
Si Si1 0.741468 0.000000 0.742751
Si Si2 0.770122 0.593358 0.115989
Si Si3 0.714047 0.829439 0.244799
Si Si4 0.772635 0.669987 0.440569
Si Si5 0.748408 0.168957 0.882150
Si Si6 0.201930 0.661119 0.208114
Si Si7 0.729151 0.000000 0.370023
O O1 0.809204 0.919289 0.840622
O O2 0.788529 0.000000 0.564895
O O3 0.505433 0.000000 0.696427
O O4 0.740862 0.500000 0.091458
O O5 0.693835 0.622989 0.272894
O O6 0.999309 0.614201 0.168028
O O7 0.700119 0.637093 0.941835
O O8 0.762017 0.762026 0.382791
O O9 0.481037 0.829524 0.193781
O O10 0.789310 0.916426 0.305841
O O11 0.778161 0.815254 0.074790
O O12 0.695517 0.649926 0.603100
O O13 0.000000 0.651064 0.500000
O O14 0.833897 0.244002 0.804563
#
# Coordination Sequence:
#
# PCOD9146028 Si02
#       7
#     2   4   4   4   4   4   2
#     4   9  17  29  47  81 105 145 190 220 266 310
#     4  10  21  38  59  83 109 137 181 227 271 331
#     4  10  19  34  52  81 112 149 185 223 272 312
#     4  10  21  35  56  83 112 143 180 225 271 324
#     4  10  19  32  56  79 113 147 183 227 266 321
#     4  10  19  33  56  83 107 142 176 223 270 321
#     4   9  17  29  50  74 112 142 187 233 254 315
#
# _framework density 24.654312999999998
#
# number of rings (size 3 to 8) (size 9 to 14) (size 15 to 20)
#    0.000    2.167    1.667    2.500    0.000    7.667 
#    0.000    0.417    0.000    8.000    0.000   11.667 
#    0.000    0.000    0.000    0.000    0.000    0.000 
#
# Total GULP energy -134265.531195 kJ/mol
# GULP energy per Si atom -5594.397133 kJ/mol
# Density = 2.459820 g / cm^3
# Si number density = 24.654313 Si / 1000 Ang^3
#
#
#
# Elastic Constant Matrix: (Units=GPa)
#
#
# Indices 1 2 3 4 5 6 
#
# 1 65.9935 9.7701 41.5396 0.0000 13.7725 0.0000
# 2 9.7701 157.0077 69.2080 0.0000 -5.8388 0.0000
# 3 41.5396 69.2080 239.2722 0.0000 -14.6522 0.0000
# 4 0.0000 0.0000 0.0000 58.8507 0.0000 -32.0815
# 5 13.7725 -5.8388 -14.6522 0.0000 36.3930 0.0000
# 6 0.0000 0.0000 0.0000 -32.0815 0.0000 64.1507
#
#
#
# Elastic Compliance Matrix: (Units=1/GPa)
#
#
# Indices 1 2 3 4 5 6 
#
# 1 0.019506 0.000215 -0.003997 0.000000 -0.008957 0.000000
# 2 0.000215 0.007306 -0.002136 0.000000 0.000231 0.000000
# 3 -0.003997 -0.002136 0.005703 0.000000 0.003466 0.000000
# 4 0.000000 0.000000 0.000000 0.023361 0.000000 0.011683
# 5 -0.008957 0.000231 0.003466 0.000000 0.032300 0.000000
# 6 0.000000 0.000000 0.000000 0.011683 0.000000 0.021431
#
#
# Mechanical properties :
#
#
# Convention : Reuss Voigt Hill
#
# Bulk Modulus (GPa) = 48.35869 78.14542 63.25205
# Shear Modulus (GPa) = 38.95982 54.66258 46.81120
#
# Velocity S-wave (km/s) = 3.97954 4.71378 4.36214
# Velocity P-wave (km/s) = 6.38537 7.83528 7.14719
#
# Compressibility (1/GPa) = 0.02067881
#
# Stress axis : x y z
#
# Youngs Moduli (GPa) = 51.26519 136.87307 175.33136
#
# Poissons Ratio (x) = -0.02943 0.70083
# Poissons Ratio (y) = -0.01102 0.37458
# Poissons Ratio (z) = 0.20491 0.29242
#
# Static dielectric constant tensor:
#      x y z
#    x 2.061140 0.000000 -0.033880 
#    y 0.000000 1.879600 0.000000 
#    z -0.033880 0.000000 1.944490 
# 
# From -- ./inp_files/24711.got.cif
#   From: 2010.05.17/outbox.cif.g08.bks.cpg/sg10_13_cif.got.tgz:24711.got - 2010.06.03 11:33:40.
