data_PCOD9146476
_publ_section_title
;
Structure prediction by ZEFSAII (Michael W. Deem and Ramdas Pophale) SiO2 
 PCOD9146476
Probable space group: P 2/M
;
_chemical_formula_sum "Si O2"
_cell_formula_units_Z 20
_cell_length_a 12.933154
_cell_length_b 8.075009
_cell_length_c 20.255606
_cell_angle_alpha 90.000000
_cell_angle_beta 21.662795
_cell_angle_gamma 90.000000
_cell_volume 780.886205
_symmetry_space_group_name_H-M "P 2/M"
_symmetry_group_IT_number 10
_symmetry_cell_setting 'monoclinic'
loop_
_space_group_symop_operation_xyz
x,y,z
-x,y,-z
-x,-y,-z
x,-y,z
loop_
_atom_site_type_symbol
_atom_site_label
_atom_site_fract_x
_atom_site_fract_y
_atom_site_fract_z
Si Si1 0.660105 0.690414 0.746345
Si Si2 0.143885 0.303921 0.553828
Si Si3 0.839774 0.196380 0.031800
Si Si4 0.247918 0.813745 0.099287
Si Si5 0.373390 0.299403 0.645486
O O1 0.718749 0.500000 0.699686
O O2 0.941768 0.763349 0.614359
O O3 0.415685 0.710864 0.945379
O O4 0.483701 0.754088 0.788344
O O5 0.173521 0.500000 0.523752
O O6 0.441505 0.234669 0.402298
O O7 0.975104 0.281266 0.723432
O O8 0.056333 0.243883 0.844754
O O9 0.837039 0.000000 0.038637
O O10 0.000000 0.271681 0.000000
O O11 0.156414 0.000000 0.132609
O O12 0.500000 0.841487 0.000000
O O13 0.500000 0.244410 0.500000
O O14 0.381984 0.500000 0.641072
#
# Coordination Sequence:
#
# PCOD9146476 Si02
#       5
#     4   4   4   4   4
#     4  10  19  33  55  80 110 152 196 239 289 346
#     4   9  18  32  52  83 118 149 190 242 290 342
#     4  11  25  43  61  84 116 155 200 247 296 355
#     4   9  16  26  45  77 115 151 186 228 281 339
#     4  10  21  38  62  92 123 155 193 239 293 351
#
# _framework density 25.611927999999999
#
# number of rings (size 3 to 8) (size 9 to 14) (size 15 to 20)
#    0.000    2.200    0.000    3.000    0.000    7.600 
#    0.000    1.000    0.000    6.000    0.000    0.000 
#    0.000    0.000    0.000    0.000    0.000    0.000 
#
# Total GULP energy -111573.132746 kJ/mol
# GULP energy per Si atom -5578.656637 kJ/mol
# Density = 2.555363 g / cm^3
# Si number density = 25.611928 Si / 1000 Ang^3
#
#
#
# Elastic Constant Matrix: (Units=GPa)
#
#
# Indices 1 2 3 4 5 6 
#
# 1 174.6171 26.2311 73.4747 0.0000 -42.2063 0.0000
# 2 26.2311 44.0614 1.8275 0.0000 -3.1039 0.0000
# 3 73.4747 1.8275 136.1261 0.0000 -44.6548 0.0000
# 4 0.0000 0.0000 0.0000 11.7267 0.0000 -14.6922
# 5 -42.2063 -3.1039 -44.6548 0.0000 63.1282 0.0000
# 6 0.0000 0.0000 0.0000 -14.6922 0.0000 25.2932
#
#
#
# Elastic Compliance Matrix: (Units=1/GPa)
#
#
# Indices 1 2 3 4 5 6 
#
# 1 0.008715 -0.004825 -0.003654 0.000000 0.003005 0.000000
# 2 -0.004825 0.025447 0.002103 0.000000 -0.000487 0.000000
# 3 -0.003654 0.002103 0.011098 0.000000 0.005511 0.000000
# 4 0.000000 0.000000 0.000000 0.313247 0.000000 0.181958
# 5 0.003005 -0.000487 0.005511 0.000000 0.021724 0.000000
# 6 0.000000 0.000000 0.000000 0.181958 0.000000 0.145231
#
#
# Mechanical properties :
#
#
# Convention : Reuss Voigt Hill
#
# Bulk Modulus (GPa) = 30.76157 61.98567 46.37362
# Shear Modulus (GPa) = 9.10664 36.91439 23.01051
#
# Velocity S-wave (km/s) = 1.88768 3.80056 3.00063
# Velocity P-wave (km/s) = 4.09730 6.59647 5.49096
#
# Compressibility (1/GPa) = 0.03250810
#
# Stress axis : x y z
#
# Youngs Moduli (GPa) = 114.73946 39.29784 90.10883
#
# Poissons Ratio (x) = 0.18962 0.32922
# Poissons Ratio (y) = 0.55365 -0.18950
# Poissons Ratio (z) = 0.41921 -0.08264
#
# Static dielectric constant tensor:
#      x y z
#    x 2.248990 0.000000 0.059590 
#    y 0.000000 1.912870 0.000000 
#    z 0.059590 0.000000 2.087520 
# 
# From -- ./inp_files/71192.got.cif
#   From: 2010.05.17/outbox.cif.g08.bks.cpg/sg10_36_cif.got.tgz:71192.got - 2010.06.03 11:33:40.
