data_PCOD9146434
_publ_section_title
;
Structure prediction by ZEFSAII (Michael W. Deem and Ramdas Pophale) SiO2 
 PCOD9146434
Probable space group: P 2/M
;
_chemical_formula_sum "Si O2"
_cell_formula_units_Z 24
_cell_length_a 9.209714
_cell_length_b 7.490031
_cell_length_c 31.806851
_cell_angle_alpha 90.000000
_cell_angle_beta 149.734323
_cell_angle_gamma 90.000000
_cell_volume 1105.833799
_symmetry_space_group_name_H-M "P 2/M"
_symmetry_group_IT_number 10
_symmetry_cell_setting 'monoclinic'
loop_
_space_group_symop_operation_xyz
x,y,z
-x,y,-z
-x,-y,-z
x,-y,z
loop_
_atom_site_type_symbol
_atom_site_label
_atom_site_fract_x
_atom_site_fract_y
_atom_site_fract_z
Si Si1 0.327913 0.787180 0.081925
Si Si2 0.326634 0.712061 0.916635
Si Si3 0.328988 0.280980 0.248622
Si Si4 0.673326 0.288855 0.253176
Si Si5 0.331376 0.718027 0.583106
Si Si6 0.669721 0.281491 0.584367
O O1 0.496812 0.736322 0.081989
O O2 0.504271 0.732903 0.167342
O O3 0.311365 0.000000 0.078529
O O4 0.000000 0.716310 0.000000
O O5 0.297745 0.500000 0.916228
O O6 0.001069 0.781069 0.832191
O O7 0.500000 0.785704 0.000000
O O8 0.326655 0.500000 0.248053
O O9 0.487544 0.219595 0.245882
O O10 0.504432 0.225890 0.333714
O O11 0.703048 0.500000 0.268148
O O12 0.999489 0.218918 0.332792
O O13 0.330059 0.500000 0.582600
O O14 0.501366 0.775377 0.584035
O O15 0.000000 0.775824 0.500000
O O16 0.500000 0.227429 0.500000
O O17 0.671887 0.500000 0.585380
#
# Coordination Sequence:
#
# PCOD9146434 Si02
#       6
#     4   4   4   4   4   4
#     4  11  24  39  54  75 105 139 175 216 263 314
#     4  10  20  35  56  80 104 131 168 214 261 311
#     4   9  17  29  47  74 103 131 167 211 257 302
#     4  10  19  33  55  79 105 138 176 218 261 309
#     4   9  15  23  37  62 101 140 168 201 248 301
#     4   9  16  26  44  74 108 139 172 212 260 310
#
# _framework density 21.703081000000001
#
# number of rings (size 3 to 8) (size 9 to 14) (size 15 to 20)
#    0.000    2.333    0.000    3.500    0.000    9.667 
#    0.000    0.833    0.000    0.500    0.000    0.000 
#    0.000    6.000    0.000    0.000    0.000    0.000 
#
# Total GULP energy -134157.311431 kJ/mol
# GULP energy per Si atom -5589.887976 kJ/mol
# Density = 2.165368 g / cm^3
# Si number density = 21.703081 Si / 1000 Ang^3
#
#
#
# Elastic Constant Matrix: (Units=GPa)
#
#
# Indices 1 2 3 4 5 6 
#
# 1 254.7447 -7.0179 159.6648 0.0000 7.6046 0.0000
# 2 -7.0179 56.6085 -0.7979 0.0000 5.7218 0.0000
# 3 159.6648 -0.7979 272.1668 0.0000 6.8750 0.0000
# 4 0.0000 0.0000 0.0000 9.7409 0.0000 11.1485
# 5 7.6046 5.7218 6.8750 0.0000 51.0457 0.0000
# 6 0.0000 0.0000 0.0000 11.1485 0.0000 -35.2684
#
#
#
# Elastic Compliance Matrix: (Units=1/GPa)
#
#
# Indices 1 2 3 4 5 6 
#
# 1 0.006251 0.000777 -0.003652 0.000000 -0.000527 0.000000
# 2 0.000777 0.017967 -0.000350 0.000000 -0.002082 0.000000
# 3 -0.003652 -0.000350 0.005821 0.000000 -0.000201 0.000000
# 4 0.000000 0.000000 0.000000 0.075386 0.000000 0.023830
# 5 -0.000527 -0.002082 -0.000201 0.000000 0.019929 0.000000
# 6 0.000000 0.000000 0.000000 0.023830 0.000000 -0.020821
#
#
# Mechanical properties :
#
#
# Convention : Reuss Voigt Hill
#
# Bulk Modulus (GPa) = 42.39418 98.57980 70.48699
# Shear Modulus (GPa) = 42.07094 33.88172 37.97633
#
# Velocity S-wave (km/s) = 4.40759 3.95542 4.18761
# Velocity P-wave (km/s) = 6.74378 8.14746 7.47863
#
# Compressibility (1/GPa) = 0.02358814
#
# Stress axis : x y z
#
# Youngs Moduli (GPa) = 159.96377 55.65752 171.80516
#
# Poissons Ratio (x) = -0.04323 0.62739
# Poissons Ratio (y) = -0.12425 0.06020
# Poissons Ratio (z) = 0.58415 0.01950
#
# Static dielectric constant tensor:
#      x y z
#    x 1.729150 0.000000 0.012180 
#    y 0.000000 1.818430 0.000000 
#    z 0.012180 0.000000 1.753080 
# 
# From -- ./inp_files/27208.got.cif
#   From: 2010.05.17/outbox.cif.g08.bks.cpg/sg10_14_cif.got.tgz:27208.got - 2010.06.03 11:33:40.
