data_PCOD9146479
_publ_section_title
;
Structure prediction by ZEFSAII (Michael W. Deem and Ramdas Pophale) SiO2 
 PCOD9146479
Probable space group: P 2/M
;
_chemical_formula_sum "Si O2"
_cell_formula_units_Z 28
_cell_length_a 13.281958
_cell_length_b 9.546140
_cell_length_c 11.920024
_cell_angle_alpha 90.000000
_cell_angle_beta 73.768496
_cell_angle_gamma 90.000000
_cell_volume 1451.114417
_symmetry_space_group_name_H-M "P 2/M"
_symmetry_group_IT_number 10
_symmetry_cell_setting 'monoclinic'
loop_
_space_group_symop_operation_xyz
x,y,z
-x,y,-z
-x,-y,-z
x,-y,z
loop_
_atom_site_type_symbol
_atom_site_label
_atom_site_fract_x
_atom_site_fract_y
_atom_site_fract_z
Si Si1 0.889147 0.661340 0.243048
Si Si2 0.060008 0.150242 0.100344
Si Si3 0.636494 0.668438 0.675286
Si Si4 0.392433 0.658462 0.070937
Si Si5 0.736077 0.165227 0.447642
Si Si6 0.430530 0.842280 0.695258
Si Si7 0.254812 0.746644 0.918606
O O1 0.892449 0.500000 0.276610
O O2 0.828390 0.759466 0.349717
O O3 0.820858 0.672647 0.148708
O O4 0.004238 0.724663 0.183744
O O5 0.042490 0.000000 0.162558
O O6 0.179090 0.167417 0.024756
O O7 0.000000 0.146483 0.000000
O O8 0.644429 0.500000 0.656057
O O9 0.657130 0.711774 0.798382
O O10 0.712218 0.750731 0.567839
O O11 0.518873 0.725753 0.686758
O O12 0.421807 0.500000 0.095358
O O13 0.500000 0.733028 0.000000
O O14 0.319250 0.654594 0.986017
O O15 0.631907 0.176901 0.401676
O O16 0.756077 0.000000 0.457337
O O17 0.340379 0.829258 0.818411
O O18 0.475966 0.000000 0.683419
#
# Coordination Sequence:
#
# PCOD9146479 Si02
#       7
#     4   4   4   4   4   4   4
#     4  10  20  33  56  87 111 136 178 227 273 325
#     4   9  18  33  53  79 113 146 176 217 275 330
#     4  11  22  35  53  76 105 143 186 225 264 316
#     4  10  20  35  52  75 112 151 182 219 270 315
#     4  10  21  37  55  75 105 142 178 223 279 325
#     4  10  20  34  52  76 107 142 180 224 272 320
#     4  10  19  33  55  80 112 147 184 220 264 320
#
# _framework density 19.295515999999999
#
# number of rings (size 3 to 8) (size 9 to 14) (size 15 to 20)
#    0.000    2.000    1.429    2.571    0.000   11.143 
#    0.000    3.571    0.000    0.857    0.000    5.000 
#    0.000    0.000    0.000    0.000    0.000    0.000 
#
# Total GULP energy -156020.063855 kJ/mol
# GULP energy per Si atom -5572.145138 kJ/mol
# Density = 1.925160 g / cm^3
# Si number density = 19.295516 Si / 1000 Ang^3
#
#
#
# Elastic Constant Matrix: (Units=GPa)
#
#
# Indices 1 2 3 4 5 6 
#
# 1 23.4549 12.4351 20.2128 0.0000 -15.1008 0.0000
# 2 12.4351 117.9993 48.1099 0.0000 -11.1953 0.0000
# 3 20.2128 48.1099 134.3244 0.0000 -6.2589 0.0000
# 4 0.0000 0.0000 0.0000 14.0462 0.0000 -6.4346
# 5 -15.1008 -11.1953 -6.2589 0.0000 23.4854 0.0000
# 6 0.0000 0.0000 0.0000 -6.4346 0.0000 8.0240
#
#
#
# Elastic Compliance Matrix: (Units=1/GPa)
#
#
# Indices 1 2 3 4 5 6 
#
# 1 0.084969 0.000236 -0.010449 0.000000 0.051961 0.000000
# 2 0.000236 0.010277 -0.003525 0.000000 0.004111 0.000000
# 3 -0.010449 -0.003525 0.010012 0.000000 -0.005731 0.000000
# 4 0.000000 0.000000 0.000000 0.112534 0.000000 0.090243
# 5 0.051961 0.004111 -0.005731 0.000000 0.076423 0.000000
# 6 0.000000 0.000000 0.000000 0.090243 0.000000 0.196993
#
#
# Mechanical properties :
#
#
# Convention : Reuss Voigt Hill
#
# Bulk Modulus (GPa) = 12.85646 48.58825 30.72236
# Shear Modulus (GPa) = 9.18087 22.11250 15.64668
#
# Velocity S-wave (km/s) = 2.18366 3.38892 2.85072
# Velocity P-wave (km/s) = 3.61043 6.36780 5.17610
#
# Compressibility (1/GPa) = 0.07778190
#
# Stress axis : x y z
#
# Youngs Moduli (GPa) = 11.76906 97.30554 99.87573
#
# Poissons Ratio (x) = -0.02296 1.04362
# Poissons Ratio (y) = -0.00278 0.35204
# Poissons Ratio (z) = 0.12298 0.34298
#
# Static dielectric constant tensor:
#      x y z
#    x 1.677920 0.000000 -0.025440 
#    y 0.000000 1.683880 0.000000 
#    z -0.025440 0.000000 1.701770 
# 
# From -- ./inp_files/49200.got.cif
#   From: 2010.05.17/outbox.cif.g08.bks.cpg/sg10_25_cif.got.tgz:49200.got - 2010.06.03 11:33:40.
