data_PCOD9146890
_publ_section_title
;
Structure prediction by ZEFSAII (Michael W. Deem and Ramdas Pophale) SiO2 
 PCOD9146890
Probable space group: P 2/M
;
_chemical_formula_sum "Si O2"
_cell_formula_units_Z 30
_cell_length_a 5.461709
_cell_length_b 15.380674
_cell_length_c 19.306318
_cell_angle_alpha 90.000000
_cell_angle_beta 65.571714
_cell_angle_gamma 90.000000
_cell_volume 1476.636511
_symmetry_space_group_name_H-M "P 2/M"
_symmetry_group_IT_number 10
_symmetry_cell_setting 'monoclinic'
loop_
_space_group_symop_operation_xyz
x,y,z
-x,y,-z
-x,-y,-z
x,-y,z
loop_
_atom_site_type_symbol
_atom_site_label
_atom_site_fract_x
_atom_site_fract_y
_atom_site_fract_z
Si Si1 0.087905 0.910031 0.068956
Si Si2 0.905336 0.294922 0.237911
Si Si3 0.594606 0.832718 0.184454
Si Si4 0.250514 0.600393 0.623839
Si Si5 0.194905 0.697545 0.415914
Si Si6 0.100902 0.153738 0.326601
Si Si7 0.172878 0.000000 0.553191
Si Si8 0.377410 0.738703 0.080543
O O1 0.235173 0.820328 0.061347
O O2 0.835615 0.899715 0.149603
O O3 0.235158 0.000000 0.069975
O O4 0.000000 0.915244 0.000000
O O5 0.671808 0.251137 0.220970
O O6 0.834073 0.381814 0.286691
O O7 0.953814 0.222652 0.292744
O O8 0.158156 0.305350 0.156766
O O9 0.335179 0.878698 0.247472
O O10 0.566998 0.788213 0.112682
O O11 0.300927 0.500000 0.602761
O O12 0.532650 0.653683 0.587064
O O13 0.997678 0.633857 0.607469
O O14 0.241800 0.785158 0.367479
O O15 0.000000 0.724104 0.500000
O O16 0.921357 0.083072 0.388210
O O17 0.500000 0.000000 0.500000
O O18 0.000000 0.000000 0.500000
O O19 0.500000 0.688401 0.000000
#
# Coordination Sequence:
#
# PCOD9146890 Si02
#       8
#     4   4   4   4   4   4   2   4
#     4  10  20  31  48  79 116 152 193 253 311 363
#     4   9  21  38  61  86 119 161 205 242 313 373
#     4  10  19  37  56  77 111 157 205 240 306 363
#     4  11  23  41  65  96 129 159 200 253 310 386
#     4  11  23  40  66  93 126 165 198 250 322 380
#     4  10  23  42  62  85 122 163 211 263 303 367
#     4  12  30  46  68  94 122 165 224 273 310 356
#     4  10  19  34  54  81 113 154 205 250 296 365
#
# _framework density 20.316444000000001
#
# number of rings (size 3 to 8) (size 9 to 14) (size 15 to 20)
#    0.000    1.733    2.667    1.200    2.800    4.533 
#    9.600    0.000    0.000    0.400    0.000    0.933 
#    0.000    0.000    0.000    0.000    0.000    0.000 
#
# Total GULP energy -167002.930358 kJ/mol
# GULP energy per Si atom -5566.764345 kJ/mol
# Density = 2.027020 g / cm^3
# Si number density = 20.316444 Si / 1000 Ang^3
#
#
#
# Elastic Constant Matrix: (Units=GPa)
#
#
# Indices 1 2 3 4 5 6 
#
# 1 61.6439 -0.2290 15.9083 0.0000 -8.1739 0.0000
# 2 -0.2290 35.5661 4.7565 0.0000 -6.2922 0.0000
# 3 15.9083 4.7565 125.9881 0.0000 -14.3729 0.0000
# 4 0.0000 0.0000 0.0000 12.4217 0.0000 -2.6580
# 5 -8.1739 -6.2922 -14.3729 0.0000 43.0291 0.0000
# 6 0.0000 0.0000 0.0000 -2.6580 0.0000 36.2562
#
#
#
# Elastic Compliance Matrix: (Units=1/GPa)
#
#
# Indices 1 2 3 4 5 6 
#
# 1 0.017073 0.000846 -0.001875 0.000000 0.002740 0.000000
# 2 0.000846 0.028954 -0.000726 0.000000 0.004152 0.000000
# 3 -0.001875 -0.000726 0.008471 0.000000 0.002367 0.000000
# 4 0.000000 0.000000 0.000000 0.081788 0.000000 0.005996
# 5 0.002740 0.004152 0.002367 0.000000 0.025159 0.000000
# 6 0.000000 0.000000 0.000000 0.005996 0.000000 0.028021
#
#
# Mechanical properties :
#
#
# Convention : Reuss Voigt Hill
#
# Bulk Modulus (GPa) = 19.61305 29.34108 24.47707
# Shear Modulus (GPa) = 23.81270 31.85889 27.83580
#
# Velocity S-wave (km/s) = 3.42729 3.96426 3.70552
# Velocity P-wave (km/s) = 5.03354 5.95208 5.51198
#
# Compressibility (1/GPa) = 0.05098645
#
# Stress axis : x y z
#
# Youngs Moduli (GPa) = 58.57336 34.53783 118.04293
#
# Poissons Ratio (x) = -0.02920 0.22133
# Poissons Ratio (y) = -0.04952 0.08572
# Poissons Ratio (z) = 0.10983 0.02508
#
# Static dielectric constant tensor:
#      x y z
#    x 1.868720 0.000000 0.002500 
#    y 0.000000 1.716220 0.000000 
#    z 0.002500 0.000000 1.835870 
# 
# From -- ./inp_files/81348.got.cif
#   From: 2010.05.17/outbox.cif.g08.bks.cpg/sg10_41_cif.got.tgz:81348.got - 2010.06.03 11:33:40.
