data_PCOD9146916
_publ_section_title
;
Structure prediction by ZEFSAII (Michael W. Deem and Ramdas Pophale) SiO2 
 PCOD9146916
Probable space group: P 2/M
;
_chemical_formula_sum "Si O2"
_cell_formula_units_Z 28
_cell_length_a 17.430265
_cell_length_b 7.739321
_cell_length_c 20.372379
_cell_angle_alpha 90.000000
_cell_angle_beta 144.728987
_cell_angle_gamma 90.000000
_cell_volume 1586.934347
_symmetry_space_group_name_H-M "P 2/M"
_symmetry_group_IT_number 10
_symmetry_cell_setting 'monoclinic'
loop_
_space_group_symop_operation_xyz
x,y,z
-x,y,-z
-x,-y,-z
x,-y,z
loop_
_atom_site_type_symbol
_atom_site_label
_atom_site_fract_x
_atom_site_fract_y
_atom_site_fract_z
Si Si1 0.341838 0.805862 0.657764
Si Si2 0.608478 0.702129 0.778472
Si Si3 0.092810 0.704435 0.006235
Si Si4 0.221066 0.500000 0.649011
Si Si5 0.974906 0.500000 0.374344
Si Si6 0.882035 0.791781 0.754885
Si Si7 0.391207 0.790349 0.370284
Si Si8 0.108948 0.205008 0.391049
O O1 0.492399 0.790112 0.738552
O O2 0.304762 0.667613 0.687038
O O3 0.245207 0.771429 0.527544
O O4 0.313179 0.000000 0.660105
O O5 0.607019 0.500000 0.795494
O O6 0.578391 0.720442 0.680254
O O7 0.757677 0.774710 0.891564
O O8 0.107920 0.500000 0.030273
O O9 0.013023 0.728732 0.883348
O O10 0.000000 0.777344 0.000000
O O11 0.161128 0.500000 0.679922
O O12 0.093728 0.500000 0.511148
O O13 0.001020 0.329360 0.349284
O O14 0.753264 0.731759 0.705562
O O15 0.873223 0.744027 0.672408
O O16 0.881324 0.000000 0.756684
O O17 0.500000 0.740064 0.500000
O O18 0.391381 0.000000 0.366410
O O19 0.076029 0.000000 0.371120
#
# Coordination Sequence:
#
# PCOD9146916 Si02
#       8
#     4   4   4   2   2   4   4   4
#     4  10  19  34  55  77 111 145 170 217 265 307
#     4  11  21  34  50  72 102 135 181 227 260 311
#     4  10  21  36  50  68  98 136 179 229 270 305
#     4   9  18  34  52  84 113 134 182 202 249 333
#     4   9  18  32  56  80 111 148 162 210 261 313
#     4  10  20  33  50  72 101 136 180 224 258 310
#     4  10  20  33  48  69  99 137 178 217 263 313
#     4   9  19  34  52  81 111 139 177 214 259 316
#
# _framework density 17.644081
#
# number of rings (size 3 to 8) (size 9 to 14) (size 15 to 20)
#    0.000    2.143    2.143    1.286    1.000    4.571 
#    0.000    2.857    0.000    0.000    0.000    2.000 
#    0.000    3.429    0.000    0.000    0.000    0.000 
#
# Total GULP energy -156250.231364 kJ/mol
# GULP energy per Si atom -5580.365406 kJ/mol
# Density = 1.760392 g / cm^3
# Si number density = 17.644081 Si / 1000 Ang^3
#
#
#
# Elastic Constant Matrix: (Units=GPa)
#
#
# Indices 1 2 3 4 5 6 
#
# 1 106.9981 36.3448 12.9790 0.0000 22.5811 0.0000
# 2 36.3448 56.8292 9.0329 0.0000 8.2764 0.0000
# 3 12.9790 9.0329 56.2944 0.0000 22.2256 0.0000
# 4 0.0000 0.0000 0.0000 19.6500 0.0000 5.1617
# 5 22.5811 8.2764 22.2256 0.0000 17.1813 0.0000
# 6 0.0000 0.0000 0.0000 5.1617 0.0000 40.3844
#
#
#
# Elastic Compliance Matrix: (Units=1/GPa)
#
#
# Indices 1 2 3 4 5 6 
#
# 1 0.017733 -0.008231 0.009950 0.000000 -0.032213 0.000000
# 2 -0.008231 0.022782 -0.003467 0.000000 0.004329 0.000000
# 3 0.009950 -0.003467 0.041959 0.000000 -0.065685 0.000000
# 4 0.000000 0.000000 0.000000 0.052658 0.000000 -0.006730
# 5 -0.032213 0.004329 -0.065685 0.000000 0.183424 0.000000
# 6 0.000000 0.000000 0.000000 -0.006730 0.000000 0.025622
#
#
# Mechanical properties :
#
#
# Convention : Reuss Voigt Hill
#
# Bulk Modulus (GPa) = 12.66173 37.42615 25.04394
# Shear Modulus (GPa) = 13.36895 26.22749 19.79822
#
# Velocity S-wave (km/s) = 2.75562 3.85967 3.35339
# Velocity P-wave (km/s) = 4.16130 6.41252 5.40541
#
# Compressibility (1/GPa) = 0.07897813
#
# Stress axis : x y z
#
# Youngs Moduli (GPa) = 56.39107 43.89521 23.83269
#
# Poissons Ratio (x) = 0.36132 -0.23714
# Poissons Ratio (y) = 0.46418 0.08262
# Poissons Ratio (z) = -0.56111 0.15218
#
# Static dielectric constant tensor:
#      x y z
#    x 1.577170 0.000000 0.016850 
#    y 0.000000 1.637790 0.000000 
#    z 0.016850 0.000000 1.592400 
# 
# From -- ./inp_files/77763.got.cif
#   From: 2010.05.17/outbox.cif.g08.bks.cpg/sg10_39_cif.got.tgz:77763.got - 2010.06.03 11:33:40.
