data_PCOD9146710
_publ_section_title
;
Structure prediction by ZEFSAII (Michael W. Deem and Ramdas Pophale) SiO2 
 PCOD9146710
Probable space group: P 2/M
;
_chemical_formula_sum "Si O2"
_cell_formula_units_Z 28
_cell_length_a 13.648796
_cell_length_b 8.804300
_cell_length_c 20.194978
_cell_angle_alpha 90.000000
_cell_angle_beta 35.672595
_cell_angle_gamma 90.000000
_cell_volume 1415.190369
_symmetry_space_group_name_H-M "P 2/M"
_symmetry_group_IT_number 10
_symmetry_cell_setting 'monoclinic'
loop_
_space_group_symop_operation_xyz
x,y,z
-x,y,-z
-x,-y,-z
x,-y,z
loop_
_atom_site_type_symbol
_atom_site_label
_atom_site_fract_x
_atom_site_fract_y
_atom_site_fract_z
Si Si1 0.705682 0.182447 0.061702
Si Si2 0.149048 0.681148 0.468253
Si Si3 0.499127 0.818514 0.297589
Si Si4 0.562168 0.320956 0.890407
Si Si5 0.061996 0.681790 0.286889
Si Si6 0.603618 0.682025 0.377937
Si Si7 0.028833 0.817716 0.804743
O O1 0.648036 0.231901 0.166290
O O2 0.560994 0.233399 0.090468
O O3 0.710783 0.000000 0.059622
O O4 0.884656 0.235034 0.935241
O O5 0.178021 0.500000 0.444153
O O6 0.322037 0.768477 0.363430
O O7 0.000000 0.724156 0.500000
O O8 0.080047 0.708092 0.580255
O O9 0.517907 0.742388 0.358496
O O10 0.504849 0.000000 0.301368
O O11 0.553398 0.500000 0.878692
O O12 0.757048 0.274325 0.782292
O O13 0.500000 0.302297 0.000000
O O14 0.069270 0.500000 0.269597
O O15 0.027247 0.766833 0.237801
O O16 0.500000 0.729991 0.500000
O O17 0.607783 0.500000 0.374589
O O18 0.791385 0.746269 0.278827
O O19 0.040753 0.000000 0.801104
#
# Coordination Sequence:
#
# PCOD9146710 Si02
#       7
#     4   4   4   4   4   4   4
#     4  10  23  40  58  86 124 162 196 240 297 353
#     4  10  21  38  60  86 120 160 199 242 296 351
#     4  11  24  42  63  88 121 158 199 245 294 350
#     4  10  19  33  57  87 119 159 204 245 287 344
#     4  10  20  35  56  86 121 155 197 249 298 346
#     4  11  25  45  67  90 117 150 192 244 301 356
#     4  11  23  39  61  88 118 154 196 241 294 353
#
# _framework density 19.785323999999999
#
# number of rings (size 3 to 8) (size 9 to 14) (size 15 to 20)
#    0.000    1.571    1.429    3.000    0.000    9.714 
#    0.000    2.857    0.000    0.000    0.000    0.000 
#    0.000    0.000    0.000    0.000    0.000    0.000 
#
# Total GULP energy -156534.373332 kJ/mol
# GULP energy per Si atom -5590.513333 kJ/mol
# Density = 1.974029 g / cm^3
# Si number density = 19.785324 Si / 1000 Ang^3
#
#
#
# Elastic Constant Matrix: (Units=GPa)
#
#
# Indices 1 2 3 4 5 6 
#
# 1 92.1844 23.9448 55.0704 0.0000 1.2902 0.0000
# 2 23.9448 27.4284 42.2570 0.0000 3.0052 0.0000
# 3 55.0704 42.2570 128.1720 0.0000 -4.1390 0.0000
# 4 0.0000 0.0000 0.0000 25.2797 0.0000 -6.8082
# 5 1.2902 3.0052 -4.1390 0.0000 31.6079 0.0000
# 6 0.0000 0.0000 0.0000 -6.8082 0.0000 35.3065
#
#
#
# Elastic Compliance Matrix: (Units=1/GPa)
#
#
# Indices 1 2 3 4 5 6 
#
# 1 0.015153 -0.006304 -0.004452 0.000000 -0.000602 0.000000
# 2 -0.006304 0.080202 -0.024073 0.000000 -0.010520 0.000000
# 3 -0.004452 -0.024073 0.017806 0.000000 0.004802 0.000000
# 4 0.000000 0.000000 0.000000 0.041724 0.000000 0.008046
# 5 -0.000602 -0.010520 0.004802 0.000000 0.033291 0.000000
# 6 0.000000 0.000000 0.000000 0.008046 0.000000 0.029875
#
#
# Mechanical properties :
#
#
# Convention : Reuss Voigt Hill
#
# Bulk Modulus (GPa) = 22.98636 54.48103 38.73369
# Shear Modulus (GPa) = 16.54473 26.87297 21.70885
#
# Velocity S-wave (km/s) = 2.89487 3.68941 3.31602
# Velocity P-wave (km/s) = 4.77669 6.76350 5.85498
#
# Compressibility (1/GPa) = 0.04350406
#
# Stress axis : x y z
#
# Youngs Moduli (GPa) = 65.99268 12.46852 56.15961
#
# Poissons Ratio (x) = 0.07860 0.25001
# Poissons Ratio (y) = 0.41603 1.35192
# Poissons Ratio (z) = 0.29378 0.30015
#
# Static dielectric constant tensor:
#      x y z
#    x 1.668670 0.000000 0.008550 
#    y 0.000000 1.667370 0.000000 
#    z 0.008550 0.000000 1.714680 
# 
# From -- ./inp_files/50085.got.cif
#   From: 2010.05.17/outbox.cif.g08.bks.cpg/sg10_26_cif.got.tgz:50085.got - 2010.06.03 11:33:40.
