data_PCOD9146996
_publ_section_title
;
Structure prediction by ZEFSAII (Michael W. Deem and Ramdas Pophale) SiO2 
 PCOD9146996
Probable space group: P 2/M
;
_chemical_formula_sum "Si O2"
_cell_formula_units_Z 32
_cell_length_a 12.400765
_cell_length_b 7.705867
_cell_length_c 32.272924
_cell_angle_alpha 90.000000
_cell_angle_beta 30.002925
_cell_angle_gamma 90.000000
_cell_volume 1542.114800
_symmetry_space_group_name_H-M "P 2/M"
_symmetry_group_IT_number 10
_symmetry_cell_setting 'monoclinic'
loop_
_space_group_symop_operation_xyz
x,y,z
-x,y,-z
-x,-y,-z
x,-y,z
loop_
_atom_site_type_symbol
_atom_site_label
_atom_site_fract_x
_atom_site_fract_y
_atom_site_fract_z
Si Si1 0.574829 0.300230 0.357051
Si Si2 0.182649 0.290323 0.256452
Si Si3 0.197009 0.295782 0.075996
Si Si4 0.671397 0.793826 0.704603
Si Si5 0.298256 0.712421 0.594810
Si Si6 0.279506 0.800693 0.781450
Si Si7 0.641784 0.712568 0.890302
Si Si8 0.915383 0.208495 0.481655
O O1 0.645708 0.500000 0.328678
O O2 0.675690 0.231723 0.366096
O O3 0.638970 0.209603 0.293076
O O4 0.316953 0.291366 0.447826
O O5 0.181271 0.500000 0.256449
O O6 0.326000 0.233636 0.247420
O O7 0.269661 0.227816 0.183196
O O8 0.934384 0.232687 0.344592
O O9 0.237368 0.500000 0.065869
O O10 0.219160 0.229861 0.115959
O O11 0.960005 0.273197 0.137162
O O12 0.397177 0.230043 0.982008
O O13 0.464942 0.721035 0.748903
O O14 0.897251 0.725981 0.611051
O O15 0.675894 0.000000 0.694118
O O16 0.500000 0.770701 0.500000
O O17 0.303919 0.500000 0.593278
O O18 0.256961 0.000000 0.801147
O O19 0.648755 0.500000 0.886153
O O20 0.000000 0.240038 0.500000
O O21 0.887084 0.000000 0.486449
#
# Coordination Sequence:
#
# PCOD9146996 Si02
#       8
#     4   4   4   4   4   4   4   4
#     4  11  21  33  55  83 106 134 179 226 265 317
#     4  10  19  34  56  78 105 142 180 215 263 320
#     4   9  17  34  60  85 107 134 174 219 264 321
#     4  10  22  38  53  71 104 147 183 217 265 317
#     4   9  18  32  50  77 112 139 164 213 271 311
#     4  11  22  37  53  75 109 144 174 217 275 319
#     4   8  16  33  58  85 111 138 168 215 276 322
#     4  10  19  36  54  70 102 147 181 218 270 312
#
# _framework density 20.750726
#
# number of rings (size 3 to 8) (size 9 to 14) (size 15 to 20)
#    0.000    2.250    1.250    3.000    0.000    4.750 
#    0.000    5.625    0.000    7.125    0.000    0.000 
#    0.000    0.000    0.000    0.000    0.000    0.000 
#
# Total GULP energy -178690.494631 kJ/mol
# GULP energy per Si atom -5584.077957 kJ/mol
# Density = 2.070350 g / cm^3
# Si number density = 20.750726 Si / 1000 Ang^3
#
#
#
# Elastic Constant Matrix: (Units=GPa)
#
#
# Indices 1 2 3 4 5 6 
#
# 1 112.3463 -5.8518 46.4904 0.0000 -7.5366 0.0000
# 2 -5.8518 26.6984 -4.0279 0.0000 0.3024 0.0000
# 3 46.4904 -4.0279 103.4726 0.0000 -3.3168 0.0000
# 4 0.0000 0.0000 0.0000 -1.3039 0.0000 -8.7052
# 5 -7.5366 0.3024 -3.3168 0.0000 33.5651 0.0000
# 6 0.0000 0.0000 0.0000 -8.7052 0.0000 18.1848
#
#
#
# Elastic Compliance Matrix: (Units=1/GPa)
#
#
# Indices 1 2 3 4 5 6 
#
# 1 0.011141 0.001684 -0.004876 0.000000 0.002005 0.000000
# 2 0.001684 0.037932 0.000724 0.000000 0.000108 0.000000
# 3 -0.004876 0.000724 0.011886 0.000000 0.000073 0.000000
# 4 0.000000 0.000000 0.000000 -0.182776 0.000000 -0.087496
# 5 0.002005 0.000108 0.000073 0.000000 0.030249 0.000000
# 6 0.000000 0.000000 0.000000 -0.087496 0.000000 0.013106
#
#
# Mechanical properties :
#
#
# Convention : Reuss Voigt Hill
#
# Bulk Modulus (GPa) = 17.85024 35.08208 26.46616
# Shear Modulus (GPa) = -91.15593 23.81630 -33.66981
#
# Velocity S-wave (km/s) = -6.63509 3.39150 -4.03250
# Velocity P-wave (km/s) = 7.07660 5.68150 2.98319
#
# Compressibility (1/GPa) = 0.05602164
#
# Stress axis : x y z
#
# Youngs Moduli (GPa) = 89.75939 26.36270 84.13518
#
# Poissons Ratio (x) = -0.04438 0.41023
# Poissons Ratio (y) = -0.15112 -0.06088
# Poissons Ratio (z) = 0.43765 -0.01908
#
# Static dielectric constant tensor:
#      x y z
#    x 1.735120 0.000000 -0.009470 
#    y 0.000000 1.771810 0.000000 
#    z -0.009470 0.000000 1.729420 
# 
# From -- ./inp_files/94992.got.cif
#   From: 2010.05.17/outbox.cif.g08.bks.cpg/sg10_48_cif.got.tgz:94992.got - 2010.06.03 11:33:40.
