data_PCOD9146043
_publ_section_title
;
Structure prediction by ZEFSAII (Michael W. Deem and Ramdas Pophale) SiO2 
 PCOD9146043
Probable space group: P 2/M
;
_chemical_formula_sum "Si O2"
_cell_formula_units_Z 30
_cell_length_a 11.385772
_cell_length_b 14.803684
_cell_length_c 17.056334
_cell_angle_alpha 90.000000
_cell_angle_beta 32.585193
_cell_angle_gamma 90.000000
_cell_volume 1548.269190
_symmetry_space_group_name_H-M "P 2/M"
_symmetry_group_IT_number 10
_symmetry_cell_setting 'monoclinic'
loop_
_space_group_symop_operation_xyz
x,y,z
-x,y,-z
-x,-y,-z
x,-y,z
loop_
_atom_site_type_symbol
_atom_site_label
_atom_site_fract_x
_atom_site_fract_y
_atom_site_fract_z
Si Si1 0.835133 0.340002 0.769551
Si Si2 0.710217 0.898638 0.027090
Si Si3 0.506286 0.105286 0.315780
Si Si4 0.054557 0.600887 0.121235
Si Si5 0.544711 0.397101 0.787855
Si Si6 0.820354 0.745095 0.534929
Si Si7 0.095724 0.777185 0.858063
Si Si8 0.500000 0.814559 0.000000
O O1 0.893380 0.392330 0.815701
O O2 0.676123 0.388734 0.796352
O O3 0.703253 0.250656 0.868767
O O4 0.052367 0.311602 0.601887
O O5 0.590837 0.893809 0.177999
O O6 0.547683 0.873262 0.049376
O O7 0.794736 0.000000 0.970359
O O8 0.909595 0.829718 0.915146
O O9 0.289064 0.165213 0.437695
O O10 0.689468 0.161458 0.259777
O O11 0.485755 0.000000 0.350749
O O12 0.982533 0.500000 0.141497
O O13 0.888423 0.677858 0.187146
O O14 0.289048 0.618367 0.947674
O O15 0.575382 0.500000 0.741388
O O16 0.642301 0.320061 0.676714
O O17 0.000000 0.768168 0.500000
O O18 0.000000 0.769428 0.000000
#
# Coordination Sequence:
#
# PCOD9146043 Si02
#       8
#     4   4   4   4   4   4   4   2
#     4  11  20  34  56  82 122 157 194 236 294 346
#     4  10  19  32  56  88 115 150 195 242 294 344
#     4  10  21  39  62  84 111 154 201 242 290 350
#     4  11  21  35  59  88 116 153 197 244 293 343
#     4  10  19  34  57  88 123 158 196 237 286 345
#     4  10  22  37  58  88 119 157 192 240 293 346
#     4  10  19  36  59  83 118 152 196 248 287 343
#     4  12  19  34  57  82 124 156 185 246 293 354
#
# _framework density 19.376476
#
# number of rings (size 3 to 8) (size 9 to 14) (size 15 to 20)
#    0.000    1.600    2.667    4.200    0.000    6.133 
#    0.000    2.667    0.000    1.600    0.000    0.000 
#    0.000    0.000    0.000    0.000    0.000    0.000 
#
# Total GULP energy -167562.042103 kJ/mol
# GULP energy per Si atom -5585.401403 kJ/mol
# Density = 1.933237 g / cm^3
# Si number density = 19.376476 Si / 1000 Ang^3
#
#
#
# Elastic Constant Matrix: (Units=GPa)
#
#
# Indices 1 2 3 4 5 6 
#
# 1 54.3612 36.0715 3.3479 0.0000 -7.2175 0.0000
# 2 36.0715 132.5665 19.3906 0.0000 -12.1459 0.0000
# 3 3.3479 19.3906 35.4765 0.0000 -1.2953 0.0000
# 4 0.0000 0.0000 0.0000 -114.6733 0.0000 163.0883
# 5 -7.2175 -12.1459 -1.2953 0.0000 16.0922 0.0000
# 6 0.0000 0.0000 0.0000 163.0883 0.0000 -179.0250
#
#
#
# Elastic Compliance Matrix: (Units=1/GPa)
#
#
# Indices 1 2 3 4 5 6 
#
# 1 0.023028 -0.005905 0.001272 0.000000 0.005974 0.000000
# 2 -0.005905 0.010300 -0.004900 0.000000 0.004732 0.000000
# 3 0.001272 -0.004900 0.030722 0.000000 -0.000655 0.000000
# 4 0.000000 0.000000 0.000000 0.029501 0.000000 0.026875
# 5 0.005974 0.004732 -0.000655 0.000000 0.068340 0.000000
# 6 0.000000 0.000000 0.000000 0.026875 0.000000 0.018897
#
#
# Mechanical properties :
#
#
# Convention : Reuss Voigt Hill
#
# Bulk Modulus (GPa) = 22.22918 37.78045 30.00481
# Shear Modulus (GPa) = 23.27222 -44.61493 -10.67136
#
# Velocity S-wave (km/s) = 3.46938 -4.80367 -2.34933
# Velocity P-wave (km/s) = 5.24843 3.35062 2.85652
#
# Compressibility (1/GPa) = 0.04498592
#
# Stress axis : x y z
#
# Youngs Moduli (GPa) = 43.42455 97.08425 32.55011
#
# Poissons Ratio (x) = 0.57327 -0.04142
# Poissons Ratio (y) = 0.25641 0.15949
# Poissons Ratio (z) = -0.05525 0.47571
#
# Static dielectric constant tensor:
#      x y z
#    x 1.687250 0.000000 0.003070 
#    y 0.000000 1.693350 0.000000 
#    z 0.003070 0.000000 1.654560 
# 
# From -- ./inp_files/76893.got.cif
#   From: 2010.05.17/outbox.cif.g08.bks.cpg/sg10_39_cif.got.tgz:76893.got - 2010.06.03 11:33:40.
