data_PCOD9146442
_publ_section_title
;
Structure prediction by ZEFSAII (Michael W. Deem and Ramdas Pophale) SiO2 
 PCOD9146442
Probable space group: P 2/M
;
_chemical_formula_sum "Si O2"
_cell_formula_units_Z 32
_cell_length_a 33.837195
_cell_length_b 9.047416
_cell_length_c 12.666440
_cell_angle_alpha 90.000000
_cell_angle_beta 151.267959
_cell_angle_gamma 90.000000
_cell_volume 1864.061347
_symmetry_space_group_name_H-M "P 2/M"
_symmetry_group_IT_number 10
_symmetry_cell_setting 'monoclinic'
loop_
_space_group_symop_operation_xyz
x,y,z
-x,y,-z
-x,-y,-z
x,-y,z
loop_
_atom_site_type_symbol
_atom_site_label
_atom_site_fract_x
_atom_site_fract_y
_atom_site_fract_z
Si Si1 0.952619 0.325446 0.279509
Si Si2 0.220938 0.822593 0.167954
Si Si3 0.830442 0.675892 0.503420
Si Si4 0.179238 0.825166 0.307069
Si Si5 0.648338 0.677046 0.679197
Si Si6 0.481251 0.169075 0.330391
Si Si7 0.008305 0.824246 0.201917
Si Si8 0.316368 0.323119 0.994702
O O1 0.940932 0.500000 0.231956
O O2 0.004487 0.253163 0.306761
O O3 0.000000 0.307878 0.500000
O O4 0.864712 0.245162 0.074251
O O5 0.219342 0.000000 0.153377
O O6 0.222720 0.789039 0.297716
O O7 0.294323 0.752674 0.273253
O O8 0.841964 0.500000 0.532086
O O9 0.794685 0.731798 0.530888
O O10 0.917093 0.755859 0.688007
O O11 0.768242 0.713350 0.262390
O O12 0.189739 0.000000 0.352186
O O13 0.081721 0.798635 0.059044
O O14 0.649988 0.500000 0.672822
O O15 0.555473 0.737824 0.454686
O O16 0.680957 0.714776 0.874330
O O17 0.500000 0.167345 0.500000
O O18 0.481361 0.000000 0.292920
O O19 0.392198 0.243347 0.114681
O O20 0.018637 0.000000 0.236168
O O21 0.328650 0.500000 0.016730
#
# Coordination Sequence:
#
# PCOD9146442 Si02
#       8
#     4   4   4   4   4   4   4   4
#     4  10  21  35  51  72 104 140 173 214 263 312
#     4  10  21  36  54  77 104 135 177 220 257 307
#     4  11  22  34  53  79 106 136 176 222 262 310
#     4   9  20  38  54  71 101 138 177 222 267 307
#     4  10  19  33  55  79 108 142 172 206 256 314
#     4   9  17  31  52  78 106 136 172 210 251 306
#     4  10  21  36  53  74 101 137 179 220 264 311
#     4   9  20  35  50  76 111 140 167 207 261 312
#
# _framework density 17.166816000000001
#
# number of rings (size 3 to 8) (size 9 to 14) (size 15 to 20)
#    0.000    2.250    0.000    3.375    1.750    8.500 
#    0.000    0.000    0.000    0.750    0.000    5.250 
#    0.000    0.000    0.000    0.000    0.000    0.000 
#
# Total GULP energy -178562.577842 kJ/mol
# GULP energy per Si atom -5580.080558 kJ/mol
# Density = 1.712774 g / cm^3
# Si number density = 17.166816 Si / 1000 Ang^3
#
#
#
# Elastic Constant Matrix: (Units=GPa)
#
#
# Indices 1 2 3 4 5 6 
#
# 1 113.7784 51.0574 38.9165 0.0000 17.9489 0.0000
# 2 51.0574 59.3682 26.8130 0.0000 3.4369 0.0000
# 3 38.9165 26.8130 25.7831 0.0000 5.0043 0.0000
# 4 0.0000 0.0000 0.0000 16.2447 0.0000 2.7474
# 5 17.9489 3.4369 5.0043 0.0000 21.5053 0.0000
# 6 0.0000 0.0000 0.0000 2.7474 0.0000 32.8903
#
#
#
# Elastic Compliance Matrix: (Units=1/GPa)
#
#
# Indices 1 2 3 4 5 6 
#
# 1 0.021945 -0.008041 -0.022470 0.000000 -0.011802 0.000000
# 2 -0.008041 0.034863 -0.025491 0.000000 0.007071 0.000000
# 3 -0.022470 -0.025491 0.099263 0.000000 -0.000271 0.000000
# 4 0.000000 0.000000 0.000000 0.062441 0.000000 -0.005216
# 5 -0.011802 0.007071 -0.000271 0.000000 0.055283 0.000000
# 6 0.000000 0.000000 0.000000 -0.005216 0.000000 0.030840
#
#
# Mechanical properties :
#
#
# Convention : Reuss Voigt Hill
#
# Bulk Modulus (GPa) = 22.69309 48.05595 35.37452
# Shear Modulus (GPa) = 11.59214 19.60424 15.59819
#
# Velocity S-wave (km/s) = 2.60140 3.38299 3.01761
# Velocity P-wave (km/s) = 4.71921 6.58132 5.72646
#
# Compressibility (1/GPa) = 0.04406628
#
# Stress axis : x y z
#
# Youngs Moduli (GPa) = 45.56867 28.68383 10.07428
#
# Poissons Ratio (x) = 0.23065 0.22637
# Poissons Ratio (y) = 0.36643 0.25680
# Poissons Ratio (z) = 1.02393 0.73117
#
# Static dielectric constant tensor:
#      x y z
#    x 1.581530 0.000000 -0.004840 
#    y 0.000000 1.571920 0.000000 
#    z -0.004840 0.000000 1.564430 
# 
# From -- ./inp_files/58308.got.cif
#   From: 2010.05.17/outbox.cif.g08.bks.cpg/sg10_30_cif.got.tgz:58308.got - 2010.06.03 11:33:40.
