data_PCOD9146793
_publ_section_title
;
Structure prediction by ZEFSAII (Michael W. Deem and Ramdas Pophale) SiO2 
 PCOD9146793
Probable space group: P 2/M
;
_chemical_formula_sum "Si O2"
_cell_formula_units_Z 32
_cell_length_a 15.960533
_cell_length_b 21.449481
_cell_length_c 16.132100
_cell_angle_alpha 90.000000
_cell_angle_beta 162.145841
_cell_angle_gamma 90.000000
_cell_volume 1693.247312
_symmetry_space_group_name_H-M "P 2/M"
_symmetry_group_IT_number 10
_symmetry_cell_setting 'monoclinic'
loop_
_space_group_symop_operation_xyz
x,y,z
-x,y,-z
-x,-y,-z
x,-y,z
loop_
_atom_site_type_symbol
_atom_site_label
_atom_site_fract_x
_atom_site_fract_y
_atom_site_fract_z
Si Si1 0.102551 0.751946 0.003177
Si Si2 0.834352 0.800274 0.582493
Si Si3 0.779142 0.930295 0.599685
Si Si4 0.366958 0.740233 0.034291
Si Si5 0.154537 0.634896 0.946680
Si Si6 0.687184 0.428131 0.417587
Si Si7 0.701531 0.646264 0.257412
Si Si8 0.231688 0.111275 0.146829
O O1 0.900068 0.773939 0.737284
O O2 0.194417 0.683975 0.058677
O O3 0.000000 0.744149 0.000000
O O4 0.284134 0.814831 0.182094
O O5 0.760965 0.872930 0.519465
O O6 0.581805 0.764445 0.304609
O O7 0.113456 0.788060 0.792648
O O8 0.528066 0.920186 0.428261
O O9 0.761271 0.000000 0.549719
O O10 0.069326 0.919289 0.917488
O O11 0.558494 0.712822 0.143317
O O12 0.216640 0.678521 0.925931
O O13 0.861435 0.606453 0.652580
O O14 0.375350 0.580751 0.151418
O O15 0.764530 0.500000 0.482172
O O16 0.722724 0.392970 0.362665
O O17 0.000000 0.654301 0.500000
O O18 0.500000 0.615177 0.000000
O O19 0.000000 0.106444 0.000000
#
# Coordination Sequence:
#
# PCOD9146793 Si02
#       8
#     4   4   4   4   4   4   4   4
#     4   9  18  33  54  78  99 125 174 233 277 305
#     4  10  19  34  52  74 105 140 175 214 264 316
#     4  11  21  32  47  69  99 136 179 219 250 297
#     4  10  19  35  55  76 106 138 167 206 261 312
#     4  10  19  35  55  75  98 134 178 215 256 303
#     4  11  23  38  55  75 105 145 175 195 238 309
#     4  11  21  34  55  85 113 133 162 204 247 300
#     4  10  21  33  46  68  99 134 170 215 274 327
#
# _framework density 18.898598
#
# number of rings (size 3 to 8) (size 9 to 14) (size 15 to 20)
#    0.000    1.750    0.000    8.625    0.000    3.000 
#    0.000   10.625    0.000    2.250    0.000    0.000 
#    0.000   10.000    0.000    0.000    0.000    0.000 
#
# Total GULP energy -178219.943723 kJ/mol
# GULP energy per Si atom -5569.373241 kJ/mol
# Density = 1.885558 g / cm^3
# Si number density = 18.898598 Si / 1000 Ang^3
#
#
#
# Elastic Constant Matrix: (Units=GPa)
#
#
# Indices 1 2 3 4 5 6 
#
# 1 46.6852 37.1576 8.0254 0.0000 7.6653 0.0000
# 2 37.1576 110.7489 18.5717 0.0000 5.2758 0.0000
# 3 8.0254 18.5717 75.4218 0.0000 14.6993 0.0000
# 4 0.0000 0.0000 0.0000 15.1540 0.0000 3.9821
# 5 7.6653 5.2758 14.6993 0.0000 24.1980 0.0000
# 6 0.0000 0.0000 0.0000 3.9821 0.0000 8.3580
#
#
#
# Elastic Compliance Matrix: (Units=1/GPa)
#
#
# Indices 1 2 3 4 5 6 
#
# 1 0.030556 -0.010000 0.000763 0.000000 -0.007962 0.000000
# 2 -0.010000 0.012703 -0.002429 0.000000 0.001874 0.000000
# 3 0.000763 -0.002429 0.015562 0.000000 -0.009165 0.000000
# 4 0.000000 0.000000 0.000000 0.075433 0.000000 -0.035939
# 5 -0.007962 0.001874 -0.009165 0.000000 0.049007 0.000000
# 6 0.000000 0.000000 0.000000 -0.035939 0.000000 0.136769
#
#
# Mechanical properties :
#
#
# Convention : Reuss Voigt Hill
#
# Bulk Modulus (GPa) = 28.17885 40.04058 34.10972
# Shear Modulus (GPa) = 14.07691 20.81542 17.44616
#
# Velocity S-wave (km/s) = 2.73218 3.32238 3.04163
# Velocity P-wave (km/s) = 4.98959 5.99588 5.51573
#
# Compressibility (1/GPa) = 0.03548761
#
# Stress axis : x y z
#
# Youngs Moduli (GPa) = 32.72696 78.72296 64.25916
#
# Poissons Ratio (x) = 0.78727 -0.04903
# Poissons Ratio (y) = 0.32729 0.15609
# Poissons Ratio (z) = -0.02497 0.19122
#
# Static dielectric constant tensor:
#      x y z
#    x 1.716130 0.000000 0.007990 
#    y 0.000000 1.668420 0.000000 
#    z 0.007990 0.000000 1.679480 
# 
# From -- ./inp_files/67980.got.cif
#   From: 2010.05.17/outbox.cif.g08.bks.cpg/sg10_34_cif.got.tgz:67980.got - 2010.06.03 11:33:40.
