data_PCOD9146825
_publ_section_title
;
Structure prediction by ZEFSAII (Michael W. Deem and Ramdas Pophale) SiO2 
 PCOD9146825
Probable space group: P 2/M
;
_chemical_formula_sum "Si O2"
_cell_formula_units_Z 22
_cell_length_a 5.691931
_cell_length_b 17.933937
_cell_length_c 13.390384
_cell_angle_alpha 90.000000
_cell_angle_beta 124.648102
_cell_angle_gamma 90.000000
_cell_volume 1124.471201
_symmetry_space_group_name_H-M "P 2/M"
_symmetry_group_IT_number 10
_symmetry_cell_setting 'monoclinic'
loop_
_space_group_symop_operation_xyz
x,y,z
-x,y,-z
-x,-y,-z
x,-y,z
loop_
_atom_site_type_symbol
_atom_site_label
_atom_site_fract_x
_atom_site_fract_y
_atom_site_fract_z
Si Si1 0.000000 0.136844 0.000000
Si Si2 0.500388 0.916640 0.382456
Si Si3 0.469285 0.637153 0.157467
Si Si4 0.839165 0.920209 0.159930
Si Si5 0.545804 0.803176 0.226373
Si Si6 0.092405 0.414145 0.887402
O O1 0.786595 0.185162 0.882373
O O2 0.172717 0.088065 0.962159
O O3 0.500000 0.901664 0.500000
O O4 0.621451 0.849175 0.344954
O O5 0.172047 0.922067 0.269320
O O6 0.629444 0.000000 0.396569
O O7 0.581990 0.715480 0.226877
O O8 0.749740 0.596463 0.180486
O O9 0.245152 0.602595 0.183255
O O10 0.262875 0.637616 0.008563
O O11 0.710552 0.848160 0.180588
O O12 0.716562 0.000000 0.164146
O O13 0.140897 0.500000 0.930158
#
# Coordination Sequence:
#
# PCOD9146825 Si02
#       6
#     2   4   4   4   4   4
#     4  10  21  32  48  68 107 144 184 218 273 334
#     4   9  20  39  58  74  99 140 193 249 295 333
#     4  10  20  29  51  75 111 145 181 223 270 323
#     4  10  21  34  51  73 103 141 188 231 277 337
#     4  11  22  32  51  77 110 144 186 230 283 337
#     4  10  19  34  53  77 111 153 190 219 261 334
#
# _framework density 19.564751000000001
#
# number of rings (size 3 to 8) (size 9 to 14) (size 15 to 20)
#    0.000    2.000    0.000    5.182   10.182    3.636 
#    0.000    2.727    0.000    0.000    0.000    0.000 
#    0.000    8.000    0.000    0.000    0.000    0.000 
#
# Total GULP energy -122519.749088 kJ/mol
# GULP energy per Si atom -5569.079504 kJ/mol
# Density = 1.952022 g / cm^3
# Si number density = 19.564751 Si / 1000 Ang^3
#
#
#
# Elastic Constant Matrix: (Units=GPa)
#
#
# Indices 1 2 3 4 5 6 
#
# 1 113.6602 34.8697 5.3366 0.0000 -27.6897 0.0000
# 2 34.8697 110.9552 26.9433 0.0000 -23.6638 0.0000
# 3 5.3366 26.9433 69.0794 0.0000 -23.8747 0.0000
# 4 0.0000 0.0000 0.0000 3.2722 0.0000 2.3196
# 5 -27.6897 -23.6638 -23.8747 0.0000 23.6955 0.0000
# 6 0.0000 0.0000 0.0000 2.3196 0.0000 19.2646
#
#
#
# Elastic Compliance Matrix: (Units=1/GPa)
#
#
# Indices 1 2 3 4 5 6 
#
# 1 0.014469 -0.001457 0.007351 0.000000 0.022860 0.000000
# 2 -0.001457 0.011626 -0.001531 0.000000 0.008366 0.000000
# 3 0.007351 -0.001531 0.026000 0.000000 0.033258 0.000000
# 4 0.000000 0.000000 0.000000 0.334120 0.000000 -0.040231
# 5 0.022860 0.008366 0.033258 0.000000 0.110780 0.000000
# 6 0.000000 0.000000 0.000000 -0.040231 0.000000 0.056753
#
#
# Mechanical properties :
#
#
# Convention : Reuss Voigt Hill
#
# Bulk Modulus (GPa) = 16.44137 47.55489 31.99813
# Shear Modulus (GPa) = 8.84494 24.34949 16.59721
#
# Velocity S-wave (km/s) = 2.12854 3.53166 2.91576
# Velocity P-wave (km/s) = 3.80299 6.40229 5.26555
#
# Compressibility (1/GPa) = 0.06082219
#
# Stress axis : x y z
#
# Youngs Moduli (GPa) = 69.11322 86.01053 38.46225
#
# Poissons Ratio (x) = 0.12530 -0.28274
# Poissons Ratio (y) = 0.10069 0.05887
# Poissons Ratio (z) = -0.50806 0.13165
#
# Static dielectric constant tensor:
#      x y z
#    x 1.788000 0.000000 -0.009920 
#    y 0.000000 1.720830 0.000000 
#    z -0.009920 0.000000 1.676260 
# 
# From -- ./inp_files/7291.got.cif
#   From: 2010.05.17/outbox.cif.g08.bks.cpg/sg10_4_cif.got.tgz:7291.got - 2010.06.03 11:33:40.
