data_PCOD9146430
_publ_section_title
;
Structure prediction by ZEFSAII (Michael W. Deem and Ramdas Pophale) SiO2 
 PCOD9146430
Probable space group: P 2/M
;
_chemical_formula_sum "Si O2"
_cell_formula_units_Z 32
_cell_length_a 28.690379
_cell_length_b 8.963062
_cell_length_c 22.288335
_cell_angle_alpha 90.000000
_cell_angle_beta 18.730476
_cell_angle_gamma 90.000000
_cell_volume 1840.489325
_symmetry_space_group_name_H-M "P 2/M"
_symmetry_group_IT_number 10
_symmetry_cell_setting 'monoclinic'
loop_
_space_group_symop_operation_xyz
x,y,z
-x,y,-z
-x,-y,-z
x,-y,z
loop_
_atom_site_type_symbol
_atom_site_label
_atom_site_fract_x
_atom_site_fract_y
_atom_site_fract_z
Si Si1 0.410488 0.821708 0.049302
Si Si2 0.541539 0.321582 0.135365
Si Si3 0.096046 0.678273 0.442072
Si Si4 0.159975 0.321794 0.159392
Si Si5 0.698094 0.822478 0.125204
Si Si6 0.668129 0.320813 0.287246
Si Si7 0.830638 0.679590 0.211449
Si Si8 0.398270 0.821182 0.423776
O O1 0.245878 0.765325 0.257578
O O2 0.413573 0.000000 0.038285
O O3 0.500000 0.782139 0.000000
O O4 0.472993 0.746025 0.912976
O O5 0.524777 0.500000 0.154462
O O6 0.434594 0.250476 0.315057
O O7 0.705322 0.288458 0.959902
O O8 0.125849 0.500000 0.406955
O O9 0.000000 0.706775 0.500000
O O10 0.991613 0.717344 0.624864
O O11 0.162824 0.500000 0.146158
O O12 0.192603 0.238804 0.058028
O O13 0.724168 0.752104 0.158085
O O14 0.536579 0.781056 0.297740
O O15 0.705252 0.000000 0.119675
O O16 0.500000 0.277749 0.500000
O O17 0.675258 0.500000 0.272642
O O18 0.754290 0.277870 0.241890
O O19 0.817281 0.500000 0.234861
O O20 0.744580 0.757530 0.370316
O O21 0.000000 0.716907 0.000000
O O22 0.392560 0.000000 0.425796
#
# Coordination Sequence:
#
# PCOD9146430 Si02
#       8
#     4   4   4   4   4   4   4   4
#     4  11  24  39  55  82 119 154 188 229 280 337
#     4  10  19  35  59  83 109 144 187 232 275 326
#     4  10  19  36  59  85 111 141 187 234 278 330
#     4   9  18  33  55  82 112 141 177 230 279 326
#     4  10  20  32  51  81 113 142 178 224 272 328
#     4  10  19  33  55  79 104 138 179 222 269 316
#     4  10  21  37  56  80 109 143 185 227 268 324
#     4  10  20  34  54  82 113 143 179 224 276 332
#
# _framework density 17.386680999999999
#
# number of rings (size 3 to 8) (size 9 to 14) (size 15 to 20)
#    0.000    2.000    2.500    1.500    0.000    4.250 
#    0.000    1.250    0.000    1.500    0.000    0.000 
#    0.000    0.000    0.000    0.000    0.000    0.000 
#
# Total GULP energy -178643.928100 kJ/mol
# GULP energy per Si atom -5582.622753 kJ/mol
# Density = 1.734711 g / cm^3
# Si number density = 17.386681 Si / 1000 Ang^3
#
#
#
# Elastic Constant Matrix: (Units=GPa)
#
#
# Indices 1 2 3 4 5 6 
#
# 1 131.6795 54.2740 76.5653 0.0000 21.5108 0.0000
# 2 54.2740 42.3098 50.7374 0.0000 11.5006 0.0000
# 3 76.5653 50.7374 124.9324 0.0000 19.8482 0.0000
# 4 0.0000 0.0000 0.0000 -16.2842 0.0000 -15.8349
# 5 21.5108 11.5006 19.8482 0.0000 28.6324 0.0000
# 6 0.0000 0.0000 0.0000 -15.8349 0.0000 11.3710
#
#
#
# Elastic Compliance Matrix: (Units=1/GPa)
#
#
# Indices 1 2 3 4 5 6 
#
# 1 0.017033 -0.017576 -0.002685 0.000000 -0.003875 0.000000
# 2 -0.017576 0.065218 -0.015340 0.000000 -0.002357 0.000000
# 3 -0.002685 -0.015340 0.016385 0.000000 -0.003179 0.000000
# 4 0.000000 0.000000 0.000000 -0.026086 0.000000 -0.036326
# 5 -0.003875 -0.002357 -0.003179 0.000000 0.040988 0.000000
# 6 0.000000 0.000000 0.000000 -0.036326 0.000000 0.037357
#
#
# Mechanical properties :
#
#
# Convention : Reuss Voigt Hill
#
# Bulk Modulus (GPa) = 36.45225 73.56392 55.00809
# Shear Modulus (GPa) = 21.62248 12.56684 17.09466
#
# Velocity S-wave (km/s) = 3.53033 2.69138 3.13901
# Velocity P-wave (km/s) = 6.13423 7.21529 6.69661
#
# Compressibility (1/GPa) = 0.02743315
#
# Stress axis : x y z
#
# Youngs Moduli (GPa) = 58.71065 15.33322 61.03201
#
# Poissons Ratio (x) = 0.26950 0.16386
# Poissons Ratio (y) = 1.03190 0.93624
# Poissons Ratio (z) = 0.15763 0.23521
#
# Static dielectric constant tensor:
#      x y z
#    x 1.575870 0.000000 0.001900 
#    y 0.000000 1.577250 0.000000 
#    z 0.001900 0.000000 1.576360 
# 
# From -- ./inp_files/54941.got.cif
#   From: 2010.05.17/outbox.cif.g08.bks.cpg/sg10_28_cif.got.tgz:54941.got - 2010.06.03 11:33:40.
