data_PCOD9146246
_publ_section_title
;
Structure prediction by ZEFSAII (Michael W. Deem and Ramdas Pophale) SiO2 
 PCOD9146246
Probable space group: P 2/M
;
_chemical_formula_sum "Si O2"
_cell_formula_units_Z 32
_cell_length_a 29.033877
_cell_length_b 7.439922
_cell_length_c 12.218324
_cell_angle_alpha 90.000000
_cell_angle_beta 148.640058
_cell_angle_gamma 90.000000
_cell_volume 1373.513652
_symmetry_space_group_name_H-M "P 2/M"
_symmetry_group_IT_number 10
_symmetry_cell_setting 'monoclinic'
loop_
_space_group_symop_operation_xyz
x,y,z
-x,y,-z
-x,-y,-z
x,-y,z
loop_
_atom_site_type_symbol
_atom_site_label
_atom_site_fract_x
_atom_site_fract_y
_atom_site_fract_z
Si Si1 0.177139 0.218071 0.171823
Si Si2 0.912280 0.713676 0.381646
Si Si3 0.340125 0.787230 0.907455
Si Si4 0.714275 0.283012 0.955128
Si Si5 0.479782 0.704636 0.839827
Si Si6 0.817399 0.780925 0.569564
Si Si7 0.023657 0.784919 0.247344
Si Si8 0.650811 0.294135 0.603832
O O1 0.202203 0.271212 0.346366
O O2 0.248183 0.292444 0.232157
O O3 0.179640 0.000000 0.168939
O O4 0.076661 0.281027 0.949259
O O5 0.910663 0.500000 0.357672
O O6 0.926015 0.744972 0.538092
O O7 0.000000 0.787332 0.500000
O O8 0.815855 0.784396 0.152489
O O9 0.256964 0.721906 0.666857
O O10 0.348186 0.000000 0.904965
O O11 0.322284 0.758109 0.999057
O O12 0.429570 0.702530 0.043990
O O13 0.717296 0.500000 0.951747
O O14 0.654682 0.215425 0.733521
O O15 0.448577 0.500000 0.799915
O O16 0.407330 0.789507 0.611539
O O17 0.500000 0.787188 0.000000
O O18 0.913899 0.720328 0.724175
O O19 0.818923 0.000000 0.570963
O O20 0.016589 0.000000 0.220471
O O21 0.618473 0.500000 0.548528
#
# Coordination Sequence:
#
# PCOD9146246 Si02
#       8
#     4   4   4   4   4   4   4   4
#     4  10  20  34  56  83 112 149 188 232 284 336
#     4  10  20  34  53  77 109 150 194 239 281 325
#     4  11  22  37  61  88 116 150 189 239 286 333
#     4  10  21  38  58  80 112 153 193 233 282 339
#     4  10  22  41  64  89 116 148 186 230 286 349
#     4   9  18  34  54  80 114 149 185 227 281 338
#     4  10  19  33  53  79 111 147 188 230 277 337
#     4  10  22  40  60  82 112 149 187 232 283 337
#
# _framework density 23.297913000000001
#
# number of rings (size 3 to 8) (size 9 to 14) (size 15 to 20)
#    0.000    2.000    1.250    2.250    0.000    5.000 
#    0.000    3.750    0.000    1.500    0.000    0.000 
#    0.000    0.000    0.000    0.000    0.000    0.000 
#
# Total GULP energy -178876.224374 kJ/mol
# GULP energy per Si atom -5589.882012 kJ/mol
# Density = 2.324489 g / cm^3
# Si number density = 23.297913 Si / 1000 Ang^3
#
#
#
# Elastic Constant Matrix: (Units=GPa)
#
#
# Indices 1 2 3 4 5 6 
#
# 1 85.7341 -10.8110 39.4539 0.0000 -6.2700 0.0000
# 2 -10.8110 80.1385 0.6133 0.0000 0.3757 0.0000
# 3 39.4539 0.6133 143.3585 0.0000 -24.6500 0.0000
# 4 0.0000 0.0000 0.0000 -764.9656 0.0000 166.7485
# 5 -6.2700 0.3757 -24.6500 0.0000 44.2706 0.0000
# 6 0.0000 0.0000 0.0000 166.7485 0.0000 -26.9310
#
#
#
# Elastic Compliance Matrix: (Units=1/GPa)
#
#
# Indices 1 2 3 4 5 6 
#
# 1 0.013631 0.001869 -0.003793 0.000000 -0.000197 0.000000
# 2 0.001869 0.012736 -0.000599 0.000000 -0.000177 0.000000
# 3 -0.003793 -0.000599 0.008770 0.000000 0.004351 0.000000
# 4 0.000000 0.000000 0.000000 0.003738 0.000000 0.023147
# 5 -0.000197 -0.000177 0.004351 0.000000 0.024985 0.000000
# 6 0.000000 0.000000 0.000000 0.023147 0.000000 0.106190
#
#
# Mechanical properties :
#
#
# Convention : Reuss Voigt Hill
#
# Bulk Modulus (GPa) = 33.23425 40.86040 37.04733
# Shear Modulus (GPa) = 27.00845 -130.86022 -51.92588
#
# Velocity S-wave (km/s) = 3.40849 -7.50268 -4.72612
# Velocity P-wave (km/s) = 5.45768 7.58137 3.72095
#
# Compressibility (1/GPa) = 0.03008944
#
# Stress axis : x y z
#
# Youngs Moduli (GPa) = 73.36320 78.51808 114.02247
#
# Poissons Ratio (x) = -0.14674 0.43252
# Poissons Ratio (y) = -0.13710 0.06833
# Poissons Ratio (z) = 0.27829 0.04705
#
# Static dielectric constant tensor:
#      x y z
#    x 1.838280 0.000000 -0.011680 
#    y 0.000000 1.887630 0.000000 
#    z -0.011680 0.000000 1.881120 
# 
# From -- ./inp_files/49956.got.cif
#   From: 2010.05.17/outbox.cif.g08.bks.cpg/sg10_25_cif.got.tgz:49956.got - 2010.06.03 11:33:40.
