data_PCOD9146699
_publ_section_title
;
Structure prediction by ZEFSAII (Michael W. Deem and Ramdas Pophale) SiO2 
 PCOD9146699
Probable space group: P 2/M
;
_chemical_formula_sum "Si O2"
_cell_formula_units_Z 20
_cell_length_a 7.382060
_cell_length_b 7.697683
_cell_length_c 22.465669
_cell_angle_alpha 90.000000
_cell_angle_beta 37.569697
_cell_angle_gamma 90.000000
_cell_volume 778.380051
_symmetry_space_group_name_H-M "P 2/M"
_symmetry_group_IT_number 10
_symmetry_cell_setting 'monoclinic'
loop_
_space_group_symop_operation_xyz
x,y,z
-x,y,-z
-x,-y,-z
x,-y,z
loop_
_atom_site_type_symbol
_atom_site_label
_atom_site_fract_x
_atom_site_fract_y
_atom_site_fract_z
Si Si1 0.893481 0.210467 0.836138
Si Si2 0.002444 0.199511 0.934287
Si Si3 0.642364 0.705771 0.780725
Si Si4 0.453587 0.797400 0.371140
Si Si5 0.918315 0.698176 0.426283
O O1 0.852820 0.273856 0.914250
O O2 0.217662 0.268765 0.728204
O O3 0.663514 0.264855 0.845687
O O4 0.892410 0.000000 0.838872
O O5 0.355282 0.201123 0.828946
O O6 0.895995 0.000000 0.968829
O O7 0.000000 0.285598 0.000000
O O8 0.618173 0.500000 0.775347
O O9 0.942019 0.772759 0.670634
O O10 0.346741 0.781613 0.467318
O O11 0.205060 0.704715 0.395736
O O12 0.439994 0.000000 0.358811
O O13 0.832945 0.500000 0.437667
#
# Coordination Sequence:
#
# PCOD9146699 Si02
#       5
#     4   4   4   4   4
#     4  10  22  39  61  89 119 154 197 244 293 348
#     4  10  22  43  68  89 114 151 196 248 301 351
#     4  11  24  39  60  89 122 160 195 238 294 353
#     4  10  19  33  57  86 115 154 199 243 288 335
#     4  10  20  34  54  83 119 159 196 234 287 347
#
# _framework density 25.694389999999999
#
# number of rings (size 3 to 8) (size 9 to 14) (size 15 to 20)
#    0.000    1.800    2.000    3.000    0.000    6.800 
#    0.000    8.000    0.000    0.000    0.000    0.000 
#    0.000    0.000    0.000    0.000    0.000    0.000 
#
# Total GULP energy -111891.021894 kJ/mol
# GULP energy per Si atom -5594.551095 kJ/mol
# Density = 2.563591 g / cm^3
# Si number density = 25.694390 Si / 1000 Ang^3
#
#
#
# Elastic Constant Matrix: (Units=GPa)
#
#
# Indices 1 2 3 4 5 6 
#
# 1 125.3318 -9.0274 40.9978 0.0000 18.7098 0.0000
# 2 -9.0274 65.6762 2.2921 0.0000 -0.7870 0.0000
# 3 40.9978 2.2921 111.7990 0.0000 25.2747 0.0000
# 4 0.0000 0.0000 0.0000 2.4394 0.0000 23.7232
# 5 18.7098 -0.7870 25.2747 0.0000 56.6750 0.0000
# 6 0.0000 0.0000 0.0000 23.7232 0.0000 10.2316
#
#
#
# Elastic Compliance Matrix: (Units=1/GPa)
#
#
# Indices 1 2 3 4 5 6 
#
# 1 0.009334 0.001370 -0.003068 0.000000 -0.001694 0.000000
# 2 0.001370 0.015446 -0.000851 0.000000 0.000142 0.000000
# 3 -0.003068 -0.000851 0.010966 0.000000 -0.003890 0.000000
# 4 0.000000 0.000000 0.000000 -0.019024 0.000000 0.044109
# 5 -0.001694 0.000142 -0.003890 0.000000 0.019940 0.000000
# 6 0.000000 0.000000 0.000000 0.044109 0.000000 -0.004536
#
#
# Mechanical properties :
#
#
# Convention : Reuss Voigt Hill
#
# Bulk Modulus (GPa) = 32.62871 41.25911 36.94391
# Shear Modulus (GPa) = 105.39275 31.77216 68.58246
#
# Velocity S-wave (km/s) = 6.41146 3.52026 5.17200
# Velocity P-wave (km/s) = 8.21800 5.71100 7.07640
#
# Compressibility (1/GPa) = 0.03064785
#
# Stress axis : x y z
#
# Youngs Moduli (GPa) = 107.13570 64.74215 91.18720
#
# Poissons Ratio (x) = -0.08868 0.27976
# Poissons Ratio (y) = -0.14675 0.07760
# Poissons Ratio (z) = 0.32869 0.05510
#
# Static dielectric constant tensor:
#      x y z
#    x 1.991560 0.000000 0.026570 
#    y 0.000000 1.945860 0.000000 
#    z 0.026570 0.000000 2.124080 
# 
# From -- ./inp_files/26861.got.cif
#   From: 2010.05.17/outbox.cif.g08.bks.cpg/sg10_14_cif.got.tgz:26861.got - 2010.06.03 11:33:40.
