data_PCOD9146151
_publ_section_title
;
Structure prediction by ZEFSAII (Michael W. Deem and Ramdas Pophale) SiO2 
 PCOD9146151
Probable space group: P 2/M
;
_chemical_formula_sum "Si O2"
_cell_formula_units_Z 28
_cell_length_a 21.540267
_cell_length_b 8.492731
_cell_length_c 19.218616
_cell_angle_alpha 90.000000
_cell_angle_beta 154.250288
_cell_angle_gamma 90.000000
_cell_volume 1527.394051
_symmetry_space_group_name_H-M "P 2/M"
_symmetry_group_IT_number 10
_symmetry_cell_setting 'monoclinic'
loop_
_space_group_symop_operation_xyz
x,y,z
-x,y,-z
-x,-y,-z
x,-y,z
loop_
_atom_site_type_symbol
_atom_site_label
_atom_site_fract_x
_atom_site_fract_y
_atom_site_fract_z
Si Si1 0.349719 0.815111 0.276150
Si Si2 0.166782 0.815073 0.821371
Si Si3 0.159124 0.685172 0.961392
Si Si4 0.836262 0.810116 0.632670
Si Si5 0.831534 0.807724 0.328050
Si Si6 0.666978 0.314210 0.593804
Si Si7 0.181228 0.815138 0.535603
O O1 0.284285 0.762544 0.284079
O O2 0.498388 0.722309 0.418338
O O3 0.381496 0.000000 0.310705
O O4 0.248889 0.775444 0.110057
O O5 0.210488 0.725055 0.934901
O O6 0.223526 0.757508 0.803497
O O7 0.992795 0.806568 0.641269
O O8 0.201875 0.000000 0.864985
O O9 0.168837 0.500000 0.983799
O O10 0.995044 0.740934 0.800014
O O11 0.744035 0.758545 0.605008
O O12 0.774340 0.752660 0.495190
O O13 0.846456 0.000000 0.640033
O O14 0.770321 0.749891 0.340329
O O15 0.000000 0.767524 0.500000
O O16 0.824307 0.000000 0.320617
O O17 0.691395 0.500000 0.620966
O O18 0.219542 0.000000 0.575304
#
# Coordination Sequence:
#
# PCOD9146151 Si02
#       7
#     4   4   4   4   4   4   4
#     4  11  22  39  59  77  97 128 169 206 242 293
#     4   8  13  23  40  63  92 127 165 202 242 291
#     4  11  21  33  49  74 106 136 166 207 257 298
#     4  10  19  33  52  76 104 136 172 207 245 293
#     4   7   9  16  34  60  88 121 161 202 240 278
#     4  11  22  38  57  79 104 129 159 200 251 300
#     4   7  11  20  38  64  93 124 162 205 241 277
#
# _framework density 18.331875
#
# number of rings (size 3 to 8) (size 9 to 14) (size 15 to 20)
#    0.000    2.714    0.000    7.714    0.000    0.571 
#    0.000    2.857    0.000   11.571    0.000    1.000 
#    0.000    8.000    0.000    0.000    0.000    0.000 
#
# Total GULP energy -155923.385489 kJ/mol
# GULP energy per Si atom -5568.692339 kJ/mol
# Density = 1.829015 g / cm^3
# Si number density = 18.331875 Si / 1000 Ang^3
#
#
#
# Elastic Constant Matrix: (Units=GPa)
#
#
# Indices 1 2 3 4 5 6 
#
# 1 82.3008 -10.9094 68.6758 0.0000 -55.8588 0.0000
# 2 -10.9094 31.0812 -1.1201 0.0000 -4.3237 0.0000
# 3 68.6758 -1.1201 16.8845 0.0000 -15.6524 0.0000
# 4 0.0000 0.0000 0.0000 18.1013 0.0000 1.3244
# 5 -55.8588 -4.3237 -15.6524 0.0000 20.3307 0.0000
# 6 0.0000 0.0000 0.0000 1.3244 0.0000 15.3643
#
#
#
# Elastic Compliance Matrix: (Units=1/GPa)
#
#
# Indices 1 2 3 4 5 6 
#
# 1 -0.004819 0.000155 0.025733 0.000000 0.006605 0.000000
# 2 0.000155 0.038358 0.034481 0.000000 0.035130 0.000000
# 3 0.025733 0.034481 0.101955 0.000000 0.156528 0.000000
# 4 0.000000 0.000000 0.000000 0.055595 0.000000 -0.004792
# 5 0.006605 0.035130 0.156528 0.000000 0.195314 0.000000
# 6 0.000000 0.000000 0.000000 -0.004792 0.000000 0.065499
#
#
# Mechanical properties :
#
#
# Convention : Reuss Voigt Hill
#
# Bulk Modulus (GPa) = 3.90273 27.06211 15.48242
# Shear Modulus (GPa) = 12.00264 15.66727 13.83495
#
# Velocity S-wave (km/s) = 2.56157 2.92660 2.75015
# Velocity P-wave (km/s) = 3.29885 5.12000 4.30678
#
# Compressibility (1/GPa) = 0.25623074
#
# Stress axis : x y z
#
# Youngs Moduli (GPa) = -207.52548 26.07037 9.80829
#
# Poissons Ratio (x) = -0.00404 -0.25239
# Poissons Ratio (y) = 0.03214 -0.33820
# Poissons Ratio (z) = 5.34019 -0.89893
#
# Static dielectric constant tensor:
#      x y z
#    x 1.683360 0.000000 -0.040610 
#    y 0.000000 1.612690 0.000000 
#    z -0.040610 0.000000 1.618070 
# 
# From -- ./inp_files/79281.got.cif
#   From: 2010.05.17/outbox.cif.g08.bks.cpg/sg10_40_cif.got.tgz:79281.got - 2010.06.03 11:33:40.
