data_PCOD9146274
_publ_section_title
;
Structure prediction by ZEFSAII (Michael W. Deem and Ramdas Pophale) SiO2 
 PCOD9146274
Probable space group: P 2/M
;
_chemical_formula_sum "Si O2"
_cell_formula_units_Z 32
_cell_length_a 25.171899
_cell_length_b 7.615913
_cell_length_c 18.323583
_cell_angle_alpha 90.000000
_cell_angle_beta 26.747879
_cell_angle_gamma 90.000000
_cell_volume 1580.971226
_symmetry_space_group_name_H-M "P 2/M"
_symmetry_group_IT_number 10
_symmetry_cell_setting 'monoclinic'
loop_
_space_group_symop_operation_xyz
x,y,z
-x,y,-z
-x,-y,-z
x,-y,z
loop_
_atom_site_type_symbol
_atom_site_label
_atom_site_fract_x
_atom_site_fract_y
_atom_site_fract_z
Si Si1 0.373506 0.200918 0.982690
Si Si2 0.802559 0.785328 0.921817
Si Si3 0.879876 0.784310 0.982233
Si Si4 0.150764 0.211609 0.662746
Si Si5 0.376050 0.299622 0.292994
Si Si6 0.025853 0.786284 0.551332
Si Si7 0.706888 0.787072 0.761526
Si Si8 0.856847 0.203054 0.169324
O O1 0.306176 0.275188 0.995129
O O2 0.337872 0.278781 0.105013
O O3 0.329821 0.000000 0.040584
O O4 0.514173 0.198930 0.806895
O O5 0.809962 0.726726 0.996392
O O6 0.921915 0.732284 0.732939
O O7 0.801531 0.000000 0.926468
O O8 0.017872 0.731049 0.806131
O O9 0.879468 0.000000 0.985284
O O10 0.832387 0.721737 0.119181
O O11 0.250366 0.254884 0.482401
O O12 0.183556 0.280033 0.703740
O O13 0.144751 0.000000 0.675152
O O14 0.402521 0.500000 0.275384
O O15 0.367249 0.270269 0.217256
O O16 0.156683 0.731913 0.414142
O O17 0.000000 0.730174 0.500000
O O18 0.025676 0.000000 0.551154
O O19 0.702081 0.000000 0.766979
O O20 0.816825 0.000000 0.216911
O O21 0.000000 0.201580 0.000000
#
# Coordination Sequence:
#
# PCOD9146274 Si02
#       8
#     4   4   4   4   4   4   4   4
#     4  10  20  34  51  70  92 124 166 204 236 278
#     4   9  15  24  43  73 104 127 150 189 237 284
#     4   8  13  23  46  82 110 123 144 187 242 289
#     4   9  16  30  52  76 100 127 157 190 233 286
#     4  12  25  36  47  65  93 128 167 208 244 279
#     4   9  14  24  45  76 104 121 145 186 234 278
#     4  10  19  33  54  75  95 121 158 201 241 286
#     4   7  11  21  42  74 107 128 144 178 233 291
#
# _framework density 20.240721000000001
#
# number of rings (size 3 to 8) (size 9 to 14) (size 15 to 20)
#    0.000    2.750    1.250    3.750    0.000    4.000 
#    0.000    0.000    0.000    7.500    0.000    5.250 
#    0.000    0.000    0.000    0.000    0.000    0.000 
#
# Total GULP energy -178442.863073 kJ/mol
# GULP energy per Si atom -5576.339471 kJ/mol
# Density = 2.019465 g / cm^3
# Si number density = 20.240721 Si / 1000 Ang^3
#
#
#
# Elastic Constant Matrix: (Units=GPa)
#
#
# Indices 1 2 3 4 5 6 
#
# 1 175.7737 5.8423 45.2832 0.0000 14.7498 0.0000
# 2 5.8423 40.6720 0.2012 0.0000 2.7912 0.0000
# 3 45.2832 0.2012 37.5975 0.0000 1.1398 0.0000
# 4 0.0000 0.0000 0.0000 -48.4971 0.0000 4.0415
# 5 14.7498 2.7912 1.1398 0.0000 30.9349 0.0000
# 6 0.0000 0.0000 0.0000 4.0415 0.0000 -58.2376
#
#
#
# Elastic Compliance Matrix: (Units=1/GPa)
#
#
# Indices 1 2 3 4 5 6 
#
# 1 0.008698 -0.000946 -0.010360 0.000000 -0.003680 0.000000
# 2 -0.000946 0.024843 0.001061 0.000000 -0.001830 0.000000
# 3 -0.010360 0.001061 0.038966 0.000000 0.003408 0.000000
# 4 0.000000 0.000000 0.000000 -0.020740 0.000000 -0.001439
# 5 -0.003680 -0.001830 0.003408 0.000000 0.034120 0.000000
# 6 0.000000 0.000000 0.000000 -0.001439 0.000000 -0.017271
#
#
# Mechanical properties :
#
#
# Convention : Reuss Voigt Hill
#
# Bulk Modulus (GPa) = 19.22354 39.63296 29.42825
# Shear Modulus (GPa) = 46.97271 -1.64552 22.66360
#
# Velocity S-wave (km/s) = 4.82259 -0.90263 3.34983
# Velocity P-wave (km/s) = 6.36616 4.30546 5.43438
#
# Compressibility (1/GPa) = 0.05201956
#
# Stress axis : x y z
#
# Youngs Moduli (GPa) = 114.96502 40.25266 25.66337
#
# Poissons Ratio (x) = 0.03806 0.26587
# Poissons Ratio (y) = 0.10872 -0.02724
# Poissons Ratio (z) = 1.19101 -0.04273
#
# Static dielectric constant tensor:
#      x y z
#    x 1.739080 0.000000 0.019910 
#    y 0.000000 1.755870 0.000000 
#    z 0.019910 0.000000 1.706530 
# 
# From -- ./inp_files/79916.got.cif
#   From: 2010.05.17/outbox.cif.g08.bks.cpg/sg10_40_cif.got.tgz:79916.got - 2010.06.03 11:33:40.
