data_PCOD9146652
_publ_section_title
;
Structure prediction by ZEFSAII (Michael W. Deem and Ramdas Pophale) SiO2 
 PCOD9146652
Probable space group: P 2/M
;
_chemical_formula_sum "Si O2"
_cell_formula_units_Z 28
_cell_length_a 11.082941
_cell_length_b 14.420261
_cell_length_c 9.900372
_cell_angle_alpha 90.000000
_cell_angle_beta 119.976394
_cell_angle_gamma 90.000000
_cell_volume 1370.608887
_symmetry_space_group_name_H-M "P 2/M"
_symmetry_group_IT_number 10
_symmetry_cell_setting 'monoclinic'
loop_
_space_group_symop_operation_xyz
x,y,z
-x,y,-z
-x,-y,-z
x,-y,z
loop_
_atom_site_type_symbol
_atom_site_label
_atom_site_fract_x
_atom_site_fract_y
_atom_site_fract_z
Si Si1 0.668986 0.610117 0.322799
Si Si2 0.148419 0.894917 0.906713
Si Si3 0.097495 0.736982 0.679239
Si Si4 0.184044 0.894519 0.233020
Si Si5 0.659608 0.724022 0.589246
Si Si6 0.054032 0.393395 0.879864
Si Si7 0.645777 0.393232 0.847820
O O1 0.695235 0.500000 0.331227
O O2 0.785907 0.667449 0.311243
O O3 0.673751 0.650252 0.477290
O O4 0.509125 0.627361 0.184749
O O5 0.168957 0.820962 0.800369
O O6 0.981722 0.895382 0.837595
O O7 0.190835 0.000000 0.895515
O O8 0.210676 0.871477 0.089171
O O9 0.009142 0.678054 0.740468
O O10 0.000000 0.766785 0.500000
O O11 0.248383 0.815947 0.362526
O O12 0.233606 0.000000 0.285086
O O13 0.500000 0.756236 0.500000
O O14 0.681280 0.670862 0.741547
O O15 0.012741 0.500000 0.829157
O O16 0.222456 0.388162 0.980137
O O17 0.000000 0.369960 0.000000
O O18 0.639134 0.500000 0.795862
#
# Coordination Sequence:
#
# PCOD9146652 Si02
#       7
#     4   4   4   4   4   4   4
#     4  10  22  38  55  82 121 162 200 238 289 346
#     4   9  20  38  60  84 111 147 195 246 295 351
#     4  12  25  37  57  87 122 156 190 245 305 351
#     4   9  18  35  60  86 111 145 194 248 293 342
#     4  10  19  33  56  86 117 154 195 240 289 347
#     4  10  23  39  58  86 116 155 201 243 287 342
#     4   9  19  37  60  82 110 155 206 246 280 340
#
# _framework density 20.428878999999998
#
# number of rings (size 3 to 8) (size 9 to 14) (size 15 to 20)
#    0.000    2.143    0.000    3.429    6.000    4.000 
#    0.000    2.857    0.000    0.857    0.000    9.000 
#    0.000    0.000    0.000    0.000    0.000    0.000 
#
# Total GULP energy -156382.154927 kJ/mol
# GULP energy per Si atom -5585.076962 kJ/mol
# Density = 2.038238 g / cm^3
# Si number density = 20.428879 Si / 1000 Ang^3
#
#
#
# Elastic Constant Matrix: (Units=GPa)
#
#
# Indices 1 2 3 4 5 6 
#
# 1 50.3331 30.5253 5.6584 0.0000 -0.7196 0.0000
# 2 30.5253 92.4715 34.4768 0.0000 -7.1702 0.0000
# 3 5.6584 34.4768 40.0442 0.0000 -4.6688 0.0000
# 4 0.0000 0.0000 0.0000 24.4999 0.0000 -6.6040
# 5 -0.7196 -7.1702 -4.6688 0.0000 25.2944 0.0000
# 6 0.0000 0.0000 0.0000 -6.6040 0.0000 22.1627
#
#
#
# Elastic Compliance Matrix: (Units=1/GPa)
#
#
# Indices 1 2 3 4 5 6 
#
# 1 0.025647 -0.010543 0.005304 0.000000 -0.001280 0.000000
# 2 -0.010543 0.020363 -0.015743 0.000000 0.002567 0.000000
# 3 0.005304 -0.015743 0.038094 0.000000 0.002720 0.000000
# 4 0.000000 0.000000 0.000000 0.044381 0.000000 0.013225
# 5 -0.001280 0.002567 0.002720 0.000000 0.040728 0.000000
# 6 0.000000 0.000000 0.000000 0.013225 0.000000 0.049062
#
#
# Mechanical properties :
#
#
# Convention : Reuss Voigt Hill
#
# Bulk Modulus (GPa) = 23.73031 36.01886 29.87459
# Shear Modulus (GPa) = 18.22921 21.87060 20.04990
#
# Velocity S-wave (km/s) = 2.99042 3.27551 3.13621
# Velocity P-wave (km/s) = 4.85436 5.65464 5.26971
#
# Compressibility (1/GPa) = 0.04214020
#
# Stress axis : x y z
#
# Youngs Moduli (GPa) = 38.99098 49.10891 26.25076
#
# Poissons Ratio (x) = 0.51775 -0.13923
# Poissons Ratio (y) = 0.41108 0.41326
# Poissons Ratio (z) = -0.20680 0.77311
#
# Static dielectric constant tensor:
#      x y z
#    x 1.768330 0.000000 0.008910 
#    y 0.000000 1.720890 0.000000 
#    z 0.008910 0.000000 1.754450 
# 
# From -- ./inp_files/24917.got.cif
#   From: 2010.05.17/outbox.cif.g08.bks.cpg/sg10_13_cif.got.tgz:24917.got - 2010.06.03 11:33:40.
