data_PCOD9146155
_publ_section_title
;
Structure prediction by ZEFSAII (Michael W. Deem and Ramdas Pophale) SiO2 
 PCOD9146155
Probable space group: P 2/M
;
_chemical_formula_sum "Si O2"
_cell_formula_units_Z 20
_cell_length_a 17.513590
_cell_length_b 13.296036
_cell_length_c 8.873517
_cell_angle_alpha 90.000000
_cell_angle_beta 21.624756
_cell_angle_gamma 90.000000
_cell_volume 761.485389
_symmetry_space_group_name_H-M "P 2/M"
_symmetry_group_IT_number 10
_symmetry_cell_setting 'monoclinic'
loop_
_space_group_symop_operation_xyz
x,y,z
-x,y,-z
-x,-y,-z
x,-y,z
loop_
_atom_site_type_symbol
_atom_site_label
_atom_site_fract_x
_atom_site_fract_y
_atom_site_fract_z
Si Si1 0.227638 0.393920 0.659638
Si Si2 0.739773 0.880880 0.069203
Si Si3 0.712483 0.170769 0.451033
Si Si4 0.243324 0.827795 0.298220
Si Si5 0.066406 0.386107 0.546419
O O1 0.329296 0.500000 0.436609
O O2 0.330314 0.289169 0.443302
O O3 0.000000 0.392870 0.000000
O O4 0.154667 0.391836 0.965143
O O5 0.500000 0.841503 0.500000
O O6 0.816318 0.840626 0.094314
O O7 0.736900 0.000000 0.096492
O O8 0.828164 0.863714 0.737328
O O9 0.815419 0.140099 0.421705
O O10 0.480512 0.130420 0.862139
O O11 0.202249 0.706383 0.359323
O O12 0.157987 0.500000 0.390189
O O13 0.000000 0.363686 0.500000
#
# Coordination Sequence:
#
# PCOD9146155 Si02
#       5
#     4   4   4   4   4
#     4  10  19  33  52  76 108 146 180 208 256 321
#     4   9  19  36  56  79 108 139 175 223 275 325
#     4  10  20  34  56  83 109 139 178 225 270 315
#     4  10  20  34  55  84 109 137 180 225 270 312
#     4  10  20  34  53  78 109 147 185 216 257 320
#
# _framework density 26.264458999999999
#
# number of rings (size 3 to 8) (size 9 to 14) (size 15 to 20)
#    0.000    2.200    2.000    1.200    0.000    1.600 
#    0.000    6.000    0.000   13.200    0.000    0.000 
#    0.000    0.000    0.000    0.000    0.000    0.000 
#
# Total GULP energy -111407.151403 kJ/mol
# GULP energy per Si atom -5570.357570 kJ/mol
# Density = 2.620468 g / cm^3
# Si number density = 26.264459 Si / 1000 Ang^3
#
#
#
# Elastic Constant Matrix: (Units=GPa)
#
#
# Indices 1 2 3 4 5 6 
#
# 1 275.0961 25.8842 71.0826 0.0000 42.2331 0.0000
# 2 25.8842 103.7640 -1.4262 0.0000 2.4028 0.0000
# 3 71.0826 -1.4262 93.1877 0.0000 47.9217 0.0000
# 4 0.0000 0.0000 0.0000 24.9431 0.0000 15.2296
# 5 42.2331 2.4028 47.9217 0.0000 59.2447 0.0000
# 6 0.0000 0.0000 0.0000 15.2296 0.0000 38.3989
#
#
#
# Elastic Compliance Matrix: (Units=1/GPa)
#
#
# Indices 1 2 3 4 5 6 
#
# 1 0.004691 -0.001200 -0.003257 0.000000 -0.000661 0.000000
# 2 -0.001200 0.009973 0.001431 0.000000 -0.000707 0.000000
# 3 -0.003257 0.001431 0.020672 0.000000 -0.014457 0.000000
# 4 0.000000 0.000000 0.000000 0.052902 0.000000 -0.020982
# 5 -0.000661 -0.000707 -0.014457 0.000000 0.029073 0.000000
# 6 0.000000 0.000000 0.000000 -0.020982 0.000000 0.034364
#
#
# Mechanical properties :
#
#
# Convention : Reuss Voigt Hill
#
# Bulk Modulus (GPa) = 34.14669 73.68101 53.91385
# Shear Modulus (GPa) = 29.85312 49.61781 39.73547
#
# Velocity S-wave (km/s) = 3.37506 4.35116 3.89382
# Velocity P-wave (km/s) = 5.31200 7.30465 6.38652
#
# Compressibility (1/GPa) = 0.02928541
#
# Stress axis : x y z
#
# Youngs Moduli (GPa) = 213.17706 100.27529 48.37522
#
# Poissons Ratio (x) = 0.12029 0.15754
# Poissons Ratio (y) = 0.25573 -0.06924
# Poissons Ratio (z) = 0.69422 -0.14352
#
# Static dielectric constant tensor:
#      x y z
#    x 2.505760 0.000000 0.387390 
#    y 0.000000 2.040150 0.000000 
#    z 0.387390 0.000000 2.473220 
# 
# From -- ./inp_files/18622.got.cif
#   From: 2010.05.17/outbox.cif.g08.bks.cpg/sg10_10_cif.got.tgz:18622.got - 2010.06.03 11:33:40.
