data_PCOD9146092
_publ_section_title
;
Structure prediction by ZEFSAII (Michael W. Deem and Ramdas Pophale) SiO2 
 PCOD9146092
Probable space group: P 2/M
;
_chemical_formula_sum "Si O2"
_cell_formula_units_Z 28
_cell_length_a 5.467049
_cell_length_b 15.421764
_cell_length_c 21.542436
_cell_angle_alpha 90.000000
_cell_angle_beta 51.324340
_cell_angle_gamma 90.000000
_cell_volume 1417.959269
_symmetry_space_group_name_H-M "P 2/M"
_symmetry_group_IT_number 10
_symmetry_cell_setting 'monoclinic'
loop_
_space_group_symop_operation_xyz
x,y,z
-x,y,-z
-x,-y,-z
x,-y,z
loop_
_atom_site_type_symbol
_atom_site_label
_atom_site_fract_x
_atom_site_fract_y
_atom_site_fract_z
Si Si1 0.205930 0.095053 0.815902
Si Si2 0.450645 0.905614 0.919139
Si Si3 0.151811 0.603883 0.539053
Si Si4 0.443953 0.720834 0.940516
Si Si5 0.022549 0.403742 0.695938
Si Si6 0.130188 0.275754 0.777022
Si Si7 0.674141 0.596743 0.145566
O O1 0.352108 0.101269 0.862025
O O2 0.290899 0.183467 0.765696
O O3 0.825111 0.092469 0.873100
O O4 0.308495 0.000000 0.774990
O O5 0.316574 0.818131 0.970734
O O6 0.334429 0.000000 0.959921
O O7 0.500000 0.636870 0.500000
O O8 0.181890 0.500000 0.525168
O O9 0.000000 0.638909 0.500000
O O10 0.961443 0.614322 0.633229
O O11 0.268909 0.655251 0.923332
O O12 0.762489 0.738011 0.850820
O O13 0.500000 0.683280 0.000000
O O14 0.181208 0.500000 0.674915
O O15 0.698112 0.411664 0.784185
O O16 0.188560 0.322388 0.702138
O O17 0.214925 0.348547 0.813700
O O18 0.808677 0.500000 0.120951
#
# Coordination Sequence:
#
# PCOD9146092 Si02
#       7
#     4   4   4   4   4   4   4
#     4   9  17  31  52  73  98 125 158 204 255 306
#     4   9  17  32  51  73  96 123 155 199 260 321
#     4   9  18  31  48  74 107 138 165 195 238 289
#     4  10  21  35  48  67  95 126 168 219 264 307
#     4   9  19  32  50  74 102 137 169 203 241 294
#     4  10  19  33  51  70  96 129 170 210 257 302
#     4  10  20  34  50  68  92 130 176 214 253 295
#
# _framework density 19.746690000000001
#
# number of rings (size 3 to 8) (size 9 to 14) (size 15 to 20)
#    0.000    2.571    1.429    0.429    2.000    1.714 
#    0.000    0.714    0.000    4.286    0.000    0.000 
#    0.000    1.143    0.000    0.143    0.000    0.143 
#
# Total GULP energy -155972.884931 kJ/mol
# GULP energy per Si atom -5570.460176 kJ/mol
# Density = 1.970175 g / cm^3
# Si number density = 19.746690 Si / 1000 Ang^3
#
#
#
# Elastic Constant Matrix: (Units=GPa)
#
#
# Indices 1 2 3 4 5 6 
#
# 1 77.5422 22.7659 24.3821 0.0000 31.1517 0.0000
# 2 22.7659 153.7720 31.7962 0.0000 28.1789 0.0000
# 3 24.3821 31.7962 82.2166 0.0000 28.5084 0.0000
# 4 0.0000 0.0000 0.0000 -33.8372 0.0000 44.2262
# 5 31.1517 28.1789 28.5084 0.0000 34.9708 0.0000
# 6 0.0000 0.0000 0.0000 44.2262 0.0000 -4.0913
#
#
#
# Elastic Compliance Matrix: (Units=1/GPa)
#
#
# Indices 1 2 3 4 5 6 
#
# 1 0.020105 0.000338 0.000295 0.000000 -0.018422 0.000000
# 2 0.000338 0.007713 -0.001148 0.000000 -0.005580 0.000000
# 3 0.000295 -0.001148 0.017133 0.000000 -0.013304 0.000000
# 4 0.000000 0.000000 0.000000 0.002251 0.000000 0.024333
# 5 -0.018422 -0.005580 -0.013304 0.000000 0.060348 0.000000
# 6 0.000000 0.000000 0.000000 0.024333 0.000000 0.018617
#
#
# Mechanical properties :
#
#
# Convention : Reuss Voigt Hill
#
# Bulk Modulus (GPa) = 22.76824 52.37993 37.57409
# Shear Modulus (GPa) = 35.25144 15.04755 25.14950
#
# Velocity S-wave (km/s) = 4.22973 2.76348 3.57263
# Velocity P-wave (km/s) = 5.95057 6.06349 6.00730
#
# Compressibility (1/GPa) = 0.04392082
#
# Stress axis : x y z
#
# Youngs Moduli (GPa) = 49.73834 129.64963 58.36747
#
# Poissons Ratio (x) = -0.04388 -0.01720
# Poissons Ratio (y) = -0.01683 0.06702
# Poissons Ratio (z) = -0.01466 0.14887
#
# Static dielectric constant tensor:
#      x y z
#    x 1.832420 0.000000 -0.033330 
#    y 0.000000 1.795500 0.000000 
#    z -0.033330 0.000000 1.704900 
# 
# From -- ./inp_files/11246.got.cif
#   From: 2010.05.17/outbox.cif.g08.bks.cpg/sg10_6_cif.got.tgz:11246.got - 2010.06.03 11:33:40.
