data_PCOD9146789
_publ_section_title
;
Structure prediction by ZEFSAII (Michael W. Deem and Ramdas Pophale) SiO2 
 PCOD9146789
Probable space group: P 2/M
;
_chemical_formula_sum "Si O2"
_cell_formula_units_Z 28
_cell_length_a 9.583980
_cell_length_b 13.668534
_cell_length_c 19.832473
_cell_angle_alpha 90.000000
_cell_angle_beta 139.639381
_cell_angle_gamma 90.000000
_cell_volume 1682.476787
_symmetry_space_group_name_H-M "P 2/M"
_symmetry_group_IT_number 10
_symmetry_cell_setting 'monoclinic'
loop_
_space_group_symop_operation_xyz
x,y,z
-x,y,-z
-x,-y,-z
x,-y,z
loop_
_atom_site_type_symbol
_atom_site_label
_atom_site_fract_x
_atom_site_fract_y
_atom_site_fract_z
Si Si1 0.972764 0.887922 0.103648
Si Si2 0.402925 0.260828 0.571360
Si Si3 0.892034 0.885579 0.590870
Si Si4 0.902647 0.241777 0.728389
Si Si5 0.037617 0.615716 0.360577
Si Si6 0.737278 0.754685 0.327061
Si Si7 0.360621 0.888018 0.139002
O O1 0.985736 0.806575 0.166019
O O2 0.185781 0.880883 0.135004
O O3 0.966873 0.000000 0.128330
O O4 0.771794 0.876181 0.979005
O O5 0.334957 0.153157 0.520575
O O6 0.656397 0.268698 0.655259
O O7 0.255519 0.335193 0.472879
O O8 0.333303 0.267681 0.623184
O O9 0.914642 0.839484 0.673487
O O10 0.070146 0.833728 0.609256
O O11 0.913024 0.000000 0.598525
O O12 0.993698 0.338097 0.725213
O O13 0.051966 0.500000 0.366560
O O14 0.840036 0.658330 0.331620
O O15 0.540308 0.806260 0.215869
O O16 0.448308 0.000000 0.172878
#
# Coordination Sequence:
#
# PCOD9146789 Si02
#       7
#     4   4   4   4   4   4   4
#     4   9  17  30  52  81 108 136 170 205 244 295
#     4  10  20  32  51  75  98 133 172 215 253 301
#     4  10  20  30  42  69 108 143 169 197 244 309
#     4  10  19  34  52  73 104 134 170 214 258 298
#     4  10  22  38  54  74 101 132 171 218 267 318
#     4  10  19  34  52  73 104 134 170 214 258 298
#     4   9  17  30  52  81 108 136 170 205 244 295
#
# _framework density 16.642132
#
# number of rings (size 3 to 8) (size 9 to 14) (size 15 to 20)
#    0.000    2.571    1.429    5.143    0.000    5.714 
#    0.000    2.857    0.000    9.429    0.000    2.000 
#    0.000    0.000    0.000    0.000    0.000    0.000 
#
# Total GULP energy -156036.231711 kJ/mol
# GULP energy per Si atom -5572.722561 kJ/mol
# Density = 1.660425 g / cm^3
# Si number density = 16.642132 Si / 1000 Ang^3
#
#
#
# Elastic Constant Matrix: (Units=GPa)
#
#
# Indices 1 2 3 4 5 6 
#
# 1 65.8636 32.0548 15.2133 0.0000 -22.5750 0.0000
# 2 32.0548 129.8801 31.4530 0.0000 -10.2887 0.0000
# 3 15.2133 31.4530 56.4977 0.0000 -10.5229 0.0000
# 4 0.0000 0.0000 0.0000 14.6497 0.0000 -0.6726
# 5 -22.5750 -10.2887 -10.5229 0.0000 19.8165 0.0000
# 6 0.0000 0.0000 0.0000 -0.6726 0.0000 14.3983
#
#
#
# Elastic Compliance Matrix: (Units=1/GPa)
#
#
# Indices 1 2 3 4 5 6 
#
# 1 0.027171 -0.004563 0.000608 0.000000 0.028907 0.000000
# 2 -0.004563 0.009753 -0.004690 0.000000 -0.002625 0.000000
# 3 0.000608 -0.004690 0.021998 0.000000 0.009939 0.000000
# 4 0.000000 0.000000 0.000000 0.068407 0.000000 0.003195
# 5 0.028907 -0.002625 0.009939 0.000000 0.087309 0.000000
# 6 0.000000 0.000000 0.000000 0.003195 0.000000 0.069602
#
#
# Mechanical properties :
#
#
# Convention : Reuss Voigt Hill
#
# Bulk Modulus (GPa) = 24.01961 45.52039 34.77000
# Shear Modulus (GPa) = 15.85239 21.34093 18.59666
#
# Velocity S-wave (km/s) = 3.08968 3.58487 3.34645
# Velocity P-wave (km/s) = 5.21465 6.67435 5.98913
#
# Compressibility (1/GPa) = 0.04163265
#
# Stress axis : x y z
#
# Youngs Moduli (GPa) = 36.80327 102.52743 45.45799
#
# Poissons Ratio (x) = 0.46786 -0.02764
# Poissons Ratio (y) = 0.16794 0.21320
# Poissons Ratio (z) = -0.02238 0.48086
#
# Static dielectric constant tensor:
#      x y z
#    x 1.583230 0.000000 -0.000430 
#    y 0.000000 1.543450 0.000000 
#    z -0.000430 0.000000 1.569690 
# 
# From -- ./inp_files/75321.got.cif
#   From: 2010.05.17/outbox.cif.g08.bks.cpg/sg10_38_cif.got.tgz:75321.got - 2010.06.03 11:33:40.
