data_PCOD9146490
_publ_section_title
;
Structure prediction by ZEFSAII (Michael W. Deem and Ramdas Pophale) SiO2 
 PCOD9146490
Probable space group: P 2/M
;
_chemical_formula_sum "Si O2"
_cell_formula_units_Z 32
_cell_length_a 11.305231
_cell_length_b 7.617053
_cell_length_c 15.017062
_cell_angle_alpha 90.000000
_cell_angle_beta 101.119864
_cell_angle_gamma 90.000000
_cell_volume 1268.879488
_symmetry_space_group_name_H-M "P 2/M"
_symmetry_group_IT_number 10
_symmetry_cell_setting 'monoclinic'
loop_
_space_group_symop_operation_xyz
x,y,z
-x,y,-z
-x,-y,-z
x,-y,z
loop_
_atom_site_type_symbol
_atom_site_label
_atom_site_fract_x
_atom_site_fract_y
_atom_site_fract_z
Si Si1 0.803924 0.799912 0.216354
Si Si2 0.288408 0.704997 0.613443
Si Si3 0.892296 0.784473 0.048678
Si Si4 0.298729 0.795649 0.115959
Si Si5 0.796669 0.712249 0.715258
Si Si6 0.548380 0.703244 0.102430
Si Si7 0.462141 0.712983 0.393856
Si Si8 0.897296 0.715164 0.552696
O O1 0.794554 0.716406 0.311882
O O2 0.666861 0.794452 0.157637
O O3 0.839410 0.000000 0.235669
O O4 0.887171 0.723165 0.149967
O O5 0.305438 0.500000 0.597490
O O6 0.422749 0.775457 0.646671
O O7 0.223241 0.774521 0.516336
O O8 0.769769 0.728295 0.981326
O O9 0.893048 0.000000 0.050825
O O10 0.000000 0.728404 0.000000
O O11 0.205888 0.775259 0.184104
O O12 0.428919 0.709174 0.146985
O O13 0.323137 0.000000 0.107890
O O14 0.799648 0.500000 0.718822
O O15 0.666654 0.774623 0.658630
O O16 0.893036 0.770384 0.654909
O O17 0.582305 0.500000 0.096639
O O18 0.500000 0.771872 0.000000
O O19 0.500000 0.758658 0.500000
O O20 0.450933 0.500000 0.389338
O O21 0.900179 0.500000 0.553864
O O22 0.000000 0.774073 0.500000
#
# Coordination Sequence:
#
# PCOD9146490 Si02
#       8
#     4   4   4   4   4   4   4   4
#     4  11  22  37  59  85 115 150 189 233 282 339
#     4  10  19  33  55  81 110 144 185 232 280 334
#     4   9  20  39  59  78 106 151 198 231 270 331
#     4  11  22  37  59  85 115 150 189 233 282 339
#     4  10  19  33  55  81 110 144 185 232 280 334
#     4  11  22  37  60  87 117 148 182 229 285 344
#     4   9  15  28  52  77  99 134 179 216 259 322
#     4   9  18  33  54  80 111 149 191 234 283 339
#
# _framework density 25.219100999999998
#
# number of rings (size 3 to 8) (size 9 to 14) (size 15 to 20)
#    0.000    2.000    2.500    1.875    0.000    2.500 
#    0.000    0.625    0.000    6.750    0.000    0.000 
#    0.000    0.000    0.000    0.000    0.000    0.000 
#
# Total GULP energy -178863.778407 kJ/mol
# GULP energy per Si atom -5589.493075 kJ/mol
# Density = 2.516170 g / cm^3
# Si number density = 25.219101 Si / 1000 Ang^3
#
#
#
# Elastic Constant Matrix: (Units=GPa)
#
#
# Indices 1 2 3 4 5 6 
#
# 1 70.9617 0.3260 6.8206 0.0000 -31.9301 0.0000
# 2 0.3260 59.3014 -6.4339 0.0000 0.3801 0.0000
# 3 6.8206 -6.4339 112.3196 0.0000 -28.5376 0.0000
# 4 0.0000 0.0000 0.0000 33.4361 0.0000 -14.8228
# 5 -31.9301 0.3801 -28.5376 0.0000 46.8304 0.0000
# 6 0.0000 0.0000 0.0000 -14.8228 0.0000 9.8556
#
#
#
# Elastic Compliance Matrix: (Units=1/GPa)
#
#
# Indices 1 2 3 4 5 6 
#
# 1 0.021049 0.000086 0.002808 0.000000 0.016062 0.000000
# 2 0.000086 0.016980 0.001121 0.000000 0.000604 0.000000
# 3 0.002808 0.001121 0.010981 0.000000 0.008597 0.000000
# 4 0.000000 0.000000 0.000000 0.089746 0.000000 0.134978
# 5 0.016062 0.000604 0.008597 0.000000 0.037539 0.000000
# 6 0.000000 0.000000 0.000000 0.134978 0.000000 0.304473
#
#
# Mechanical properties :
#
#
# Convention : Reuss Voigt Hill
#
# Bulk Modulus (GPa) = 17.53167 27.11202 22.32185
# Shear Modulus (GPa) = 10.16771 34.14909 22.15840
#
# Velocity S-wave (km/s) = 2.01010 3.68380 2.96739
# Velocity P-wave (km/s) = 3.51485 5.37287 4.53993
#
# Compressibility (1/GPa) = 0.05703962
#
# Stress axis : x y z
#
# Youngs Moduli (GPa) = 47.50769 58.89189 91.06519
#
# Poissons Ratio (x) = -0.00506 -0.25568
# Poissons Ratio (y) = -0.00408 -0.10207
# Poissons Ratio (z) = -0.13339 -0.06601
#
# Static dielectric constant tensor:
#      x y z
#    x 2.049720 0.000000 -0.037040 
#    y 0.000000 1.932180 0.000000 
#    z -0.037040 0.000000 1.989520 
# 
# From -- ./inp_files/63849.got.cif
#   From: 2010.05.17/outbox.cif.g08.bks.cpg/sg10_32_cif.got.tgz:63849.got - 2010.06.03 11:33:40.
