data_PCOD9146583
_publ_section_title
;
Structure prediction by ZEFSAII (Michael W. Deem and Ramdas Pophale) SiO2 
 PCOD9146583
Probable space group: P 2/M
;
_chemical_formula_sum "Si O2"
_cell_formula_units_Z 32
_cell_length_a 26.599755
_cell_length_b 8.984568
_cell_length_c 21.614076
_cell_angle_alpha 90.000000
_cell_angle_beta 19.860789
_cell_angle_gamma 90.000000
_cell_volume 1754.902718
_symmetry_space_group_name_H-M "P 2/M"
_symmetry_group_IT_number 10
_symmetry_cell_setting 'monoclinic'
loop_
_space_group_symop_operation_xyz
x,y,z
-x,y,-z
-x,-y,-z
x,-y,z
loop_
_atom_site_type_symbol
_atom_site_label
_atom_site_fract_x
_atom_site_fract_y
_atom_site_fract_z
Si Si1 0.159778 0.175585 0.663581
Si Si2 0.668808 0.328951 0.284714
Si Si3 0.268115 0.678317 0.414442
Si Si4 0.139340 0.820552 0.295472
Si Si5 0.830037 0.671915 0.217320
Si Si6 0.536105 0.179471 0.029261
Si Si7 0.169039 0.175135 0.008648
Si Si8 0.055349 0.678146 0.262622
O O1 0.246835 0.257912 0.508013
O O2 0.191020 0.241914 0.694662
O O3 0.985733 0.197531 0.849211
O O4 0.190402 0.000000 0.626106
O O5 0.500000 0.333812 0.500000
O O6 0.723036 0.500000 0.213363
O O7 0.749111 0.261218 0.251510
O O8 0.704361 0.240861 0.181527
O O9 0.277183 0.500000 0.405701
O O10 0.411746 0.746580 0.215956
O O11 0.116943 0.719120 0.552041
O O12 0.112856 0.747325 0.259622
O O13 0.000000 0.779594 0.500000
O O14 0.138719 0.000000 0.289576
O O15 0.297207 0.778413 0.143104
O O16 0.780112 0.500000 0.283513
O O17 0.000000 0.669320 0.000000
O O18 0.524784 0.000000 0.047405
O O19 0.500000 0.219805 0.000000
O O20 0.148598 0.259211 0.096959
O O21 0.188157 0.000000 0.997312
O O22 0.064502 0.500000 0.253817
#
# Coordination Sequence:
#
# PCOD9146583 Si02
#       8
#     4   4   4   4   4   4   4   4
#     4  10  20  34  56  84 111 143 186 235 282 331
#     4  10  21  37  55  78 109 145 184 229 283 338
#     4  10  21  37  58  84 115 150 190 233 281 335
#     4  10  21  38  61  88 117 150 189 230 275 331
#     4  10  19  33  56  81 107 142 185 231 278 333
#     4  10  21  38  61  88 118 151 186 228 279 332
#     4  10  20  35  57  82 110 145 187 233 280 333
#     4  10  21  37  59  85 113 149 191 234 279 333
#
# _framework density 18.234629000000002
#
# number of rings (size 3 to 8) (size 9 to 14) (size 15 to 20)
#    0.000    2.000    1.250    2.250    0.000    5.500 
#    2.250    0.000    0.000    0.000    0.000    0.000 
#    0.000    0.000    0.000    0.000    0.000    0.000 
#
# Total GULP energy -178631.167635 kJ/mol
# GULP energy per Si atom -5582.223989 kJ/mol
# Density = 1.819313 g / cm^3
# Si number density = 18.234629 Si / 1000 Ang^3
#
#
#
# Elastic Constant Matrix: (Units=GPa)
#
#
# Indices 1 2 3 4 5 6 
#
# 1 143.4264 43.1823 68.2365 0.0000 16.1533 0.0000
# 2 43.1823 42.7908 44.5516 0.0000 9.8132 0.0000
# 3 68.2365 44.5516 125.3360 0.0000 17.9344 0.0000
# 4 0.0000 0.0000 0.0000 51.9251 0.0000 15.4110
# 5 16.1533 9.8132 17.9344 0.0000 24.7556 0.0000
# 6 0.0000 0.0000 0.0000 15.4110 0.0000 35.7381
#
#
#
# Elastic Compliance Matrix: (Units=1/GPa)
#
#
# Indices 1 2 3 4 5 6 
#
# 1 0.010839 -0.007358 -0.003002 0.000000 -0.001981 0.000000
# 2 -0.007358 0.042843 -0.010576 0.000000 -0.004520 0.000000
# 3 -0.003002 -0.010576 0.013937 0.000000 -0.003945 0.000000
# 4 0.000000 0.000000 0.000000 0.022085 0.000000 -0.009524
# 5 -0.001981 -0.004520 -0.003945 0.000000 0.046337 0.000000
# 6 0.000000 0.000000 0.000000 -0.009524 0.000000 0.032088
#
#
# Mechanical properties :
#
#
# Convention : Reuss Voigt Hill
#
# Bulk Modulus (GPa) = 38.84101 69.27710 54.05906
# Shear Modulus (GPa) = 22.87451 32.85595 27.86523
#
# Velocity S-wave (km/s) = 3.54567 4.24942 3.91340
# Velocity P-wave (km/s) = 6.17327 7.88361 7.08027
#
# Compressibility (1/GPa) = 0.02574598
#
# Stress axis : x y z
#
# Youngs Moduli (GPa) = 92.25974 23.34108 71.75231
#
# Poissons Ratio (x) = 0.17175 0.21540
# Poissons Ratio (y) = 0.67888 0.75885
# Poissons Ratio (z) = 0.27697 0.24686
#
# Static dielectric constant tensor:
#      x y z
#    x 1.609830 0.000000 -0.010790 
#    y 0.000000 1.616260 0.000000 
#    z -0.010790 0.000000 1.579560 
# 
# From -- ./inp_files/86822.got.cif
#   From: 2010.05.17/outbox.cif.g08.bks.cpg/sg10_44_cif.got.tgz:86822.got - 2010.06.03 11:33:40.
