data_PCOD9146940
_publ_section_title
;
Structure prediction by ZEFSAII (Michael W. Deem and Ramdas Pophale) SiO2 
 PCOD9146940
Probable space group: P 2/M
;
_chemical_formula_sum "Si O2"
_cell_formula_units_Z 32
_cell_length_a 25.621871
_cell_length_b 7.479521
_cell_length_c 14.829732
_cell_angle_alpha 90.000000
_cell_angle_beta 28.860741
_cell_angle_gamma 90.000000
_cell_volume 1371.763979
_symmetry_space_group_name_H-M "P 2/M"
_symmetry_group_IT_number 10
_symmetry_cell_setting 'monoclinic'
loop_
_space_group_symop_operation_xyz
x,y,z
-x,y,-z
-x,-y,-z
x,-y,z
loop_
_atom_site_type_symbol
_atom_site_label
_atom_site_fract_x
_atom_site_fract_y
_atom_site_fract_z
Si Si1 0.388166 0.205587 0.708701
Si Si2 0.382069 0.216203 0.211370
Si Si3 0.918570 0.291956 0.549556
Si Si4 0.284043 0.704465 0.688415
Si Si5 0.688481 0.783394 0.980986
Si Si6 0.120526 0.283459 0.783744
Si Si7 0.545937 0.784481 0.708153
Si Si8 0.853796 0.707175 0.458404
O O1 0.500000 0.286226 0.500000
O O2 0.301960 0.208654 0.758088
O O3 0.336813 0.278226 0.878352
O O4 0.416022 0.000000 0.689902
O O5 0.382536 0.272014 0.315313
O O6 0.274653 0.285615 0.327681
O O7 0.378792 0.000000 0.209691
O O8 0.500000 0.272853 0.000000
O O9 0.949970 0.500000 0.490783
O O10 0.913085 0.214227 0.456388
O O11 0.000000 0.211686 0.500000
O O12 0.798686 0.286153 0.772763
O O13 0.251850 0.500000 0.753769
O O14 0.202636 0.783379 0.736917
O O15 0.399921 0.712033 0.463375
O O16 0.579111 0.734311 0.092872
O O17 0.697460 0.000000 0.965703
O O18 0.136701 0.500000 0.755619
O O19 0.133005 0.214691 0.662212
O O20 0.000000 0.248533 0.000000
O O21 0.549021 0.000000 0.699242
O O22 0.887162 0.500000 0.400916
#
# Coordination Sequence:
#
# PCOD9146940 Si02
#       8
#     4   4   4   4   4   4   4   4
#     4  10  20  37  58  80 114 158 192 229 290 350
#     4  10  20  33  54  83 113 148 189 231 279 336
#     4  10  23  41  60  84 115 152 191 239 293 337
#     4  11  21  33  55  85 113 147 192 238 280 333
#     4  10  21  38  61  85 111 152 197 234 282 344
#     4   9  19  36  57  82 113 151 191 229 279 340
#     4  10  19  34  55  79 114 152 183 228 289 343
#     4  10  20  37  59  82 112 149 187 232 285 338
#
# _framework density 23.327629000000002
#
# number of rings (size 3 to 8) (size 9 to 14) (size 15 to 20)
#    0.000    2.000    2.500    1.125    0.000    4.250 
#    0.000    2.500    0.000    3.375    0.000    0.000 
#    0.000    0.000    0.000    0.000    0.000    0.000 
#
# Total GULP energy -178717.933913 kJ/mol
# GULP energy per Si atom -5584.935435 kJ/mol
# Density = 2.327453 g / cm^3
# Si number density = 23.327629 Si / 1000 Ang^3
#
#
#
# Elastic Constant Matrix: (Units=GPa)
#
#
# Indices 1 2 3 4 5 6 
#
# 1 191.4436 3.3764 40.4251 0.0000 -7.4087 0.0000
# 2 3.3764 64.6251 -7.7093 0.0000 0.1804 0.0000
# 3 40.4251 -7.7093 65.8543 0.0000 -4.8632 0.0000
# 4 0.0000 0.0000 0.0000 18.3558 0.0000 -0.5935
# 5 -7.4087 0.1804 -4.8632 0.0000 34.7511 0.0000
# 6 0.0000 0.0000 0.0000 -0.5935 0.0000 7.5549
#
#
#
# Elastic Compliance Matrix: (Units=1/GPa)
#
#
# Indices 1 2 3 4 5 6 
#
# 1 0.006059 -0.000766 -0.003752 0.000000 0.000771 0.000000
# 2 -0.000766 0.015791 0.002325 0.000000 0.000080 0.000000
# 3 -0.003752 0.002325 0.017885 0.000000 0.001691 0.000000
# 4 0.000000 0.000000 0.000000 0.054617 0.000000 0.004291
# 5 0.000771 0.000080 0.001691 0.000000 0.029177 0.000000
# 6 0.000000 0.000000 0.000000 0.004291 0.000000 0.132701
#
#
# Mechanical properties :
#
#
# Convention : Reuss Voigt Hill
#
# Bulk Modulus (GPa) = 28.28996 43.78973 36.03984
# Shear Modulus (GPa) = 18.35533 31.18776 24.77154
#
# Velocity S-wave (km/s) = 2.80813 3.66039 3.26221
# Velocity P-wave (km/s) = 4.76106 6.05615 5.44723
#
# Compressibility (1/GPa) = 0.03534823
#
# Stress axis : x y z
#
# Youngs Moduli (GPa) = 165.04031 63.32712 55.91155
#
# Poissons Ratio (x) = 0.04853 0.20979
# Poissons Ratio (y) = 0.12648 -0.12999
# Poissons Ratio (z) = 0.61927 -0.14723
#
# Static dielectric constant tensor:
#      x y z
#    x 1.915200 0.000000 0.014030 
#    y 0.000000 1.889750 0.000000 
#    z 0.014030 0.000000 1.847160 
# 
# From -- ./inp_files/66504.got.cif
#   From: 2010.05.17/outbox.cif.g08.bks.cpg/sg10_34_cif.got.tgz:66504.got - 2010.06.03 11:33:40.
