data_PCOD9146478
_publ_section_title
;
Structure prediction by ZEFSAII (Michael W. Deem and Ramdas Pophale) SiO2 
 PCOD9146478
Probable space group: P 2/M
;
_chemical_formula_sum "Si O2"
_cell_formula_units_Z 16
_cell_length_a 18.675326
_cell_length_b 5.640586
_cell_length_c 8.196585
_cell_angle_alpha 90.000000
_cell_angle_beta 50.815273
_cell_angle_gamma 90.000000
_cell_volume 669.253035
_symmetry_space_group_name_H-M "P 2/M"
_symmetry_group_IT_number 10
_symmetry_cell_setting 'monoclinic'
loop_
_space_group_symop_operation_xyz
x,y,z
-x,y,-z
-x,-y,-z
x,-y,z
loop_
_atom_site_type_symbol
_atom_site_label
_atom_site_fract_x
_atom_site_fract_y
_atom_site_fract_z
Si Si1 0.617293 0.500000 0.826564
Si Si2 0.386608 0.000000 0.665386
Si Si3 0.183601 0.000000 0.574866
Si Si4 0.817847 0.500000 0.398183
Si Si5 0.642792 0.000000 0.917784
Si Si6 0.410276 0.500000 0.510632
Si Si7 0.980172 0.000000 0.833773
Si Si8 0.982349 0.500000 0.716985
O O1 0.729549 0.500000 0.645805
O O2 0.594615 0.250612 0.944622
O O3 0.577539 0.500000 0.701026
O O4 0.500000 0.000000 0.500000
O O5 0.361649 0.750233 0.619098
O O6 0.346907 0.000000 0.903892
O O7 0.187618 0.758886 0.672032
O O8 0.086885 0.000000 0.615278
O O9 0.266175 0.000000 0.326039
O O10 0.918107 0.500000 0.336464
O O11 0.500000 0.500000 0.500000
O O12 0.937854 0.750832 0.835608
O O13 0.000000 0.000000 0.000000
O O14 0.000000 0.500000 0.500000
#
# Coordination Sequence:
#
# PCOD9146478 Si02
#       8
#     2   2   2   2   2   2   2   2
#     4  10  19  35  60  81 103 145 189 221 261 328
#     4  10  21  38  55  80 116 142 172 229 283 319
#     4   8  16  30  52  75 101 135 179 219 255 309
#     4   8  16  30  52  75 101 135 179 219 255 309
#     4  10  19  35  60  81 103 145 189 221 261 328
#     4  10  21  38  55  80 116 142 172 229 283 319
#     4  10  19  33  55  80 111 144 180 225 271 320
#     4  10  19  33  55  80 111 144 180 225 271 320
#
# _framework density 23.907252
#
# number of rings (size 3 to 8) (size 9 to 14) (size 15 to 20)
#    0.000    2.500    0.000    2.250    0.000    0.000 
#    0.000   15.000    0.000   81.000    0.000    0.000 
#    0.000    0.000    0.000    0.000    0.000    0.000 
#
# Total GULP energy -89160.129764 kJ/mol
# GULP energy per Si atom -5572.508110 kJ/mol
# Density = 2.385284 g / cm^3
# Si number density = 23.907252 Si / 1000 Ang^3
#
#
#
# Elastic Constant Matrix: (Units=GPa)
#
#
# Indices 1 2 3 4 5 6 
#
# 1 44.2714 -1.2552 -7.2436 0.0000 -5.0400 0.0000
# 2 -1.2552 348.2317 52.3856 0.0000 19.5647 0.0000
# 3 -7.2436 52.3856 81.4258 0.0000 0.4549 0.0000
# 4 0.0000 0.0000 0.0000 36.3714 0.0000 22.3367
# 5 -5.0400 19.5647 0.4549 0.0000 32.7916 0.0000
# 6 0.0000 0.0000 0.0000 22.3367 0.0000 0.2972
#
#
#
# Elastic Compliance Matrix: (Units=1/GPa)
#
#
# Indices 1 2 3 4 5 6 
#
# 1 0.023402 -0.000490 0.002375 0.000000 0.003856 0.000000
# 2 -0.000490 0.003308 -0.002161 0.000000 -0.002019 0.000000
# 3 0.002375 -0.002161 0.013874 0.000000 0.001462 0.000000
# 4 0.000000 0.000000 0.000000 -0.000609 0.000000 0.045761
# 5 0.003856 -0.002019 0.001462 0.000000 0.032273 0.000000
# 6 0.000000 0.000000 0.000000 0.045761 0.000000 -0.074513
#
#
# Mechanical properties :
#
#
# Convention : Reuss Voigt Hill
#
# Bulk Modulus (GPa) = 24.97859 62.41137 43.69498
# Shear Modulus (GPa) = 429.93555 42.56152 236.24853
#
# Velocity S-wave (km/s) = 13.42480 4.22391 9.95155
# Velocity P-wave (km/s) = 15.83575 7.06759 12.26218
#
# Compressibility (1/GPa) = 0.04003429
#
# Stress axis : x y z
#
# Youngs Moduli (GPa) = 42.73196 302.26312 72.07536
#
# Poissons Ratio (x) = 0.14799 -0.17120
# Poissons Ratio (y) = 0.02092 0.15574
# Poissons Ratio (z) = -0.10150 0.65311
#
# Static dielectric constant tensor:
#      x y z
#    x 1.905430 0.000000 -0.059380 
#    y 0.000000 2.024390 0.000000 
#    z -0.059380 0.000000 1.851570 
# 
# From -- ./inp_files/12924.got.cif
#   From: 2010.05.17/outbox.cif.g08.bks.cpg/sg10_7_cif.got.tgz:12924.got - 2010.06.03 11:33:40.
