data_PCOD9146796
_publ_section_title
;
Structure prediction by ZEFSAII (Michael W. Deem and Ramdas Pophale) SiO2 
 PCOD9146796
Probable space group: P 2/M
;
_chemical_formula_sum "Si O2"
_cell_formula_units_Z 20
_cell_length_a 5.357330
_cell_length_b 16.732981
_cell_length_c 12.738310
_cell_angle_alpha 90.000000
_cell_angle_beta 79.097748
_cell_angle_gamma 90.000000
_cell_volume 1121.304257
_symmetry_space_group_name_H-M "P 2/M"
_symmetry_group_IT_number 10
_symmetry_cell_setting 'monoclinic'
loop_
_space_group_symop_operation_xyz
x,y,z
-x,y,-z
-x,-y,-z
x,-y,z
loop_
_atom_site_type_symbol
_atom_site_label
_atom_site_fract_x
_atom_site_fract_y
_atom_site_fract_z
Si Si1 0.206341 0.159133 0.631466
Si Si2 0.157710 0.594690 0.386104
Si Si3 0.289401 0.337139 0.707185
Si Si4 0.285080 0.906626 0.391234
Si Si5 0.282987 0.592722 0.930254
O O1 0.239481 0.249229 0.665781
O O2 0.428983 0.108404 0.667020
O O3 0.249119 0.142643 0.503083
O O4 0.924610 0.126253 0.671198
O O5 0.197423 0.500000 0.391809
O O6 0.435841 0.633537 0.357085
O O7 0.000000 0.623712 0.500000
O O8 0.959381 0.612465 0.308366
O O9 0.310186 0.348192 0.830251
O O10 0.246632 0.000000 0.416747
O O11 0.316735 0.500000 0.890591
O O12 0.500000 0.606705 0.000000
O O13 0.000000 0.599051 0.000000
#
# Coordination Sequence:
#
# PCOD9146796 Si02
#       5
#     4   4   4   4   4
#     4  10  20  30  50  78 104 141 175 216 271 304
#     4  11  24  37  51  73 109 155 189 216 261 324
#     4  12  23  36  57  80 111 138 189 239 278 326
#     4  10  19  34  52  75 111 147 182 212 247 321
#     4  10  21  38  59  78 100 138 187 241 295 329
#
# _framework density 17.836371
#
# number of rings (size 3 to 8) (size 9 to 14) (size 15 to 20)
#    0.000    1.400    0.000    7.800    8.400    3.200 
#    0.000    0.000    0.000    0.000    0.000    0.000 
#    0.000   27.200    0.000    0.000    0.000    0.000 
#
# Total GULP energy -111555.203812 kJ/mol
# GULP energy per Si atom -5577.760191 kJ/mol
# Density = 1.779577 g / cm^3
# Si number density = 17.836371 Si / 1000 Ang^3
#
#
#
# Elastic Constant Matrix: (Units=GPa)
#
#
# Indices 1 2 3 4 5 6 
#
# 1 174.5127 48.7586 19.5190 0.0000 10.0263 0.0000
# 2 48.7586 109.1209 46.4597 0.0000 3.6646 0.0000
# 3 19.5190 46.4597 49.5833 0.0000 9.0185 0.0000
# 4 0.0000 0.0000 0.0000 32.9919 0.0000 41.3046
# 5 10.0263 3.6646 9.0185 0.0000 21.2710 0.0000
# 6 0.0000 0.0000 0.0000 41.3046 0.0000 66.2358
#
#
#
# Elastic Compliance Matrix: (Units=1/GPa)
#
#
# Indices 1 2 3 4 5 6 
#
# 1 0.006723 -0.003344 0.001039 0.000000 -0.003033 0.000000
# 2 -0.003344 0.017187 -0.015750 0.000000 0.005293 0.000000
# 3 0.001039 -0.015750 0.036963 0.000000 -0.013448 0.000000
# 4 0.000000 0.000000 0.000000 0.138229 0.000000 -0.086199
# 5 -0.003033 0.005293 -0.013448 0.000000 0.053232 0.000000
# 6 0.000000 0.000000 0.000000 -0.086199 0.000000 0.068851
#
#
# Mechanical properties :
#
#
# Convention : Reuss Voigt Hill
#
# Bulk Modulus (GPa) = 40.38592 62.52128 51.45360
# Shear Modulus (GPa) = 13.67806 38.66503 26.17154
#
# Velocity S-wave (km/s) = 2.77223 4.66098 3.83471
# Velocity P-wave (km/s) = 5.73922 8.00594 6.96540
#
# Compressibility (1/GPa) = 0.02476111
#
# Stress axis : x y z
#
# Youngs Moduli (GPa) = 148.74924 58.18501 27.05418
#
# Poissons Ratio (x) = 0.19459 -0.02811
# Poissons Ratio (y) = 0.49748 0.42610
# Poissons Ratio (z) = -0.15454 0.91642
#
# Static dielectric constant tensor:
#      x y z
#    x 1.706570 0.000000 0.022360 
#    y 0.000000 1.610290 0.000000 
#    z 0.022360 0.000000 1.653070 
# 
# From -- ./inp_files/6816.got.cif
#   From: 2010.05.17/outbox.cif.g08.bks.cpg/sg10_4_cif.got.tgz:6816.got - 2010.06.03 11:33:40.
