data_PCOD9146642
_publ_section_title
;
Structure prediction by ZEFSAII (Michael W. Deem and Ramdas Pophale) SiO2 
 PCOD9146642
Probable space group: P 2/M
;
_chemical_formula_sum "Si O2"
_cell_formula_units_Z 28
_cell_length_a 16.612663
_cell_length_b 7.502859
_cell_length_c 20.986861
_cell_angle_alpha 90.000000
_cell_angle_beta 150.439256
_cell_angle_gamma 90.000000
_cell_volume 1290.521233
_symmetry_space_group_name_H-M "P 2/M"
_symmetry_group_IT_number 10
_symmetry_cell_setting 'monoclinic'
loop_
_space_group_symop_operation_xyz
x,y,z
-x,y,-z
-x,-y,-z
x,-y,z
loop_
_atom_site_type_symbol
_atom_site_label
_atom_site_fract_x
_atom_site_fract_y
_atom_site_fract_z
Si Si1 0.950274 0.718101 0.395434
Si Si2 0.997997 0.284061 0.825619
Si Si3 0.140375 0.706387 0.403329
Si Si4 0.153876 0.790140 0.145739
Si Si5 0.423067 0.282560 0.880637
Si Si6 0.490597 0.206822 0.323278
Si Si7 0.627793 0.716079 0.898643
O O1 0.957528 0.500000 0.401963
O O2 0.764669 0.770094 0.253944
O O3 0.000000 0.778868 0.500000
O O4 0.066077 0.781173 0.417736
O O5 0.998238 0.500000 0.825165
O O6 0.931528 0.218014 0.711880
O O7 0.886366 0.228404 0.807900
O O8 0.183950 0.225882 0.966739
O O9 0.087923 0.500000 0.366708
O O10 0.335520 0.711572 0.539930
O O11 0.329571 0.715521 0.246628
O O12 0.161983 0.000000 0.134712
O O13 0.000000 0.714714 0.000000
O O14 0.426625 0.500000 0.883068
O O15 0.527247 0.225346 0.891295
O O16 0.500000 0.222860 0.000000
O O17 0.454360 0.222020 0.223173
O O18 0.505539 0.000000 0.351419
O O19 0.626449 0.500000 0.896539
#
# Coordination Sequence:
#
# PCOD9146642 Si02
#       7
#     4   4   4   4   4   4   4
#     4   9  16  28  49  75 105 143 180 213 256 312
#     4  10  21  35  56  85 115 144 175 223 282 330
#     4  10  21  37  55  82 117 146 179 224 274 325
#     4  10  21  39  59  79 106 142 185 228 269 323
#     4   9  16  27  48  79 110 138 174 220 266 316
#     4  11  23  38  57  80 106 142 187 228 269 323
#     4  10  19  33  56  85 112 141 180 227 275 321
#
# _framework density 21.696660999999999
#
# number of rings (size 3 to 8) (size 9 to 14) (size 15 to 20)
#    0.000    2.143    1.429    2.143    0.000    8.286 
#    0.000    2.857    0.000    4.286    0.000    0.000 
#    0.000    0.000    0.000    0.000    0.000    0.000 
#
# Total GULP energy -156476.047106 kJ/mol
# GULP energy per Si atom -5588.430254 kJ/mol
# Density = 2.164728 g / cm^3
# Si number density = 21.696661 Si / 1000 Ang^3
#
#
#
# Elastic Constant Matrix: (Units=GPa)
#
#
# Indices 1 2 3 4 5 6 
#
# 1 121.8783 -9.1233 35.5676 0.0000 1.5355 0.0000
# 2 -9.1233 51.6999 -13.9824 0.0000 0.8986 0.0000
# 3 35.5676 -13.9824 105.8137 0.0000 -13.0289 0.0000
# 4 0.0000 0.0000 0.0000 -93.2340 0.0000 -26.3629
# 5 1.5355 0.8986 -13.0289 0.0000 41.6867 0.0000
# 6 0.0000 0.0000 0.0000 -26.3629 0.0000 31.9682
#
#
#
# Elastic Compliance Matrix: (Units=1/GPa)
#
#
# Indices 1 2 3 4 5 6 
#
# 1 0.009201 0.000794 -0.003153 0.000000 -0.001342 0.000000
# 2 0.000794 0.020135 0.002430 0.000000 0.000296 0.000000
# 3 -0.003153 0.002430 0.011273 0.000000 0.003587 0.000000
# 4 0.000000 0.000000 0.000000 -0.008698 0.000000 -0.007173
# 5 -0.001342 0.000296 0.003587 0.000000 0.025153 0.000000
# 6 0.000000 0.000000 0.000000 -0.007173 0.000000 0.025366
#
#
# Mechanical properties :
#
#
# Convention : Reuss Voigt Hill
#
# Bulk Modulus (GPa) = 24.53874 33.81285 29.17580
# Shear Modulus (GPa) = 52.15288 13.87952 33.01620
#
# Velocity S-wave (km/s) = 4.90810 2.53199 3.90515
# Velocity P-wave (km/s) = 6.59195 4.91591 5.81463
#
# Compressibility (1/GPa) = 0.04075188
#
# Stress axis : x y z
#
# Youngs Moduli (GPa) = 108.67865 49.66559 88.70554
#
# Poissons Ratio (x) = -0.03945 0.27970
# Poissons Ratio (y) = -0.08632 -0.21557
# Poissons Ratio (z) = 0.34268 -0.12069
#
# Static dielectric constant tensor:
#      x y z
#    x 1.752000 0.000000 0.018400 
#    y 0.000000 1.839880 0.000000 
#    z 0.018400 0.000000 1.711420 
# 
# From -- ./inp_files/84986.got.cif
#   From: 2010.05.17/outbox.cif.g08.bks.cpg/sg10_43_cif.got.tgz:84986.got - 2010.06.03 11:33:40.
