data_PCOD9146511
_publ_section_title
;
Structure prediction by ZEFSAII (Michael W. Deem and Ramdas Pophale) SiO2 
 PCOD9146511
Probable space group: P 2/M
;
_chemical_formula_sum "Si O2"
_cell_formula_units_Z 32
_cell_length_a 19.847589
_cell_length_b 8.898921
_cell_length_c 10.445893
_cell_angle_alpha 90.000000
_cell_angle_beta 90.000000
_cell_angle_gamma 90.000000
_cell_volume 1844.975835
_symmetry_space_group_name_H-M "P 2/M"
_symmetry_group_IT_number 10
_symmetry_cell_setting 'monoclinic'
loop_
_space_group_symop_operation_xyz
x,y,z
-x,y,-z
-x,-y,-z
x,-y,z
loop_
_atom_site_type_symbol
_atom_site_label
_atom_site_fract_x
_atom_site_fract_y
_atom_site_fract_z
Si Si1 0.966248 0.681591 0.865290
Si Si2 0.544303 0.679532 0.374023
Si Si3 0.178509 0.679971 0.524613
Si Si4 0.955696 0.179532 0.374023
Si Si5 0.820889 0.320094 0.776719
Si Si6 0.321492 0.820029 0.524613
Si Si7 0.466248 0.818408 0.134709
Si Si8 0.320888 0.179906 0.223281
O O1 0.968685 0.500000 0.852114
O O2 0.887726 0.726936 0.852910
O O3 0.007126 0.753945 0.749009
O O4 0.000000 0.722095 0.000000
O O5 0.500000 0.715098 0.500000
O O6 0.549973 0.500000 0.363934
O O7 0.617141 0.752360 0.395976
O O8 0.507126 0.746057 0.250991
O O9 0.179964 0.500000 0.535291
O O10 0.117141 0.747638 0.604024
O O11 0.168499 0.718845 0.373649
O O12 0.250000 0.750001 0.563077
O O13 0.000000 0.215098 0.500000
O O14 0.950026 0.000000 0.363935
O O15 0.815047 0.500000 0.784374
O O16 0.750000 0.250000 0.818514
O O17 0.331501 0.781154 0.373649
O O18 0.320038 0.000000 0.535291
O O19 0.387726 0.773064 0.147091
O O20 0.468685 0.000000 0.147883
O O21 0.500000 0.777902 0.000000
O O22 0.315048 0.000000 0.215627
#
# Coordination Sequence:
#
# PCOD9146511 Si02
#       8
#     4   4   4   4   4   4   4   4
#     4  10  21  38  58  81 111 149 191 231 281 339
#     4  11  22  35  55  83 113 145 185 230 278 330
#     4  10  19  33  55  82 113 144 183 232 283 333
#     4  11  22  35  55  83 113 145 185 230 278 330
#     4   9  18  32  53  80 107 140 180 226 276 330
#     4  10  19  33  55  82 113 144 183 232 283 333
#     4  10  21  38  58  81 111 149 191 231 281 339
#     4   9  18  32  53  80 107 140 180 226 276 330
#
# _framework density 17.344401000000001
#
# number of rings (size 3 to 8) (size 9 to 14) (size 15 to 20)
#    0.000    2.000    2.500    1.500    0.000    3.500 
#    0.000    1.250    0.000    3.000    0.000    0.000 
#    0.000    0.000    0.000    0.000    0.000    0.000 
#
# Total GULP energy -178627.654476 kJ/mol
# GULP energy per Si atom -5582.114202 kJ/mol
# Density = 1.730492 g / cm^3
# Si number density = 17.344401 Si / 1000 Ang^3
#
#
#
# Elastic Constant Matrix: (Units=GPa)
#
#
# Indices 1 2 3 4 5 6 
#
# 1 205.1459 55.2573 87.6310 0.0000 -0.0002 0.0000
# 2 55.2573 31.0355 47.4280 0.0000 -0.0003 0.0000
# 3 87.6310 47.4280 109.6538 0.0000 -0.0004 0.0000
# 4 0.0000 0.0000 0.0000 -6.0045 0.0000 0.0021
# 5 -0.0002 -0.0003 -0.0004 0.0000 27.9326 0.0000
# 6 0.0000 0.0000 0.0000 0.0021 0.0000 33.8273
#
#
#
# Elastic Compliance Matrix: (Units=1/GPa)
#
#
# Indices 1 2 3 4 5 6 
#
# 1 0.009391 -0.015489 -0.000805 0.000000 0.000000 0.000000
# 2 -0.015489 0.120590 -0.039780 0.000000 0.000001 0.000000
# 3 -0.000805 -0.039780 0.026969 0.000000 0.000000 0.000000
# 4 0.000000 0.000000 0.000000 -0.166543 0.000000 0.000010
# 5 0.000000 0.000001 0.000000 0.000000 0.035800 0.000000
# 6 0.000000 0.000000 0.000000 0.000010 0.000000 0.029562
#
#
# Mechanical properties :
#
#
# Convention : Reuss Voigt Hill
#
# Bulk Modulus (GPa) = 22.32085 80.71865 51.51975
# Shear Modulus (GPa) = 27.34457 21.51902 24.43179
#
# Velocity S-wave (km/s) = 3.97491 3.52616 3.75724
# Velocity P-wave (km/s) = 5.82783 7.95099 6.97072
#
# Compressibility (1/GPa) = 0.04480115
#
# Stress axis : x y z
#
# Youngs Moduli (GPa) = 106.48942 8.29255 37.07971
#
# Poissons Ratio (x) = 0.12844 0.02986
# Poissons Ratio (y) = 1.64942 1.47503
# Poissons Ratio (z) = 0.08574 0.32988
#
# Static dielectric constant tensor:
#      x y z
#    x 1.582850 0.000000 0.000000 
#    y 0.000000 1.576670 0.000000 
#    z 0.000000 0.000000 1.564260 
# 
# From -- ./inp_files/52696.got.cif
#   From: 2010.05.17/outbox.cif.g08.bks.cpg/sg10_27_cif.got.tgz:52696.got - 2010.06.03 11:33:40.
