data_PCOD9146797
_publ_section_title
;
Structure prediction by ZEFSAII (Michael W. Deem and Ramdas Pophale) SiO2 
 PCOD9146797
Probable space group: P 2/M
;
_chemical_formula_sum "Si O2"
_cell_formula_units_Z 24
_cell_length_a 13.553562
_cell_length_b 12.365279
_cell_length_c 13.553565
_cell_angle_alpha 90.000000
_cell_angle_beta 32.582132
_cell_angle_gamma 90.000000
_cell_volume 1223.215844
_symmetry_space_group_name_H-M "P 2/M"
_symmetry_group_IT_number 10
_symmetry_cell_setting 'monoclinic'
loop_
_space_group_symop_operation_xyz
x,y,z
-x,y,-z
-x,-y,-z
x,-y,z
loop_
_atom_site_type_symbol
_atom_site_label
_atom_site_fract_x
_atom_site_fract_y
_atom_site_fract_z
Si Si1 0.555463 0.791261 0.055461
Si Si2 0.331790 0.875767 0.831791
Si Si3 0.123649 0.378338 0.209694
Si Si4 0.991168 0.706909 0.899167
Si Si5 0.600833 0.293089 0.508832
Si Si6 0.290307 0.621662 0.376350
O O1 0.606106 0.864704 0.106103
O O2 0.391062 0.712141 0.228263
O O3 0.500000 0.846440 0.000000
O O4 0.728265 0.712141 0.891059
O O5 0.480759 0.809684 0.642889
O O6 0.316256 0.000000 0.816260
O O7 0.142891 0.809683 0.980757
O O8 0.186080 0.500000 0.179413
O O9 0.086365 0.366930 0.123459
O O10 0.927591 0.360789 0.427592
O O11 0.195378 0.738737 0.695380
O O12 0.000000 0.655009 0.000000
O O13 0.500000 0.344989 0.500000
O O14 0.623458 0.366929 0.586365
O O15 0.320590 0.500000 0.313918
#
# Coordination Sequence:
#
# PCOD9146797 Si02
#       6
#     4   4   4   4   4   4
#     4  10  21  37  56  77 103 134 173 224 268 305
#     4  10  22  38  55  76 102 135 176 220 266 315
#     4   9  19  34  52  77 109 141 173 208 250 306
#     4  10  19  34  52  76 109 140 173 211 253 304
#     4  10  19  34  52  76 109 140 173 211 253 304
#     4   9  19  34  52  77 109 141 173 208 250 306
#
# _framework density 19.620412999999999
#
# number of rings (size 3 to 8) (size 9 to 14) (size 15 to 20)
#    0.000    2.333    1.667    0.500    0.000    4.333 
#    0.000    1.667    0.000    0.000    0.000    9.333 
#    0.000    0.000    0.000    0.000    0.000    0.000 
#
# Total GULP energy -133955.224677 kJ/mol
# GULP energy per Si atom -5581.467695 kJ/mol
# Density = 1.957576 g / cm^3
# Si number density = 19.620413 Si / 1000 Ang^3
#
#
#
# Elastic Constant Matrix: (Units=GPa)
#
#
# Indices 1 2 3 4 5 6 
#
# 1 88.5257 -21.6947 10.3423 0.0000 17.1285 0.0000
# 2 -21.6947 50.0389 14.2097 0.0000 -10.3645 0.0000
# 3 10.3423 14.2097 74.1666 0.0000 -12.9843 0.0000
# 4 0.0000 0.0000 0.0000 10.5096 0.0000 -3.8623
# 5 17.1285 -10.3645 -12.9843 0.0000 18.1162 0.0000
# 6 0.0000 0.0000 0.0000 -3.8623 0.0000 -2.8696
#
#
#
# Elastic Compliance Matrix: (Units=1/GPa)
#
#
# Indices 1 2 3 4 5 6 
#
# 1 0.016734 0.005498 -0.006411 0.000000 -0.017271 0.000000
# 2 0.005498 0.024848 -0.004515 0.000000 0.005781 0.000000
# 3 -0.006411 -0.004515 0.018125 0.000000 0.016469 0.000000
# 4 0.000000 0.000000 0.000000 0.063662 0.000000 -0.085685
# 5 -0.017271 0.005781 0.016469 0.000000 0.086639 0.000000
# 6 0.000000 0.000000 0.000000 -0.085685 0.000000 -0.233152
#
#
# Mechanical properties :
#
#
# Convention : Reuss Voigt Hill
#
# Bulk Modulus (GPa) = 20.46977 24.27174 22.37076
# Shear Modulus (GPa) = 1251.32252 19.14282 635.23267
#
# Velocity S-wave (km/s) = 25.28142 3.12694 18.01288
# Velocity P-wave (km/s) = 29.37100 5.04327 21.07238
#
# Compressibility (1/GPa) = 0.04885253
#
# Stress axis : x y z
#
# Youngs Moduli (GPa) = 59.75772 40.24476 55.17139
#
# Poissons Ratio (x) = -0.22128 0.35368
# Poissons Ratio (y) = -0.32857 0.24912
# Poissons Ratio (z) = 0.38308 0.18172
#
# Static dielectric constant tensor:
#      x y z
#    x 1.736190 0.000000 0.016770 
#    y 0.000000 1.618120 0.000000 
#    z 0.016770 0.000000 1.678090 
# 
# From -- ./inp_files/51705.got.cif
#   From: 2010.05.17/outbox.cif.g08.bks.cpg/sg10_26_cif.got.tgz:51705.got - 2010.06.03 11:33:40.
