data_PCOD9146992
_publ_section_title
;
Structure prediction by ZEFSAII (Michael W. Deem and Ramdas Pophale) SiO2 
 PCOD9146992
Probable space group: P 2/M
;
_chemical_formula_sum "Si O2"
_cell_formula_units_Z 20
_cell_length_a 5.209945
_cell_length_b 24.500794
_cell_length_c 9.064609
_cell_angle_alpha 90.000000
_cell_angle_beta 127.365140
_cell_angle_gamma 90.000000
_cell_volume 919.626540
_symmetry_space_group_name_H-M "P 2/M"
_symmetry_group_IT_number 10
_symmetry_cell_setting 'monoclinic'
loop_
_space_group_symop_operation_xyz
x,y,z
-x,y,-z
-x,-y,-z
x,-y,z
loop_
_atom_site_type_symbol
_atom_site_label
_atom_site_fract_x
_atom_site_fract_y
_atom_site_fract_z
Si Si1 0.384610 0.939530 0.127428
Si Si2 0.218076 0.670735 0.284213
Si Si3 0.885189 0.439711 0.129349
Si Si4 0.291886 0.278361 0.724195
Si Si5 0.383235 0.166455 0.626281
O O1 0.480314 0.889716 0.264271
O O2 0.511891 0.000000 0.215301
O O3 0.500000 0.929330 0.000000
O O4 0.000000 0.942166 0.000000
O O5 0.500000 0.682869 0.500000
O O6 0.422310 0.678389 0.206029
O O7 0.075565 0.610958 0.264306
O O8 0.915605 0.711265 0.201812
O O9 0.956356 0.500000 0.218624
O O10 0.500000 0.432085 0.000000
O O11 0.000000 0.440400 0.000000
O O12 0.448466 0.219367 0.750658
O O13 0.000000 0.283482 0.500000
O O14 0.500000 0.176879 0.500000
O O15 0.000000 0.160658 0.500000
#
# Coordination Sequence:
#
# PCOD9146992 Si02
#       5
#     4   4   4   4   4
#     4  10  22  40  58  80 116 154 185 229 288 333
#     4  10  19  34  56  78 103 139 179 216 262 325
#     4  10  21  37  54  75 107 141 174 221 277 322
#     4   9  18  33  53  79 110 139 170 221 279 317
#     4  11  21  36  60  86 112 146 191 233 273 332
#
# _framework density 21.747959000000002
#
# number of rings (size 3 to 8) (size 9 to 14) (size 15 to 20)
#    0.000    2.000    0.000    5.400    0.000    1.200 
#    0.000    6.000    0.000    7.200    0.000    0.000 
#    0.000    0.000    0.000    0.000    0.000    0.000 
#
# Total GULP energy -111602.201098 kJ/mol
# GULP energy per Si atom -5580.110055 kJ/mol
# Density = 2.169846 g / cm^3
# Si number density = 21.747959 Si / 1000 Ang^3
#
#
#
# Elastic Constant Matrix: (Units=GPa)
#
#
# Indices 1 2 3 4 5 6 
#
# 1 158.5508 47.1494 37.1858 0.0000 29.0572 0.0000
# 2 47.1494 161.8915 27.8814 0.0000 17.9914 0.0000
# 3 37.1858 27.8814 22.6639 0.0000 3.9784 0.0000
# 4 0.0000 0.0000 0.0000 29.7736 0.0000 3.5128
# 5 29.0572 17.9914 3.9784 0.0000 26.0593 0.0000
# 6 0.0000 0.0000 0.0000 3.5128 0.0000 33.3616
#
#
#
# Elastic Compliance Matrix: (Units=1/GPa)
#
#
# Indices 1 2 3 4 5 6 
#
# 1 0.013045 0.001105 -0.020628 0.000000 -0.012159 0.000000
# 2 0.001105 0.008370 -0.011178 0.000000 -0.005304 0.000000
# 3 -0.020628 -0.011178 0.088705 0.000000 0.017176 0.000000
# 4 0.000000 0.000000 0.000000 0.034009 0.000000 -0.003581
# 5 -0.012159 -0.005304 0.017176 0.000000 0.052972 0.000000
# 6 0.000000 0.000000 0.000000 -0.003581 0.000000 0.030352
#
#
# Mechanical properties :
#
#
# Convention : Reuss Voigt Hill
#
# Bulk Modulus (GPa) = 20.52687 63.05994 41.79340
# Shear Modulus (GPa) = 16.38834 33.23151 24.80993
#
# Velocity S-wave (km/s) = 2.74808 3.91324 3.38123
# Velocity P-wave (km/s) = 4.41908 7.03397 5.87388
#
# Compressibility (1/GPa) = 0.04871664
#
# Stress axis : x y z
#
# Youngs Moduli (GPa) = 76.65728 119.47726 11.27329
#
# Poissons Ratio (x) = -0.13198 0.23255
# Poissons Ratio (y) = -0.08468 0.12601
# Poissons Ratio (z) = 1.58131 1.33553
#
# Static dielectric constant tensor:
#      x y z
#    x 1.798110 0.000000 -0.042700 
#    y 0.000000 1.868050 0.000000 
#    z -0.042700 0.000000 1.773970 
# 
# From -- ./inp_files/40062.got.cif
#   From: 2010.05.17/outbox.cif.g08.bks.cpg/sg10_21_cif.got.tgz:40062.got - 2010.06.03 11:33:40.
