data_PCOD9146785
_publ_section_title
;
Structure prediction by ZEFSAII (Michael W. Deem and Ramdas Pophale) SiO2 
 PCOD9146785
Probable space group: P 2/M
;
_chemical_formula_sum "Si O2"
_cell_formula_units_Z 32
_cell_length_a 12.092273
_cell_length_b 8.825820
_cell_length_c 19.997874
_cell_angle_alpha 90.000000
_cell_angle_beta 120.313442
_cell_angle_gamma 90.000000
_cell_volume 1842.455844
_symmetry_space_group_name_H-M "P 2/M"
_symmetry_group_IT_number 10
_symmetry_cell_setting 'monoclinic'
loop_
_space_group_symop_operation_xyz
x,y,z
-x,y,-z
-x,-y,-z
x,-y,z
loop_
_atom_site_type_symbol
_atom_site_label
_atom_site_fract_x
_atom_site_fract_y
_atom_site_fract_z
Si Si1 0.383123 0.179224 0.767963
Si Si2 0.405684 0.679792 0.531668
Si Si3 0.848137 0.180129 0.593032
Si Si4 0.892398 0.674550 0.165477
Si Si5 0.167865 0.684472 0.263434
Si Si6 0.385210 0.315742 0.915798
Si Si7 0.437020 0.679478 0.283965
Si Si8 0.883818 0.674450 0.325742
O O1 0.403474 0.252372 0.847087
O O2 0.497824 0.227676 0.754838
O O3 0.248929 0.243859 0.697797
O O4 0.372706 0.000000 0.771209
O O5 0.500000 0.727502 0.500000
O O6 0.380427 0.500000 0.514790
O O7 0.271759 0.766403 0.487468
O O8 0.480341 0.701088 0.623469
O O9 0.821196 0.247173 0.659040
O O10 0.985067 0.246547 0.611738
O O11 0.855938 0.000000 0.598716
O O12 0.893877 0.500000 0.143239
O O13 0.755344 0.739569 0.102405
O O14 0.888867 0.675697 0.245714
O O15 0.032110 0.738821 0.191544
O O16 0.163530 0.500000 0.269298
O O17 0.291499 0.721784 0.257533
O O18 0.380241 0.500000 0.910163
O O19 0.500000 0.273559 0.000000
O O20 0.440464 0.500000 0.268672
O O21 0.880402 0.500000 0.346363
#
# Coordination Sequence:
#
# PCOD9146785 Si02
#       8
#     4   4   4   4   4   4   4   4
#     4  11  22  35  52  77 109 135 165 210 265 320
#     4  10  19  34  52  71  97 134 182 224 260 307
#     4  11  20  29  47  76 106 131 165 218 275 313
#     4   7  12  24  47  76  99 121 159 212 253 283
#     4   9  16  30  50  71  97 135 180 218 253 302
#     4   9  17  32  56  83 108 136 171 208 249 305
#     4  10  20  34  53  72  97 137 181 218 256 310
#     4   9  17  33  54  71  95 133 176 213 251 305
#
# _framework density 17.368122
#
# number of rings (size 3 to 8) (size 9 to 14) (size 15 to 20)
#    0.000    2.500    1.250    4.125    0.000    1.500 
#    0.000    0.625    0.000    4.500    0.000    5.250 
#    0.000    0.000    0.000    0.000    0.000    0.000 
#
# Total GULP energy -178370.153946 kJ/mol
# GULP energy per Si atom -5574.067311 kJ/mol
# Density = 1.732859 g / cm^3
# Si number density = 17.368122 Si / 1000 Ang^3
#
#
#
# Elastic Constant Matrix: (Units=GPa)
#
#
# Indices 1 2 3 4 5 6 
#
# 1 112.9724 38.7248 40.5140 0.0000 30.5912 0.0000
# 2 38.7248 50.9746 27.0509 0.0000 11.2201 0.0000
# 3 40.5140 27.0509 49.4503 0.0000 27.8798 0.0000
# 4 0.0000 0.0000 0.0000 4.8768 0.0000 -0.5129
# 5 30.5912 11.2201 27.8798 0.0000 31.0589 0.0000
# 6 0.0000 0.0000 0.0000 -0.5129 0.0000 7.9042
#
#
#
# Elastic Compliance Matrix: (Units=1/GPa)
#
#
# Indices 1 2 3 4 5 6 
#
# 1 0.015148 -0.008023 -0.002519 0.000000 -0.009761 0.000000
# 2 -0.008023 0.032725 -0.018462 0.000000 0.012652 0.000000
# 3 -0.002519 -0.018462 0.055124 0.000000 -0.040331 0.000000
# 4 0.000000 0.000000 0.000000 0.206463 0.000000 0.013398
# 5 -0.009761 0.012652 -0.040331 0.000000 0.073443 0.000000
# 6 0.000000 0.000000 0.000000 0.013398 0.000000 0.127385
#
#
# Mechanical properties :
#
#
# Convention : Reuss Voigt Hill
#
# Bulk Modulus (GPa) = 22.22726 47.33074 34.77900
# Shear Modulus (GPa) = 8.57204 15.90847 12.24025
#
# Velocity S-wave (km/s) = 2.22401 3.02976 2.65760
# Velocity P-wave (km/s) = 4.40687 6.28887 5.43003
#
# Compressibility (1/GPa) = 0.04498981
#
# Stress axis : x y z
#
# Youngs Moduli (GPa) = 66.01475 30.55798 18.14091
#
# Poissons Ratio (x) = 0.24516 0.04570
# Poissons Ratio (y) = 0.52961 0.33491
# Poissons Ratio (z) = 0.16629 0.56416
#
# Static dielectric constant tensor:
#      x y z
#    x 1.612130 0.000000 0.031330 
#    y 0.000000 1.579630 0.000000 
#    z 0.031330 0.000000 1.580930 
# 
# From -- ./inp_files/83387.got.cif
#   From: 2010.05.17/outbox.cif.g08.bks.cpg/sg10_42_cif.got.tgz:83387.got - 2010.06.03 11:33:40.
