data_PCOD9146557
_publ_section_title
;
Structure prediction by ZEFSAII (Michael W. Deem and Ramdas Pophale) SiO2 
 PCOD9146557
Probable space group: P 2/M
;
_chemical_formula_sum "Si O2"
_cell_formula_units_Z 16
_cell_length_a 14.348864
_cell_length_b 10.913987
_cell_length_c 11.284128
_cell_angle_alpha 90.000000
_cell_angle_beta 28.915472
_cell_angle_gamma 90.000000
_cell_volume 854.441427
_symmetry_space_group_name_H-M "P 2/M"
_symmetry_group_IT_number 10
_symmetry_cell_setting 'monoclinic'
loop_
_space_group_symop_operation_xyz
x,y,z
-x,y,-z
-x,-y,-z
x,-y,z
loop_
_atom_site_type_symbol
_atom_site_label
_atom_site_fract_x
_atom_site_fract_y
_atom_site_fract_z
Si Si1 0.716866 0.500000 0.414757
Si Si2 0.207618 0.362665 0.331085
Si Si3 0.383413 0.134441 0.252735
Si Si4 0.405841 0.678451 0.864433
Si Si5 0.160290 0.500000 0.990621
O O1 0.590425 0.613108 0.601825
O O2 0.734018 0.500000 0.253585
O O3 0.934628 0.500000 0.218090
O O4 0.218697 0.500000 0.370561
O O5 0.241930 0.248593 0.380717
O O6 0.000000 0.349511 0.500000
O O7 0.358403 0.358423 0.053309
O O8 0.533278 0.180509 0.186574
O O9 0.299719 0.000000 0.372027
O O10 0.500000 0.123073 0.000000
O O11 0.230548 0.620129 0.985090
#
# Coordination Sequence:
#
# PCOD9146557 Si02
#       5
#     2   4   4   4   2
#     4  10  21  35  56  80 112 126 174 235 283 316
#     4  10  20  30  51  83 115 146 180 217 254 310
#     4   9  20  34  49  75 114 151 179 212 255 310
#     4  10  19  33  56  74 110 143 179 213 266 319
#     4  10  21  35  54  86 103 133 172 234 283 319
#
# _framework density 18.725684999999999
#
# number of rings (size 3 to 8) (size 9 to 14) (size 15 to 20)
#    0.000    2.250    2.500    1.500    7.000    2.000 
#    0.000    0.000    0.000    3.000    0.000    3.500 
#    0.000    0.000    0.000    0.000    0.000    0.000 
#
# Total GULP energy -89088.225206 kJ/mol
# GULP energy per Si atom -5568.014075 kJ/mol
# Density = 1.868306 g / cm^3
# Si number density = 18.725685 Si / 1000 Ang^3
#
#
#
# Elastic Constant Matrix: (Units=GPa)
#
#
# Indices 1 2 3 4 5 6 
#
# 1 88.3096 35.3210 9.1588 0.0000 -0.6798 0.0000
# 2 35.3210 141.1100 -3.8636 0.0000 -7.1646 0.0000
# 3 9.1588 -3.8636 53.9144 0.0000 6.0875 0.0000
# 4 0.0000 0.0000 0.0000 8.4935 0.0000 -0.6481
# 5 -0.6798 -7.1646 6.0875 0.0000 39.2628 0.0000
# 6 0.0000 0.0000 0.0000 -0.6481 0.0000 8.6169
#
#
#
# Elastic Compliance Matrix: (Units=1/GPa)
#
#
# Indices 1 2 3 4 5 6 
#
# 1 0.012893 -0.003294 -0.002426 0.000000 -0.000002 0.000000
# 2 -0.003294 0.008002 0.000992 0.000000 0.001249 0.000000
# 3 -0.002426 0.000992 0.019354 0.000000 -0.002862 0.000000
# 4 0.000000 0.000000 0.000000 0.118416 0.000000 0.008906
# 5 -0.000002 0.001249 -0.002862 0.000000 0.026141 0.000000
# 6 0.000000 0.000000 0.000000 0.008906 0.000000 0.116721
#
#
# Mechanical properties :
#
#
# Convention : Reuss Voigt Hill
#
# Bulk Modulus (GPa) = 32.47486 40.50737 36.49112
# Shear Modulus (GPa) = 15.56434 27.45582 21.51008
#
# Velocity S-wave (km/s) = 2.88614 3.83327 3.39292
# Velocity P-wave (km/s) = 5.33727 6.42424 5.90582
#
# Compressibility (1/GPa) = 0.03079305
#
# Stress axis : x y z
#
# Youngs Moduli (GPa) = 77.56296 124.97356 51.66825
#
# Poissons Ratio (x) = 0.41162 0.12535
# Poissons Ratio (y) = 0.25547 -0.05125
# Poissons Ratio (z) = 0.18817 -0.12396
#
# Static dielectric constant tensor:
#      x y z
#    x 1.713810 0.000000 -0.040200 
#    y 0.000000 1.694220 0.000000 
#    z -0.040200 0.000000 1.680480 
# 
# From -- ./inp_files/50220.got.cif
#   From: 2010.05.17/outbox.cif.g08.bks.cpg/sg10_26_cif.got.tgz:50220.got - 2010.06.03 11:33:40.
