data_PCOD9146203
_publ_section_title
;
Structure prediction by ZEFSAII (Michael W. Deem and Ramdas Pophale) SiO2 
 PCOD9146203
Probable space group: P 2/M
;
_chemical_formula_sum "Si O2"
_cell_formula_units_Z 28
_cell_length_a 18.801065
_cell_length_b 16.113333
_cell_length_c 8.239359
_cell_angle_alpha 90.000000
_cell_angle_beta 145.525264
_cell_angle_gamma 90.000000
_cell_volume 1412.897067
_symmetry_space_group_name_H-M "P 2/M"
_symmetry_group_IT_number 10
_symmetry_cell_setting 'monoclinic'
loop_
_space_group_symop_operation_xyz
x,y,z
-x,y,-z
-x,-y,-z
x,-y,z
loop_
_atom_site_type_symbol
_atom_site_label
_atom_site_fract_x
_atom_site_fract_y
_atom_site_fract_z
Si Si1 0.894273 0.593294 0.944096
Si Si2 0.058118 0.234598 0.852595
Si Si3 0.193460 0.790182 0.453170
Si Si4 0.560570 0.796245 0.439450
Si Si5 0.782977 0.904070 0.996188
Si Si6 0.648723 0.091466 0.091863
Si Si7 0.367124 0.655604 0.672682
O O1 0.915232 0.500000 0.044385
O O2 0.751879 0.598720 0.603454
O O3 0.911867 0.667302 0.108352
O O4 0.000000 0.608234 0.000000
O O5 0.911596 0.222807 0.609270
O O6 0.127278 0.217349 0.155339
O O7 0.109998 0.165028 0.829660
O O8 0.298766 0.719383 0.666965
O O9 0.260750 0.877726 0.596957
O O10 0.500000 0.775984 0.500000
O O11 0.669072 0.863328 0.679938
O O12 0.461505 0.843875 0.142181
O O13 0.602964 0.713736 0.426711
O O14 0.731390 0.906878 0.082607
O O15 0.814141 0.000000 0.009590
O O16 0.598728 0.000000 0.021430
O O17 0.500000 0.624839 0.000000
#
# Coordination Sequence:
#
# PCOD9146203 Si02
#       7
#     4   4   4   4   4   4   4
#     4  10  19  35  60  86 111 140 175 223 280 337
#     4  10  19  36  56  78 106 138 187 221 275 329
#     4  10  19  34  51  76 106 139 173 230 272 316
#     4  10  19  33  53  75 105 146 187 224 267 322
#     4  10  20  34  53  76 107 148 188 225 265 323
#     4  10  21  34  49  76 109 147 192 226 267 320
#     4  11  19  34  56  83 111 135 182 227 276 327
#
# _framework density 19.817437999999999
#
# number of rings (size 3 to 8) (size 9 to 14) (size 15 to 20)
#    0.000    1.857    7.143    0.429    0.000    3.714 
#    0.000    3.571    0.000    0.429    0.000    6.000 
#    0.000    0.143    0.000    0.000    0.000    0.000 
#
# Total GULP energy -156012.546109 kJ/mol
# GULP energy per Si atom -5571.876647 kJ/mol
# Density = 1.977233 g / cm^3
# Si number density = 19.817438 Si / 1000 Ang^3
#
#
#
# Elastic Constant Matrix: (Units=GPa)
#
#
# Indices 1 2 3 4 5 6 
#
# 1 57.3079 37.4295 20.2594 0.0000 27.1227 0.0000
# 2 37.4295 109.3876 17.8539 0.0000 0.9143 0.0000
# 3 20.2594 17.8539 75.5546 0.0000 14.6299 0.0000
# 4 0.0000 0.0000 0.0000 -5.3996 0.0000 9.8395
# 5 27.1227 0.9143 14.6299 0.0000 26.0945 0.0000
# 6 0.0000 0.0000 0.0000 9.8395 0.0000 12.9436
#
#
#
# Elastic Compliance Matrix: (Units=1/GPa)
#
#
# Indices 1 2 3 4 5 6 
#
# 1 0.059034 -0.019799 0.000669 0.000000 -0.061042 0.000000
# 2 -0.019799 0.016174 -0.002679 0.000000 0.021514 0.000000
# 3 0.000669 -0.002679 0.015487 0.000000 -0.009284 0.000000
# 4 0.000000 0.000000 0.000000 -0.077643 0.000000 0.059023
# 5 -0.061042 0.021514 -0.009284 0.000000 0.106221 0.000000
# 6 0.000000 0.000000 0.000000 0.059023 0.000000 0.032390
#
#
# Mechanical properties :
#
#
# Convention : Reuss Voigt Hill
#
# Bulk Modulus (GPa) = 21.24186 43.70394 32.47290
# Shear Modulus (GPa) = 23.69967 17.84152 20.77059
#
# Velocity S-wave (km/s) = 3.46193 3.00375 3.24094
# Velocity P-wave (km/s) = 5.16933 5.84219 5.51603
#
# Compressibility (1/GPa) = 0.04707686
#
# Stress axis : x y z
#
# Youngs Moduli (GPa) = 16.93928 61.82800 64.57077
#
# Poissons Ratio (x) = 1.22413 -0.04318
# Poissons Ratio (y) = 0.33538 0.17298
# Poissons Ratio (z) = -0.01133 0.16563
#
# Static dielectric constant tensor:
#      x y z
#    x 1.736010 0.000000 0.028000 
#    y 0.000000 1.701480 0.000000 
#    z 0.028000 0.000000 1.737880 
# 
# From -- ./inp_files/35313.got.cif
#   From: 2010.05.17/outbox.cif.g08.bks.cpg/sg10_18_cif.got.tgz:35313.got - 2010.06.03 11:33:40.
