data_PCOD9146404
_publ_section_title
;
Structure prediction by ZEFSAII (Michael W. Deem and Ramdas Pophale) SiO2 
 PCOD9146404
Probable space group: P 2/M
;
_chemical_formula_sum "Si O2"
_cell_formula_units_Z 24
_cell_length_a 15.116094
_cell_length_b 13.845569
_cell_length_c 13.528269
_cell_angle_alpha 90.000000
_cell_angle_beta 152.481858
_cell_angle_gamma 90.000000
_cell_volume 1308.164267
_symmetry_space_group_name_H-M "P 2/M"
_symmetry_group_IT_number 10
_symmetry_cell_setting 'monoclinic'
loop_
_space_group_symop_operation_xyz
x,y,z
-x,y,-z
-x,-y,-z
x,-y,z
loop_
_atom_site_type_symbol
_atom_site_label
_atom_site_fract_x
_atom_site_fract_y
_atom_site_fract_z
Si Si1 0.619605 0.740765 0.802039
Si Si2 0.224407 0.388322 0.638990
Si Si3 0.319518 0.611003 0.952246
Si Si4 0.171200 0.739758 0.402676
Si Si5 0.931563 0.884845 0.045288
Si Si6 0.899386 0.392808 0.004343
O O1 0.393843 0.745423 0.592373
O O2 0.702791 0.692576 0.986210
O O3 0.727489 0.837606 0.873831
O O4 0.699281 0.663566 0.802526
O O5 0.160526 0.500000 0.554175
O O6 0.206373 0.369894 0.738378
O O7 0.155781 0.302695 0.498689
O O8 0.453931 0.389536 0.847060
O O9 0.276161 0.500000 0.938181
O O10 0.074384 0.838797 0.268583
O O11 0.053240 0.660880 0.224393
O O12 0.926352 0.000000 0.044290
O O13 0.000000 0.857665 0.000000
O O14 0.864663 0.500000 0.004374
O O15 0.000000 0.394784 0.000000
#
# Coordination Sequence:
#
# PCOD9146404 Si02
#       6
#     4   4   4   4   4   4
#     4  10  19  33  55  77  99 132 172 211 252 300
#     4   8  14  26  47  77 110 140 169 200 235 283
#     4   8  14  26  47  77 110 140 169 200 235 283
#     4  10  19  33  55  77  99 132 172 211 252 300
#     4  10  23  41  56  73  98 125 163 222 280 322
#     4  10  21  33  44  68 108 142 167 201 244 295
#
# _framework density 18.346319999999999
#
# number of rings (size 3 to 8) (size 9 to 14) (size 15 to 20)
#    0.000    2.667    0.000    4.000    0.000    5.333 
#    0.000    6.667    0.000   11.000    0.000    4.667 
#    0.000    0.000    0.000    0.000    0.000    0.000 
#
# Total GULP energy -133632.402443 kJ/mol
# GULP energy per Si atom -5568.016768 kJ/mol
# Density = 1.830456 g / cm^3
# Si number density = 18.346320 Si / 1000 Ang^3
#
#
#
# Elastic Constant Matrix: (Units=GPa)
#
#
# Indices 1 2 3 4 5 6 
#
# 1 88.9390 28.1465 13.8306 0.0000 0.4006 0.0000
# 2 28.1465 115.0120 22.1315 0.0000 -1.1165 0.0000
# 3 13.8306 22.1315 59.3378 0.0000 12.8542 0.0000
# 4 0.0000 0.0000 0.0000 11.4143 0.0000 -12.4244
# 5 0.4006 -1.1165 12.8542 0.0000 36.5921 0.0000
# 6 0.0000 0.0000 0.0000 -12.4244 0.0000 20.5267
#
#
#
# Elastic Compliance Matrix: (Units=1/GPa)
#
#
# Indices 1 2 3 4 5 6 
#
# 1 0.012390 -0.002641 -0.002009 0.000000 0.000489 0.000000
# 2 -0.002641 0.010021 -0.003458 0.000000 0.001549 0.000000
# 3 -0.002009 -0.003458 0.020163 0.000000 -0.007166 0.000000
# 4 0.000000 0.000000 0.000000 0.256803 0.000000 0.155438
# 5 0.000489 0.001549 -0.007166 0.000000 0.029888 0.000000
# 6 0.000000 0.000000 0.000000 0.155438 0.000000 0.142801
#
#
# Mechanical properties :
#
#
# Convention : Reuss Voigt Hill
#
# Bulk Modulus (GPa) = 37.93763 43.50065 40.71914
# Shear Modulus (GPa) = 10.05900 26.98531 18.52215
#
# Velocity S-wave (km/s) = 2.34409 3.83937 3.18084
# Velocity P-wave (km/s) = 5.29621 6.58913 5.97773
#
# Compressibility (1/GPa) = 0.02635905
#
# Stress axis : x y z
#
# Youngs Moduli (GPa) = 80.71303 99.78616 49.59572
#
# Poissons Ratio (x) = 0.26351 0.09963
# Poissons Ratio (y) = 0.21314 0.17150
# Poissons Ratio (z) = 0.16214 0.34505
#
# Static dielectric constant tensor:
#      x y z
#    x 1.715910 0.000000 -0.006790 
#    y 0.000000 1.613490 0.000000 
#    z -0.006790 0.000000 1.679150 
# 
# From -- ./inp_files/51679.got.cif
#   From: 2010.05.17/outbox.cif.g08.bks.cpg/sg10_26_cif.got.tgz:51679.got - 2010.06.03 11:33:40.
