data_PCOD9146889
_publ_section_title
;
Structure prediction by ZEFSAII (Michael W. Deem and Ramdas Pophale) SiO2 
 PCOD9146889
Probable space group: P 2/M
;
_chemical_formula_sum "Si O2"
_cell_formula_units_Z 28
_cell_length_a 13.345813
_cell_length_b 17.155210
_cell_length_c 7.507107
_cell_angle_alpha 90.000000
_cell_angle_beta 49.114188
_cell_angle_gamma 90.000000
_cell_volume 1299.404673
_symmetry_space_group_name_H-M "P 2/M"
_symmetry_group_IT_number 10
_symmetry_cell_setting 'monoclinic'
loop_
_space_group_symop_operation_xyz
x,y,z
-x,y,-z
-x,-y,-z
x,-y,z
loop_
_atom_site_type_symbol
_atom_site_label
_atom_site_fract_x
_atom_site_fract_y
_atom_site_fract_z
Si Si1 0.385093 0.500000 0.985192
Si Si2 0.948745 0.665786 0.262613
Si Si3 0.191432 0.758397 0.065798
Si Si4 0.896225 0.912758 0.963362
Si Si5 0.379044 0.914991 0.504211
Si Si6 0.887107 0.500000 0.484131
Si Si7 0.302319 0.246836 0.532343
Si Si8 0.556216 0.668462 0.133253
O O1 0.250537 0.500000 0.252600
O O2 0.500000 0.500000 0.000000
O O3 0.396034 0.581798 0.867838
O O4 0.904974 0.578287 0.351408
O O5 0.820041 0.720112 0.437798
O O6 0.000000 0.671376 0.000000
O O7 0.074396 0.696025 0.227565
O O8 0.125997 0.844454 0.154894
O O9 0.243087 0.757443 0.800299
O O10 0.323078 0.729718 0.010459
O O11 0.754496 0.920802 0.224513
O O12 0.935144 0.000000 0.854360
O O13 0.000000 0.889355 0.000000
O O14 0.500000 0.900564 0.500000
O O15 0.354632 0.838530 0.415130
O O16 0.400812 0.000000 0.392344
O O17 0.000000 0.500000 0.500000
O O18 0.429807 0.302000 0.389297
O O19 0.500000 0.663071 0.000000
#
# Coordination Sequence:
#
# PCOD9146889 Si02
#       8
#     2   4   4   4   4   2   4   4
#     4  10  22  39  55  73  99 133 181 226 258 306
#     4  10  21  35  55  82 110 136 170 220 274 319
#     4  10  19  34  54  81 111 138 173 218 266 316
#     4   9  16  28  50  80 110 139 172 212 257 307
#     4   9  16  27  47  76 106 137 173 210 251 304
#     4  12  23  39  58  77 104 141 180 218 265 320
#     4  10  19  34  55  79 108 141 174 217 268 313
#     4  11  22  37  55  76 103 140 182 224 265 313
#
# _framework density 21.548328000000001
#
# number of rings (size 3 to 8) (size 9 to 14) (size 15 to 20)
#    0.000    2.000    0.000    7.071    0.000    0.000 
#    0.000    2.857    0.000    1.714    0.000    0.000 
#    0.000   14.857    0.000    0.000    0.000    0.000 
#
# Total GULP energy -156207.115453 kJ/mol
# GULP energy per Si atom -5578.825552 kJ/mol
# Density = 2.149928 g / cm^3
# Si number density = 21.548328 Si / 1000 Ang^3
#
#
#
# Elastic Constant Matrix: (Units=GPa)
#
#
# Indices 1 2 3 4 5 6 
#
# 1 84.6216 33.1362 17.6537 0.0000 -45.3456 0.0000
# 2 33.1362 182.4645 34.0018 0.0000 -26.0937 0.0000
# 3 17.6537 34.0018 75.1568 0.0000 -32.6729 0.0000
# 4 0.0000 0.0000 0.0000 15.6771 0.0000 -30.5171
# 5 -45.3456 -26.0937 -32.6729 0.0000 39.2983 0.0000
# 6 0.0000 0.0000 0.0000 -30.5171 0.0000 25.6564
#
#
#
# Elastic Compliance Matrix: (Units=1/GPa)
#
#
# Indices 1 2 3 4 5 6 
#
# 1 0.042531 -0.002145 0.018316 0.000000 0.062880 0.000000
# 2 -0.002145 0.006282 -0.002507 0.000000 -0.000388 0.000000
# 3 0.018316 -0.002507 0.029130 0.000000 0.043689 0.000000
# 4 0.000000 0.000000 0.000000 -0.048493 0.000000 -0.057680
# 5 0.062880 -0.000388 0.043689 0.000000 0.134068 0.000000
# 6 0.000000 0.000000 0.000000 -0.057680 0.000000 -0.029631
#
#
# Mechanical properties :
#
#
# Convention : Reuss Voigt Hill
#
# Bulk Modulus (GPa) = 9.49925 56.86959 33.18442
# Shear Modulus (GPa) = 35.29872 33.28977 34.29425
#
# Velocity S-wave (km/s) = 4.05176 3.93477 3.99369
# Velocity P-wave (km/s) = 5.12903 6.86237 6.05802
#
# Compressibility (1/GPa) = 0.10527152
#
# Stress axis : x y z
#
# Youngs Moduli (GPa) = 23.51227 159.19371 34.32862
#
# Poissons Ratio (x) = 0.34141 -0.62875
# Poissons Ratio (y) = 0.05043 0.08605
# Poissons Ratio (z) = -0.43064 0.39906
#
# Static dielectric constant tensor:
#      x y z
#    x 1.795310 0.000000 0.032190 
#    y 0.000000 1.902840 0.000000 
#    z 0.032190 0.000000 1.784010 
# 
# From -- ./inp_files/30128.got.cif
#   From: 2010.05.17/outbox.cif.g08.bks.cpg/sg10_16_cif.got.tgz:30128.got - 2010.06.03 11:33:40.
