data_PCOD9146399
_publ_section_title
;
Structure prediction by ZEFSAII (Michael W. Deem and Ramdas Pophale) SiO2 
 PCOD9146399
Probable space group: P 2/M
;
_chemical_formula_sum "Si O2"
_cell_formula_units_Z 32
_cell_length_a 27.252951
_cell_length_b 7.570046
_cell_length_c 21.856836
_cell_angle_alpha 90.000000
_cell_angle_beta 20.859886
_cell_angle_gamma 90.000000
_cell_volume 1605.652763
_symmetry_space_group_name_H-M "P 2/M"
_symmetry_group_IT_number 10
_symmetry_cell_setting 'monoclinic'
loop_
_space_group_symop_operation_xyz
x,y,z
-x,y,-z
-x,-y,-z
x,-y,z
loop_
_atom_site_type_symbol
_atom_site_label
_atom_site_fract_x
_atom_site_fract_y
_atom_site_fract_z
Si Si1 0.884807 0.784439 0.943630
Si Si2 0.406208 0.212804 0.020425
Si Si3 0.410678 0.706721 0.765313
Si Si4 0.298545 0.216258 0.276663
Si Si5 0.913172 0.206574 0.045597
Si Si6 0.019889 0.793437 0.662424
Si Si7 0.271163 0.292168 0.048508
Si Si8 0.599638 0.285214 0.439560
O O1 0.976686 0.721859 0.779360
O O2 0.881986 0.000000 0.946443
O O3 0.729096 0.723757 0.111496
O O4 0.932045 0.721204 0.955095
O O5 0.565027 0.269560 0.844556
O O6 0.336789 0.267061 0.038180
O O7 0.406783 0.000000 0.020724
O O8 0.323652 0.272040 0.177199
O O9 0.442178 0.500000 0.737660
O O10 0.368897 0.782172 0.880287
O O11 0.533458 0.779092 0.580524
O O12 0.156140 0.280729 0.471765
O O13 0.296353 0.000000 0.278375
O O14 0.752725 0.220614 0.248995
O O15 0.952108 0.000000 0.995902
O O16 0.000000 0.286467 0.000000
O O17 0.048676 0.000000 0.638719
O O18 0.882820 0.781159 0.780594
O O19 0.256749 0.500000 0.053471
O O20 0.500000 0.231345 0.500000
O O21 0.602032 0.500000 0.437348
#
# Coordination Sequence:
#
# PCOD9146399 Si02
#       8
#     4   4   4   4   4   4   4   4
#     4   9  17  30  50  71  96 129 164 199 241 294
#     4   9  17  33  54  75  99 129 165 203 243 288
#     4   9  18  33  51  71  98 127 162 206 247 285
#     4   8  16  32  54  75  97 128 167 207 241 280
#     4  10  21  35  48  71 107 135 157 198 253 298
#     4   9  17  32  53  74  94 126 170 206 239 286
#     4  10  20  33  49  73 105 133 157 199 252 293
#     4  10  19  33  55  76  92 124 173 211 238 284
#
# _framework density 19.929590000000001
#
# number of rings (size 3 to 8) (size 9 to 14) (size 15 to 20)
#    0.000    2.750    1.250    1.125    0.000    2.000 
#    2.250    5.000    0.000    0.000    0.000    0.000 
#    0.000    0.000    0.000    0.000    0.000    0.000 
#
# Total GULP energy -178446.948958 kJ/mol
# GULP energy per Si atom -5576.467155 kJ/mol
# Density = 1.988423 g / cm^3
# Si number density = 19.929590 Si / 1000 Ang^3
#
#
#
# Elastic Constant Matrix: (Units=GPa)
#
#
# Indices 1 2 3 4 5 6 
#
# 1 162.1429 -12.9205 75.8636 0.0000 9.2168 0.0000
# 2 -12.9205 40.7931 -4.9458 0.0000 3.5431 0.0000
# 3 75.8636 -4.9458 116.0422 0.0000 18.3076 0.0000
# 4 0.0000 0.0000 0.0000 9.8712 0.0000 12.8076
# 5 9.2168 3.5431 18.3076 0.0000 18.8135 0.0000
# 6 0.0000 0.0000 0.0000 12.8076 0.0000 -32.8431
#
#
#
# Elastic Compliance Matrix: (Units=1/GPa)
#
#
# Indices 1 2 3 4 5 6 
#
# 1 0.009087 0.002062 -0.006013 0.000000 0.001011 0.000000
# 2 0.002062 0.025843 0.000804 0.000000 -0.006660 0.000000
# 3 -0.006013 0.000804 0.014344 0.000000 -0.011164 0.000000
# 4 0.000000 0.000000 0.000000 0.067269 0.000000 0.026232
# 5 0.001011 -0.006660 -0.011164 0.000000 0.064776 0.000000
# 6 0.000000 0.000000 0.000000 0.026232 0.000000 -0.020218
#
#
# Mechanical properties :
#
#
# Convention : Reuss Voigt Hill
#
# Bulk Modulus (GPa) = 23.26620 48.33034 35.79827
# Shear Modulus (GPa) = 27.51463 16.56704 22.04083
#
# Velocity S-wave (km/s) = 3.71966 2.88632 3.32917
# Velocity P-wave (km/s) = 5.49066 5.95071 5.72531
#
# Compressibility (1/GPa) = 0.04298080
#
# Stress axis : x y z
#
# Youngs Moduli (GPa) = 110.04276 38.69541 69.71600
#
# Poissons Ratio (x) = -0.07977 0.41917
# Poissons Ratio (y) = -0.22685 -0.05608
# Poissons Ratio (z) = 0.66164 -0.03113
#
# Static dielectric constant tensor:
#      x y z
#    x 1.691960 0.000000 0.037440 
#    y 0.000000 1.754460 0.000000 
#    z 0.037440 0.000000 1.695800 
# 
# From -- ./inp_files/86891.got.cif
#   From: 2010.05.17/outbox.cif.g08.bks.cpg/sg10_44_cif.got.tgz:86891.got - 2010.06.03 11:33:40.
