data_PCOD9146654
_publ_section_title
;
Structure prediction by ZEFSAII (Michael W. Deem and Ramdas Pophale) SiO2 
 PCOD9146654
Probable space group: P 2/M
;
_chemical_formula_sum "Si O2"
_cell_formula_units_Z 28
_cell_length_a 13.649821
_cell_length_b 13.008976
_cell_length_c 9.148300
_cell_angle_alpha 90.000000
_cell_angle_beta 119.203986
_cell_angle_gamma 90.000000
_cell_volume 1417.976577
_symmetry_space_group_name_H-M "P 2/M"
_symmetry_group_IT_number 10
_symmetry_cell_setting 'monoclinic'
loop_
_space_group_symop_operation_xyz
x,y,z
-x,y,-z
-x,-y,-z
x,-y,z
loop_
_atom_site_type_symbol
_atom_site_label
_atom_site_fract_x
_atom_site_fract_y
_atom_site_fract_z
Si Si1 0.597661 0.293360 0.468579
Si Si2 0.031154 0.113014 0.354962
Si Si3 0.676754 0.882921 0.006362
Si Si4 0.714673 0.114775 0.379387
Si Si5 0.443049 0.331088 0.112982
Si Si6 0.241821 0.616483 0.166198
Si Si7 0.100958 0.194822 0.975246
O O1 0.500000 0.248899 0.500000
O O2 0.648411 0.204405 0.407747
O O3 0.531138 0.362056 0.303048
O O4 0.685436 0.348167 0.639551
O O5 0.164306 0.119447 0.454468
O O6 0.000000 0.113604 0.500000
O O7 0.963883 0.201218 0.225112
O O8 0.996121 0.000000 0.270234
O O9 0.586826 0.792159 0.913492
O O10 0.634622 0.000000 0.959492
O O11 0.718381 0.871325 0.205818
O O12 0.783620 0.865706 0.976644
O O13 0.668731 0.000000 0.369778
O O14 0.324665 0.375889 0.084447
O O15 0.500000 0.357935 0.000000
O O16 0.204134 0.500000 0.156183
O O17 0.142983 0.698298 0.071796
O O18 0.000000 0.148862 0.000000
#
# Coordination Sequence:
#
# PCOD9146654 Si02
#       7
#     4   4   4   4   4   4   4
#     4  10  21  38  59  83 119 155 193 239 297 341
#     4  10  19  33  56  86 118 156 194 226 277 341
#     4  10  20  34  56  89 127 163 192 225 276 343
#     4  10  19  33  56  86 121 159 196 228 271 340
#     4  10  20  36  62  93 118 151 194 243 287 351
#     4  10  24  44  62  83 111 149 198 251 311 362
#     4  11  22  38  60  87 117 155 196 252 289 340
#
# _framework density 19.746445999999999
#
# number of rings (size 3 to 8) (size 9 to 14) (size 15 to 20)
#    0.000    1.857    2.857    1.286    0.000    5.429 
#    0.000    9.286    0.000    0.429    0.000    0.000 
#    0.000    0.000    0.000    0.000    0.000    0.000 
#
# Total GULP energy -156039.864324 kJ/mol
# GULP energy per Si atom -5572.852297 kJ/mol
# Density = 1.970150 g / cm^3
# Si number density = 19.746446 Si / 1000 Ang^3
#
#
#
# Elastic Constant Matrix: (Units=GPa)
#
#
# Indices 1 2 3 4 5 6 
#
# 1 64.0855 -3.8207 17.6268 0.0000 -16.8137 0.0000
# 2 -3.8207 72.1373 29.1572 0.0000 4.1780 0.0000
# 3 17.6268 29.1572 88.3227 0.0000 10.6491 0.0000
# 4 0.0000 0.0000 0.0000 -34.6166 0.0000 -24.4843
# 5 -16.8137 4.1780 10.6491 0.0000 31.5038 0.0000
# 6 0.0000 0.0000 0.0000 -24.4843 0.0000 -3.6325
#
#
#
# Elastic Compliance Matrix: (Units=1/GPa)
#
#
# Indices 1 2 3 4 5 6 
#
# 1 0.021125 0.003118 -0.006833 0.000000 0.013171 0.000000
# 2 0.003118 0.016461 -0.006248 0.000000 0.001593 0.000000
# 3 -0.006833 -0.006248 0.015730 0.000000 -0.008135 0.000000
# 4 0.000000 0.000000 0.000000 0.007668 0.000000 -0.051683
# 5 0.013171 0.001593 -0.008135 0.000000 0.041310 0.000000
# 6 0.000000 0.000000 0.000000 -0.051683 0.000000 0.073072
#
#
# Mechanical properties :
#
#
# Convention : Reuss Voigt Hill
#
# Bulk Modulus (GPa) = 29.95091 34.49690 32.22390
# Shear Modulus (GPa) = 24.22224 10.75642 17.48933
#
# Velocity S-wave (km/s) = 3.50618 2.33647 2.97929
# Velocity P-wave (km/s) = 5.62065 4.97862 5.30935
#
# Compressibility (1/GPa) = 0.03338797
#
# Stress axis : x y z
#
# Youngs Moduli (GPa) = 47.33701 60.75002 63.57479
#
# Poissons Ratio (x) = -0.18942 0.43443
# Poissons Ratio (y) = -0.14760 0.39725
# Poissons Ratio (z) = 0.32347 0.37959
#
# Static dielectric constant tensor:
#      x y z
#    x 1.757870 0.000000 0.006890 
#    y 0.000000 1.701990 0.000000 
#    z 0.006890 0.000000 1.945840 
# 
# From -- ./inp_files/28489.got.cif
#   From: 2010.05.17/outbox.cif.g08.bks.cpg/sg10_15_cif.got.tgz:28489.got - 2010.06.03 11:33:40.
