data_PCOD9146237
_publ_section_title
;
Structure prediction by ZEFSAII (Michael W. Deem and Ramdas Pophale) SiO2 
 PCOD9146237
Probable space group: P 2/M
;
_chemical_formula_sum "Si O2"
_cell_formula_units_Z 32
_cell_length_a 14.694906
_cell_length_b 8.640242
_cell_length_c 21.190050
_cell_angle_alpha 90.000000
_cell_angle_beta 43.436604
_cell_angle_gamma 90.000000
_cell_volume 1849.822110
_symmetry_space_group_name_H-M "P 2/M"
_symmetry_group_IT_number 10
_symmetry_cell_setting 'monoclinic'
loop_
_space_group_symop_operation_xyz
x,y,z
-x,y,-z
-x,-y,-z
x,-y,z
loop_
_atom_site_type_symbol
_atom_site_label
_atom_site_fract_x
_atom_site_fract_y
_atom_site_fract_z
Si Si1 0.423027 0.812683 0.354803
Si Si2 0.577147 0.314565 0.779466
Si Si3 0.419632 0.185133 0.977702
Si Si4 0.858858 0.314031 0.687530
Si Si5 0.139740 0.814338 0.546414
Si Si6 0.867227 0.813480 0.301495
Si Si7 0.584818 0.811225 0.396325
Si Si8 0.850748 0.315171 0.839342
O O1 0.467616 0.749566 0.265207
O O2 0.271932 0.760822 0.444683
O O3 0.514718 0.762287 0.367084
O O4 0.423374 0.000000 0.353571
O O5 0.576479 0.500000 0.779348
O O6 0.487986 0.256263 0.881927
O O7 0.728777 0.261217 0.715998
O O8 0.426073 0.000000 0.970687
O O9 0.500000 0.235591 0.000000
O O10 0.269262 0.239023 0.062783
O O11 0.863904 0.500000 0.683184
O O12 0.841505 0.267406 0.769914
O O13 0.999843 0.251066 0.593747
O O14 0.153277 0.774197 0.614018
O O15 0.134685 0.000000 0.544999
O O16 0.736832 0.764073 0.329291
O O17 0.004489 0.738046 0.211457
O O18 0.878901 0.000000 0.291947
O O19 0.500000 0.761521 0.500000
O O20 0.583185 0.000000 0.397780
O O21 0.839179 0.500000 0.848009
#
# Coordination Sequence:
#
# PCOD9146237 Si02
#       8
#     4   4   4   4   4   4   4   4
#     4  10  20  34  52  78 108 141 182 225 267 311
#     4  11  23  38  53  73 106 147 181 214 263 320
#     4  11  22  36  58  84 105 131 173 224 267 309
#     4   9  19  33  49  70 102 143 181 210 250 313
#     4   9  17  29  49  75 105 138 177 221 260 302
#     4   9  16  29  52  81 107 136 177 221 264 311
#     4   9  15  29  55  81 106 139 179 223 269 313
#     4  10  19  33  53  78 109 141 172 212 263 317
#
# _framework density 17.298960000000001
#
# number of rings (size 3 to 8) (size 9 to 14) (size 15 to 20)
#    0.000    2.250    2.500    1.125    0.000    3.000 
#    0.000    3.125    0.000    1.500    0.000    5.250 
#    0.000    0.000    0.000    0.000    0.000    0.000 
#
# Total GULP energy -178564.130509 kJ/mol
# GULP energy per Si atom -5580.129078 kJ/mol
# Density = 1.725959 g / cm^3
# Si number density = 17.298960 Si / 1000 Ang^3
#
#
#
# Elastic Constant Matrix: (Units=GPa)
#
#
# Indices 1 2 3 4 5 6 
#
# 1 120.2050 23.0548 68.9488 0.0000 -1.2006 0.0000
# 2 23.0548 16.0391 22.1240 0.0000 2.0802 0.0000
# 3 68.9488 22.1240 104.2709 0.0000 0.1243 0.0000
# 4 0.0000 0.0000 0.0000 -181.4484 0.0000 47.6491
# 5 -1.2006 2.0802 0.1243 0.0000 25.7124 0.0000
# 6 0.0000 0.0000 0.0000 47.6491 0.0000 4.0812
#
#
#
# Elastic Compliance Matrix: (Units=1/GPa)
#
#
# Indices 1 2 3 4 5 6 
#
# 1 0.014696 -0.011209 -0.007341 0.000000 0.001629 0.000000
# 2 -0.011209 0.097988 -0.013369 0.000000 -0.008386 0.000000
# 3 -0.007341 -0.013369 0.017281 0.000000 0.000655 0.000000
# 4 0.000000 0.000000 0.000000 -0.001355 0.000000 0.015825
# 5 0.001629 -0.008386 0.000655 0.000000 0.039643 0.000000
# 6 0.000000 0.000000 0.000000 0.015825 0.000000 0.060263
#
#
# Mechanical properties :
#
#
# Convention : Reuss Voigt Hill
#
# Bulk Modulus (GPa) = 15.12265 52.08559 33.60412
# Shear Modulus (GPa) = 15.90349 -21.90515 -3.00083
#
# Velocity S-wave (km/s) = 3.03534 -3.56233 -1.31850
# Velocity P-wave (km/s) = 4.58752 3.64063 4.14123
#
# Compressibility (1/GPa) = 0.06612596
#
# Stress axis : x y z
#
# Youngs Moduli (GPa) = 68.04456 10.20533 57.86778
#
# Poissons Ratio (x) = 0.11439 0.42484
# Poissons Ratio (y) = 0.76271 0.77363
# Poissons Ratio (z) = 0.49955 0.13644
#
# Static dielectric constant tensor:
#      x y z
#    x 1.591950 0.000000 -0.006550 
#    y 0.000000 1.582630 0.000000 
#    z -0.006550 0.000000 1.569650 
# 
# From -- ./inp_files/69969.got.cif
#   From: 2010.05.17/outbox.cif.g08.bks.cpg/sg10_35_cif.got.tgz:69969.got - 2010.06.03 11:33:40.
