data_PCOD9146648
_publ_section_title
;
Structure prediction by ZEFSAII (Michael W. Deem and Ramdas Pophale) SiO2 
 PCOD9146648
Probable space group: P 2/M
;
_chemical_formula_sum "Si O2"
_cell_formula_units_Z 21
_cell_length_a 8.129215
_cell_length_b 7.332697
_cell_length_c 14.514574
_cell_angle_alpha 90.000000
_cell_angle_beta 85.376110
_cell_angle_gamma 90.000000
_cell_volume 862.384342
_symmetry_space_group_name_H-M "P 2/M"
_symmetry_group_IT_number 10
_symmetry_cell_setting 'monoclinic'
loop_
_space_group_symop_operation_xyz
x,y,z
-x,y,-z
-x,-y,-z
x,-y,z
loop_
_atom_site_type_symbol
_atom_site_label
_atom_site_fract_x
_atom_site_fract_y
_atom_site_fract_z
Si Si1 0.599036 0.794047 0.700092
Si Si2 0.467744 0.289430 0.899828
Si Si3 0.916651 0.220634 0.098696
Si Si4 0.042701 0.222693 0.291312
Si Si5 0.500000 0.500000 0.500000
Si Si6 0.293225 0.780357 0.591911
O O1 0.561950 0.799813 0.810933
O O2 0.433094 0.717402 0.660822
O O3 0.779750 0.710575 0.683675
O O4 0.608786 0.000000 0.663401
O O5 0.521101 0.500000 0.898381
O O6 0.273287 0.277768 0.890114
O O7 0.500000 0.212264 0.000000
O O8 0.006439 0.280585 0.187970
O O9 0.918886 0.000000 0.098508
O O10 0.000000 0.282773 0.000000
O O11 0.886180 0.268640 0.361494
O O12 0.049511 0.000000 0.289847
O O13 0.355968 0.661721 0.504698
O O14 0.297124 0.000000 0.578602
#
# Coordination Sequence:
#
# PCOD9146648 Si02
#       6
#     4   4   4   4   1   4
#     4  10  20  38  65  89 119 165 207 255 310 365
#     4  11  23  35  50  81 127 169 212 259 305 359
#     4  10  19  33  56  85 118 159 214 262 296 354
#     4   9  18  36  61  90 122 161 205 253 312 366
#     4  12  26  44  74  98 124 166 198 264 330 386
#     4  10  22  43  67  96 129 162 208 258 318 388
#
# _framework density 24.351089999999999
#
# number of rings (size 3 to 8) (size 9 to 14) (size 15 to 20)
#    0.000    1.905    1.905    2.000    1.333    3.429 
#    1.714    1.905    0.000    4.571    0.000    0.000 
#    0.000    0.000    0.000    0.000    0.000    0.000 
#
# Total GULP energy -117170.077272 kJ/mol
# GULP energy per Si atom -5579.527489 kJ/mol
# Density = 2.429567 g / cm^3
# Si number density = 24.351090 Si / 1000 Ang^3
#
#
#
# Elastic Constant Matrix: (Units=GPa)
#
#
# Indices 1 2 3 4 5 6 
#
# 1 192.7663 7.9172 52.7080 0.0000 -20.9152 0.0000
# 2 7.9172 118.3236 4.2405 0.0000 -10.4526 0.0000
# 3 52.7080 4.2405 84.2574 0.0000 -12.2617 0.0000
# 4 0.0000 0.0000 0.0000 44.3833 0.0000 -22.5506
# 5 -20.9152 -10.4526 -12.2617 0.0000 51.8344 0.0000
# 6 0.0000 0.0000 0.0000 -22.5506 0.0000 459.9978
#
#
#
# Elastic Compliance Matrix: (Units=1/GPa)
#
#
# Indices 1 2 3 4 5 6 
#
# 1 0.006401 -0.000147 -0.003754 0.000000 0.001665 0.000000
# 2 -0.000147 0.008611 -0.000101 0.000000 0.001653 0.000000
# 3 -0.003754 -0.000101 0.014498 0.000000 0.001894 0.000000
# 4 0.000000 0.000000 0.000000 0.023107 0.000000 0.001133
# 5 0.001665 0.001653 0.001894 0.000000 0.020746 0.000000
# 6 0.000000 0.000000 0.000000 0.001133 0.000000 0.002229
#
#
# Mechanical properties :
#
#
# Convention : Reuss Voigt Hill
#
# Bulk Modulus (GPa) = 46.50017 58.34208 52.42112
# Shear Modulus (GPa) = 55.08809 133.27521 94.18165
#
# Velocity S-wave (km/s) = 4.76146 7.40605 6.22580
# Velocity P-wave (km/s) = 7.02609 9.85614 8.55889
#
# Compressibility (1/GPa) = 0.02150530
#
# Stress axis : x y z
#
# Youngs Moduli (GPa) = 156.22838 116.13203 68.97618
#
# Poissons Ratio (x) = 0.01703 0.25897
# Poissons Ratio (y) = 0.02291 0.00697
# Poissons Ratio (z) = 0.58655 0.01173
#
# Static dielectric constant tensor:
#      x y z
#    x 1.881290 0.000000 0.034100 
#    y 0.000000 1.953780 0.000000 
#    z 0.034100 0.000000 2.044650 
# 
# From -- ./inp_files/26955.got.cif
#   From: 2010.05.17/outbox.cif.g08.bks.cpg/sg10_14_cif.got.tgz:26955.got - 2010.06.03 11:33:40.
