data_PCOD9146249
_publ_section_title
;
Structure prediction by ZEFSAII (Michael W. Deem and Ramdas Pophale) SiO2 
 PCOD9146249
Probable space group: P 2/M
;
_chemical_formula_sum "Si O2"
_cell_formula_units_Z 32
_cell_length_a 23.506202
_cell_length_b 8.525672
_cell_length_c 15.560135
_cell_angle_alpha 90.000000
_cell_angle_beta 148.401155
_cell_angle_gamma 90.000000
_cell_volume 1633.916354
_symmetry_space_group_name_H-M "P 2/M"
_symmetry_group_IT_number 10
_symmetry_cell_setting 'monoclinic'
loop_
_space_group_symop_operation_xyz
x,y,z
-x,y,-z
-x,-y,-z
x,-y,z
loop_
_atom_site_type_symbol
_atom_site_label
_atom_site_fract_x
_atom_site_fract_y
_atom_site_fract_z
Si Si1 0.098885 0.321646 0.568693
Si Si2 0.974446 0.676667 0.722098
Si Si3 0.623626 0.687034 0.641016
Si Si4 0.734658 0.311354 0.439538
Si Si5 0.680836 0.819227 0.184898
Si Si6 0.210985 0.813572 0.004981
Si Si7 0.632131 0.808726 0.939172
Si Si8 0.600905 0.187510 0.428170
O O1 0.134898 0.500000 0.639379
O O2 0.196596 0.200481 0.692838
O O3 0.000000 0.272382 0.500000
O O4 0.053623 0.332607 0.414678
O O5 0.987109 0.500000 0.773133
O O6 0.860578 0.745529 0.610761
O O7 0.090469 0.758819 0.874773
O O8 0.500000 0.740311 0.500000
O O9 0.628377 0.500000 0.656960
O O10 0.705939 0.762739 0.814013
O O11 0.647238 0.734445 0.573480
O O12 0.737290 0.500000 0.446634
O O13 0.685142 0.265271 0.282485
O O14 0.664958 0.240503 0.426225
O O15 0.651175 0.000000 0.161591
O O16 0.617967 0.754777 0.020160
O O17 0.262671 0.754355 0.980313
O O18 0.209416 0.000000 0.996527
O O19 0.524969 0.765816 0.747970
O O20 0.636701 0.000000 0.950331
O O21 0.605058 0.000000 0.442138
#
# Coordination Sequence:
#
# PCOD9146249 Si02
#       8
#     4   4   4   4   4   4   4   4
#     4   9  17  30  48  73 109 151 192 237 291 340
#     4   9  19  35  54  78 113 153 189 235 289 339
#     4  11  23  40  62  90 120 150 186 229 286 351
#     4  10  22  41  59  81 117 157 199 242 288 338
#     4  10  19  33  53  79 112 153 198 238 283 339
#     4  11  21  36  60  89 120 151 189 238 289 345
#     4   9  20  35  54  85 121 152 186 238 296 339
#     4  11  22  40  64  86 114 152 194 239 290 345
#
# _framework density 19.584844
#
# number of rings (size 3 to 8) (size 9 to 14) (size 15 to 20)
#    0.000    2.000    1.250    3.375    0.000    3.750 
#    0.000    7.500    0.000    3.750    0.000    0.000 
#    0.000    0.000    0.000    0.000    0.000    0.000 
#
# Total GULP energy -178454.987704 kJ/mol
# GULP energy per Si atom -5576.718366 kJ/mol
# Density = 1.954027 g / cm^3
# Si number density = 19.584844 Si / 1000 Ang^3
#
#
#
# Elastic Constant Matrix: (Units=GPa)
#
#
# Indices 1 2 3 4 5 6 
#
# 1 66.3375 -6.6765 10.1017 0.0000 -6.8895 0.0000
# 2 -6.6765 21.4215 7.1662 0.0000 4.8951 0.0000
# 3 10.1017 7.1662 72.4327 0.0000 -2.6593 0.0000
# 4 0.0000 0.0000 0.0000 14.8837 0.0000 -6.4663
# 5 -6.8895 4.8951 -2.6593 0.0000 19.5423 0.0000
# 6 0.0000 0.0000 0.0000 -6.4663 0.0000 7.5458
#
#
#
# Elastic Compliance Matrix: (Units=1/GPa)
#
#
# Indices 1 2 3 4 5 6 
#
# 1 0.016416 0.005047 -0.002636 0.000000 0.004165 0.000000
# 2 0.005047 0.053246 -0.006428 0.000000 -0.012433 0.000000
# 3 -0.002636 -0.006428 0.014909 0.000000 0.002710 0.000000
# 4 0.000000 0.000000 0.000000 0.107039 0.000000 0.091726
# 5 0.004165 -0.012433 0.002710 0.000000 0.056122 0.000000
# 6 0.000000 0.000000 0.000000 0.091726 0.000000 0.211128
#
#
# Mechanical properties :
#
#
# Convention : Reuss Voigt Hill
#
# Bulk Modulus (GPa) = 13.06563 20.15271 16.60917
# Shear Modulus (GPa) = 10.15418 18.36772 14.26095
#
# Velocity S-wave (km/s) = 2.27947 3.06576 2.70138
# Velocity P-wave (km/s) = 3.68968 4.77956 4.26954
#
# Compressibility (1/GPa) = 0.07653668
#
# Stress axis : x y z
#
# Youngs Moduli (GPa) = 60.91523 18.78059 67.07368
#
# Poissons Ratio (x) = -0.09478 0.17680
# Poissons Ratio (y) = -0.30741 0.43117
# Poissons Ratio (z) = 0.16056 0.12073
#
# Static dielectric constant tensor:
#      x y z
#    x 1.782250 0.000000 0.030470 
#    y 0.000000 1.694710 0.000000 
#    z 0.030470 0.000000 1.701500 
# 
# From -- ./inp_files/71658.got.cif
#   From: 2010.05.17/outbox.cif.g08.bks.cpg/sg10_36_cif.got.tgz:71658.got - 2010.06.03 11:33:40.
