data_PCOD9146201
_publ_section_title
;
Structure prediction by ZEFSAII (Michael W. Deem and Ramdas Pophale) SiO2 
 PCOD9146201
Probable space group: P 2/M
;
_chemical_formula_sum "Si O2"
_cell_formula_units_Z 32
_cell_length_a 30.351481
_cell_length_b 7.552510
_cell_length_c 10.768088
_cell_angle_alpha 90.000000
_cell_angle_beta 145.934570
_cell_angle_gamma 90.000000
_cell_volume 1382.629492
_symmetry_space_group_name_H-M "P 2/M"
_symmetry_group_IT_number 10
_symmetry_cell_setting 'monoclinic'
loop_
_space_group_symop_operation_xyz
x,y,z
-x,y,-z
-x,-y,-z
x,-y,z
loop_
_atom_site_type_symbol
_atom_site_label
_atom_site_fract_x
_atom_site_fract_y
_atom_site_fract_z
Si Si1 0.665488 0.206731 0.419902
Si Si2 0.519197 0.285697 0.226844
Si Si3 0.238395 0.786418 0.108551
Si Si4 0.633973 0.281636 0.004098
Si Si5 0.062346 0.787989 0.748338
Si Si6 0.385729 0.704917 0.311777
Si Si7 0.775946 0.697806 0.466510
Si Si8 0.062521 0.713438 0.041083
O O1 0.574588 0.233383 0.242022
O O2 0.714112 0.260612 0.656125
O O3 0.707616 0.312041 0.410076
O O4 0.679816 0.000000 0.429600
O O5 0.517763 0.500000 0.220889
O O6 0.567050 0.220220 0.461038
O O7 0.430279 0.225368 0.043690
O O8 0.293040 0.715703 0.126484
O O9 0.237653 0.000000 0.097262
O O10 0.149527 0.721902 0.916118
O O11 0.636424 0.500000 0.008160
O O12 0.723298 0.218020 0.235181
O O13 0.602419 0.221342 0.797056
O O14 0.046868 0.757852 0.859660
O O15 0.000000 0.721259 0.500000
O O16 0.064373 0.000000 0.739949
O O17 0.409992 0.500000 0.363682
O O18 0.799707 0.500000 0.481339
O O19 0.852079 0.778661 0.710439
O O20 0.063787 0.500000 0.045621
O O21 0.000000 0.772112 0.000000
#
# Coordination Sequence:
#
# PCOD9146201 Si02
#       8
#     4   4   4   4   4   4   4   4
#     4  10  19  33  53  75 102 136 176 221 265 309
#     4   9  17  31  52  76 103 137 178 222 268 316
#     4   9  18  33  52  75 103 134 169 214 265 314
#     4   9  18  32  50  75 106 140 179 222 263 315
#     4  10  21  38  60  85 112 145 187 232 279 338
#     4   9  17  30  52  78 102 135 177 219 264 316
#     4  10  20  35  55  75 102 142 181 215 263 325
#     4  10  22  39  59  85 117 149 184 232 288 341
#
# _framework density 23.144304999999999
#
# number of rings (size 3 to 8) (size 9 to 14) (size 15 to 20)
#    0.000    2.500    1.250    0.750    0.000    4.500 
#    0.000    5.625    0.000    3.000    0.000    0.000 
#    0.000    0.000    0.000    0.000    0.000    0.000 
#
# Total GULP energy -178530.102272 kJ/mol
# GULP energy per Si atom -5579.065696 kJ/mol
# Density = 2.309163 g / cm^3
# Si number density = 23.144305 Si / 1000 Ang^3
#
#
#
# Elastic Constant Matrix: (Units=GPa)
#
#
# Indices 1 2 3 4 5 6 
#
# 1 105.0379 -5.6989 46.7962 0.0000 9.3005 0.0000
# 2 -5.6989 53.6161 -2.8956 0.0000 1.5613 0.0000
# 3 46.7962 -2.8956 158.4886 0.0000 16.1912 0.0000
# 4 0.0000 0.0000 0.0000 8.8627 0.0000 9.6358
# 5 9.3005 1.5613 16.1912 0.0000 32.1742 0.0000
# 6 0.0000 0.0000 0.0000 9.6358 0.0000 28.8699
#
#
#
# Elastic Compliance Matrix: (Units=1/GPa)
#
#
# Indices 1 2 3 4 5 6 
#
# 1 0.011104 0.001063 -0.003084 0.000000 -0.001709 0.000000
# 2 0.001063 0.018811 0.000163 0.000000 -0.001302 0.000000
# 3 -0.003084 0.000163 0.007520 0.000000 -0.002900 0.000000
# 4 0.000000 0.000000 0.000000 0.177099 0.000000 -0.059110
# 5 -0.001709 -0.001302 -0.002900 0.000000 0.033098 0.000000
# 6 0.000000 0.000000 0.000000 -0.059110 0.000000 0.054367
#
#
# Mechanical properties :
#
#
# Convention : Reuss Voigt Hill
#
# Bulk Modulus (GPa) = 29.65830 43.72731 36.69281
# Shear Modulus (GPa) = 15.77518 32.57741 24.17629
#
# Velocity S-wave (km/s) = 2.61358 3.75584 3.23552
# Velocity P-wave (km/s) = 4.68509 6.14352 5.46319
#
# Compressibility (1/GPa) = 0.03371737
#
# Stress axis : x y z
#
# Youngs Moduli (GPa) = 90.06099 53.16075 132.98541
#
# Poissons Ratio (x) = -0.05653 0.41019
# Poissons Ratio (y) = -0.09577 -0.02164
# Poissons Ratio (z) = 0.27779 -0.00865
#
# Static dielectric constant tensor:
#      x y z
#    x 1.872340 0.000000 -0.031270 
#    y 0.000000 1.869990 0.000000 
#    z -0.031270 0.000000 1.918860 
# 
# From -- ./inp_files/58231.got.cif
#   From: 2010.05.17/outbox.cif.g08.bks.cpg/sg10_30_cif.got.tgz:58231.got - 2010.06.03 11:33:40.
