data_PCOD9146560
_publ_section_title
;
Structure prediction by ZEFSAII (Michael W. Deem and Ramdas Pophale) SiO2 
 PCOD9146560
Probable space group: P 2/M
;
_chemical_formula_sum "Si O2"
_cell_formula_units_Z 28
_cell_length_a 9.075183
_cell_length_b 21.977852
_cell_length_c 15.041313
_cell_angle_alpha 90.000000
_cell_angle_beta 31.345687
_cell_angle_gamma 90.000000
_cell_volume 1560.619281
_symmetry_space_group_name_H-M "P 2/M"
_symmetry_group_IT_number 10
_symmetry_cell_setting 'monoclinic'
loop_
_space_group_symop_operation_xyz
x,y,z
-x,y,-z
-x,-y,-z
x,-y,z
loop_
_atom_site_type_symbol
_atom_site_label
_atom_site_fract_x
_atom_site_fract_y
_atom_site_fract_z
Si Si1 0.638628 0.381857 0.027173
Si Si2 0.171314 0.071909 0.651565
Si Si3 0.181191 0.370771 0.644709
Si Si4 0.845997 0.292407 0.674558
Si Si5 0.448347 0.500000 0.223768
Si Si6 0.363668 0.068179 0.970492
Si Si7 0.166223 0.500000 0.554858
Si Si8 0.848539 0.848763 0.672328
O O1 0.965649 0.368546 0.838588
O O2 0.500000 0.394387 0.000000
O O3 0.453787 0.327438 0.164383
O O4 0.601540 0.440193 0.108434
O O5 0.500000 0.083783 0.500000
O O6 0.043263 0.114746 0.641692
O O7 0.140190 0.000000 0.643366
O O8 0.966711 0.080908 0.842403
O O9 0.500000 0.352387 0.500000
O O10 0.186690 0.439407 0.602951
O O11 0.045271 0.327138 0.641241
O O12 0.812648 0.221740 0.716014
O O13 0.000000 0.297372 0.500000
O O14 0.393551 0.500000 0.357479
O O15 0.139699 0.500000 0.335408
O O16 0.545932 0.117530 0.825186
O O17 0.399263 0.000000 0.915395
O O18 0.500000 0.067749 0.000000
O O19 0.000000 0.851219 0.500000
#
# Coordination Sequence:
#
# PCOD9146560 Si02
#       8
#     4   4   4   4   2   4   2   4
#     4  10  19  33  56  78 100 134 178 212 247 304
#     4   9  18  33  53  77 106 139 171 206 254 309
#     4  11  23  37  54  80 108 132 168 219 261 297
#     4  10  21  38  55  74 101 137 178 212 254 311
#     4  11  18  32  58  82 100 139 174 202 251 312
#     4   8  15  29  50  75 103 135 170 209 250 299
#     4  11  20  33  56  79 110 136 162 208 263 308
#     4  10  20  33  53  78 103 133 173 219 256 297
#
# _framework density 17.941595
#
# number of rings (size 3 to 8) (size 9 to 14) (size 15 to 20)
#    0.000    2.143    2.857    3.000    0.000    6.857 
#    0.000    4.286    0.000    6.000    0.000    0.000 
#    0.000    0.000    0.000    0.000    0.000    0.000 
#
# Total GULP energy -156181.130051 kJ/mol
# GULP energy per Si atom -5577.897502 kJ/mol
# Density = 1.790076 g / cm^3
# Si number density = 17.941595 Si / 1000 Ang^3
#
#
#
# Elastic Constant Matrix: (Units=GPa)
#
#
# Indices 1 2 3 4 5 6 
#
# 1 20.2019 35.6863 38.3308 0.0000 -8.2265 0.0000
# 2 35.6863 151.3448 80.2579 0.0000 1.1477 0.0000
# 3 38.3308 80.2579 157.4957 0.0000 -19.2131 0.0000
# 4 0.0000 0.0000 0.0000 26.4796 0.0000 11.2882
# 5 -8.2265 1.1477 -19.2131 0.0000 28.0782 0.0000
# 6 0.0000 0.0000 0.0000 11.2882 0.0000 -0.4614
#
#
#
# Elastic Compliance Matrix: (Units=1/GPa)
#
#
# Indices 1 2 3 4 5 6 
#
# 1 0.134508 -0.022456 -0.017865 0.000000 0.028102 0.000000
# 2 -0.022456 0.013201 -0.002324 0.000000 -0.008709 0.000000
# 3 -0.017865 -0.002324 0.012280 0.000000 0.003264 0.000000
# 4 0.000000 0.000000 0.000000 0.003304 0.000000 0.080837
# 5 0.028102 -0.008709 0.003264 0.000000 0.046438 0.000000
# 6 0.000000 0.000000 0.000000 0.080837 0.000000 -0.189626
#
#
# Mechanical properties :
#
#
# Convention : Reuss Voigt Hill
#
# Bulk Modulus (GPa) = 13.38704 70.84361 42.11533
# Shear Modulus (GPa) = 38.37503 22.47044 30.42274
#
# Velocity S-wave (km/s) = 4.62983 3.54280 4.12230
# Velocity P-wave (km/s) = 6.00484 7.50377 6.79576
#
# Compressibility (1/GPa) = 0.07469912
#
# Stress axis : x y z
#
# Youngs Moduli (GPa) = 7.43452 75.75177 81.43448
#
# Poissons Ratio (x) = 1.70106 1.45480
# Poissons Ratio (y) = 0.16695 0.18928
# Poissons Ratio (z) = 0.13282 0.17607
#
# Static dielectric constant tensor:
#      x y z
#    x 1.602020 0.000000 -0.004560 
#    y 0.000000 1.603600 0.000000 
#    z -0.004560 0.000000 1.644640 
# 
# From -- ./inp_files/62598.got.cif
#   From: 2010.05.17/outbox.cif.g08.bks.cpg/sg10_32_cif.got.tgz:62598.got - 2010.06.03 11:33:40.
