data_PCOD9146637
_publ_section_title
;
Structure prediction by ZEFSAII (Michael W. Deem and Ramdas Pophale) SiO2 
 PCOD9146637
Probable space group: P 2/M
;
_chemical_formula_sum "Si O2"
_cell_formula_units_Z 28
_cell_length_a 22.371017
_cell_length_b 15.402257
_cell_length_c 9.350804
_cell_angle_alpha 90.000000
_cell_angle_beta 26.404504
_cell_angle_gamma 90.000000
_cell_volume 1432.820002
_symmetry_space_group_name_H-M "P 2/M"
_symmetry_group_IT_number 10
_symmetry_cell_setting 'monoclinic'
loop_
_space_group_symop_operation_xyz
x,y,z
-x,y,-z
-x,-y,-z
x,-y,z
loop_
_atom_site_type_symbol
_atom_site_label
_atom_site_fract_x
_atom_site_fract_y
_atom_site_fract_z
Si Si1 0.371519 0.153187 0.195280
Si Si2 0.968963 0.751741 0.411686
Si Si3 0.102550 0.095887 0.649061
Si Si4 0.143889 0.404922 0.709715
Si Si5 0.264593 0.286457 0.661391
Si Si6 0.518166 0.269507 0.306226
Si Si7 0.758342 0.599774 0.823560
O O1 0.252157 0.095475 0.392040
O O2 0.307356 0.211450 0.459275
O O3 0.500000 0.112213 0.000000
O O4 0.418233 0.212199 0.959111
O O5 0.907602 0.824562 0.439382
O O6 0.870961 0.667998 0.639237
O O7 0.000000 0.790400 0.500000
O O8 0.114220 0.725898 0.039628
O O9 0.071424 0.000000 0.654601
O O10 0.000000 0.111184 0.000000
O O11 0.109302 0.500000 0.841224
O O12 0.252663 0.368064 0.583499
O O13 0.204682 0.407348 0.422867
O O14 0.000000 0.356360 0.000000
O O15 0.373026 0.294967 0.553787
O O16 0.500000 0.223707 0.500000
O O17 0.615678 0.350717 0.131827
O O18 0.759426 0.500000 0.878900
#
# Coordination Sequence:
#
# PCOD9146637 Si02
#       7
#     4   4   4   4   4   4   4
#     4  10  21  39  64  91 124 161 209 258 307 376
#     4  12  24  40  65  94 131 171 205 259 318 378
#     4  11  23  42  71 101 128 161 206 260 318 379
#     4  10  19  33  56  84 115 152 208 265 303 355
#     4  11  21  36  61  89 118 165 209 253 309 373
#     4  11  23  39  59  88 124 169 212 259 314 369
#     4  11  23  39  61  90 126 169 216 266 317 370
#
# _framework density 19.541882999999999
#
# number of rings (size 3 to 8) (size 9 to 14) (size 15 to 20)
#    0.000    1.143    5.714    0.857    0.000    1.714 
#    0.000    2.857    0.000    0.429    0.000    0.000 
#    0.000    0.000    0.000    0.000    0.000    0.000 
#
# Total GULP energy -156060.613087 kJ/mol
# GULP energy per Si atom -5573.593325 kJ/mol
# Density = 1.949740 g / cm^3
# Si number density = 19.541883 Si / 1000 Ang^3
#
#
#
# Elastic Constant Matrix: (Units=GPa)
#
#
# Indices 1 2 3 4 5 6 
#
# 1 112.3136 33.9543 29.8188 0.0000 -18.7872 0.0000
# 2 33.9543 85.0138 21.2378 0.0000 -15.3405 0.0000
# 3 29.8188 21.2378 68.1191 0.0000 -23.6293 0.0000
# 4 0.0000 0.0000 0.0000 -256.6324 0.0000 98.3948
# 5 -18.7872 -15.3405 -23.6293 0.0000 37.2250 0.0000
# 6 0.0000 0.0000 0.0000 98.3948 0.0000 -46.3529
#
#
#
# Elastic Compliance Matrix: (Units=1/GPa)
#
#
# Indices 1 2 3 4 5 6 
#
# 1 0.011080 -0.003248 -0.003029 0.000000 0.002331 0.000000
# 2 -0.003248 0.014075 -0.001953 0.000000 0.002921 0.000000
# 3 -0.003029 -0.001953 0.020268 0.000000 0.010532 0.000000
# 4 0.000000 0.000000 0.000000 -0.020935 0.000000 -0.044440
# 5 0.002331 0.002921 0.010532 0.000000 0.035929 0.000000
# 6 0.000000 0.000000 0.000000 -0.044440 0.000000 -0.115907
#
#
# Mechanical properties :
#
#
# Convention : Reuss Voigt Hill
#
# Bulk Modulus (GPa) = 34.52668 48.38537 41.45603
# Shear Modulus (GPa) = -170.20870 -41.12304 -105.66587
#
# Velocity S-wave (km/s) = -9.34283 -4.59230 -7.36131
# Velocity P-wave (km/s) = 9.93370 1.81807 7.14086
#
# Compressibility (1/GPa) = 0.02896311
#
# Stress axis : x y z
#
# Youngs Moduli (GPa) = 90.25619 71.04750 49.33771
#
# Poissons Ratio (x) = 0.23076 0.14944
# Poissons Ratio (y) = 0.29314 0.09636
# Poissons Ratio (z) = 0.27338 0.13876
#
# Static dielectric constant tensor:
#      x y z
#    x 1.690660 0.000000 -0.010650 
#    y 0.000000 1.719240 0.000000 
#    z -0.010650 0.000000 1.801970 
# 
# From -- ./inp_files/35253.got.cif
#   From: 2010.05.17/outbox.cif.g08.bks.cpg/sg10_18_cif.got.tgz:35253.got - 2010.06.03 11:33:40.
