data_PCOD9146513
_publ_section_title
;
Structure prediction by ZEFSAII (Michael W. Deem and Ramdas Pophale) SiO2 
 PCOD9146513
Probable space group: P 2/M
;
_chemical_formula_sum "Si O2"
_cell_formula_units_Z 20
_cell_length_a 23.234355
_cell_length_b 8.478742
_cell_length_c 5.054795
_cell_angle_alpha 90.000000
_cell_angle_beta 109.571260
_cell_angle_gamma 90.000000
_cell_volume 938.254136
_symmetry_space_group_name_H-M "P 2/M"
_symmetry_group_IT_number 10
_symmetry_cell_setting 'monoclinic'
loop_
_space_group_symop_operation_xyz
x,y,z
-x,y,-z
-x,-y,-z
x,-y,z
loop_
_atom_site_type_symbol
_atom_site_label
_atom_site_fract_x
_atom_site_fract_y
_atom_site_fract_z
Si Si1 0.958446 0.816300 0.676058
Si Si2 0.829761 0.317389 0.637955
Si Si3 0.565976 0.691860 0.004756
Si Si4 0.766769 0.816262 0.037079
Si Si5 0.639911 0.690589 0.616789
O O1 0.896665 0.722542 0.631287
O O2 0.000000 0.756471 0.500000
O O3 0.942196 0.000000 0.594426
O O4 0.000000 0.812338 0.000000
O O5 0.824042 0.500000 0.699478
O O6 0.815495 0.219041 0.879899
O O7 0.783306 0.276357 0.329385
O O8 0.563687 0.500000 0.009434
O O9 0.618039 0.740640 0.293252
O O10 0.500000 0.748940 0.000000
O O11 0.586525 0.733576 0.742307
O O12 0.702409 0.763764 0.814999
O O13 0.766626 0.000000 0.101003
O O14 0.646622 0.500000 0.628639
#
# Coordination Sequence:
#
# PCOD9146513 Si02
#       5
#     4   4   4   4   4
#     4  10  21  38  61  89 123 161 198 239 295 361
#     4  12  25  42  65  93 124 158 204 257 304 352
#     4   9  17  30  52  82 113 147 190 241 294 349
#     4  12  25  42  63  88 123 164 205 248 305 370
#     4  10  19  33  55  82 113 149 195 246 292 346
#
# _framework density 21.316185000000001
#
# number of rings (size 3 to 8) (size 9 to 14) (size 15 to 20)
#    0.000    1.400    0.000    6.600    0.000    6.400 
#    0.000    0.000    0.000    3.600    0.000    0.000 
#    0.000    0.000    0.000    0.000    0.000    0.000 
#
# Total GULP energy -111903.160715 kJ/mol
# GULP energy per Si atom -5595.158036 kJ/mol
# Density = 2.126767 g / cm^3
# Si number density = 21.316185 Si / 1000 Ang^3
#
#
#
# Elastic Constant Matrix: (Units=GPa)
#
#
# Indices 1 2 3 4 5 6 
#
# 1 57.7947 1.9651 -19.3981 0.0000 -1.3544 0.0000
# 2 1.9651 35.9899 -7.5161 0.0000 7.8276 0.0000
# 3 -19.3981 -7.5161 47.1720 0.0000 -4.0237 0.0000
# 4 0.0000 0.0000 0.0000 113.9291 0.0000 49.9038
# 5 -1.3544 7.8276 -4.0237 0.0000 38.7662 0.0000
# 6 0.0000 0.0000 0.0000 49.9038 0.0000 43.4845
#
#
#
# Elastic Compliance Matrix: (Units=1/GPa)
#
#
# Indices 1 2 3 4 5 6 
#
# 1 0.020172 0.000340 0.008479 0.000000 0.001516 0.000000
# 2 0.000340 0.029903 0.004429 0.000000 -0.005566 0.000000
# 3 0.008479 0.004429 0.025567 0.000000 0.002056 0.000000
# 4 0.000000 0.000000 0.000000 0.017650 0.000000 -0.020255
# 5 0.001516 -0.005566 0.002056 0.000000 0.027186 0.000000
# 6 0.000000 0.000000 0.000000 -0.020255 0.000000 0.046242
#
#
# Mechanical properties :
#
#
# Convention : Reuss Voigt Hill
#
# Bulk Modulus (GPa) = 9.79077 10.11759 9.95418
# Shear Modulus (GPa) = 28.69113 50.29633 39.49373
#
# Velocity S-wave (km/s) = 3.67274 4.86278 4.30904
# Velocity P-wave (km/s) = 4.75273 6.02375 5.42559
#
# Compressibility (1/GPa) = 0.10213700
#
# Stress axis : x y z
#
# Youngs Moduli (GPa) = 49.57271 33.44179 39.11334
#
# Poissons Ratio (x) = -0.01135 -0.33163
# Poissons Ratio (y) = -0.01683 -0.17325
# Poissons Ratio (z) = -0.42031 -0.14813
#
# Static dielectric constant tensor:
#      x y z
#    x 1.768530 0.000000 -0.003080 
#    y 0.000000 1.740340 0.000000 
#    z -0.003080 0.000000 1.726470 
# 
# From -- ./inp_files/11990.got.cif
#   From: 2010.05.17/outbox.cif.g08.bks.cpg/sg10_6_cif.got.tgz:11990.got - 2010.06.03 11:33:40.
