data_PCOD9146190
_publ_section_title
;
Structure prediction by ZEFSAII (Michael W. Deem and Ramdas Pophale) SiO2 
 PCOD9146190
Probable space group: P 2/M
;
_chemical_formula_sum "Si O2"
_cell_formula_units_Z 32
_cell_length_a 21.828567
_cell_length_b 8.818485
_cell_length_c 20.980880
_cell_angle_alpha 90.000000
_cell_angle_beta 154.043322
_cell_angle_gamma 90.000000
_cell_volume 1767.709731
_symmetry_space_group_name_H-M "P 2/M"
_symmetry_group_IT_number 10
_symmetry_cell_setting 'monoclinic'
loop_
_space_group_symop_operation_xyz
x,y,z
-x,y,-z
-x,-y,-z
x,-y,z
loop_
_atom_site_type_symbol
_atom_site_label
_atom_site_fract_x
_atom_site_fract_y
_atom_site_fract_z
Si Si1 0.638372 0.177358 0.362562
Si Si2 0.174008 0.815409 0.580716
Si Si3 0.117734 0.183492 0.753551
Si Si4 0.450614 0.816605 0.523624
Si Si5 0.101834 0.319419 0.879685
Si Si6 0.339943 0.814973 0.861146
Si Si7 0.823488 0.823047 0.663716
Si Si8 0.396026 0.319436 0.211899
O O1 0.719952 0.230063 0.376397
O O2 0.744423 0.185879 0.521537
O O3 0.502508 0.269374 0.255833
O O4 0.600424 0.000000 0.318729
O O5 0.239364 0.766883 0.708822
O O6 0.017012 0.768735 0.414950
O O7 0.171350 0.000000 0.579108
O O8 0.101694 0.246374 0.809398
O O9 0.261316 0.230076 0.852633
O O10 0.115308 0.000000 0.754542
O O11 0.500000 0.768609 0.500000
O O12 0.291853 0.770492 0.392984
O O13 0.549180 0.755011 0.671794
O O14 0.453339 0.000000 0.529271
O O15 0.104789 0.500000 0.875217
O O16 0.964333 0.270091 0.789205
O O17 0.241042 0.270758 0.047277
O O18 0.343294 0.000000 0.863984
O O19 0.500000 0.764215 0.000000
O O20 0.856194 0.000000 0.705718
O O21 0.399981 0.500000 0.222600
#
# Coordination Sequence:
#
# PCOD9146190 Si02
#       8
#     4   4   4   4   4   4   4   4
#     4   9  17  31  53  79 104 133 176 226 269 317
#     4   9  16  29  48  74 104 131 167 218 274 325
#     4  10  19  33  53  74 101 138 177 222 275 325
#     4   9  19  38  63  88 112 139 174 216 260 310
#     4  11  23  36  51  76 112 146 181 224 265 311
#     4   9  18  29  46  76 105 131 171 223 277 330
#     4   9  17  33  56  83 108 134 174 216 259 313
#     4  10  22  36  51  77 112 146 181 216 259 311
#
# _framework density 18.102518
#
# number of rings (size 3 to 8) (size 9 to 14) (size 15 to 20)
#    0.000    2.500    1.250    1.875    1.750    5.750 
#    0.000    0.625    0.000    6.375    0.000    0.000 
#    0.000    0.000    0.000    0.000    0.000    0.000 
#
# Total GULP energy -178478.608880 kJ/mol
# GULP energy per Si atom -5577.456527 kJ/mol
# Density = 1.806132 g / cm^3
# Si number density = 18.102518 Si / 1000 Ang^3
#
#
#
# Elastic Constant Matrix: (Units=GPa)
#
#
# Indices 1 2 3 4 5 6 
#
# 1 121.0764 17.8163 59.2115 0.0000 24.6876 0.0000
# 2 17.8163 7.8266 27.7382 0.0000 6.2212 0.0000
# 3 59.2115 27.7382 131.0211 0.0000 23.9795 0.0000
# 4 0.0000 0.0000 0.0000 31.4542 0.0000 19.5015
# 5 24.6876 6.2212 23.9795 0.0000 19.9448 0.0000
# 6 0.0000 0.0000 0.0000 19.5015 0.0000 29.5583
#
#
#
# Elastic Compliance Matrix: (Units=1/GPa)
#
#
# Indices 1 2 3 4 5 6 
#
# 1 0.013837 -0.031534 0.002253 0.000000 -0.010000 0.000000
# 2 -0.031534 0.606639 -0.111149 0.000000 -0.016556 0.000000
# 3 0.002253 -0.111149 0.031169 0.000000 -0.005594 0.000000
# 4 0.000000 0.000000 0.000000 0.053799 0.000000 -0.035495
# 5 -0.010000 -0.016556 -0.005594 0.000000 0.074405 0.000000
# 6 0.000000 0.000000 0.000000 -0.035495 0.000000 0.057250
#
#
# Mechanical properties :
#
#
# Convention : Reuss Voigt Hill
#
# Bulk Modulus (GPa) = 2.69699 52.16179 27.42939
# Shear Modulus (GPa) = 4.02721 26.53533 15.28127
#
# Velocity S-wave (km/s) = 1.49315 3.83278 2.90858
# Velocity P-wave (km/s) = 2.11323 6.96162 5.14441
#
# Compressibility (1/GPa) = 0.37078373
#
# Stress axis : x y z
#
# Youngs Moduli (GPa) = 72.27229 1.64843 32.08314
#
# Poissons Ratio (x) = 0.05198 -0.07229
# Poissons Ratio (y) = 2.27905 3.56601
# Poissons Ratio (z) = -0.16284 0.18322
#
# Static dielectric constant tensor:
#      x y z
#    x 1.615140 0.000000 0.014670 
#    y 0.000000 1.606450 0.000000 
#    z 0.014670 0.000000 1.618250 
# 
# From -- ./inp_files/90659.got.cif
#   From: 2010.05.17/outbox.cif.g08.bks.cpg/sg10_46_cif.got.tgz:90659.got - 2010.06.03 11:33:40.
