data_PCOD9146441
_publ_section_title
;
Structure prediction by ZEFSAII (Michael W. Deem and Ramdas Pophale) SiO2 
 PCOD9146441
Probable space group: P 2/M
;
_chemical_formula_sum "Si O2"
_cell_formula_units_Z 32
_cell_length_a 24.987977
_cell_length_b 7.755071
_cell_length_c 20.353006
_cell_angle_alpha 90.000000
_cell_angle_beta 23.342079
_cell_angle_gamma 90.000000
_cell_volume 1562.722053
_symmetry_space_group_name_H-M "P 2/M"
_symmetry_group_IT_number 10
_symmetry_cell_setting 'monoclinic'
loop_
_space_group_symop_operation_xyz
x,y,z
-x,y,-z
-x,-y,-z
x,-y,z
loop_
_atom_site_type_symbol
_atom_site_label
_atom_site_fract_x
_atom_site_fract_y
_atom_site_fract_z
Si Si1 0.013303 0.797375 0.276420
Si Si2 0.574586 0.711714 0.349420
Si Si3 0.625653 0.299215 0.534420
Si Si4 0.909336 0.801781 0.161516
Si Si5 0.126222 0.299485 0.017245
Si Si6 0.708559 0.710019 0.582332
Si Si7 0.066943 0.792359 0.491724
Si Si8 0.628287 0.292306 0.814877
O O1 0.861962 0.770426 0.419278
O O2 0.005725 0.728130 0.359538
O O3 0.043077 0.000000 0.245225
O O4 0.112001 0.715614 0.111722
O O5 0.500000 0.765177 0.500000
O O6 0.574488 0.500000 0.348783
O O7 0.489651 0.774250 0.382428
O O8 0.729713 0.766188 0.169985
O O9 0.591880 0.500000 0.582052
O O10 0.768493 0.288690 0.335500
O O11 0.648248 0.225166 0.581689
O O12 0.877443 0.000000 0.181046
O O13 0.000000 0.728650 0.000000
O O14 0.003514 0.794336 0.119524
O O15 0.113058 0.500000 0.014119
O O16 0.712712 0.500000 0.575653
O O17 0.630626 0.764687 0.736113
O O18 0.226100 0.753017 0.318619
O O19 0.000000 0.727572 0.500000
O O20 0.054249 0.000000 0.506791
O O21 0.620639 0.500000 0.822727
O O22 0.500000 0.226033 0.000000
#
# Coordination Sequence:
#
# PCOD9146441 Si02
#       8
#     4   4   4   4   4   4   4   4
#     4  10  19  33  55  79 108 141 176 222 269 310
#     4   9  19  35  53  75 104 137 175 217 261 312
#     4  10  19  34  56  78 101 136 179 221 263 311
#     4  11  23  36  53  80 109 136 174 223 266 312
#     4  11  21  35  56  81 108 139 177 219 264 321
#     4   9  17  31  53  78 105 137 176 217 262 314
#     4   9  19  36  56  78 107 144 184 220 258 312
#     4   9  18  33  52  79 112 141 173 217 267 314
#
# _framework density 20.477091999999999
#
# number of rings (size 3 to 8) (size 9 to 14) (size 15 to 20)
#    0.000    2.250    1.250    1.875    0.000    3.000 
#    2.250    1.250    0.000    3.375    0.000    0.000 
#    0.000    0.000    0.000    0.000    0.000    0.000 
#
# Total GULP energy -178624.349614 kJ/mol
# GULP energy per Si atom -5582.010925 kJ/mol
# Density = 2.043048 g / cm^3
# Si number density = 20.477092 Si / 1000 Ang^3
#
#
#
# Elastic Constant Matrix: (Units=GPa)
#
#
# Indices 1 2 3 4 5 6 
#
# 1 71.1548 -2.2288 -9.9582 0.0000 17.1881 0.0000
# 2 -2.2288 32.0881 -4.6265 0.0000 2.0283 0.0000
# 3 -9.9582 -4.6265 67.8820 0.0000 21.4459 0.0000
# 4 0.0000 0.0000 0.0000 26.5870 0.0000 4.5668
# 5 17.1881 2.0283 21.4459 0.0000 33.2416 0.0000
# 6 0.0000 0.0000 0.0000 4.5668 0.0000 25.0479
#
#
#
# Elastic Compliance Matrix: (Units=1/GPa)
#
#
# Indices 1 2 3 4 5 6 
#
# 1 0.018842 0.003363 0.007707 0.000000 -0.014920 0.000000
# 2 0.003363 0.032536 0.004883 0.000000 -0.006874 0.000000
# 3 0.007707 0.004883 0.022040 0.000000 -0.018502 0.000000
# 4 0.000000 0.000000 0.000000 0.038828 0.000000 -0.007079
# 5 -0.014920 -0.006874 -0.018502 0.000000 0.050153 0.000000
# 6 0.000000 0.000000 0.000000 -0.007079 0.000000 0.041214
#
#
# Mechanical properties :
#
#
# Convention : Reuss Voigt Hill
#
# Bulk Modulus (GPa) = 9.49457 15.27755 12.38606
# Shear Modulus (GPa) = 24.17595 29.50454 26.84025
#
# Velocity S-wave (km/s) = 3.43976 3.79998 3.62435
# Velocity P-wave (km/s) = 4.51915 5.17012 4.85555
#
# Compressibility (1/GPa) = 0.10532337
#
# Stress axis : x y z
#
# Youngs Moduli (GPa) = 53.07350 30.73487 45.37165
#
# Poissons Ratio (x) = -0.10336 -0.34967
# Poissons Ratio (y) = -0.17849 -0.22153
# Poissons Ratio (z) = -0.40903 -0.15007
#
# Static dielectric constant tensor:
#      x y z
#    x 1.749600 0.000000 0.049590 
#    y 0.000000 1.756480 0.000000 
#    z 0.049590 0.000000 1.722340 
# 
# From -- ./inp_files/86861.got.cif
#   From: 2010.05.17/outbox.cif.g08.bks.cpg/sg10_44_cif.got.tgz:86861.got - 2010.06.03 11:33:40.
