data_PCOD9146978
_publ_section_title
;
Structure prediction by ZEFSAII (Michael W. Deem and Ramdas Pophale) SiO2 
 PCOD9146978
Probable space group: P 2/M
;
_chemical_formula_sum "Si O2"
_cell_formula_units_Z 26
_cell_length_a 21.384675
_cell_length_b 9.538454
_cell_length_c 7.902583
_cell_angle_alpha 90.000000
_cell_angle_beta 49.275041
_cell_angle_gamma 90.000000
_cell_volume 1221.611406
_symmetry_space_group_name_H-M "P 2/M"
_symmetry_group_IT_number 10
_symmetry_cell_setting 'monoclinic'
loop_
_space_group_symop_operation_xyz
x,y,z
-x,y,-z
-x,-y,-z
x,-y,z
loop_
_atom_site_type_symbol
_atom_site_label
_atom_site_fract_x
_atom_site_fract_y
_atom_site_fract_z
Si Si1 0.500000 0.217332 0.500000
Si Si2 0.683037 0.850240 0.270357
Si Si3 0.035352 0.160575 0.247715
Si Si4 0.887718 0.340052 0.380114
Si Si5 0.439123 0.168018 0.951008
Si Si6 0.818215 0.658432 0.123578
Si Si7 0.256489 0.842099 0.224414
O O1 0.415405 0.153338 0.573095
O O2 0.462224 0.265415 0.748798
O O3 0.726879 0.723328 0.286940
O O4 0.707406 0.000000 0.304636
O O5 0.717253 0.844194 0.018312
O O6 0.000000 0.159657 0.500000
O O7 0.969151 0.247508 0.257114
O O8 0.044156 0.000000 0.174795
O O9 0.122164 0.239903 0.087029
O O10 0.904340 0.500000 0.404558
O O11 0.856362 0.341878 0.243212
O O12 0.814195 0.268188 0.614152
O O13 0.445147 0.000000 0.889629
O O14 0.500000 0.189535 0.000000
O O15 0.343098 0.188409 0.165725
O O16 0.817929 0.500000 0.057967
O O17 0.227765 0.000000 0.319691
#
# Coordination Sequence:
#
# PCOD9146978 Si02
#       7
#     2   4   4   4   4   4   4
#     4  10  19  34  55  86 123 154 197 260 309 360
#     4  10  20  36  60  88 118 153 198 250 303 352
#     4  11  24  42  65  92 118 147 191 243 293 350
#     4  11  24  40  59  85 121 159 196 239 289 350
#     4   9  17  29  50  81 115 150 193 245 304 359
#     4  11  25  41  58  86 121 157 198 239 287 355
#     4   9  19  35  55  85 116 147 195 247 291 351
#
# _framework density 21.283363000000001
#
# number of rings (size 3 to 8) (size 9 to 14) (size 15 to 20)
#    0.000    1.846    0.000    5.077    2.154    9.846 
#    0.000    0.385    0.000    1.385    0.000    0.000 
#    0.000    0.000    0.000    0.000    0.000    0.000 
#
# Total GULP energy -145049.032752 kJ/mol
# GULP energy per Si atom -5578.808952 kJ/mol
# Density = 2.123492 g / cm^3
# Si number density = 21.283363 Si / 1000 Ang^3
#
#
#
# Elastic Constant Matrix: (Units=GPa)
#
#
# Indices 1 2 3 4 5 6 
#
# 1 108.5416 48.2249 3.5042 0.0000 -24.4396 0.0000
# 2 48.2249 140.1891 35.0065 0.0000 -25.4188 0.0000
# 3 3.5042 35.0065 70.1490 0.0000 -20.5987 0.0000
# 4 0.0000 0.0000 0.0000 -15.4883 0.0000 1.9630
# 5 -24.4396 -25.4188 -20.5987 0.0000 34.8538 0.0000
# 6 0.0000 0.0000 0.0000 1.9630 0.0000 14.0802
#
#
#
# Elastic Compliance Matrix: (Units=1/GPa)
#
#
# Indices 1 2 3 4 5 6 
#
# 1 0.012632 -0.003761 0.003680 0.000000 0.008289 0.000000
# 2 -0.003761 0.009834 -0.004099 0.000000 0.002111 0.000000
# 3 0.003680 -0.004099 0.019356 0.000000 0.011030 0.000000
# 4 0.000000 0.000000 0.000000 -0.063444 0.000000 0.008845
# 5 0.008289 0.002111 0.011030 0.000000 0.042563 0.000000
# 6 0.000000 0.000000 0.000000 0.008845 0.000000 0.069788
#
#
# Mechanical properties :
#
#
# Convention : Reuss Voigt Hill
#
# Bulk Modulus (GPa) = 29.88594 54.70564 42.29579
# Shear Modulus (GPa) = 45.35419 22.16543 33.75981
#
# Velocity S-wave (km/s) = 4.62125 3.23064 3.98704
# Velocity P-wave (km/s) = 6.52281 6.29884 6.41180
#
# Compressibility (1/GPa) = 0.03346055
#
# Stress axis : x y z
#
# Youngs Moduli (GPa) = 79.16507 101.69224 51.66298
#
# Poissons Ratio (x) = 0.38249 -0.19012
# Poissons Ratio (y) = 0.29776 0.21178
# Poissons Ratio (z) = -0.29133 0.41687
#
# Static dielectric constant tensor:
#      x y z
#    x 1.787830 0.000000 0.020190 
#    y 0.000000 1.765530 0.000000 
#    z 0.020190 0.000000 1.786070 
# 
# From -- ./inp_files/34195.got.cif
#   From: 2010.05.17/outbox.cif.g08.bks.cpg/sg10_18_cif.got.tgz:34195.got - 2010.06.03 11:33:40.
