data_PCOD9146732
_publ_section_title
;
Structure prediction by ZEFSAII (Michael W. Deem and Ramdas Pophale) SiO2 
 PCOD9146732
Probable space group: P 2/M
;
_chemical_formula_sum "Si O2"
_cell_formula_units_Z 32
_cell_length_a 20.597063
_cell_length_b 9.050887
_cell_length_c 10.909657
_cell_angle_alpha 90.000000
_cell_angle_beta 127.275213
_cell_angle_gamma 90.000000
_cell_volume 1618.364362
_symmetry_space_group_name_H-M "P 2/M"
_symmetry_group_IT_number 10
_symmetry_cell_setting 'monoclinic'
loop_
_space_group_symop_operation_xyz
x,y,z
-x,y,-z
-x,-y,-z
x,-y,z
loop_
_atom_site_type_symbol
_atom_site_label
_atom_site_fract_x
_atom_site_fract_y
_atom_site_fract_z
Si Si1 0.452575 0.820034 0.822454
Si Si2 0.865823 0.670374 0.918642
Si Si3 0.736248 0.825550 0.371864
Si Si4 0.979558 0.670807 0.291334
Si Si5 0.269850 0.176783 0.093501
Si Si6 0.541027 0.820014 0.673658
Si Si7 0.111320 0.171301 0.298195
Si Si8 0.179684 0.676905 0.761146
O O1 0.357234 0.778847 0.717008
O O2 0.495867 0.770124 0.746330
O O3 0.455245 0.000000 0.825072
O O4 0.500000 0.771820 0.000000
O O5 0.843535 0.500000 0.875481
O O6 0.786569 0.766244 0.860994
O O7 0.905251 0.733506 0.841062
O O8 0.925061 0.677053 0.104161
O O9 0.793939 0.812391 0.556201
O O10 0.780644 0.733473 0.317466
O O11 0.736071 0.000000 0.336911
O O12 0.004750 0.500000 0.339819
O O13 0.915494 0.716284 0.323370
O O14 0.056181 0.771413 0.347345
O O15 0.363918 0.220054 0.214858
O O16 0.264768 0.000000 0.078717
O O17 0.232008 0.249848 0.929312
O O18 0.500000 0.769596 0.500000
O O19 0.537171 0.000000 0.669588
O O20 0.093627 0.000000 0.254898
O O21 0.183569 0.500000 0.775746
#
# Coordination Sequence:
#
# PCOD9146732 Si02
#       8
#     4   4   4   4   4   4   4   4
#     4   9  17  32  55  81 111 148 189 234 284 340
#     4  10  21  37  57  80 112 154 194 228 274 342
#     4  10  22  37  56  83 114 144 184 237 287 333
#     4   9  20  38  57  78 106 147 191 231 276 339
#     4  10  19  33  58  87 112 141 186 238 286 331
#     4   9  18  30  52  85 116 148 187 236 290 345
#     4  11  23  35  53  84 116 146 183 237 292 334
#     4  10  21  38  59  81 109 147 191 229 277 342
#
# _framework density 19.773050999999999
#
# number of rings (size 3 to 8) (size 9 to 14) (size 15 to 20)
#    0.000    2.250    0.000    3.375    1.750    8.000 
#    0.000    2.500    0.000    5.625    0.000    0.000 
#    0.000    0.000    0.000    0.000    0.000    0.000 
#
# Total GULP energy -178689.569674 kJ/mol
# GULP energy per Si atom -5584.049052 kJ/mol
# Density = 1.972805 g / cm^3
# Si number density = 19.773051 Si / 1000 Ang^3
#
#
#
# Elastic Constant Matrix: (Units=GPa)
#
#
# Indices 1 2 3 4 5 6 
#
# 1 122.9362 25.8724 43.5704 0.0000 5.2247 0.0000
# 2 25.8724 39.4246 26.1984 0.0000 6.3284 0.0000
# 3 43.5704 26.1984 72.0061 0.0000 6.4305 0.0000
# 4 0.0000 0.0000 0.0000 -80.8281 0.0000 -6.9501
# 5 5.2247 6.3284 6.4305 0.0000 37.2035 0.0000
# 6 0.0000 0.0000 0.0000 -6.9501 0.0000 23.9899
#
#
#
# Elastic Compliance Matrix: (Units=1/GPa)
#
#
# Indices 1 2 3 4 5 6 
#
# 1 0.010728 -0.003596 -0.005183 0.000000 0.000001 0.000000
# 2 -0.003596 0.035152 -0.010283 0.000000 -0.003697 0.000000
# 3 -0.005183 -0.010283 0.020866 0.000000 -0.001130 0.000000
# 4 0.000000 0.000000 0.000000 -0.012071 0.000000 -0.003497
# 5 0.000001 -0.003697 -0.001130 0.000000 0.027703 0.000000
# 6 0.000000 0.000000 0.000000 -0.003497 0.000000 0.040671
#
#
# Mechanical properties :
#
#
# Convention : Reuss Voigt Hill
#
# Bulk Modulus (GPa) = 34.93951 47.29435 41.11693
# Shear Modulus (GPa) = 29.28866 5.32144 17.30505
#
# Velocity S-wave (km/s) = 3.85287 1.64229 2.96156
# Velocity P-wave (km/s) = 6.12384 5.25040 5.70386
#
# Compressibility (1/GPa) = 0.02862089
#
# Stress axis : x y z
#
# Youngs Moduli (GPa) = 93.21346 28.44812 47.92414
#
# Poissons Ratio (x) = 0.10230 0.24840
# Poissons Ratio (y) = 0.33521 0.49282
# Poissons Ratio (z) = 0.48314 0.29254
#
# Static dielectric constant tensor:
#      x y z
#    x 1.691720 0.000000 -0.001900 
#    y 0.000000 1.653960 0.000000 
#    z -0.001900 0.000000 1.710210 
# 
# From -- ./inp_files/55356.got.cif
#   From: 2010.05.17/outbox.cif.g08.bks.cpg/sg10_28_cif.got.tgz:55356.got - 2010.06.03 11:33:40.
