data_PCOD9146036
_publ_section_title
;
Structure prediction by ZEFSAII (Michael W. Deem and Ramdas Pophale) SiO2 
 PCOD9146036
Probable space group: P 2/M
;
_chemical_formula_sum "Si O2"
_cell_formula_units_Z 32
_cell_length_a 26.291798
_cell_length_b 17.154169
_cell_length_c 10.040156
_cell_angle_alpha 90.000000
_cell_angle_beta 155.329334
_cell_angle_gamma 90.000000
_cell_volume 1890.100247
_symmetry_space_group_name_H-M "P 2/M"
_symmetry_group_IT_number 10
_symmetry_cell_setting 'monoclinic'
loop_
_space_group_symop_operation_xyz
x,y,z
-x,y,-z
-x,-y,-z
x,-y,z
loop_
_atom_site_type_symbol
_atom_site_label
_atom_site_fract_x
_atom_site_fract_y
_atom_site_fract_z
Si Si1 0.033456 0.703432 0.730476
Si Si2 0.544757 0.589498 0.259842
Si Si3 0.100595 0.590522 0.121952
Si Si4 0.680415 0.318178 0.221176
Si Si5 0.524780 0.169855 0.913492
Si Si6 0.295911 0.730820 0.279979
Si Si7 0.778827 0.235294 0.192928
Si Si8 0.617809 0.090480 0.874109
O O1 0.000000 0.678578 0.500000
O O2 0.923942 0.757730 0.521366
O O3 0.047566 0.631455 0.864521
O O4 0.164110 0.745443 0.030663
O O5 0.573527 0.500000 0.355817
O O6 0.654860 0.647644 0.551858
O O7 0.500000 0.595981 0.000000
O O8 0.429171 0.621631 0.066849
O O9 0.132829 0.500000 0.176162
O O10 0.217376 0.639086 0.449368
O O11 0.000000 0.593880 0.000000
O O12 0.736942 0.285845 0.219598
O O13 0.617102 0.244046 0.142967
O O14 0.398377 0.206568 0.560497
O O15 0.578065 0.112601 0.929504
O O16 0.500000 0.136162 0.000000
O O17 0.278488 0.731483 0.079629
O O18 0.724722 0.149221 0.085971
O O19 0.500000 0.105114 0.500000
O O20 0.650878 0.000000 0.941543
#
# Coordination Sequence:
#
# PCOD9146036 Si02
#       8
#     4   4   4   4   4   4   4   4
#     4  10  21  36  55  76 105 146 188 223 266 318
#     4  10  20  33  50  72 102 140 180 226 276 323
#     4  11  21  34  51  75 107 143 185 232 274 310
#     4  10  19  33  54  76 106 139 185 225 272 315
#     4  10  19  32  56  86 110 138 176 223 263 316
#     4  10  19  34  54  76 106 141 183 221 266 316
#     4  10  20  36  54  80 106 137 180 221 256 320
#     4  10  20  36  60  84 110 143 168 208 273 328
#
# _framework density 16.930319999999998
#
# number of rings (size 3 to 8) (size 9 to 14) (size 15 to 20)
#    0.000    1.875    2.500    3.375    0.000    2.000 
#    0.000    3.750    0.000    4.125    0.000   11.375 
#    0.000    0.000    0.000    0.000    0.000    0.000 
#
# Total GULP energy -178559.755910 kJ/mol
# GULP energy per Si atom -5579.992372 kJ/mol
# Density = 1.689179 g / cm^3
# Si number density = 16.930320 Si / 1000 Ang^3
#
#
#
# Elastic Constant Matrix: (Units=GPa)
#
#
# Indices 1 2 3 4 5 6 
#
# 1 106.8466 45.9936 43.4278 0.0000 6.6399 0.0000
# 2 45.9936 95.0905 51.5620 0.0000 4.4873 0.0000
# 3 43.4278 51.5620 99.0169 0.0000 16.8076 0.0000
# 4 0.0000 0.0000 0.0000 19.6299 0.0000 -4.6769
# 5 6.6399 4.4873 16.8076 0.0000 25.0737 0.0000
# 6 0.0000 0.0000 0.0000 -4.6769 0.0000 12.4835
#
#
#
# Elastic Compliance Matrix: (Units=1/GPa)
#
#
# Indices 1 2 3 4 5 6 
#
# 1 0.012537 -0.004321 -0.003178 0.000000 -0.000417 0.000000
# 2 -0.004321 0.016321 -0.007112 0.000000 0.002990 0.000000
# 3 -0.003178 -0.007112 0.016742 0.000000 -0.009109 0.000000
# 4 0.000000 0.000000 0.000000 0.055936 0.000000 0.020956
# 5 -0.000417 0.002990 -0.009109 0.000000 0.045563 0.000000
# 6 0.000000 0.000000 0.000000 0.020956 0.000000 0.087957
#
#
# Mechanical properties :
#
#
# Convention : Reuss Voigt Hill
#
# Bulk Modulus (GPa) = 61.05051 64.76899 62.90975
# Shear Modulus (GPa) = 18.53656 22.10213 20.31934
#
# Velocity S-wave (km/s) = 3.31248 3.61706 3.46811
# Velocity P-wave (km/s) = 7.12518 7.46883 7.29903
#
# Compressibility (1/GPa) = 0.01637988
#
# Stress axis : x y z
#
# Youngs Moduli (GPa) = 79.76577 61.26902 59.72852
#
# Poissons Ratio (x) = 0.26475 0.18979
# Poissons Ratio (y) = 0.34468 0.42477
# Poissons Ratio (z) = 0.25346 0.43572
#
# Static dielectric constant tensor:
#      x y z
#    x 1.597350 0.000000 0.006550 
#    y 0.000000 1.539810 0.000000 
#    z 0.006550 0.000000 1.573460 
# 
# From -- ./inp_files/36476.got.cif
#   From: 2010.05.17/outbox.cif.g08.bks.cpg/sg10_19_cif.got.tgz:36476.got - 2010.06.03 11:33:40.
