data_PCOD9146459
_publ_section_title
;
Structure prediction by ZEFSAII (Michael W. Deem and Ramdas Pophale) SiO2 
 PCOD9146459
Probable space group: P 2/M
;
_chemical_formula_sum "Si O2"
_cell_formula_units_Z 28
_cell_length_a 9.914007
_cell_length_b 8.978170
_cell_length_c 28.028068
_cell_angle_alpha 90.000000
_cell_angle_beta 38.713033
_cell_angle_gamma 90.000000
_cell_volume 1560.278367
_symmetry_space_group_name_H-M "P 2/M"
_symmetry_group_IT_number 10
_symmetry_cell_setting 'monoclinic'
loop_
_space_group_symop_operation_xyz
x,y,z
-x,y,-z
-x,-y,-z
x,-y,z
loop_
_atom_site_type_symbol
_atom_site_label
_atom_site_fract_x
_atom_site_fract_y
_atom_site_fract_z
Si Si1 0.656220 0.322016 0.863297
Si Si2 0.264415 0.326357 0.551134
Si Si3 0.992562 0.822253 0.299411
Si Si4 0.671763 0.822571 0.302399
Si Si5 0.073145 0.179104 0.127086
Si Si6 0.766637 0.673145 0.553891
Si Si7 0.849936 0.321267 0.996557
O O1 0.685885 0.500000 0.857840
O O2 0.747546 0.249478 0.886998
O O3 0.403816 0.290802 0.925182
O O4 0.799431 0.254966 0.781058
O O5 0.500000 0.266610 0.500000
O O6 0.251736 0.500000 0.569880
O O7 0.078909 0.237628 0.629648
O O8 0.253872 0.320827 0.497392
O O9 0.795746 0.784444 0.317468
O O10 0.020419 0.000000 0.291410
O O11 0.439669 0.748186 0.365445
O O12 0.841234 0.781071 0.214335
O O13 0.645511 0.000000 0.308501
O O14 0.095269 0.000000 0.122184
O O15 0.089458 0.240563 0.069356
O O16 0.769259 0.500000 0.568348
O O17 0.000000 0.741301 0.500000
O O18 0.873691 0.500000 0.983653
O O19 0.000000 0.277447 0.000000
#
# Coordination Sequence:
#
# PCOD9146459 Si02
#       7
#     4   4   4   4   4   4   4
#     4  10  20  36  60  85 112 145 185 230 274 325
#     4  10  19  33  55  80 106 140 184 225 269 323
#     4  10  20  34  55  84 112 140 181 230 277 320
#     4   9  19  35  54  78 109 141 178 222 268 322
#     4  10  21  37  59  87 114 144 184 229 277 330
#     4  10  21  36  53  77 107 141 182 226 270 319
#     4  10  22  40  59  83 114 148 186 226 274 330
#
# _framework density 17.945516999999999
#
# number of rings (size 3 to 8) (size 9 to 14) (size 15 to 20)
#    0.000    2.143    1.429    2.571    0.000    7.143 
#    2.571    0.000    0.000    0.000    0.000    0.000 
#    0.000    0.000    0.000    0.000    0.000    0.000 
#
# Total GULP energy -156234.166220 kJ/mol
# GULP energy per Si atom -5579.791651 kJ/mol
# Density = 1.790467 g / cm^3
# Si number density = 17.945517 Si / 1000 Ang^3
#
#
#
# Elastic Constant Matrix: (Units=GPa)
#
#
# Indices 1 2 3 4 5 6 
#
# 1 75.9052 35.9528 61.4721 0.0000 -20.1758 0.0000
# 2 35.9528 48.4610 57.3467 0.0000 -10.0397 0.0000
# 3 61.4721 57.3467 131.2085 0.0000 -17.3578 0.0000
# 4 0.0000 0.0000 0.0000 15.1298 0.0000 9.2451
# 5 -20.1758 -10.0397 -17.3578 0.0000 28.2851 0.0000
# 6 0.0000 0.0000 0.0000 9.2451 0.0000 5.3653
#
#
#
# Elastic Compliance Matrix: (Units=1/GPa)
#
#
# Indices 1 2 3 4 5 6 
#
# 1 0.025775 -0.008844 -0.006741 0.000000 0.011110 0.000000
# 2 -0.008844 0.046203 -0.016015 0.000000 0.000263 0.000000
# 3 -0.006741 -0.016015 0.017839 0.000000 0.000455 0.000000
# 4 0.000000 0.000000 0.000000 -1.248750 0.000000 2.151771
# 5 0.011110 0.000263 0.000455 0.000000 0.043651 0.000000
# 6 0.000000 0.000000 0.000000 2.151771 0.000000 -3.521420
#
#
# Mechanical properties :
#
#
# Convention : Reuss Voigt Hill
#
# Bulk Modulus (GPa) = 37.56975 62.79088 50.18031
# Shear Modulus (GPa) = -1.09538 16.47623 7.69043
#
# Velocity S-wave (km/s) = -0.78212 3.03335 2.07237
# Velocity P-wave (km/s) = 4.49058 6.87997 5.80944
#
# Compressibility (1/GPa) = 0.02661716
#
# Stress axis : x y z
#
# Youngs Moduli (GPa) = 38.79659 21.64370 56.05557
#
# Poissons Ratio (x) = 0.19142 0.37786
# Poissons Ratio (y) = 0.34313 0.89775
# Poissons Ratio (z) = 0.26152 0.34663
#
# Static dielectric constant tensor:
#      x y z
#    x 1.608920 0.000000 -0.007880 
#    y 0.000000 1.610120 0.000000 
#    z -0.007880 0.000000 1.605250 
# 
# From -- ./inp_files/36943.got.cif
#   From: 2010.05.17/outbox.cif.g08.bks.cpg/sg10_19_cif.got.tgz:36943.got - 2010.06.03 11:33:40.
