data_PCOD9146358
_publ_section_title
;
Structure prediction by ZEFSAII (Michael W. Deem and Ramdas Pophale) SiO2 
 PCOD9146358
Probable space group: P 2/M
;
_chemical_formula_sum "Si O2"
_cell_formula_units_Z 32
_cell_length_a 20.574306
_cell_length_b 8.926439
_cell_length_c 25.520249
_cell_angle_alpha 90.000000
_cell_angle_beta 157.067965
_cell_angle_gamma 90.000000
_cell_volume 1826.209913
_symmetry_space_group_name_H-M "P 2/M"
_symmetry_group_IT_number 10
_symmetry_cell_setting 'monoclinic'
loop_
_space_group_symop_operation_xyz
x,y,z
-x,y,-z
-x,-y,-z
x,-y,z
loop_
_atom_site_type_symbol
_atom_site_label
_atom_site_fract_x
_atom_site_fract_y
_atom_site_fract_z
Si Si1 0.835031 0.179145 0.343503
Si Si2 0.441728 0.822224 0.580005
Si Si3 0.170059 0.178814 0.884534
Si Si4 0.861304 0.319597 0.711559
Si Si5 0.352194 0.678389 0.619704
Si Si6 0.342881 0.672086 0.343090
Si Si7 0.012766 0.821175 0.654614
Si Si8 0.474947 0.321288 0.827877
O O1 0.877139 0.215206 0.314572
O O2 0.676852 0.264082 0.249050
O O3 0.000000 0.214797 0.500000
O O4 0.806793 0.000000 0.326857
O O5 0.278997 0.750128 0.430975
O O6 0.446132 0.758655 0.641778
O O7 0.600179 0.772507 0.662952
O O8 0.423201 0.000000 0.566377
O O9 0.106841 0.210742 0.778554
O O10 0.038638 0.257296 0.825698
O O11 0.165900 0.000000 0.888891
O O12 0.354049 0.241421 0.029732
O O13 0.853822 0.500000 0.701676
O O14 0.809291 0.280211 0.732619
O O15 0.356747 0.500000 0.615229
O O16 0.428402 0.713692 0.733006
O O17 0.161545 0.734816 0.477076
O O18 0.500000 0.672633 0.500000
O O19 0.319353 0.500000 0.308435
O O20 0.977015 0.000000 0.626173
O O21 0.492358 0.500000 0.845656
#
# Coordination Sequence:
#
# PCOD9146358 Si02
#       8
#     4   4   4   4   4   4   4   4
#     4  10  20  37  62  86 113 148 184 233 289 338
#     4  11  20  30  51  83 115 146 187 236 281 331
#     4  11  23  38  58  84 116 153 191 234 283 337
#     4  10  19  33  54  80 114 152 188 230 280 333
#     4  11  22  36  57  82 111 149 190 237 286 335
#     4   8  16  30  48  75 112 150 185 226 279 332
#     4  10  21  37  59  87 113 144 188 233 283 341
#     4  11  25  41  58  83 114 150 193 236 284 342
#
# _framework density 17.522629999999999
#
# number of rings (size 3 to 8) (size 9 to 14) (size 15 to 20)
#    0.000    1.750    2.500    3.375    0.000    6.000 
#    0.000    2.500    0.000    0.750    0.000    5.250 
#    0.000    0.000    0.000    0.000    0.000    0.000 
#
# Total GULP energy -178689.732561 kJ/mol
# GULP energy per Si atom -5584.054143 kJ/mol
# Density = 1.748275 g / cm^3
# Si number density = 17.522630 Si / 1000 Ang^3
#
#
#
# Elastic Constant Matrix: (Units=GPa)
#
#
# Indices 1 2 3 4 5 6 
#
# 1 144.6593 67.7536 56.6543 0.0000 19.1379 0.0000
# 2 67.7536 72.8356 49.2786 0.0000 1.3225 0.0000
# 3 56.6543 49.2786 89.8366 0.0000 8.0501 0.0000
# 4 0.0000 0.0000 0.0000 26.8401 0.0000 8.0838
# 5 19.1379 1.3225 8.0501 0.0000 22.0765 0.0000
# 6 0.0000 0.0000 0.0000 8.0838 0.0000 35.6908
#
#
#
# Elastic Compliance Matrix: (Units=1/GPa)
#
#
# Indices 1 2 3 4 5 6 
#
# 1 0.015008 -0.012810 -0.001386 0.000000 -0.011738 0.000000
# 2 -0.012810 0.032982 -0.011197 0.000000 0.013212 0.000000
# 3 -0.001386 -0.011197 0.018587 0.000000 -0.004905 0.000000
# 4 0.000000 0.000000 0.000000 0.039985 0.000000 -0.009057
# 5 -0.011738 0.013212 -0.004905 0.000000 0.056470 0.000000
# 6 0.000000 0.000000 0.000000 -0.009057 0.000000 0.030070
#
#
# Mechanical properties :
#
#
# Convention : Reuss Voigt Hill
#
# Bulk Modulus (GPa) = 63.32995 72.74493 68.03744
# Shear Modulus (GPa) = 20.06806 25.83115 22.94961
#
# Velocity S-wave (km/s) = 3.38785 3.84364 3.62292
# Velocity P-wave (km/s) = 7.17800 7.82963 7.51088
#
# Compressibility (1/GPa) = 0.01579032
#
# Stress axis : x y z
#
# Youngs Moduli (GPa) = 66.62898 30.31987 53.80116
#
# Poissons Ratio (x) = 0.38841 0.07458
# Poissons Ratio (y) = 0.85354 0.60241
# Poissons Ratio (z) = 0.09236 0.33949
#
# Static dielectric constant tensor:
#      x y z
#    x 1.607010 0.000000 0.005930 
#    y 0.000000 1.585120 0.000000 
#    z 0.005930 0.000000 1.563620 
# 
# From -- ./inp_files/93721.got.cif
#   From: 2010.05.17/outbox.cif.g08.bks.cpg/sg10_47_cif.got.tgz:93721.got - 2010.06.03 11:33:40.
