data_PCOD9146655
_publ_section_title
;
Structure prediction by ZEFSAII (Michael W. Deem and Ramdas Pophale) SiO2 
 PCOD9146655
Probable space group: P 2/M
;
_chemical_formula_sum "Si O2"
_cell_formula_units_Z 26
_cell_length_a 8.412919
_cell_length_b 12.467276
_cell_length_c 25.699575
_cell_angle_alpha 90.000000
_cell_angle_beta 30.017315
_cell_angle_gamma 90.000000
_cell_volume 1348.470567
_symmetry_space_group_name_H-M "P 2/M"
_symmetry_group_IT_number 10
_symmetry_cell_setting 'monoclinic'
loop_
_space_group_symop_operation_xyz
x,y,z
-x,y,-z
-x,-y,-z
x,-y,z
loop_
_atom_site_type_symbol
_atom_site_label
_atom_site_fract_x
_atom_site_fract_y
_atom_site_fract_z
Si Si1 0.720034 0.267359 0.619048
Si Si2 0.394462 0.195794 0.170894
Si Si3 0.462322 0.116850 0.761168
Si Si4 0.762205 0.870547 0.970251
Si Si5 0.838982 0.375249 0.685599
Si Si6 0.697577 0.128081 0.340235
Si Si7 0.500000 0.247720 0.500000
O O1 0.763362 0.171931 0.648954
O O2 0.672480 0.359863 0.675659
O O3 0.453802 0.209039 0.659411
O O4 0.000000 0.293236 0.500000
O O5 0.485202 0.118076 0.192427
O O6 0.656928 0.191150 0.051936
O O7 0.330470 0.306763 0.220397
O O8 0.072665 0.151302 0.236411
O O9 0.439640 0.000000 0.745155
O O10 0.112304 0.166683 0.853479
O O11 0.778480 0.000000 0.976098
O O12 0.500000 0.854798 0.000000
O O13 0.854215 0.500000 0.694044
O O14 0.192160 0.324221 0.580690
O O15 0.559263 0.171750 0.433824
O O16 0.640041 0.000000 0.349846
#
# Coordination Sequence:
#
# PCOD9146655 Si02
#       7
#     4   4   4   4   4   4   2
#     4  11  22  38  52  83 114 153 195 237 282 339
#     4  10  21  36  57  84 115 147 195 236 283 340
#     4  10  20  33  53  81 116 156 192 228 278 342
#     4  10  19  33  56  86 119 157 188 223 280 345
#     4  10  22  41  61  80 108 147 199 251 294 330
#     4  11  21  34  53  82 121 154 182 223 282 349
#     4  10  20  38  54  84 108 146 192 234 282 344
#
# _framework density 19.281103000000002
#
# number of rings (size 3 to 8) (size 9 to 14) (size 15 to 20)
#    0.000    1.692    1.538    3.692    0.000    4.000 
#    0.000    0.769    0.000    7.846    0.000    0.000 
#    0.000    0.000    0.000    0.000    0.000    0.000 
#
# Total GULP energy -144765.495105 kJ/mol
# GULP energy per Si atom -5567.903658 kJ/mol
# Density = 1.923722 g / cm^3
# Si number density = 19.281103 Si / 1000 Ang^3
#
#
#
# Elastic Constant Matrix: (Units=GPa)
#
#
# Indices 1 2 3 4 5 6 
#
# 1 91.9351 26.6528 6.6365 0.0000 5.4368 0.0000
# 2 26.6528 106.1966 34.8397 0.0000 5.9651 0.0000
# 3 6.6365 34.8397 54.7284 0.0000 23.5946 0.0000
# 4 0.0000 0.0000 0.0000 10.2851 0.0000 -2.0996
# 5 5.4368 5.9651 23.5946 0.0000 41.0393 0.0000
# 6 0.0000 0.0000 0.0000 -2.0996 0.0000 15.7080
#
#
#
# Elastic Compliance Matrix: (Units=1/GPa)
#
#
# Indices 1 2 3 4 5 6 
#
# 1 0.011861 -0.003380 0.001567 0.000000 -0.001981 0.000000
# 2 -0.003380 0.013254 -0.009825 0.000000 0.004170 0.000000
# 3 0.001567 -0.009825 0.031657 0.000000 -0.016980 0.000000
# 4 0.000000 0.000000 0.000000 0.099956 0.000000 0.013361
# 5 -0.001981 0.004170 -0.016980 0.000000 0.033786 0.000000
# 6 0.000000 0.000000 0.000000 0.013361 0.000000 0.065448
#
#
# Mechanical properties :
#
#
# Convention : Reuss Voigt Hill
#
# Bulk Modulus (GPa) = 29.85363 43.23533 36.54448
# Shear Modulus (GPa) = 17.21750 25.72189 21.46969
#
# Velocity S-wave (km/s) = 2.99151 3.65642 3.34055
# Velocity P-wave (km/s) = 5.23919 6.34809 5.82011
#
# Compressibility (1/GPa) = 0.03349677
#
# Stress axis : x y z
#
# Youngs Moduli (GPa) = 84.30933 75.44969 31.58836
#
# Poissons Ratio (x) = 0.25500 -0.04951
# Poissons Ratio (y) = 0.28495 0.31037
# Poissons Ratio (z) = -0.13214 0.74132
#
# Static dielectric constant tensor:
#      x y z
#    x 1.771050 0.000000 -0.000910 
#    y 0.000000 1.694460 0.000000 
#    z -0.000910 0.000000 1.683540 
# 
# From -- ./inp_files/37568.got.cif
#   From: 2010.05.17/outbox.cif.g08.bks.cpg/sg10_19_cif.got.tgz:37568.got - 2010.06.03 11:33:40.
