data_PCOD9146711
_publ_section_title
;
Structure prediction by ZEFSAII (Michael W. Deem and Ramdas Pophale) SiO2 
 PCOD9146711
Probable space group: P 2/M
;
_chemical_formula_sum "Si O2"
_cell_formula_units_Z 24
_cell_length_a 13.921021
_cell_length_b 13.556516
_cell_length_c 11.102577
_cell_angle_alpha 90.000000
_cell_angle_beta 147.379205
_cell_angle_gamma 90.000000
_cell_volume 1129.518586
_symmetry_space_group_name_H-M "P 2/M"
_symmetry_group_IT_number 10
_symmetry_cell_setting 'monoclinic'
loop_
_space_group_symop_operation_xyz
x,y,z
-x,y,-z
-x,-y,-z
x,-y,z
loop_
_atom_site_type_symbol
_atom_site_label
_atom_site_fract_x
_atom_site_fract_y
_atom_site_fract_z
Si Si1 0.767838 0.215042 0.544567
Si Si2 0.702500 0.711423 0.734457
Si Si3 0.919190 0.186293 0.285612
Si Si4 0.583138 0.611182 0.219085
Si Si5 0.797324 0.610150 0.063497
Si Si6 0.395576 0.887204 0.190882
O O1 0.789870 0.262355 0.699814
O O2 0.716474 0.304618 0.400818
O O3 0.596045 0.144937 0.371635
O O4 0.938931 0.162718 0.669738
O O5 0.500000 0.672327 0.500000
O O6 0.809988 0.640157 0.936893
O O7 0.672250 0.812388 0.777805
O O8 0.000000 0.162629 0.500000
O O9 0.882083 0.303518 0.232272
O O10 0.734501 0.132932 0.059329
O O11 0.658315 0.500000 0.299227
O O12 0.413909 0.613768 0.129814
O O13 0.500000 0.629565 0.000000
O O14 0.861649 0.500000 0.156295
O O15 0.387088 0.000000 0.219805
#
# Coordination Sequence:
#
# PCOD9146711 Si02
#       6
#     4   4   4   4   4   4
#     4  11  22  38  65  89 119 161 202 239 310 356
#     4   9  18  37  59  91 119 159 197 250 299 357
#     4  11  24  41  62  87 121 159 200 249 298 359
#     4  10  19  33  57  87 120 160 202 237 282 347
#     4  10  20  36  57  86 125 162 197 246 297 346
#     4  10  23  43  63  90 121 151 198 257 307 360
#
# _framework density 21.247990000000001
#
# number of rings (size 3 to 8) (size 9 to 14) (size 15 to 20)
#    0.000    1.833    5.000    1.000    0.000    8.667 
#    0.000    2.500    0.000    0.000    0.000    0.000 
#    0.000    0.000    0.000    0.000    0.000    0.000 
#
# Total GULP energy -134125.457524 kJ/mol
# GULP energy per Si atom -5588.560730 kJ/mol
# Density = 2.119963 g / cm^3
# Si number density = 21.247990 Si / 1000 Ang^3
#
#
#
# Elastic Constant Matrix: (Units=GPa)
#
#
# Indices 1 2 3 4 5 6 
#
# 1 60.9366 -16.1812 7.8520 0.0000 1.0795 0.0000
# 2 -16.1812 66.4670 -9.6265 0.0000 6.7092 0.0000
# 3 7.8520 -9.6265 47.1802 0.0000 -0.1400 0.0000
# 4 0.0000 0.0000 0.0000 -6.6329 0.0000 -0.5483
# 5 1.0795 6.7092 -0.1400 0.0000 34.0415 0.0000
# 6 0.0000 0.0000 0.0000 -0.5483 0.0000 3.4311
#
#
#
# Elastic Compliance Matrix: (Units=1/GPa)
#
#
# Indices 1 2 3 4 5 6 
#
# 1 0.017816 0.004171 -0.002118 0.000000 -0.001396 0.000000
# 2 0.004171 0.016802 0.002724 0.000000 -0.003432 0.000000
# 3 -0.002118 0.002724 0.022102 0.000000 -0.000379 0.000000
# 4 0.000000 0.000000 0.000000 -0.148798 0.000000 -0.023777
# 5 -0.001396 -0.003432 -0.000379 0.000000 0.030095 0.000000
# 6 0.000000 0.000000 0.000000 -0.023777 0.000000 0.287654
#
#
# Mechanical properties :
#
#
# Convention : Reuss Voigt Hill
#
# Bulk Modulus (GPa) = 15.08891 15.40804 15.24847
# Shear Modulus (GPa) = 20.99002 19.00390 19.99696
#
# Velocity S-wave (km/s) = 3.14643 2.99387 3.07110
# Velocity P-wave (km/s) = 4.50742 4.38387 4.44607
#
# Compressibility (1/GPa) = 0.06627385
#
# Stress axis : x y z
#
# Youngs Moduli (GPa) = 56.12991 59.51844 45.24382
#
# Poissons Ratio (x) = -0.24827 0.09583
# Poissons Ratio (y) = -0.23414 -0.12323
# Poissons Ratio (z) = 0.11889 -0.16211
#
# Static dielectric constant tensor:
#      x y z
#    x 1.793640 0.000000 0.017690 
#    y 0.000000 1.754000 0.000000 
#    z 0.017690 0.000000 1.798290 
# 
# From -- ./inp_files/51695.got.cif
#   From: 2010.05.17/outbox.cif.g08.bks.cpg/sg10_26_cif.got.tgz:51695.got - 2010.06.03 11:33:40.
