data_PCOD9146646
_publ_section_title
;
Structure prediction by ZEFSAII (Michael W. Deem and Ramdas Pophale) SiO2 
 PCOD9146646
Probable space group: P 2/M
;
_chemical_formula_sum "Si O2"
_cell_formula_units_Z 28
_cell_length_a 30.192762
_cell_length_b 8.209181
_cell_length_c 10.178783
_cell_angle_alpha 90.000000
_cell_angle_beta 147.093042
_cell_angle_gamma 90.000000
_cell_volume 1370.627300
_symmetry_space_group_name_H-M "P 2/M"
_symmetry_group_IT_number 10
_symmetry_cell_setting 'monoclinic'
loop_
_space_group_symop_operation_xyz
x,y,z
-x,y,-z
-x,-y,-z
x,-y,z
loop_
_atom_site_type_symbol
_atom_site_label
_atom_site_fract_x
_atom_site_fract_y
_atom_site_fract_z
Si Si1 0.124723 0.300885 0.064178
Si Si2 0.504295 0.693066 0.159834
Si Si3 0.195756 0.302657 0.514031
Si Si4 0.626742 0.193566 0.954025
Si Si5 0.636801 0.806461 0.688319
Si Si6 0.817974 0.302456 0.079659
Si Si7 0.938148 0.301655 0.609455
O O1 0.123325 0.500000 0.060614
O O2 0.161281 0.250126 0.016167
O O3 0.031165 0.245493 0.846506
O O4 0.178291 0.250165 0.321783
O O5 0.497336 0.500000 0.132152
O O6 0.587380 0.734042 0.443408
O O7 0.500000 0.760830 0.000000
O O8 0.432539 0.749288 0.078275
O O9 0.198790 0.500000 0.525416
O O10 0.280662 0.239541 0.780923
O O11 0.119448 0.250653 0.413847
O O12 0.619705 0.000000 0.929672
O O13 0.607701 0.256684 0.759120
O O14 0.624033 0.000000 0.653272
O O15 0.732210 0.767416 0.913238
O O16 0.812152 0.500000 0.068521
O O17 0.891005 0.255217 0.359266
O O18 0.941048 0.500000 0.619697
#
# Coordination Sequence:
#
# PCOD9146646 Si02
#       7
#     4   4   4   4   4   4   4
#     4   9  18  30  51  84 119 152 195 253 304 345
#     4  11  26  45  68  96 122 147 186 241 296 352
#     4  10  19  33  56  85 117 154 200 250 296 345
#     4  11  24  42  63  88 122 161 200 239 287 350
#     4  11  24  42  63  88 122 161 200 239 287 350
#     4  10  19  33  56  85 117 154 200 250 296 345
#     4   9  16  30  53  82 115 154 199 249 302 345
#
# _framework density 20.428601
#
# number of rings (size 3 to 8) (size 9 to 14) (size 15 to 20)
#    0.000    1.857    1.429    2.571    2.000    8.000 
#    0.000    0.000    0.000    5.143    0.000    0.000 
#    0.000    0.000    0.000    0.000    0.000    0.000 
#
# Total GULP energy -156429.582292 kJ/mol
# GULP energy per Si atom -5586.770796 kJ/mol
# Density = 2.038210 g / cm^3
# Si number density = 20.428601 Si / 1000 Ang^3
#
#
#
# Elastic Constant Matrix: (Units=GPa)
#
#
# Indices 1 2 3 4 5 6 
#
# 1 48.2022 -15.2148 -2.2796 0.0000 -20.2384 0.0000
# 2 -15.2148 21.8818 3.3634 0.0000 -3.6595 0.0000
# 3 -2.2796 3.3634 89.3663 0.0000 -17.7338 0.0000
# 4 0.0000 0.0000 0.0000 263.1236 0.0000 111.3977
# 5 -20.2384 -3.6595 -17.7338 0.0000 43.5714 0.0000
# 6 0.0000 0.0000 0.0000 111.3977 0.0000 53.8371
#
#
#
# Elastic Compliance Matrix: (Units=1/GPa)
#
#
# Indices 1 2 3 4 5 6 
#
# 1 0.040747 0.031555 0.004497 0.000000 0.023407 0.000000
# 2 0.031555 0.070881 0.002423 0.000000 0.021596 0.000000
# 3 0.004497 0.002423 0.012693 0.000000 0.007458 0.000000
# 4 0.000000 0.000000 0.000000 0.030653 0.000000 -0.063426
# 5 0.023407 0.021596 0.007458 0.000000 0.038672 0.000000
# 6 0.000000 0.000000 0.000000 -0.063426 0.000000 0.149813
#
#
# Mechanical properties :
#
#
# Convention : Reuss Voigt Hill
#
# Bulk Modulus (GPa) = 4.96845 14.57647 9.77246
# Shear Modulus (GPa) = 14.98805 83.67850 49.33327
#
# Velocity S-wave (km/s) = 2.71159 6.40706 4.91951
# Velocity P-wave (km/s) = 3.49872 7.86668 6.08792
#
# Compressibility (1/GPa) = 0.20126984
#
# Stress axis : x y z
#
# Youngs Moduli (GPa) = 24.54196 14.10825 78.78068
#
# Poissons Ratio (x) = -0.44519 -0.35424
# Poissons Ratio (y) = -0.77443 -0.19087
# Poissons Ratio (z) = -0.11036 -0.03418
#
# Static dielectric constant tensor:
#      x y z
#    x 1.723250 0.000000 -0.028120 
#    y 0.000000 1.719870 0.000000 
#    z -0.028120 0.000000 1.705150 
# 
# From -- ./inp_files/37344.got.cif
#   From: 2010.05.17/outbox.cif.g08.bks.cpg/sg10_19_cif.got.tgz:37344.got - 2010.06.03 11:33:40.
