data_PCOD9146740
_publ_section_title
;
Structure prediction by ZEFSAII (Michael W. Deem and Ramdas Pophale) SiO2 
 PCOD9146740
Probable space group: P 2/M
;
_chemical_formula_sum "Si O2"
_cell_formula_units_Z 24
_cell_length_a 22.452228
_cell_length_b 8.785334
_cell_length_c 11.811665
_cell_angle_alpha 90.000000
_cell_angle_beta 31.129925
_cell_angle_gamma 90.000000
_cell_volume 1204.489409
_symmetry_space_group_name_H-M "P 2/M"
_symmetry_group_IT_number 10
_symmetry_cell_setting 'monoclinic'
loop_
_space_group_symop_operation_xyz
x,y,z
-x,y,-z
-x,-y,-z
x,-y,z
loop_
_atom_site_type_symbol
_atom_site_label
_atom_site_fract_x
_atom_site_fract_y
_atom_site_fract_z
Si Si1 0.229494 0.182304 0.443403
Si Si2 0.238852 0.317993 0.668169
Si Si3 0.539107 0.685244 0.560175
Si Si4 0.961324 0.819634 0.870750
Si Si5 0.114557 0.322461 0.237225
Si Si6 0.675384 0.683597 0.939834
O O1 0.271153 0.251485 0.493746
O O2 0.298383 0.242781 0.223276
O O3 0.094790 0.229240 0.650438
O O4 0.234375 0.000000 0.439100
O O5 0.238034 0.500000 0.664291
O O6 0.334378 0.268472 0.604936
O O7 0.114686 0.258545 0.909122
O O8 0.500000 0.739435 0.500000
O O9 0.539151 0.500000 0.555504
O O10 0.444695 0.728801 0.807425
O O11 0.905022 0.774754 0.842665
O O12 0.958323 0.000000 0.893187
O O13 0.131330 0.500000 0.176374
O O14 0.222631 0.276120 0.138044
O O15 0.000000 0.313319 0.500000
O O16 0.677602 0.500000 0.923898
#
# Coordination Sequence:
#
# PCOD9146740 Si02
#       6
#     4   4   4   4   4   4
#     4  11  24  40  57  83 121 158 193 237 294 352
#     4  11  23  39  62  87 113 151 200 245 286 340
#     4   9  19  38  63  89 116 147 187 239 295 344
#     4  11  23  38  58  84 120 160 194 236 294 352
#     4  10  19  33  58  90 117 146 191 241 285 335
#     4  10  20  37  62  89 119 153 193 241 289 343
#
# _framework density 19.925453999999998
#
# number of rings (size 3 to 8) (size 9 to 14) (size 15 to 20)
#    0.000    1.667    1.667    3.000    0.000    8.333 
#    0.000    5.000    0.000    3.500    0.000    0.000 
#    0.000    0.000    0.000    0.000    0.000    0.000 
#
# Total GULP energy -134165.724410 kJ/mol
# GULP energy per Si atom -5590.238517 kJ/mol
# Density = 1.988010 g / cm^3
# Si number density = 19.925454 Si / 1000 Ang^3
#
#
#
# Elastic Constant Matrix: (Units=GPa)
#
#
# Indices 1 2 3 4 5 6 
#
# 1 93.5801 26.8903 37.1737 0.0000 20.1611 0.0000
# 2 26.8903 28.6055 25.0146 0.0000 5.9352 0.0000
# 3 37.1737 25.0146 108.6284 0.0000 10.7376 0.0000
# 4 0.0000 0.0000 0.0000 4.2376 0.0000 -16.2196
# 5 20.1611 5.9352 10.7376 0.0000 29.1152 0.0000
# 6 0.0000 0.0000 0.0000 -16.2196 0.0000 -17.6079
#
#
#
# Elastic Compliance Matrix: (Units=1/GPa)
#
#
# Indices 1 2 3 4 5 6 
#
# 1 0.016856 -0.012253 -0.002117 0.000000 -0.008394 0.000000
# 2 -0.012253 0.053514 -0.008189 0.000000 0.000596 0.000000
# 3 -0.002117 -0.008189 0.011941 0.000000 -0.001269 0.000000
# 4 0.000000 0.000000 0.000000 0.052142 0.000000 -0.048031
# 5 -0.008394 0.000596 -0.001269 0.000000 0.040505 0.000000
# 6 0.000000 0.000000 0.000000 -0.048031 0.000000 -0.012549
#
#
# Mechanical properties :
#
#
# Convention : Reuss Voigt Hill
#
# Bulk Modulus (GPa) = 26.88617 45.44125 36.16371
# Shear Modulus (GPa) = 22.73508 12.59801 17.66655
#
# Velocity S-wave (km/s) = 3.38154 2.51720 2.98087
# Velocity P-wave (km/s) = 5.36369 5.59496 5.48054
#
# Compressibility (1/GPa) = 0.03719384
#
# Stress axis : x y z
#
# Youngs Moduli (GPa) = 59.32535 18.68687 83.74284
#
# Poissons Ratio (x) = 0.22896 0.17730
# Poissons Ratio (y) = 0.72689 0.68576
# Poissons Ratio (z) = 0.12560 0.15302
#
# Static dielectric constant tensor:
#      x y z
#    x 1.697810 0.000000 -0.011850 
#    y 0.000000 1.670670 0.000000 
#    z -0.011850 0.000000 1.690520 
# 
# From -- ./inp_files/56535.got.cif
#   From: 2010.05.17/outbox.cif.g08.bks.cpg/sg10_29_cif.got.tgz:56535.got - 2010.06.03 11:33:40.
