data_PCOD9146267
_publ_section_title
;
Structure prediction by ZEFSAII (Michael W. Deem and Ramdas Pophale) SiO2 
 PCOD9146267
Probable space group: P 2/M
;
_chemical_formula_sum "Si O2"
_cell_formula_units_Z 30
_cell_length_a 15.029527
_cell_length_b 12.409797
_cell_length_c 11.629983
_cell_angle_alpha 90.000000
_cell_angle_beta 129.140709
_cell_angle_gamma 90.000000
_cell_volume 1682.386650
_symmetry_space_group_name_H-M "P 2/M"
_symmetry_group_IT_number 10
_symmetry_cell_setting 'monoclinic'
loop_
_space_group_symop_operation_xyz
x,y,z
-x,y,-z
-x,-y,-z
x,-y,z
loop_
_atom_site_type_symbol
_atom_site_label
_atom_site_fract_x
_atom_site_fract_y
_atom_site_fract_z
Si Si1 0.629976 0.874978 0.567586
Si Si2 0.000000 0.217658 0.000000
Si Si3 0.254826 0.742512 0.539971
Si Si4 0.778153 0.877485 0.920069
Si Si5 0.806007 0.290421 0.132925
Si Si6 0.051512 0.373344 0.244769
Si Si7 0.864309 0.118170 0.374563
Si Si8 0.620303 0.374920 0.148625
O O1 0.500000 0.853376 0.500000
O O2 0.674922 0.792542 0.508459
O O3 0.706706 0.867987 0.744728
O O4 0.636236 0.000000 0.531205
O O5 0.089728 0.143892 0.005948
O O6 0.061306 0.296859 0.140992
O O7 0.153273 0.663513 0.413238
O O8 0.191913 0.839778 0.554636
O O9 0.333949 0.686048 0.700923
O O10 0.763017 0.000000 0.952574
O O11 0.751664 0.779847 0.985327
O O12 0.840040 0.201877 0.254856
O O13 0.714763 0.364076 0.124461
O O14 0.923263 0.349276 0.189363
O O15 0.061234 0.500000 0.226737
O O16 0.000000 0.114003 0.500000
O O17 0.820258 0.000000 0.308854
O O18 0.604482 0.500000 0.165384
O O19 0.500000 0.332035 0.000000
#
# Coordination Sequence:
#
# PCOD9146267 Si02
#       8
#     4   2   4   4   4   4   4   4
#     4  10  22  39  60  84 114 151 193 235 280 338
#     4  10  20  36  52  84 116 152 182 226 280 336
#     4  11  21  38  60  84 114 150 189 236 287 341
#     4  10  20  35  58  85 115 147 185 226 279 342
#     4  10  21  36  57  84 115 149 184 230 282 339
#     4  11  21  35  56  83 113 148 188 234 284 337
#     4  10  19  33  53  83 118 146 178 223 279 345
#     4  10  23  41  61  82 109 149 195 240 285 331
#
# _framework density 17.831810999999998
#
# number of rings (size 3 to 8) (size 9 to 14) (size 15 to 20)
#    0.000    1.733    2.667    2.000    1.867    0.000 
#    0.000    2.000    0.000    4.000    0.000    0.000 
#    0.000    0.000    0.000    0.000    0.000    0.000 
#
# Total GULP energy -167320.559436 kJ/mol
# GULP energy per Si atom -5577.351981 kJ/mol
# Density = 1.779122 g / cm^3
# Si number density = 17.831811 Si / 1000 Ang^3
#
#
#
# Elastic Constant Matrix: (Units=GPa)
#
#
# Indices 1 2 3 4 5 6 
#
# 1 60.8600 19.7829 25.9931 0.0000 0.2570 0.0000
# 2 19.7829 70.8438 29.5018 0.0000 5.7716 0.0000
# 3 25.9931 29.5018 93.9783 0.0000 4.7688 0.0000
# 4 0.0000 0.0000 0.0000 13.7322 0.0000 4.3803
# 5 0.2570 5.7716 4.7688 0.0000 23.1842 0.0000
# 6 0.0000 0.0000 0.0000 4.3803 0.0000 16.4081
#
#
#
# Elastic Compliance Matrix: (Units=1/GPa)
#
#
# Indices 1 2 3 4 5 6 
#
# 1 0.019485 -0.003789 -0.004281 0.000000 0.001608 0.000000
# 2 -0.003789 0.017188 -0.004176 0.000000 -0.003378 0.000000
# 3 -0.004281 -0.004176 0.013219 0.000000 -0.001632 0.000000
# 4 0.000000 0.000000 0.000000 0.079600 0.000000 -0.021250
# 5 0.001608 -0.003378 -0.001632 0.000000 0.044292 0.000000
# 6 0.000000 0.000000 0.000000 -0.021250 0.000000 0.066618
#
#
# Mechanical properties :
#
#
# Convention : Reuss Voigt Hill
#
# Bulk Modulus (GPa) = 39.37321 41.80418 40.58869
# Shear Modulus (GPa) = 18.29090 20.69186 19.49138
#
# Velocity S-wave (km/s) = 3.20620 3.41015 3.30974
# Velocity P-wave (km/s) = 5.98620 6.24499 6.11696
#
# Compressibility (1/GPa) = 0.02539798
#
# Stress axis : x y z
#
# Youngs Moduli (GPa) = 51.32274 58.18016 75.65038
#
# Poissons Ratio (x) = 0.22045 0.32388
# Poissons Ratio (y) = 0.19447 0.31593
# Poissons Ratio (z) = 0.21973 0.24297
#
# Static dielectric constant tensor:
#      x y z
#    x 1.608690 0.000000 -0.003220 
#    y 0.000000 1.599060 0.000000 
#    z -0.003220 0.000000 1.614600 
# 
# From -- ./inp_files/51096.got.cif
#   From: 2010.05.17/outbox.cif.g08.bks.cpg/sg10_26_cif.got.tgz:51096.got - 2010.06.03 11:33:40.
