data_PCOD9146747
_publ_section_title
;
Structure prediction by ZEFSAII (Michael W. Deem and Ramdas Pophale) SiO2 
 PCOD9146747
Probable space group: P 2/M
;
_chemical_formula_sum "Si O2"
_cell_formula_units_Z 18
_cell_length_a 9.033829
_cell_length_b 13.933771
_cell_length_c 7.749866
_cell_angle_alpha 90.000000
_cell_angle_beta 91.473257
_cell_angle_gamma 90.000000
_cell_volume 975.194270
_symmetry_space_group_name_H-M "P 2/M"
_symmetry_group_IT_number 10
_symmetry_cell_setting 'monoclinic'
loop_
_space_group_symop_operation_xyz
x,y,z
-x,y,-z
-x,-y,-z
x,-y,z
loop_
_atom_site_type_symbol
_atom_site_label
_atom_site_fract_x
_atom_site_fract_y
_atom_site_fract_z
Si Si1 0.836918 0.850812 0.009760
Si Si2 0.000000 0.334879 0.000000
Si Si3 0.870931 0.607612 0.355946
Si Si4 0.383113 0.109636 0.296362
Si Si5 0.696280 0.803233 0.356794
O O1 0.866910 0.739712 0.954811
O O2 0.789244 0.851543 0.206464
O O3 0.712839 0.888345 0.879081
O O4 0.000000 0.894994 0.000000
O O5 0.052114 0.388273 0.830692
O O6 0.810679 0.500000 0.381150
O O7 0.751983 0.693383 0.366435
O O8 0.000000 0.624759 0.500000
O O9 0.288261 0.145092 0.458102
O O10 0.525249 0.179407 0.298492
O O11 0.434204 0.000000 0.323009
#
# Coordination Sequence:
#
# PCOD9146747 Si02
#       5
#     4   2   4   4   4
#     4   9  20  36  59  85 110 149 186 236 281 325
#     4   8  17  34  55  82 118 142 177 222 285 332
#     4  10  19  33  59  87 112 145 184 229 283 339
#     4  11  23  39  58  79 113 160 195 227 281 340
#     4  10  21  37  58  82 117 149 188 231 283 336
#
# _framework density 18.457861000000001
#
# number of rings (size 3 to 8) (size 9 to 14) (size 15 to 20)
#    0.667    1.556    0.000    3.667    0.000    3.111 
#    0.000    3.333    0.000   12.000    0.000    0.000 
#    0.000    0.000    0.000    0.000    0.000    0.000 
#
# Total GULP energy -100237.494895 kJ/mol
# GULP energy per Si atom -5568.749716 kJ/mol
# Density = 1.841585 g / cm^3
# Si number density = 18.457861 Si / 1000 Ang^3
#
#
#
# Elastic Constant Matrix: (Units=GPa)
#
#
# Indices 1 2 3 4 5 6 
#
# 1 75.3665 58.7297 41.2062 0.0000 -5.0909 0.0000
# 2 58.7297 124.6190 49.0036 0.0000 6.5760 0.0000
# 3 41.2062 49.0036 69.5855 0.0000 -6.5011 0.0000
# 4 0.0000 0.0000 0.0000 90.3019 0.0000 29.2959
# 5 -5.0909 6.5760 -6.5011 0.0000 35.5555 0.0000
# 6 0.0000 0.0000 0.0000 29.2959 0.0000 42.1113
#
#
#
# Elastic Compliance Matrix: (Units=1/GPa)
#
#
# Indices 1 2 3 4 5 6 
#
# 1 0.024723 -0.008600 -0.008245 0.000000 0.003623 0.000000
# 2 -0.008600 0.014546 -0.005613 0.000000 -0.004948 0.000000
# 3 -0.008245 -0.005613 0.023596 0.000000 0.004172 0.000000
# 4 0.000000 0.000000 0.000000 0.014302 0.000000 -0.009949
# 5 0.003623 -0.004948 0.004172 0.000000 0.030322 0.000000
# 6 0.000000 0.000000 0.000000 -0.009949 0.000000 0.030668
#
#
# Mechanical properties :
#
#
# Convention : Reuss Voigt Hill
#
# Bulk Modulus (GPa) = 55.71684 63.05000 59.38342
# Shear Modulus (GPa) = 26.44723 41.63583 34.04153
#
# Velocity S-wave (km/s) = 3.78940 4.75460 4.29917
# Velocity P-wave (km/s) = 7.02834 8.02338 7.54229
#
# Compressibility (1/GPa) = 0.01794790
#
# Stress axis : x y z
#
# Youngs Moduli (GPa) = 40.44813 68.74842 42.38036
#
# Poissons Ratio (x) = 0.59125 0.34943
# Poissons Ratio (y) = 0.34786 0.23788
# Poissons Ratio (z) = 0.33350 0.38588
#
# Static dielectric constant tensor:
#      x y z
#    x 1.626660 0.000000 -0.018960 
#    y 0.000000 1.648330 0.000000 
#    z -0.018960 0.000000 1.641680 
# 
# From -- ./inp_files/17858.got.cif
#   From: 2010.05.17/outbox.cif.g08.bks.cpg/sg10_9_cif.got.tgz:17858.got - 2010.06.03 11:33:40.
