data_PCOD9146361
_publ_section_title
;
Structure prediction by ZEFSAII (Michael W. Deem and Ramdas Pophale) SiO2 
 PCOD9146361
Probable space group: P 2/M
;
_chemical_formula_sum "Si O2"
_cell_formula_units_Z 26
_cell_length_a 9.693143
_cell_length_b 11.902894
_cell_length_c 27.001227
_cell_angle_alpha 90.000000
_cell_angle_beta 27.464622
_cell_angle_gamma 90.000000
_cell_volume 1436.781626
_symmetry_space_group_name_H-M "P 2/M"
_symmetry_group_IT_number 10
_symmetry_cell_setting 'monoclinic'
loop_
_space_group_symop_operation_xyz
x,y,z
-x,y,-z
-x,-y,-z
x,-y,z
loop_
_atom_site_type_symbol
_atom_site_label
_atom_site_fract_x
_atom_site_fract_y
_atom_site_fract_z
Si Si1 0.721341 0.000000 0.743357
Si Si2 0.332164 0.756945 0.652396
Si Si3 0.678762 0.000000 0.390892
Si Si4 0.850295 0.630302 0.738726
Si Si5 0.541182 0.240699 0.280977
Si Si6 0.955333 0.369912 0.438153
Si Si7 0.761559 0.000000 0.619950
Si Si8 0.323080 0.224558 0.873469
O O1 0.882994 0.000000 0.637840
O O2 0.515492 0.890231 0.812745
O O3 0.973258 0.000000 0.704416
O O4 0.266723 0.738695 0.731323
O O5 0.649957 0.696654 0.542902
O O6 0.076107 0.701149 0.700558
O O7 0.375410 0.886497 0.622653
O O8 0.500000 0.000000 0.500000
O O9 0.844736 0.500000 0.755542
O O10 0.522349 0.684912 0.839558
O O11 0.970013 0.636186 0.644111
O O12 0.695429 0.257622 0.178730
O O13 0.236940 0.314246 0.376187
O O14 0.433568 0.112127 0.320376
O O15 0.921704 0.500000 0.462721
O O16 0.000000 0.000000 0.500000
O O17 0.000000 0.209802 0.000000
#
# Coordination Sequence:
#
# PCOD9146361 Si02
#       8
#     2   4   2   4   4   4   2   4
#     4  10  21  38  59  88 111 147 194 223 272 341
#     4  12  22  35  55  84 123 152 182 228 279 336
#     4  12  25  33  56  87 123 158 184 213 271 343
#     4  10  21  37  58  84 114 149 191 232 276 336
#     4  10  23  35  56  86 114 147 191 234 279 329
#     4  10  21  37  55  81 118 160 192 218 266 338
#     4  10  19  33  54  80 118 148 178 224 274 324
#     4  10  21  42  65  81 105 144 194 244 286 332
#
# _framework density 18.096001000000001
#
# number of rings (size 3 to 8) (size 9 to 14) (size 15 to 20)
#    0.000    1.538    1.538    3.923    6.462    3.385 
#    0.000    0.769    0.000    1.846    0.000    0.000 
#    0.000    0.000    0.000    0.000    0.000    0.000 
#
# Total GULP energy -145242.746796 kJ/mol
# GULP energy per Si atom -5586.259492 kJ/mol
# Density = 1.805481 g / cm^3
# Si number density = 18.096001 Si / 1000 Ang^3
#
#
#
# Elastic Constant Matrix: (Units=GPa)
#
#
# Indices 1 2 3 4 5 6 
#
# 1 124.7621 52.4840 37.5719 0.0000 -4.7293 0.0000
# 2 52.4840 129.9277 30.3711 0.0000 -8.2960 0.0000
# 3 37.5719 30.3711 100.4563 0.0000 3.3592 0.0000
# 4 0.0000 0.0000 0.0000 6.9143 0.0000 4.3659
# 5 -4.7293 -8.2960 3.3592 0.0000 11.2045 0.0000
# 6 0.0000 0.0000 0.0000 4.3659 0.0000 -23.5899
#
#
#
# Elastic Compliance Matrix: (Units=1/GPa)
#
#
# Indices 1 2 3 4 5 6 
#
# 1 0.010423 -0.003332 -0.002986 0.000000 0.002828 0.000000
# 2 -0.003332 0.009920 -0.001971 0.000000 0.006530 0.000000
# 3 -0.002986 -0.001971 0.011877 0.000000 -0.006281 0.000000
# 4 0.000000 0.000000 0.000000 0.129495 0.000000 0.023966
# 5 0.002828 0.006530 -0.006281 0.000000 0.097161 0.000000
# 6 0.000000 0.000000 0.000000 0.023966 0.000000 -0.037956
#
#
# Mechanical properties :
#
#
# Convention : Reuss Voigt Hill
#
# Bulk Modulus (GPa) = 63.92693 66.22221 65.07457
# Shear Modulus (GPa) = 20.60046 14.55373 17.57710
#
# Velocity S-wave (km/s) = 3.37768 2.83901 3.11999
# Velocity P-wave (km/s) = 7.11441 6.88629 7.00128
#
# Compressibility (1/GPa) = 0.01564286
#
# Stress axis : x y z
#
# Youngs Moduli (GPa) = 95.93951 100.80353 84.19456
#
# Poissons Ratio (x) = 0.33588 0.25137
# Poissons Ratio (y) = 0.31967 0.16598
# Poissons Ratio (z) = 0.28644 0.19872
#
# Static dielectric constant tensor:
#      x y z
#    x 1.645210 0.000000 0.021140 
#    y 0.000000 1.626430 0.000000 
#    z 0.021140 0.000000 1.580470 
# 
# From -- ./inp_files/92282.got.cif
#   From: 2010.05.17/outbox.cif.g08.bks.cpg/sg10_47_cif.got.tgz:92282.got - 2010.06.03 11:33:40.
