data_PCOD9146847
_publ_section_title
;
Structure prediction by ZEFSAII (Michael W. Deem and Ramdas Pophale) SiO2 
 PCOD9146847
Probable space group: P 2/M
;
_chemical_formula_sum "Si O2"
_cell_formula_units_Z 28
_cell_length_a 16.327872
_cell_length_b 19.405345
_cell_length_c 9.453444
_cell_angle_alpha 90.000000
_cell_angle_beta 23.474300
_cell_angle_gamma 90.000000
_cell_volume 1193.142740
_symmetry_space_group_name_H-M "P 2/M"
_symmetry_group_IT_number 10
_symmetry_cell_setting 'monoclinic'
loop_
_space_group_symop_operation_xyz
x,y,z
-x,y,-z
-x,-y,-z
x,-y,z
loop_
_atom_site_type_symbol
_atom_site_label
_atom_site_fract_x
_atom_site_fract_y
_atom_site_fract_z
Si Si1 0.635474 0.078306 0.405114
Si Si2 0.220290 0.842727 0.568561
Si Si3 0.949640 0.301065 0.734540
Si Si4 0.793575 0.706942 0.267387
Si Si5 0.276676 0.576605 0.283830
Si Si6 0.065660 0.078926 0.557005
Si Si7 0.567142 0.392645 0.252035
O O1 0.500000 0.115073 0.500000
O O2 0.636107 0.112049 0.557260
O O3 0.559596 0.000000 0.543409
O O4 0.858903 0.075312 0.979206
O O5 0.280177 0.763761 0.503784
O O6 0.204127 0.869747 0.433869
O O7 0.000000 0.848894 0.000000
O O8 0.000000 0.268700 0.500000
O O9 0.118188 0.358173 0.522630
O O10 0.875823 0.258180 0.989280
O O11 0.743858 0.341552 0.023090
O O12 0.621394 0.651816 0.509377
O O13 0.000000 0.672667 0.000000
O O14 0.204764 0.500000 0.452193
O O15 0.500000 0.592696 0.000000
O O16 0.333703 0.567098 0.030624
O O17 0.000000 0.097873 0.500000
O O18 0.148782 0.000000 0.420047
O O19 0.500000 0.429709 0.500000
#
# Coordination Sequence:
#
# PCOD9146847 Si02
#       7
#     4   4   4   4   4   4   4
#     4   9  17  30  50  76 105 139 178 223 276 331
#     4   9  18  32  52  76 104 143 186 228 277 334
#     4   9  19  35  55  78 107 143 183 227 275 333
#     4  10  19  34  54  75 103 143 187 230 276 329
#     4  10  20  35  57  84 113 144 178 225 284 337
#     4   9  17  32  55  80 108 143 184 232 285 338
#     4   9  19  34  54  79 108 144 185 226 271 332
#
# _framework density 23.467434999999998
#
# number of rings (size 3 to 8) (size 9 to 14) (size 15 to 20)
#    0.000    2.714    0.000    1.286    0.000    6.286 
#    0.000    9.286    0.000   23.143    0.000    0.000 
#    0.000    0.000    0.000    0.000    0.000    0.000 
#
# Total GULP energy -155871.477773 kJ/mol
# GULP energy per Si atom -5566.838492 kJ/mol
# Density = 2.341402 g / cm^3
# Si number density = 23.467435 Si / 1000 Ang^3
#
#
#
# Elastic Constant Matrix: (Units=GPa)
#
#
# Indices 1 2 3 4 5 6 
#
# 1 161.5978 60.4476 16.8858 0.0000 6.8019 0.0000
# 2 60.4476 99.1641 15.3128 0.0000 -5.1278 0.0000
# 3 16.8858 15.3128 44.5987 0.0000 5.7754 0.0000
# 4 0.0000 0.0000 0.0000 9.5037 0.0000 -5.1030
# 5 6.8019 -5.1278 5.7754 0.0000 57.6498 0.0000
# 6 0.0000 0.0000 0.0000 -5.1030 0.0000 23.8903
#
#
#
# Elastic Compliance Matrix: (Units=1/GPa)
#
#
# Indices 1 2 3 4 5 6 
#
# 1 0.008194 -0.004865 -0.001267 0.000000 -0.001273 0.000000
# 2 -0.004865 0.013639 -0.003113 0.000000 0.002099 0.000000
# 3 -0.001267 -0.003113 0.024303 0.000000 -0.002562 0.000000
# 4 0.000000 0.000000 0.000000 0.118855 0.000000 0.025388
# 5 -0.001273 0.002099 -0.002562 0.000000 0.017940 0.000000
# 6 0.000000 0.000000 0.000000 0.025388 0.000000 0.047281
#
#
# Mechanical properties :
#
#
# Convention : Reuss Voigt Hill
#
# Bulk Modulus (GPa) = 36.17210 54.51700 45.34455
# Shear Modulus (GPa) = 19.38618 32.38971 25.88794
#
# Velocity S-wave (km/s) = 2.87729 3.71913 3.32496
# Velocity P-wave (km/s) = 5.14642 6.45941 5.83993
#
# Compressibility (1/GPa) = 0.02764561
#
# Stress axis : x y z
#
# Youngs Moduli (GPa) = 122.04102 73.31901 41.14803
#
# Poissons Ratio (x) = 0.35669 0.05214
# Poissons Ratio (y) = 0.59372 0.12809
# Poissons Ratio (z) = 0.15465 0.22823
#
# Static dielectric constant tensor:
#      x y z
#    x 1.975050 0.000000 0.026340 
#    y 0.000000 1.919400 0.000000 
#    z 0.026340 0.000000 1.925740 
# 
# From -- ./inp_files/30378.got.cif
#   From: 2010.05.17/outbox.cif.g08.bks.cpg/sg10_16_cif.got.tgz:30378.got - 2010.06.03 11:33:40.
