data_PCOD9146105
_publ_section_title
;
Structure prediction by ZEFSAII (Michael W. Deem and Ramdas Pophale) SiO2 
 PCOD9146105
Probable space group: P 2/M
;
_chemical_formula_sum "Si O2"
_cell_formula_units_Z 28
_cell_length_a 22.764103
_cell_length_b 7.974257
_cell_length_c 25.936879
_cell_angle_alpha 90.000000
_cell_angle_beta 162.068218
_cell_angle_gamma 90.000000
_cell_volume 1449.593388
_symmetry_space_group_name_H-M "P 2/M"
_symmetry_group_IT_number 10
_symmetry_cell_setting 'monoclinic'
loop_
_space_group_symop_operation_xyz
x,y,z
-x,y,-z
-x,-y,-z
x,-y,z
loop_
_atom_site_type_symbol
_atom_site_label
_atom_site_fract_x
_atom_site_fract_y
_atom_site_fract_z
Si Si1 0.965739 0.704767 0.097305
Si Si2 0.395545 0.704628 0.266670
Si Si3 0.013751 0.813220 0.670176
Si Si4 0.465852 0.179781 0.032982
Si Si5 0.010495 0.500000 0.421462
Si Si6 0.691444 0.295343 0.690298
Si Si7 0.159888 0.295838 0.367005
Si Si8 0.699778 0.500000 0.243752
O O1 0.964592 0.500000 0.096865
O O2 0.120971 0.757484 0.184040
O O3 0.047181 0.756585 0.221042
O O4 0.754937 0.758908 0.902890
O O5 0.396184 0.500000 0.266724
O O6 0.319440 0.757524 0.259424
O O7 0.616851 0.755537 0.447050
O O8 0.243299 0.810118 0.859698
O O9 0.952757 0.664294 0.581579
O O10 0.939338 0.775346 0.665093
O O11 0.952458 0.000000 0.602680
O O12 0.540418 0.000000 0.114108
O O13 0.500000 0.183425 0.000000
O O14 0.574522 0.336263 0.145849
O O15 0.143996 0.500000 0.581987
O O16 0.798028 0.500000 0.269035
O O17 0.500000 0.243842 0.500000
O O18 0.692055 0.500000 0.690827
O O19 0.155284 0.500000 0.364990
#
# Coordination Sequence:
#
# PCOD9146105 Si02
#       8
#     4   4   4   4   2   4   4   2
#     4   9  16  26  43  71 102 143 191 240 298 356
#     4   9  16  26  42  69 105 145 189 241 298 356
#     4  11  23  41  62  85 119 161 203 244 297 359
#     4  10  20  37  62  90 120 158 202 246 291 349
#     4  11  23  40  61  96 125 159 192 240 304 361
#     4   9  13  21  39  65 104 143 180 236 301 355
#     4  10  19  33  51  73 109 150 197 245 291 353
#     4  11  22  37  66  95 128 153 191 247 305 353
#
# _framework density 19.315761999999999
#
# number of rings (size 3 to 8) (size 9 to 14) (size 15 to 20)
#    0.000    2.143    3.571    1.071    0.000    2.286 
#    2.571    1.429    0.000    0.000    0.000    2.000 
#    0.000    2.286    0.000    0.000    0.000    0.000 
#
# Total GULP energy -156221.968457 kJ/mol
# GULP energy per Si atom -5579.356016 kJ/mol
# Density = 1.927180 g / cm^3
# Si number density = 19.315762 Si / 1000 Ang^3
#
#
#
# Elastic Constant Matrix: (Units=GPa)
#
#
# Indices 1 2 3 4 5 6 
#
# 1 139.0410 35.6218 64.4867 0.0000 5.4839 0.0000
# 2 35.6218 92.0302 35.8902 0.0000 -8.3897 0.0000
# 3 64.4867 35.8902 121.0943 0.0000 -11.7628 0.0000
# 4 0.0000 0.0000 0.0000 3.0574 0.0000 -1.9159
# 5 5.4839 -8.3897 -11.7628 0.0000 21.9575 0.0000
# 6 0.0000 0.0000 0.0000 -1.9159 0.0000 -34.3687
#
#
#
# Elastic Compliance Matrix: (Units=1/GPa)
#
#
# Indices 1 2 3 4 5 6 
#
# 1 0.010702 -0.002571 -0.005583 0.000000 -0.006646 0.000000
# 2 -0.002571 0.013081 -0.002067 0.000000 0.004533 0.000000
# 3 -0.005583 -0.002067 0.012556 0.000000 0.007331 0.000000
# 4 0.000000 0.000000 0.000000 0.316032 0.000000 -0.017618
# 5 -0.006646 0.004533 0.007331 0.000000 0.052861 0.000000
# 6 0.000000 0.000000 0.000000 -0.017618 0.000000 -0.028114
#
#
# Mechanical properties :
#
#
# Convention : Reuss Voigt Hill
#
# Bulk Modulus (GPa) = 62.90859 69.35142 66.13000
# Shear Modulus (GPa) = 12.41128 12.54037 12.47582
#
# Velocity S-wave (km/s) = 2.53760 2.55076 2.54419
# Velocity P-wave (km/s) = 6.42068 6.68260 6.55295
#
# Compressibility (1/GPa) = 0.01589608
#
# Stress axis : x y z
#
# Youngs Moduli (GPa) = 93.43808 76.44892 79.64384
#
# Poissons Ratio (x) = 0.19656 0.44464
# Poissons Ratio (y) = 0.24024 0.16465
# Poissons Ratio (z) = 0.52165 0.15805
#
# Static dielectric constant tensor:
#      x y z
#    x 1.614280 0.000000 -0.023320 
#    y 0.000000 1.698740 0.000000 
#    z -0.023320 0.000000 1.628700 
# 
# From -- ./inp_files/90420.got.cif
#   From: 2010.05.17/outbox.cif.g08.bks.cpg/sg10_46_cif.got.tgz:90420.got - 2010.06.03 11:33:40.
