data_PCOD9146599
_publ_section_title
;
Structure prediction by ZEFSAII (Michael W. Deem and Ramdas Pophale) SiO2 
 PCOD9146599
Probable space group: P 2/M
;
_chemical_formula_sum "Si O2"
_cell_formula_units_Z 28
_cell_length_a 14.804950
_cell_length_b 7.836067
_cell_length_c 21.127377
_cell_angle_alpha 90.000000
_cell_angle_beta 148.953068
_cell_angle_gamma 90.000000
_cell_volume 1264.100209
_symmetry_space_group_name_H-M "P 2/M"
_symmetry_group_IT_number 10
_symmetry_cell_setting 'monoclinic'
loop_
_space_group_symop_operation_xyz
x,y,z
-x,y,-z
-x,-y,-z
x,-y,z
loop_
_atom_site_type_symbol
_atom_site_label
_atom_site_fract_x
_atom_site_fract_y
_atom_site_fract_z
Si Si1 0.244963 0.303491 0.052395
Si Si2 0.374763 0.202117 0.263255
Si Si3 0.124849 0.797877 0.722970
Si Si4 0.057293 0.300748 0.819232
Si Si5 0.307587 0.793849 0.360611
Si Si6 0.244089 0.207130 0.550065
Si Si7 0.624303 0.793849 0.234526
O O1 0.196441 0.500000 0.033005
O O2 0.261879 0.225826 0.132246
O O3 0.437931 0.288650 0.137371
O O4 0.119309 0.224522 0.923689
O O5 0.293574 0.268191 0.279576
O O6 0.571743 0.270571 0.368611
O O7 0.395365 0.000000 0.285210
O O8 0.146227 0.773858 0.810370
O O9 0.279627 0.732587 0.771014
O O10 0.934780 0.727519 0.587934
O O11 0.119217 0.000000 0.706579
O O12 0.100514 0.500000 0.846240
O O13 0.849292 0.276373 0.691662
O O14 0.500000 0.746822 0.500000
O O15 0.294204 0.000000 0.355918
O O16 0.254560 0.240111 0.631423
O O17 0.245836 0.000000 0.543589
O O18 0.595781 0.000000 0.215305
#
# Coordination Sequence:
#
# PCOD9146599 Si02
#       7
#     4   4   4   4   4   4   4
#     4  10  22  39  55  74 107 149 186 220 265 319
#     4   9  18  34  59  85 107 136 176 222 266 313
#     4  10  19  33  56  82 108 142 182 226 274 320
#     4  11  25  40  53  75 110 149 184 221 266 318
#     4  10  21  39  63  88 111 137 172 216 269 325
#     4   8  14  29  54  83 111 135 166 214 271 325
#     4   9  18  33  56  83 108 138 180 228 273 319
#
# _framework density 22.150144000000001
#
# number of rings (size 3 to 8) (size 9 to 14) (size 15 to 20)
#    0.000    2.429    0.000    3.000    0.000    8.857 
#    0.000   11.429    0.000    4.286    0.000    0.000 
#    0.000    0.000    0.000    0.000    0.000    0.000 
#
# Total GULP energy -156335.197636 kJ/mol
# GULP energy per Si atom -5583.399916 kJ/mol
# Density = 2.209973 g / cm^3
# Si number density = 22.150144 Si / 1000 Ang^3
#
#
#
# Elastic Constant Matrix: (Units=GPa)
#
#
# Indices 1 2 3 4 5 6 
#
# 1 106.2202 -4.6495 -7.0315 0.0000 -13.6645 0.0000
# 2 -4.6495 18.8817 -8.8022 0.0000 0.7587 0.0000
# 3 -7.0315 -8.8022 47.7903 0.0000 -9.3435 0.0000
# 4 0.0000 0.0000 0.0000 25.6640 0.0000 -12.6143
# 5 -13.6645 0.7587 -9.3435 0.0000 15.3695 0.0000
# 6 0.0000 0.0000 0.0000 -12.6143 0.0000 -3.9261
#
#
#
# Elastic Compliance Matrix: (Units=1/GPa)
#
#
# Indices 1 2 3 4 5 6 
#
# 1 0.011679 0.004764 0.005198 0.000000 0.013308 0.000000
# 2 0.004764 0.060110 0.013642 0.000000 0.009562 0.000000
# 3 0.005198 0.013642 0.028343 0.000000 0.021178 0.000000
# 4 0.000000 0.000000 0.000000 0.015107 0.000000 -0.048539
# 5 0.013308 0.009562 0.021178 0.000000 0.089298 0.000000
# 6 0.000000 0.000000 0.000000 -0.048539 0.000000 -0.098754
#
#
# Mechanical properties :
#
#
# Convention : Reuss Voigt Hill
#
# Bulk Modulus (GPa) = 6.78709 14.65843 10.72276
# Shear Modulus (GPa) = 46.42992 20.31317 33.37155
#
# Velocity S-wave (km/s) = 4.58333 3.03160 3.88571
# Velocity P-wave (km/s) = 5.57495 4.34583 4.99831
#
# Compressibility (1/GPa) = 0.14733850
#
# Stress axis : x y z
#
# Youngs Moduli (GPa) = 85.62375 16.63624 35.28258
#
# Poissons Ratio (x) = -0.07926 -0.18339
# Poissons Ratio (y) = -0.40793 -0.48131
# Poissons Ratio (z) = -0.44505 -0.22695
#
# Static dielectric constant tensor:
#      x y z
#    x 1.798230 0.000000 -0.019610 
#    y 0.000000 1.811830 0.000000 
#    z -0.019610 0.000000 1.833580 
# 
# From -- ./inp_files/49623.got.cif
#   From: 2010.05.17/outbox.cif.g08.bks.cpg/sg10_25_cif.got.tgz:49623.got - 2010.06.03 11:33:40.
