data_PCOD9146514
_publ_section_title
;
Structure prediction by ZEFSAII (Michael W. Deem and Ramdas Pophale) SiO2 
 PCOD9146514
Probable space group: P 2/M
;
_chemical_formula_sum "Si O2"
_cell_formula_units_Z 28
_cell_length_a 29.740163
_cell_length_b 8.016626
_cell_length_c 9.938545
_cell_angle_alpha 90.000000
_cell_angle_beta 38.309213
_cell_angle_gamma 90.000000
_cell_volume 1468.868998
_symmetry_space_group_name_H-M "P 2/M"
_symmetry_group_IT_number 10
_symmetry_cell_setting 'monoclinic'
loop_
_space_group_symop_operation_xyz
x,y,z
-x,y,-z
-x,-y,-z
x,-y,z
loop_
_atom_site_type_symbol
_atom_site_label
_atom_site_fract_x
_atom_site_fract_y
_atom_site_fract_z
Si Si1 0.914304 0.305240 0.513616
Si Si2 0.404899 0.000000 0.085024
Si Si3 0.929525 0.696451 0.945293
Si Si4 0.306936 0.310931 0.343718
Si Si5 0.666181 0.687451 0.397835
Si Si6 0.819357 0.193181 0.980045
Si Si7 0.849505 0.195048 0.388230
Si Si8 0.569331 0.000000 0.651249
O O1 0.917404 0.500000 0.546840
O O2 0.869165 0.210214 0.732224
O O3 0.875272 0.285406 0.462249
O O4 0.996457 0.243415 0.298295
O O5 0.358723 0.833603 0.164646
O O6 0.418649 0.000000 0.214579
O O7 0.483298 0.000000 0.831974
O O8 0.938475 0.500000 0.951990
O O9 0.863606 0.724311 0.997796
O O10 0.909679 0.784141 0.130951
O O11 0.326768 0.500000 0.257514
O O12 0.313747 0.301708 0.490068
O O13 0.224886 0.272641 0.493014
O O14 0.639377 0.500000 0.434664
O O15 0.608971 0.833929 0.505082
O O16 0.741647 0.720757 0.144711
O O17 0.806336 0.000000 0.044822
O O18 0.838287 0.000000 0.442344
#
# Coordination Sequence:
#
# PCOD9146514 Si02
#       8
#     4   2   4   4   4   4   4   2
#     4  11  25  41  55  79 115 150 195 249 297 343
#     4   9  18  32  52  83 118 148 183 230 285 339
#     4  11  23  39  59  81 109 152 197 243 297 349
#     4  10  19  33  55  82 113 152 193 231 280 341
#     4  10  19  33  55  82 113 152 193 231 280 341
#     4  12  23  37  58  83 113 151 198 243 289 345
#     4  12  23  37  58  83 113 151 198 243 289 345
#     4   9  18  32  52  83 118 148 183 230 285 339
#
# _framework density 19.062284999999999
#
# number of rings (size 3 to 8) (size 9 to 14) (size 15 to 20)
#    0.000    1.286    2.857    4.286    0.000    6.286 
#    0.000    2.857    0.000    0.000    0.000    2.000 
#    0.000    3.429    0.000    0.000    0.000    0.000 
#
# Total GULP energy -156479.504365 kJ/mol
# GULP energy per Si atom -5588.553727 kJ/mol
# Density = 1.901890 g / cm^3
# Si number density = 19.062285 Si / 1000 Ang^3
#
#
#
# Elastic Constant Matrix: (Units=GPa)
#
#
# Indices 1 2 3 4 5 6 
#
# 1 3.0780 20.5461 60.8329 0.0000 -0.2875 0.0000
# 2 20.5461 97.7380 -5.6881 0.0000 -36.6964 0.0000
# 3 60.8329 -5.6881 -15.8000 0.0000 -48.2037 0.0000
# 4 0.0000 0.0000 0.0000 24.5035 0.0000 10.2890
# 5 -0.2875 -36.6964 -48.2037 0.0000 23.6831 0.0000
# 6 0.0000 0.0000 0.0000 10.2890 0.0000 26.3050
#
#
#
# Elastic Compliance Matrix: (Units=1/GPa)
#
#
# Indices 1 2 3 4 5 6 
#
# 1 0.033565 0.007708 0.012314 0.000000 0.037413 0.000000
# 2 0.007708 0.012016 -0.004402 0.000000 0.009752 0.000000
# 3 0.012314 -0.004402 0.000840 0.000000 -0.004961 0.000000
# 4 0.000000 0.000000 0.000000 0.048830 0.000000 -0.019100
# 5 0.037413 0.009752 -0.004961 0.000000 0.047691 0.000000
# 6 0.000000 0.000000 0.000000 -0.019100 0.000000 0.045486
#
#
# Mechanical properties :
#
#
# Convention : Reuss Voigt Hill
#
# Bulk Modulus (GPa) = 12.87665 26.26642 19.57154
# Shear Modulus (GPa) = 27.31078 15.52001 21.41539
#
# Velocity S-wave (km/s) = 3.78923 2.85647 3.35542
# Velocity P-wave (km/s) = 5.09058 4.96874 5.03003
#
# Compressibility (1/GPa) = 0.07765993
#
# Stress axis : x y z
#
# Youngs Moduli (GPa) = 29.79294 83.21919 1189.87446
#
# Poissons Ratio (x) = -0.64143 -14.65176
# Poissons Ratio (y) = -0.22964 5.23834
# Poissons Ratio (z) = -0.36686 0.36637
#
# Static dielectric constant tensor:
#      x y z
#    x 1.623900 0.000000 -0.004550 
#    y 0.000000 1.611710 0.000000 
#    z -0.004550 0.000000 1.655050 
# 
# From -- ./inp_files/37220.got.cif
#   From: 2010.05.17/outbox.cif.g08.bks.cpg/sg10_19_cif.got.tgz:37220.got - 2010.06.03 11:33:40.
