data_PCOD9146809
_publ_section_title
;
Structure prediction by ZEFSAII (Michael W. Deem and Ramdas Pophale) SiO2 
 PCOD9146809
Probable space group: P 2/M
;
_chemical_formula_sum "Si O2"
_cell_formula_units_Z 28
_cell_length_a 16.759584
_cell_length_b 8.166918
_cell_length_c 19.228784
_cell_angle_alpha 90.000000
_cell_angle_beta 24.250611
_cell_angle_gamma 90.000000
_cell_volume 1081.006162
_symmetry_space_group_name_H-M "P 2/M"
_symmetry_group_IT_number 10
_symmetry_cell_setting 'monoclinic'
loop_
_space_group_symop_operation_xyz
x,y,z
-x,y,-z
-x,-y,-z
x,-y,z
loop_
_atom_site_type_symbol
_atom_site_label
_atom_site_fract_x
_atom_site_fract_y
_atom_site_fract_z
Si Si1 0.398376 0.808945 0.156825
Si Si2 0.218382 0.314795 0.094428
Si Si3 0.344992 0.314126 0.394935
Si Si4 0.981076 0.189721 0.613083
Si Si5 0.281051 0.195007 0.591821
Si Si6 0.747932 0.804383 0.233312
Si Si7 0.770329 0.809741 0.063563
O O1 0.548131 0.709918 0.085000
O O2 0.180154 0.748879 0.313693
O O3 0.394417 0.000000 0.181888
O O4 0.500000 0.805289 0.000000
O O5 0.169782 0.500000 0.152091
O O6 0.160493 0.274428 0.061930
O O7 0.125010 0.201091 0.227287
O O8 0.413953 0.500000 0.335448
O O9 0.238982 0.287370 0.553803
O O10 0.534511 0.200921 0.246235
O O11 0.186668 0.274662 0.462270
O O12 0.014460 0.000000 0.571311
O O13 0.197278 0.253363 0.732786
O O14 0.514560 0.214008 0.414447
O O15 0.242460 0.000000 0.614013
O O16 0.821594 0.742046 0.099814
O O17 0.784471 0.000000 0.204141
O O18 0.825247 0.000000 0.017249
#
# Coordination Sequence:
#
# PCOD9146809 Si02
#       7
#     4   4   4   4   4   4   4
#     4   8  16  32  53  74  95 125 168 207 239 288
#     4  11  21  33  52  79 106 130 160 204 254 297
#     4  11  21  32  48  76 108 133 162 206 257 298
#     4  10  20  36  56  75  97 132 173 206 241 293
#     4   8  13  26  46  68  94 127 166 203 241 290
#     4   7  12  24  46  70  91 123 169 209 236 278
#     4  10  19  34  53  73 101 137 172 205 244 294
#
# _framework density 25.901795
#
# number of rings (size 3 to 8) (size 9 to 14) (size 15 to 20)
#    0.000    2.714    0.000    6.000    0.000    3.143 
#    0.000    7.143    0.000    5.143    0.000    6.000 
#    0.000    0.000    0.000    0.000    0.000    0.000 
#
# Total GULP energy -156673.822325 kJ/mol
# GULP energy per Si atom -5595.493654 kJ/mol
# Density = 2.584284 g / cm^3
# Si number density = 25.901795 Si / 1000 Ang^3
#
#
#
# Elastic Constant Matrix: (Units=GPa)
#
#
# Indices 1 2 3 4 5 6 
#
# 1 188.8815 22.8956 25.9705 0.0000 0.9205 0.0000
# 2 22.8956 53.9922 -3.0977 0.0000 0.3314 0.0000
# 3 25.9705 -3.0977 116.7730 0.0000 6.1990 0.0000
# 4 0.0000 0.0000 0.0000 8.3279 0.0000 4.9499
# 5 0.9205 0.3314 6.1990 0.0000 61.4985 0.0000
# 6 0.0000 0.0000 0.0000 4.9499 0.0000 64.3534
#
#
#
# Elastic Compliance Matrix: (Units=1/GPa)
#
#
# Indices 1 2 3 4 5 6 
#
# 1 0.005788 -0.002533 -0.001358 0.000000 0.000064 0.000000
# 2 -0.002533 0.019659 0.001094 0.000000 -0.000178 0.000000
# 3 -0.001358 0.001094 0.008942 0.000000 -0.000887 0.000000
# 4 0.000000 0.000000 0.000000 0.125830 0.000000 -0.009679
# 5 0.000064 -0.000178 -0.000887 0.000000 0.016350 0.000000
# 6 0.000000 0.000000 0.000000 -0.009679 0.000000 0.016284
#
#
# Mechanical properties :
#
#
# Convention : Reuss Voigt Hill
#
# Bulk Modulus (GPa) = 34.72683 50.13148 42.42916
# Shear Modulus (GPa) = 24.03344 47.76118 35.89731
#
# Velocity S-wave (km/s) = 3.04940 4.29876 3.72681
# Velocity P-wave (km/s) = 5.08278 6.63593 5.91059
#
# Compressibility (1/GPa) = 0.02879618
#
# Stress axis : x y z
#
# Youngs Moduli (GPa) = 172.78044 50.86723 111.83554
#
# Poissons Ratio (x) = 0.12883 0.15185
# Poissons Ratio (y) = 0.43758 -0.12237
# Poissons Ratio (z) = 0.23460 -0.05566
#
# Static dielectric constant tensor:
#      x y z
#    x 2.100060 0.000000 -0.007350 
#    y 0.000000 1.896570 0.000000 
#    z -0.007350 0.000000 2.171610 
# 
# From -- ./inp_files/85610.got.cif
#   From: 2010.05.17/outbox.cif.g08.bks.cpg/sg10_43_cif.got.tgz:85610.got - 2010.06.03 11:33:40.
