data_PCOD9146360
_publ_section_title
;
Structure prediction by ZEFSAII (Michael W. Deem and Ramdas Pophale) SiO2 
 PCOD9146360
Probable space group: P 2/M
;
_chemical_formula_sum "Si O2"
_cell_formula_units_Z 28
_cell_length_a 13.525708
_cell_length_b 9.215364
_cell_length_c 20.114337
_cell_angle_alpha 90.000000
_cell_angle_beta 144.342043
_cell_angle_gamma 90.000000
_cell_volume 1461.523901
_symmetry_space_group_name_H-M "P 2/M"
_symmetry_group_IT_number 10
_symmetry_cell_setting 'monoclinic'
loop_
_space_group_symop_operation_xyz
x,y,z
-x,y,-z
-x,-y,-z
x,-y,z
loop_
_atom_site_type_symbol
_atom_site_label
_atom_site_fract_x
_atom_site_fract_y
_atom_site_fract_z
Si Si1 0.848852 0.672810 0.469161
Si Si2 0.720765 0.825922 0.943939
Si Si3 0.989695 0.673811 0.819264
Si Si4 0.425088 0.172098 0.885516
Si Si5 0.076637 0.674209 0.716280
Si Si6 0.407756 0.326615 0.380669
Si Si7 0.492733 0.173411 0.699313
O O1 0.813190 0.500000 0.446835
O O2 0.679066 0.761648 0.363532
O O3 0.000000 0.702919 0.500000
O O4 0.922479 0.708816 0.582477
O O5 0.568432 0.784978 0.911137
O O6 0.652467 0.788569 0.833570
O O7 0.742476 0.000000 0.959855
O O8 0.889759 0.749216 0.061383
O O9 0.012238 0.500000 0.834935
O O10 0.042114 0.721015 0.773184
O O11 0.792037 0.704698 0.722327
O O12 0.249171 0.256057 0.783878
O O13 0.394134 0.000000 0.860977
O O14 0.500000 0.197439 0.000000
O O15 0.094340 0.500000 0.725355
O O16 0.500000 0.289343 0.500000
O O17 0.429894 0.500000 0.382460
O O18 0.483492 0.242053 0.359879
O O19 0.480687 0.000000 0.689962
#
# Coordination Sequence:
#
# PCOD9146360 Si02
#       7
#     4   4   4   4   4   4   4
#     4  10  21  38  60  86 118 156 196 239 291 347
#     4  10  22  39  56  81 120 157 190 234 288 343
#     4  10  21  36  58  86 111 145 193 240 288 342
#     4  10  19  33  54  80 114 158 197 228 278 342
#     4  10  20  34  55  85 116 146 189 243 292 338
#     4  10  22  43  67  87 114 150 190 242 296 346
#     4  11  24  40  60  87 119 155 193 238 292 349
#
# _framework density 19.158086000000001
#
# number of rings (size 3 to 8) (size 9 to 14) (size 15 to 20)
#    0.000    1.857    1.429    2.143    0.000    6.571 
#    0.000    4.286    0.000    0.000    0.000    0.000 
#    0.000    0.000    0.000    0.000    0.000    0.000 
#
# Total GULP energy -156460.593312 kJ/mol
# GULP energy per Si atom -5587.878333 kJ/mol
# Density = 1.911448 g / cm^3
# Si number density = 19.158086 Si / 1000 Ang^3
#
#
#
# Elastic Constant Matrix: (Units=GPa)
#
#
# Indices 1 2 3 4 5 6 
#
# 1 77.6860 35.3812 51.1587 0.0000 -6.0709 0.0000
# 2 35.3812 28.0044 56.0347 0.0000 0.9215 0.0000
# 3 51.1587 56.0347 146.2686 0.0000 1.7112 0.0000
# 4 0.0000 0.0000 0.0000 76.6959 0.0000 56.6500
# 5 -6.0709 0.9215 1.7112 0.0000 28.9426 0.0000
# 6 0.0000 0.0000 0.0000 56.6500 0.0000 86.2994
#
#
#
# Elastic Compliance Matrix: (Units=1/GPa)
#
#
# Indices 1 2 3 4 5 6 
#
# 1 0.050394 -0.122171 0.029029 0.000000 0.012744 0.000000
# 2 -0.122171 0.449199 -0.128978 0.000000 -0.032302 0.000000
# 3 0.029029 -0.128978 0.046007 0.000000 0.007475 0.000000
# 4 0.000000 0.000000 0.000000 0.025311 0.000000 -0.016615
# 5 0.012744 -0.032302 0.007475 0.000000 0.037811 0.000000
# 6 0.000000 0.000000 0.000000 -0.016615 0.000000 0.022494
#
#
# Mechanical properties :
#
#
# Convention : Reuss Voigt Hill
#
# Bulk Modulus (GPa) = 9.86591 59.67869 34.77230
# Shear Modulus (GPa) = 4.50758 45.67988 25.09373
#
# Velocity S-wave (km/s) = 1.53556 4.88829 3.62308
# Velocity P-wave (km/s) = 2.88181 7.94222 5.97426
#
# Compressibility (1/GPa) = 0.10135914
#
# Stress axis : x y z
#
# Youngs Moduli (GPa) = 19.84379 2.22618 21.73586
#
# Poissons Ratio (x) = 0.27198 -0.63096
# Poissons Ratio (y) = 2.42434 2.80344
# Poissons Ratio (z) = -0.57604 0.28713
#
# Static dielectric constant tensor:
#      x y z
#    x 1.665830 0.000000 -0.017190 
#    y 0.000000 1.634280 0.000000 
#    z -0.017190 0.000000 1.653880 
# 
# From -- ./inp_files/49544.got.cif
#   From: 2010.05.17/outbox.cif.g08.bks.cpg/sg10_25_cif.got.tgz:49544.got - 2010.06.03 11:33:40.
