data_PCOD9146094
_publ_section_title
;
Structure prediction by ZEFSAII (Michael W. Deem and Ramdas Pophale) SiO2 
 PCOD9146094
Probable space group: P 2/M
;
_chemical_formula_sum "Si O2"
_cell_formula_units_Z 32
_cell_length_a 16.322031
_cell_length_b 14.962507
_cell_length_c 13.309357
_cell_angle_alpha 90.000000
_cell_angle_beta 142.817991
_cell_angle_gamma 90.000000
_cell_volume 1964.370610
_symmetry_space_group_name_H-M "P 2/M"
_symmetry_group_IT_number 10
_symmetry_cell_setting 'monoclinic'
loop_
_space_group_symop_operation_xyz
x,y,z
-x,y,-z
-x,-y,-z
x,-y,z
loop_
_atom_site_type_symbol
_atom_site_label
_atom_site_fract_x
_atom_site_fract_y
_atom_site_fract_z
Si Si1 0.178417 0.902649 0.594133
Si Si2 0.270080 0.179665 0.877584
Si Si3 0.000320 0.225026 0.289027
Si Si4 0.555903 0.827921 0.245213
Si Si5 0.919107 0.602211 0.523861
Si Si6 0.367608 0.667138 0.817844
Si Si7 0.085247 0.896071 0.184864
Si Si8 0.595440 0.895164 0.499973
O O1 0.203593 0.890436 0.736400
O O2 0.323848 0.888294 0.682827
O O3 0.081139 0.827161 0.455940
O O4 0.124211 0.000000 0.516938
O O5 0.158859 0.210862 0.848309
O O6 0.310598 0.262333 0.844602
O O7 0.408447 0.145048 0.061148
O O8 0.041224 0.327497 0.350531
O O9 0.045066 0.175453 0.230897
O O10 0.584807 0.729375 0.228664
O O11 0.563574 0.836512 0.371525
O O12 0.953624 0.500000 0.582896
O O13 0.759540 0.609747 0.341819
O O14 0.000000 0.626332 0.500000
O O15 0.500000 0.624382 0.000000
O O16 0.245413 0.886985 0.320263
O O17 0.062688 0.000000 0.196586
O O18 0.000000 0.883014 0.000000
O O19 0.500000 0.872284 0.500000
O O20 0.570444 0.000000 0.450233
#
# Coordination Sequence:
#
# PCOD9146094 Si02
#       8
#     4   4   4   4   4   4   4   4
#     4  11  20  32  49  71 104 142 176 210 255 310
#     4  10  21  31  48  74 105 140 176 212 252 314
#     4  12  20  36  54  74 108 139 176 222 265 316
#     4  10  19  33  51  70  99 141 177 214 262 305
#     4  11  20  33  55  81 109 143 177 215 266 325
#     4   9  17  33  51  74 106 136 171 217 255 309
#     4  10  22  38  55  78 104 136 179 224 271 314
#     4  10  20  34  50  68  98 133 175 224 263 305
#
# _framework density 16.290205
#
# number of rings (size 3 to 8) (size 9 to 14) (size 15 to 20)
#    0.000    1.625    5.000    2.250    1.750    3.250 
#    0.000    0.000    0.000    0.375    0.000    0.000 
#    0.000    2.500    0.000    0.000    0.000    0.000 
#
# Total GULP energy -178479.221229 kJ/mol
# GULP energy per Si atom -5577.475663 kJ/mol
# Density = 1.625313 g / cm^3
# Si number density = 16.290205 Si / 1000 Ang^3
#
#
#
# Elastic Constant Matrix: (Units=GPa)
#
#
# Indices 1 2 3 4 5 6 
#
# 1 105.4281 30.2858 41.4415 0.0000 0.4418 0.0000
# 2 30.2858 70.7768 21.1150 0.0000 -8.1555 0.0000
# 3 41.4415 21.1150 75.7412 0.0000 -3.1744 0.0000
# 4 0.0000 0.0000 0.0000 11.5697 0.0000 -2.4080
# 5 0.4418 -8.1555 -3.1744 0.0000 22.4474 0.0000
# 6 0.0000 0.0000 0.0000 -2.4080 0.0000 12.8199
#
#
#
# Elastic Compliance Matrix: (Units=1/GPa)
#
#
# Indices 1 2 3 4 5 6 
#
# 1 0.013073 -0.004065 -0.006128 0.000000 -0.002601 0.000000
# 2 -0.004065 0.017259 -0.002335 0.000000 0.006020 0.000000
# 3 -0.006128 -0.002335 0.017279 0.000000 0.001716 0.000000
# 4 0.000000 0.000000 0.000000 0.089949 0.000000 0.016896
# 5 -0.002601 0.006020 0.001716 0.000000 0.047030 0.000000
# 6 0.000000 0.000000 0.000000 0.016896 0.000000 0.081178
#
#
# Mechanical properties :
#
#
# Convention : Reuss Voigt Hill
#
# Bulk Modulus (GPa) = 44.33926 48.62565 46.48245
# Shear Modulus (GPa) = 16.75933 19.97432 18.36682
#
# Velocity S-wave (km/s) = 3.21097 3.50545 3.36143
# Velocity P-wave (km/s) = 6.40504 6.80431 6.60769
#
# Compressibility (1/GPa) = 0.02255338
#
# Stress axis : x y z
#
# Youngs Moduli (GPa) = 76.49460 57.94169 57.87440
#
# Poissons Ratio (x) = 0.23555 0.35468
# Poissons Ratio (y) = 0.31098 0.13512
# Poissons Ratio (z) = 0.46879 0.13528
#
# Static dielectric constant tensor:
#      x y z
#    x 1.558570 0.000000 0.022530 
#    y 0.000000 1.547210 0.000000 
#    z 0.022530 0.000000 1.555700 
# 
# From -- ./inp_files/29486.got.cif
#   From: 2010.05.17/outbox.cif.g08.bks.cpg/sg10_15_cif.got.tgz:29486.got - 2010.06.03 11:33:40.
