data_PCOD9146295
_publ_section_title
;
Structure prediction by ZEFSAII (Michael W. Deem and Ramdas Pophale) SiO2 
 PCOD9146295
Probable space group: P 2/M
;
_chemical_formula_sum "Si O2"
_cell_formula_units_Z 32
_cell_length_a 24.194660
_cell_length_b 7.498761
_cell_length_c 14.944527
_cell_angle_alpha 90.000000
_cell_angle_beta 31.432269
_cell_angle_gamma 90.000000
_cell_volume 1413.960960
_symmetry_space_group_name_H-M "P 2/M"
_symmetry_group_IT_number 10
_symmetry_cell_setting 'monoclinic'
loop_
_space_group_symop_operation_xyz
x,y,z
-x,y,-z
-x,-y,-z
x,-y,z
loop_
_atom_site_type_symbol
_atom_site_label
_atom_site_fract_x
_atom_site_fract_y
_atom_site_fract_z
Si Si1 0.317254 0.784552 0.525641
Si Si2 0.101927 0.217476 0.916661
Si Si3 0.003603 0.785668 0.760172
Si Si4 0.487427 0.782386 0.620054
Si Si5 0.251096 0.295988 0.419602
Si Si6 0.081782 0.781756 0.311750
Si Si7 0.587522 0.797755 0.944812
Si Si8 0.323628 0.218374 0.991875
O O1 0.416353 0.725918 0.448222
O O2 0.312335 0.732915 0.428485
O O3 0.317746 0.000000 0.525603
O O4 0.209862 0.721174 0.722363
O O5 0.074321 0.278244 0.054238
O O6 0.106727 0.000000 0.910079
O O7 0.000000 0.268764 0.000000
O O8 0.127315 0.745977 0.605528
O O9 0.963438 0.721090 0.720562
O O10 0.996600 0.000000 0.769973
O O11 0.500000 0.722080 0.500000
O O12 0.381679 0.730008 0.819771
O O13 0.488710 0.000000 0.615367
O O14 0.259510 0.500000 0.381976
O O15 0.305867 0.194370 0.262049
O O16 0.000000 0.724362 0.500000
O O17 0.082927 0.000000 0.309943
O O18 0.201947 0.724283 0.162219
O O19 0.548811 0.000000 0.016388
O O20 0.500000 0.712826 0.000000
O O21 0.613957 0.720057 0.005411
O O22 0.324205 0.000000 0.994385
#
# Coordination Sequence:
#
# PCOD9146295 Si02
#       8
#     4   4   4   4   4   4   4   4
#     4  10  19  34  55  78 112 149 185 223 275 335
#     4   9  16  28  49  78 103 134 180 227 264 316
#     4  10  19  33  54  77 105 141 182 221 273 333
#     4   9  18  30  50  83 118 145 171 218 277 328
#     4  12  24  36  53  80 111 142 181 231 280 325
#     4   9  17  28  47  75 106 139 177 224 270 317
#     4  10  20  36  60  83 108 144 183 221 271 329
#     4   9  17  30  49  80 114 140 177 224 272 327
#
# _framework density 22.631460000000001
#
# number of rings (size 3 to 8) (size 9 to 14) (size 15 to 20)
#    0.000    2.250    1.250    2.625    1.750    4.250 
#    0.000    1.250    0.000    3.750    0.000    0.000 
#    0.000    0.000    0.000    0.000    0.000    0.000 
#
# Total GULP energy -178827.667762 kJ/mol
# GULP energy per Si atom -5588.364618 kJ/mol
# Density = 2.257995 g / cm^3
# Si number density = 22.631460 Si / 1000 Ang^3
#
#
#
# Elastic Constant Matrix: (Units=GPa)
#
#
# Indices 1 2 3 4 5 6 
#
# 1 157.0496 0.0858 58.2675 0.0000 20.2762 0.0000
# 2 0.0858 66.2879 -1.7429 0.0000 1.3586 0.0000
# 3 58.2675 -1.7429 137.3049 0.0000 14.5030 0.0000
# 4 0.0000 0.0000 0.0000 -370.7151 0.0000 14.9041
# 5 20.2762 1.3586 14.5030 0.0000 45.0080 0.0000
# 6 0.0000 0.0000 0.0000 14.9041 0.0000 -33.3882
#
#
#
# Elastic Compliance Matrix: (Units=1/GPa)
#
#
# Indices 1 2 3 4 5 6 
#
# 1 0.007829 -0.000038 -0.003054 0.000000 -0.002542 0.000000
# 2 -0.000038 0.015103 0.000263 0.000000 -0.000523 0.000000
# 3 -0.003054 0.000263 0.008735 0.000000 -0.001447 0.000000
# 4 0.000000 0.000000 0.000000 -0.002747 0.000000 -0.001226
# 5 -0.002542 -0.000523 -0.001447 0.000000 0.023845 0.000000
# 6 0.000000 0.000000 0.000000 -0.001226 0.000000 -0.030498
#
#
# Mechanical properties :
#
#
# Convention : Reuss Voigt Hill
#
# Bulk Modulus (GPa) = 38.44854 52.65148 45.55001
# Shear Modulus (GPa) = 136.62616 -51.55025 42.53796
#
# Velocity S-wave (km/s) = 7.77824 -4.77782 4.34013
# Velocity P-wave (km/s) = 9.88403 2.66862 6.72950
#
# Compressibility (1/GPa) = 0.02600879
#
# Stress axis : x y z
#
# Youngs Moduli (GPa) = 127.73448 66.21025 114.47727
#
# Poissons Ratio (x) = 0.00254 0.34965
# Poissons Ratio (y) = 0.00490 -0.03014
# Poissons Ratio (z) = 0.39014 -0.01743
#
# Static dielectric constant tensor:
#      x y z
#    x 1.815260 0.000000 0.018890 
#    y 0.000000 1.857140 0.000000 
#    z 0.018890 0.000000 1.839540 
# 
# From -- ./inp_files/66596.got.cif
#   From: 2010.05.17/outbox.cif.g08.bks.cpg/sg10_34_cif.got.tgz:66596.got - 2010.06.03 11:33:40.
