data_PCOD9146830
_publ_section_title
;
Structure prediction by ZEFSAII (Michael W. Deem and Ramdas Pophale) SiO2 
 PCOD9146830
Probable space group: P 2/M
;
_chemical_formula_sum "Si O2"
_cell_formula_units_Z 26
_cell_length_a 19.973756
_cell_length_b 9.042534
_cell_length_c 7.802324
_cell_angle_alpha 90.000000
_cell_angle_beta 125.654625
_cell_angle_gamma 90.000000
_cell_volume 1145.042244
_symmetry_space_group_name_H-M "P 2/M"
_symmetry_group_IT_number 10
_symmetry_cell_setting 'monoclinic'
loop_
_space_group_symop_operation_xyz
x,y,z
-x,y,-z
-x,-y,-z
x,-y,z
loop_
_atom_site_type_symbol
_atom_site_label
_atom_site_fract_x
_atom_site_fract_y
_atom_site_fract_z
Si Si1 0.545946 0.332313 0.883205
Si Si2 0.399229 0.832502 0.498962
Si Si3 0.690849 0.833769 0.268363
Si Si4 0.835063 0.329380 0.358464
Si Si5 0.000000 0.270657 0.500000
Si Si6 0.243940 0.670666 0.133395
Si Si7 0.930025 0.330310 0.020700
O O1 0.567722 0.500000 0.865660
O O2 0.482550 0.257785 0.657884
O O3 0.500000 0.339909 0.000000
O O4 0.625317 0.233474 0.037978
O O5 0.355799 0.838671 0.621182
O O6 0.329163 0.754360 0.283493
O O7 0.414902 0.000000 0.466199
O O8 0.770109 0.728932 0.397603
O O9 0.715022 0.000000 0.254522
O O10 0.863151 0.500000 0.431459
O O11 0.912734 0.219878 0.449773
O O12 0.785048 0.330412 0.106434
O O13 0.037273 0.336662 0.733765
O O14 0.255897 0.500000 0.205793
O O15 0.162427 0.734963 0.108828
O O16 0.919032 0.500000 0.946467
O O17 0.000000 0.263798 0.000000
#
# Coordination Sequence:
#
# PCOD9146830 Si02
#       7
#     4   4   4   4   2   4   4
#     4   9  17  32  55  82 109 139 179 226 276 325
#     4  10  20  34  54  79 111 147 180 221 274 329
#     4  10  21  35  53  80 111 144 184 223 268 335
#     4  10  20  35  56  80 108 142 183 232 282 328
#     4  10  19  34  53  80 115 146 185 242 293 336
#     4   9  19  34  51  78 109 138 181 231 276 328
#     4   9  17  29  49  78 109 142 183 233 288 339
#
# _framework density 22.706585
#
# number of rings (size 3 to 8) (size 9 to 14) (size 15 to 20)
#    0.000    2.462    0.000    3.692    2.154    4.308 
#    0.000    1.154    0.000    6.000    0.000    0.000 
#    0.000    0.000    0.000    0.000    0.000    0.000 
#
# Total GULP energy -144932.435810 kJ/mol
# GULP energy per Si atom -5574.324454 kJ/mol
# Density = 2.265490 g / cm^3
# Si number density = 22.706585 Si / 1000 Ang^3
#
#
#
# Elastic Constant Matrix: (Units=GPa)
#
#
# Indices 1 2 3 4 5 6 
#
# 1 84.5045 -1.4151 12.7132 0.0000 -2.8179 0.0000
# 2 -1.4151 59.6291 27.6787 0.0000 -2.3380 0.0000
# 3 12.7132 27.6787 112.1449 0.0000 8.6148 0.0000
# 4 0.0000 0.0000 0.0000 -65.0072 0.0000 -3.0395
# 5 -2.8179 -2.3380 8.6148 0.0000 27.8044 0.0000
# 6 0.0000 0.0000 0.0000 -3.0395 0.0000 2.7496
#
#
#
# Elastic Compliance Matrix: (Units=1/GPa)
#
#
# Indices 1 2 3 4 5 6 
#
# 1 0.012192 0.001212 -0.001828 0.000000 0.001904 0.000000
# 2 0.001212 0.019328 -0.005165 0.000000 0.003348 0.000000
# 3 -0.001828 -0.005165 0.010701 0.000000 -0.003935 0.000000
# 4 0.000000 0.000000 0.000000 -0.014627 0.000000 -0.016169
# 5 0.001904 0.003348 -0.003935 0.000000 0.037659 0.000000
# 6 0.000000 0.000000 0.000000 -0.016169 0.000000 0.345817
#
#
# Mechanical properties :
#
#
# Convention : Reuss Voigt Hill
#
# Bulk Modulus (GPa) = 32.61471 37.13690 34.87581
# Shear Modulus (GPa) = 11.55128 7.59614 9.57371
#
# Velocity S-wave (km/s) = 2.25793 1.83101 2.05558
# Velocity P-wave (km/s) = 4.60352 4.56736 4.58547
#
# Compressibility (1/GPa) = 0.03066101
#
# Stress axis : x y z
#
# Youngs Moduli (GPa) = 82.01805 51.73869 93.44651
#
# Poissons Ratio (x) = -0.06273 0.17079
# Poissons Ratio (y) = -0.09944 0.48265
# Poissons Ratio (z) = 0.14990 0.26723
#
# Static dielectric constant tensor:
#      x y z
#    x 1.944330 0.000000 -0.038270 
#    y 0.000000 1.844970 0.000000 
#    z -0.038270 0.000000 1.824160 
# 
# From -- ./inp_files/34291.got.cif
#   From: 2010.05.17/outbox.cif.g08.bks.cpg/sg10_18_cif.got.tgz:34291.got - 2010.06.03 11:33:40.
