data_PCOD9146914
_publ_section_title
;
Structure prediction by ZEFSAII (Michael W. Deem and Ramdas Pophale) SiO2 
 PCOD9146914
Probable space group: P 2/M
;
_chemical_formula_sum "Si O2"
_cell_formula_units_Z 32
_cell_length_a 21.711180
_cell_length_b 9.270893
_cell_length_c 19.085041
_cell_angle_alpha 90.000000
_cell_angle_beta 158.895039
_cell_angle_gamma 90.000000
_cell_volume 1383.229313
_symmetry_space_group_name_H-M "P 2/M"
_symmetry_group_IT_number 10
_symmetry_cell_setting 'monoclinic'
loop_
_space_group_symop_operation_xyz
x,y,z
-x,y,-z
-x,-y,-z
x,-y,z
loop_
_atom_site_type_symbol
_atom_site_label
_atom_site_fract_x
_atom_site_fract_y
_atom_site_fract_z
Si Si1 0.957642 0.836669 0.796639
Si Si2 0.248494 0.660637 0.525685
Si Si3 0.642196 0.669584 0.093768
Si Si4 0.592191 0.332341 0.798619
Si Si5 0.619989 0.165866 0.538928
Si Si6 0.832466 0.334703 0.873418
Si Si7 0.101477 0.335941 0.512918
Si Si8 0.782296 0.170588 0.115937
O O1 0.880684 0.775934 0.643522
O O2 0.790880 0.836415 0.671013
O O3 0.020211 0.000000 0.857107
O O4 0.097746 0.735593 0.981458
O O5 0.181766 0.500000 0.436724
O O6 0.428646 0.673158 0.678087
O O7 0.249730 0.669503 0.610671
O O8 0.623645 0.500000 0.054595
O O9 0.815950 0.685221 0.323897
O O10 0.651929 0.769655 0.036752
O O11 0.500000 0.706262 0.000000
O O12 0.636032 0.500000 0.834744
O O13 0.520356 0.257703 0.652247
O O14 0.736473 0.246047 0.993849
O O15 0.688843 0.240242 0.682492
O O16 0.566876 0.000000 0.491950
O O17 0.777831 0.500000 0.823508
O O18 0.000000 0.335080 0.000000
O O19 0.030552 0.500000 0.434265
O O20 0.961452 0.225150 0.337464
O O21 0.773502 0.000000 0.099766
#
# Coordination Sequence:
#
# PCOD9146914 Si02
#       8
#     4   4   4   4   4   4   4   4
#     4   9  16  25  40  65  99 136 170 212 268 322
#     4   9  18  33  54  78 102 133 177 225 268 315
#     4  10  21  40  65  88 109 138 177 218 261 312
#     4  10  19  34  55  77 103 138 181 224 267 318
#     4   9  16  26  41  66 100 134 170 216 271 323
#     4   9  15  23  37  60  93 134 177 218 261 312
#     4  10  21  38  59  81 107 141 179 218 261 311
#     4  12  25  38  54  80 113 145 177 216 263 313
#
# _framework density 23.134270000000001
#
# number of rings (size 3 to 8) (size 9 to 14) (size 15 to 20)
#    0.000    2.250    0.000    3.750    0.000    9.750 
#    0.000    1.250    0.000    0.000    0.000    0.875 
#    0.000    7.000    0.000    0.000    0.000    0.000 
#
# Total GULP energy -179105.625299 kJ/mol
# GULP energy per Si atom -5597.050791 kJ/mol
# Density = 2.308162 g / cm^3
# Si number density = 23.134270 Si / 1000 Ang^3
#
#
#
# Elastic Constant Matrix: (Units=GPa)
#
#
# Indices 1 2 3 4 5 6 
#
# 1 88.2820 18.3038 15.9545 0.0000 -11.3463 0.0000
# 2 18.3038 173.5367 74.0849 0.0000 -27.9353 0.0000
# 3 15.9545 74.0849 103.3049 0.0000 -20.8353 0.0000
# 4 0.0000 0.0000 0.0000 0.4703 0.0000 3.4941
# 5 -11.3463 -27.9353 -20.8353 0.0000 47.7593 0.0000
# 6 0.0000 0.0000 0.0000 3.4941 0.0000 5.9728
#
#
#
# Elastic Compliance Matrix: (Units=1/GPa)
#
#
# Indices 1 2 3 4 5 6 
#
# 1 0.011886 -0.000453 -0.001091 0.000000 0.002083 0.000000
# 2 -0.000453 0.008599 -0.005596 0.000000 0.002481 0.000000
# 3 -0.001091 -0.005596 0.014418 0.000000 0.002757 0.000000
# 4 0.000000 0.000000 0.000000 -0.635439 0.000000 0.371729
# 5 0.002083 0.002481 0.002757 0.000000 0.024087 0.000000
# 6 0.000000 0.000000 0.000000 0.371729 0.000000 -0.050035
#
#
# Mechanical properties :
#
#
# Convention : Reuss Voigt Hill
#
# Bulk Modulus (GPa) = 48.48944 64.64555 56.56749
# Shear Modulus (GPa) = -8.25996 27.95918 9.84961
#
# Velocity S-wave (km/s) = -1.89161 3.48021 2.06563
# Velocity P-wave (km/s) = 4.02922 6.64480 5.49491
#
# Compressibility (1/GPa) = 0.02062305
#
# Stress axis : x y z
#
# Youngs Moduli (GPa) = 84.13207 116.29722 69.35730
#
# Poissons Ratio (x) = 0.05264 0.07567
# Poissons Ratio (y) = 0.03808 0.38815
# Poissons Ratio (z) = 0.09179 0.65084
#
# Static dielectric constant tensor:
#      x y z
#    x 1.923840 0.000000 0.070610 
#    y 0.000000 1.776430 0.000000 
#    z 0.070610 0.000000 1.844780 
# 
# From -- ./inp_files/87066.got.cif
#   From: 2010.05.17/outbox.cif.g08.bks.cpg/sg10_44_cif.got.tgz:87066.got - 2010.06.03 11:33:40.
