data_PCOD9146159
_publ_section_title
;
Structure prediction by ZEFSAII (Michael W. Deem and Ramdas Pophale) SiO2 
 PCOD9146159
Probable space group: P 2/M
;
_chemical_formula_sum "Si O2"
_cell_formula_units_Z 28
_cell_length_a 9.063304
_cell_length_b 11.632383
_cell_length_c 15.194323
_cell_angle_alpha 90.000000
_cell_angle_beta 61.420475
_cell_angle_gamma 90.000000
_cell_volume 1406.718730
_symmetry_space_group_name_H-M "P 2/M"
_symmetry_group_IT_number 10
_symmetry_cell_setting 'monoclinic'
loop_
_space_group_symop_operation_xyz
x,y,z
-x,y,-z
-x,-y,-z
x,-y,z
loop_
_atom_site_type_symbol
_atom_site_label
_atom_site_fract_x
_atom_site_fract_y
_atom_site_fract_z
Si Si1 0.298915 0.871033 0.539075
Si Si2 0.101144 0.133656 0.052509
Si Si3 0.530635 0.790589 0.086786
Si Si4 0.676442 0.371355 0.395353
Si Si5 0.502845 0.630010 0.260783
Si Si6 0.160621 0.132030 0.224582
Si Si7 0.829469 0.246339 0.592087
O O1 0.500000 0.872277 0.500000
O O2 0.240886 0.750212 0.600282
O O3 0.247932 0.849855 0.451909
O O4 0.240992 0.000000 0.582221
O O5 0.082277 0.182726 0.156673
O O6 0.050052 0.000000 0.073828
O O7 0.297626 0.140032 0.972491
O O8 0.000000 0.187184 0.000000
O O9 0.546034 0.709051 0.166180
O O10 0.362232 0.862650 0.152145
O O11 0.500000 0.731873 0.000000
O O12 0.500000 0.375062 0.500000
O O13 0.754330 0.500000 0.387553
O O14 0.629251 0.359975 0.306426
O O15 0.499606 0.500000 0.231214
O O16 0.319885 0.663880 0.350836
O O17 0.127875 0.194622 0.325106
O O18 0.111805 0.000000 0.246118
O O19 0.000000 0.291769 0.500000
#
# Coordination Sequence:
#
# PCOD9146159 Si02
#       7
#     4   4   4   4   4   4   4
#     4  10  19  33  52  77 106 142 189 236 275 327
#     4   9  17  33  55  82 111 141 178 221 270 334
#     4   9  18  33  55  81 105 138 175 226 279 331
#     4   9  16  32  55  75 101 141 185 231 276 326
#     4  10  20  36  57  80 104 141 194 239 282 338
#     4   9  18  33  52  74 106 148 184 213 263 335
#     4  11  22  36  52  78 115 152 184 230 292 342
#
# _framework density 19.904475999999999
#
# number of rings (size 3 to 8) (size 9 to 14) (size 15 to 20)
#    0.000    2.429    2.857    0.857    0.000    3.429 
#    2.571    0.714    0.000    0.429    0.000    0.000 
#    0.000    0.000    0.000    0.000    0.000    0.000 
#
# Total GULP energy -155913.704228 kJ/mol
# GULP energy per Si atom -5568.346580 kJ/mol
# Density = 1.985917 g / cm^3
# Si number density = 19.904476 Si / 1000 Ang^3
#
#
#
# Elastic Constant Matrix: (Units=GPa)
#
#
# Indices 1 2 3 4 5 6 
#
# 1 83.3556 17.1759 35.1556 0.0000 26.1851 0.0000
# 2 17.1759 106.4990 19.2962 0.0000 20.9294 0.0000
# 3 35.1556 19.2962 94.7895 0.0000 21.1744 0.0000
# 4 0.0000 0.0000 0.0000 -0.0638 0.0000 15.2979
# 5 26.1851 20.9294 21.1744 0.0000 33.9538 0.0000
# 6 0.0000 0.0000 0.0000 15.2979 0.0000 -9.6353
#
#
#
# Elastic Compliance Matrix: (Units=1/GPa)
#
#
# Indices 1 2 3 4 5 6 
#
# 1 0.017002 0.000074 -0.003929 0.000000 -0.010708 0.000000
# 2 0.000074 0.010739 -0.000839 0.000000 -0.006154 0.000000
# 3 -0.003929 -0.000839 0.013228 0.000000 -0.004702 0.000000
# 4 0.000000 0.000000 0.000000 0.041280 0.000000 0.065540
# 5 -0.010708 -0.006154 -0.004702 0.000000 0.044435 0.000000
# 6 0.000000 0.000000 0.000000 0.065540 0.000000 0.000273
#
#
# Mechanical properties :
#
#
# Convention : Reuss Voigt Hill
#
# Bulk Modulus (GPa) = 31.66404 47.54441 39.60423
# Shear Modulus (GPa) = 34.04294 19.05201 26.54748
#
# Velocity S-wave (km/s) = 4.14008 3.09718 3.65601
# Velocity P-wave (km/s) = 6.22866 6.06038 6.14510
#
# Compressibility (1/GPa) = 0.03158156
#
# Stress axis : x y z
#
# Youngs Moduli (GPa) = 58.81575 93.11728 75.59690
#
# Poissons Ratio (x) = -0.00690 0.29702
# Poissons Ratio (y) = -0.00436 0.06343
# Poissons Ratio (z) = 0.23109 0.07813
#
# Static dielectric constant tensor:
#      x y z
#    x 1.730080 0.000000 0.019430 
#    y 0.000000 1.693180 0.000000 
#    z 0.019430 0.000000 1.715910 
# 
# From -- ./inp_files/61131.got.cif
#   From: 2010.05.17/outbox.cif.g08.bks.cpg/sg10_31_cif.got.tgz:61131.got - 2010.06.03 11:33:40.
