data_PCOD9146685
_publ_section_title
;
Structure prediction by ZEFSAII (Michael W. Deem and Ramdas Pophale) SiO2 
 PCOD9146685
Probable space group: P 2/M
;
_chemical_formula_sum "Si O2"
_cell_formula_units_Z 24
_cell_length_a 10.216384
_cell_length_b 11.398136
_cell_length_c 23.864537
_cell_angle_alpha 90.000000
_cell_angle_beta 27.734907
_cell_angle_gamma 90.000000
_cell_volume 1293.281477
_symmetry_space_group_name_H-M "P 2/M"
_symmetry_group_IT_number 10
_symmetry_cell_setting 'monoclinic'
loop_
_space_group_symop_operation_xyz
x,y,z
-x,y,-z
-x,-y,-z
x,-y,z
loop_
_atom_site_type_symbol
_atom_site_label
_atom_site_fract_x
_atom_site_fract_y
_atom_site_fract_z
Si Si1 0.680560 0.858722 0.566650
Si Si2 0.854685 0.500000 0.976588
Si Si3 0.124087 0.140533 0.717976
Si Si4 0.482435 0.500000 0.786894
Si Si5 0.738123 0.730178 0.952475
Si Si6 0.350630 0.139116 0.185534
Si Si7 0.699372 0.753977 0.677770
O O1 0.452805 0.835598 0.604191
O O2 0.580313 0.811511 0.665687
O O3 0.972724 0.791818 0.445938
O O4 0.727598 0.000000 0.551785
O O5 0.846223 0.618457 0.944351
O O6 0.161647 0.500000 0.887667
O O7 0.583177 0.500000 0.121293
O O8 0.965686 0.202864 0.829169
O O9 0.953477 0.174944 0.726307
O O10 0.090688 0.000000 0.735496
O O11 0.639644 0.615865 0.705276
O O12 0.500000 0.686940 0.000000
O O13 0.583685 0.818837 0.053242
O O14 0.416838 0.192851 0.220613
O O15 0.347316 0.000000 0.192065
#
# Coordination Sequence:
#
# PCOD9146685 Si02
#       7
#     4   2   4   2   4   4   4
#     4  10  21  37  59  83 111 144 179 225 272 325
#     4  11  21  38  54  81 108 143 187 220 272 323
#     4   9  19  35  55  85 117 143 177 220 271 326
#     4  11  24  37  58  76 108 146 182 233 267 318
#     4  10  19  34  57  83 111 145 179 223 272 324
#     4  10  19  33  57  84 112 144 179 223 274 327
#     4  11  21  38  56  79 108 144 188 225 270 320
#
# _framework density 18.557445999999999
#
# number of rings (size 3 to 8) (size 9 to 14) (size 15 to 20)
#    0.000    1.833    1.667    3.750    0.000    4.000 
#    0.000    3.333    0.000    5.000    0.000    0.000 
#    0.000    0.000    0.000    0.000    0.000    0.000 
#
# Total GULP energy -133813.970564 kJ/mol
# GULP energy per Si atom -5575.582107 kJ/mol
# Density = 1.851521 g / cm^3
# Si number density = 18.557446 Si / 1000 Ang^3
#
#
#
# Elastic Constant Matrix: (Units=GPa)
#
#
# Indices 1 2 3 4 5 6 
#
# 1 26.7132 13.2120 -5.5615 0.0000 3.4911 0.0000
# 2 13.2120 83.1841 15.7199 0.0000 -3.3973 0.0000
# 3 -5.5615 15.7199 31.9555 0.0000 -2.8578 0.0000
# 4 0.0000 0.0000 0.0000 40.7961 0.0000 5.7016
# 5 3.4911 -3.3973 -2.8578 0.0000 27.2449 0.0000
# 6 0.0000 0.0000 0.0000 5.7016 0.0000 23.2434
#
#
#
# Elastic Compliance Matrix: (Units=1/GPa)
#
#
# Indices 1 2 3 4 5 6 
#
# 1 0.045576 -0.009786 0.012229 0.000000 -0.005777 0.000000
# 2 -0.009786 0.015381 -0.009071 0.000000 0.002220 0.000000
# 3 0.012229 -0.009071 0.037999 0.000000 0.001288 0.000000
# 4 0.000000 0.000000 0.000000 0.025382 0.000000 -0.006226
# 5 -0.005777 0.002220 0.001288 0.000000 0.037856 0.000000
# 6 0.000000 0.000000 0.000000 -0.006226 0.000000 0.044550
#
#
# Mechanical properties :
#
#
# Convention : Reuss Voigt Hill
#
# Bulk Modulus (GPa) = 11.66848 20.95482 16.31165
# Shear Modulus (GPa) = 20.11540 26.15570 23.13555
#
# Velocity S-wave (km/s) = 3.29592 3.75833 3.53469
# Velocity P-wave (km/s) = 4.55911 5.49088 5.04655
#
# Compressibility (1/GPa) = 0.08570094
#
# Stress axis : x y z
#
# Youngs Moduli (GPa) = 21.94159 65.01695 26.31633
#
# Poissons Ratio (x) = 0.63623 -0.32183
# Poissons Ratio (y) = 0.21471 0.23871
# Poissons Ratio (z) = -0.26833 0.58975
#
# Static dielectric constant tensor:
#      x y z
#    x 1.681830 0.000000 0.004240 
#    y 0.000000 1.596170 0.000000 
#    z 0.004240 0.000000 1.659230 
# 
# From -- ./inp_files/89727.got.cif
#   From: 2010.05.17/outbox.cif.g08.bks.cpg/sg10_45_cif.got.tgz:89727.got - 2010.06.03 11:33:40.
