data_PCOD9146447
_publ_section_title
;
Structure prediction by ZEFSAII (Michael W. Deem and Ramdas Pophale) SiO2 
 PCOD9146447
Probable space group: P 2/M
;
_chemical_formula_sum "Si O2"
_cell_formula_units_Z 28
_cell_length_a 22.523120
_cell_length_b 7.730758
_cell_length_c 15.188654
_cell_angle_alpha 90.000000
_cell_angle_beta 149.148546
_cell_angle_gamma 90.000000
_cell_volume 1356.219003
_symmetry_space_group_name_H-M "P 2/M"
_symmetry_group_IT_number 10
_symmetry_cell_setting 'monoclinic'
loop_
_space_group_symop_operation_xyz
x,y,z
-x,y,-z
-x,-y,-z
x,-y,z
loop_
_atom_site_type_symbol
_atom_site_label
_atom_site_fract_x
_atom_site_fract_y
_atom_site_fract_z
Si Si1 0.621945 0.710880 0.048864
Si Si2 0.481772 0.709807 0.579550
Si Si3 0.707218 0.287983 0.973513
Si Si4 0.857620 0.197404 0.668595
Si Si5 0.105362 0.290916 0.927147
Si Si6 0.774248 0.300006 0.742419
Si Si7 0.357382 0.709303 0.725791
O O1 0.622445 0.500000 0.050655
O O2 0.659425 0.765983 0.194173
O O3 0.698182 0.767480 0.063338
O O4 0.487475 0.762227 0.864426
O O5 0.500000 0.749440 0.500000
O O6 0.484202 0.500000 0.592116
O O7 0.589904 0.770597 0.774738
O O8 0.353434 0.773473 0.440874
O O9 0.707650 0.500000 0.973462
O O10 0.817508 0.231772 0.057004
O O11 0.850145 0.296937 0.751348
O O12 0.743190 0.229306 0.465872
O O13 0.971674 0.240759 0.758700
O O14 0.862819 0.000000 0.702159
O O15 0.108489 0.500000 0.931519
O O16 0.163995 0.225411 0.092791
O O17 0.752373 0.500000 0.738173
O O18 0.355513 0.500000 0.721335
#
# Coordination Sequence:
#
# PCOD9146447 Si02
#       7
#     4   4   4   4   4   4   4
#     4   8  15  29  56  89 111 127 156 209 268 311
#     4   9  14  24  47  82 113 130 153 199 254 304
#     4   9  15  26  48  81 113 134 160 204 259 312
#     4  12  25  37  50  70 101 142 183 219 258 299
#     4  10  20  34  53  76 103 137 177 215 253 304
#     4  10  19  33  55  80 104 134 173 215 259 308
#     4   9  17  34  58  83 107 131 165 210 260 311
#
# _framework density 20.645633
#
# number of rings (size 3 to 8) (size 9 to 14) (size 15 to 20)
#    0.000    2.429    1.429    3.429    0.000    4.571 
#    0.000    2.143    0.000    9.000    0.000    0.000 
#    0.000    0.000    0.000    0.000    0.000    0.000 
#
# Total GULP energy -156279.086628 kJ/mol
# GULP energy per Si atom -5581.395951 kJ/mol
# Density = 2.059864 g / cm^3
# Si number density = 20.645633 Si / 1000 Ang^3
#
#
#
# Elastic Constant Matrix: (Units=GPa)
#
#
# Indices 1 2 3 4 5 6 
#
# 1 123.5555 -8.6743 41.7248 0.0000 1.6882 0.0000
# 2 -8.6743 27.9188 -0.0018 0.0000 2.8978 0.0000
# 3 41.7248 -0.0018 51.2422 0.0000 6.6410 0.0000
# 4 0.0000 0.0000 0.0000 -66.3445 0.0000 -7.1307
# 5 1.6882 2.8978 6.6410 0.0000 20.4361 0.0000
# 6 0.0000 0.0000 0.0000 -7.1307 0.0000 -26.5499
#
#
#
# Elastic Compliance Matrix: (Units=1/GPa)
#
#
# Indices 1 2 3 4 5 6 
#
# 1 0.011564 0.003417 -0.009635 0.000000 0.001691 0.000000
# 2 0.003417 0.037387 -0.002148 0.000000 -0.004886 0.000000
# 3 -0.009635 -0.002148 0.028415 0.000000 -0.008133 0.000000
# 4 0.000000 0.000000 0.000000 -0.015521 0.000000 0.004169
# 5 0.001691 -0.004886 -0.008133 0.000000 0.052129 0.000000
# 6 0.000000 0.000000 0.000000 0.004169 0.000000 -0.038785
#
#
# Mechanical properties :
#
#
# Convention : Reuss Voigt Hill
#
# Bulk Modulus (GPa) = 16.49261 29.86820 23.18041
# Shear Modulus (GPa) = 44.58991 -3.18046 20.70473
#
# Velocity S-wave (km/s) = 4.65238 -1.24252 3.17024
# Velocity P-wave (km/s) = 6.07168 3.52704 4.96514
#
# Compressibility (1/GPa) = 0.06063323
#
# Stress axis : x y z
#
# Youngs Moduli (GPa) = 86.47396 26.74745 35.19282
#
# Poissons Ratio (x) = -0.09139 0.33910
# Poissons Ratio (y) = -0.29546 0.07558
# Poissons Ratio (z) = 0.83321 0.05745
#
# Static dielectric constant tensor:
#      x y z
#    x 1.740620 0.000000 0.008680 
#    y 0.000000 1.776330 0.000000 
#    z 0.008680 0.000000 1.711920 
# 
# From -- ./inp_files/49396.got.cif
#   From: 2010.05.17/outbox.cif.g08.bks.cpg/sg10_25_cif.got.tgz:49396.got - 2010.06.03 11:33:40.
