data_PCOD9146472
_publ_section_title
;
Structure prediction by ZEFSAII (Michael W. Deem and Ramdas Pophale) SiO2 
 PCOD9146472
Probable space group: P 2/M
;
_chemical_formula_sum "Si O2"
_cell_formula_units_Z 29
_cell_length_a 10.860994
_cell_length_b 7.743149
_cell_length_c 33.545122
_cell_angle_alpha 90.000000
_cell_angle_beta 31.233509
_cell_angle_gamma 90.000000
_cell_volume 1462.810560
_symmetry_space_group_name_H-M "P 2/M"
_symmetry_group_IT_number 10
_symmetry_cell_setting 'monoclinic'
loop_
_space_group_symop_operation_xyz
x,y,z
-x,y,-z
-x,-y,-z
x,-y,z
loop_
_atom_site_type_symbol
_atom_site_label
_atom_site_fract_x
_atom_site_fract_y
_atom_site_fract_z
Si Si1 0.245613 0.202641 0.365233
Si Si2 0.004282 0.205731 0.804826
Si Si3 0.276180 0.208750 0.808007
Si Si4 0.515116 0.294837 0.370070
Si Si5 0.485400 0.703395 0.959283
Si Si6 0.267060 0.299623 0.519235
Si Si7 0.957053 0.705614 0.967872
Si Si8 0.500000 0.000000 0.500000
O O1 0.461737 0.266831 0.277467
O O2 0.343915 0.221336 0.383045
O O3 0.999149 0.293462 0.424534
O O4 0.210664 0.000000 0.367474
O O5 0.097402 0.268971 0.822383
O O6 0.215383 0.249119 0.715967
O O7 0.744819 0.278153 0.868293
O O8 0.983827 0.000000 0.812357
O O9 0.178877 0.267029 0.877196
O O10 0.277113 0.000000 0.806590
O O11 0.487850 0.500000 0.376092
O O12 0.437928 0.239696 0.435415
O O13 0.433070 0.500000 0.978426
O O14 0.500000 0.779064 0.000000
O O15 0.274031 0.778040 0.991069
O O16 0.317854 0.500000 0.515744
O O17 0.308072 0.155806 0.541324
O O18 0.919194 0.500000 0.982806
O O19 0.000000 0.777771 0.000000
#
# Coordination Sequence:
#
# PCOD9146472 Si02
#       8
#     4   4   4   4   4   4   4   1
#     4  10  20  36  62  95 126 157 194 247 317 375
#     4  10  20  33  55  87 117 150 190 238 302 365
#     4   9  19  34  54  84 117 149 190 237 291 362
#     4  10  21  36  60  94 128 152 192 253 308 374
#     4  10  19  33  55  80 108 147 196 244 297 361
#     4  11  24  42  65  94 121 164 213 250 307 369
#     4  10  21  36  54  78 110 151 195 243 302 359
#     4  12  26  44  66  82 120 172 210 272 286 354
#
# _framework density 19.824850000000001
#
# number of rings (size 3 to 8) (size 9 to 14) (size 15 to 20)
#    0.000    1.931    2.069    2.690    1.931    5.517 
#    0.000    1.379    0.000    3.310    0.000    0.000 
#    0.000    0.000    0.000    0.000    0.000    0.000 
#
# Total GULP energy -161619.195070 kJ/mol
# GULP energy per Si atom -5573.075692 kJ/mol
# Density = 1.977973 g / cm^3
# Si number density = 19.824850 Si / 1000 Ang^3
#
#
#
# Elastic Constant Matrix: (Units=GPa)
#
#
# Indices 1 2 3 4 5 6 
#
# 1 71.8328 18.4661 35.3878 0.0000 -5.5285 0.0000
# 2 18.4661 56.6548 0.3272 0.0000 -0.7264 0.0000
# 3 35.3878 0.3272 63.2422 0.0000 1.3228 0.0000
# 4 0.0000 0.0000 0.0000 18.4795 0.0000 -8.7905
# 5 -5.5285 -0.7264 1.3228 0.0000 19.5537 0.0000
# 6 0.0000 0.0000 0.0000 -8.7905 0.0000 12.7272
#
#
#
# Elastic Compliance Matrix: (Units=1/GPa)
#
#
# Indices 1 2 3 4 5 6 
#
# 1 0.022590 -0.007200 -0.012750 0.000000 0.006982 0.000000
# 2 -0.007200 0.019955 0.003958 0.000000 -0.001562 0.000000
# 3 -0.012750 0.003958 0.023031 0.000000 -0.005016 0.000000
# 4 0.000000 0.000000 0.000000 0.080593 0.000000 0.055664
# 5 0.006982 -0.001562 -0.005016 0.000000 0.053397 0.000000
# 6 0.000000 0.000000 0.000000 0.055664 0.000000 0.117018
#
#
# Mechanical properties :
#
#
# Convention : Reuss Voigt Hill
#
# Bulk Modulus (GPa) = 29.76774 33.34355 31.55565
# Shear Modulus (GPa) = 13.89801 19.32200 16.61001
#
# Velocity S-wave (km/s) = 2.65059 3.12530 2.89768
# Velocity P-wave (km/s) = 4.94120 5.46616 5.21030
#
# Compressibility (1/GPa) = 0.03359342
#
# Stress axis : x y z
#
# Youngs Moduli (GPa) = 44.26656 50.11365 43.42013
#
# Poissons Ratio (x) = 0.36082 0.55359
# Poissons Ratio (y) = 0.31872 -0.17187
# Poissons Ratio (z) = 0.56438 -0.19836
#
# Static dielectric constant tensor:
#      x y z
#    x 1.717280 0.000000 0.006740 
#    y 0.000000 1.719650 0.000000 
#    z 0.006740 0.000000 1.704630 
# 
# From -- ./inp_files/92051.got.cif
#   From: 2010.05.17/outbox.cif.g08.bks.cpg/sg10_47_cif.got.tgz:92051.got - 2010.06.03 11:33:40.
