data_PCOD9146900
_publ_section_title
;
Structure prediction by ZEFSAII (Michael W. Deem and Ramdas Pophale) SiO2 
 PCOD9146900
Probable space group: P 2/M
;
_chemical_formula_sum "Si O2"
_cell_formula_units_Z 28
_cell_length_a 12.470113
_cell_length_b 13.506235
_cell_length_c 13.758658
_cell_angle_alpha 90.000000
_cell_angle_beta 139.414347
_cell_angle_gamma 90.000000
_cell_volume 1507.593283
_symmetry_space_group_name_H-M "P 2/M"
_symmetry_group_IT_number 10
_symmetry_cell_setting 'monoclinic'
loop_
_space_group_symop_operation_xyz
x,y,z
-x,y,-z
-x,-y,-z
x,-y,z
loop_
_atom_site_type_symbol
_atom_site_label
_atom_site_fract_x
_atom_site_fract_y
_atom_site_fract_z
Si Si1 0.416695 0.390676 0.836831
Si Si2 0.155121 0.614237 0.397750
Si Si3 0.638746 0.108544 0.368378
Si Si4 0.331638 0.821273 0.823959
Si Si5 0.985930 0.805794 0.606994
Si Si6 0.154836 0.618692 0.170275
Si Si7 0.483520 0.682073 0.292596
O O1 0.344223 0.500000 0.767666
O O2 0.306422 0.292313 0.767565
O O3 0.538484 0.362545 0.831694
O O4 0.500000 0.395826 0.000000
O O5 0.109793 0.500000 0.384479
O O6 0.053483 0.693398 0.389801
O O7 0.129511 0.637958 0.266619
O O8 0.348955 0.629874 0.554513
O O9 0.647157 0.112992 0.256756
O O10 0.825886 0.132950 0.530033
O O11 0.525293 0.201378 0.318331
O O12 0.586415 0.000000 0.365067
O O13 0.163998 0.842510 0.766295
O O14 0.500000 0.824740 0.000000
O O15 0.000000 0.816047 0.500000
O O16 0.166626 0.500000 0.167164
O O17 0.326008 0.661489 0.249109
O O18 0.000000 0.653733 0.000000
#
# Coordination Sequence:
#
# PCOD9146900 Si02
#       7
#     4   4   4   4   4   4   4
#     4   9  17  28  45  72 106 141 170 200 245 301
#     4  10  20  33  52  77 104 136 174 212 247 294
#     4   9  19  35  53  72  95 129 171 214 262 307
#     4   9  18  30  46  73 103 133 171 207 246 299
#     4   9  19  33  50  74 104 136 166 204 254 303
#     4  10  21  35  53  79 108 139 170 202 249 304
#     4  10  19  34  55  75 100 133 175 219 254 298
#
# _framework density 18.572648000000001
#
# number of rings (size 3 to 8) (size 9 to 14) (size 15 to 20)
#    0.000    2.571    0.000    2.571    0.000    8.286 
#    0.000    4.286    0.000    7.286    0.000    0.000 
#    0.000    0.000    0.000    0.000    0.000    0.000 
#
# Total GULP energy -156021.090556 kJ/mol
# GULP energy per Si atom -5572.181806 kJ/mol
# Density = 1.853038 g / cm^3
# Si number density = 18.572648 Si / 1000 Ang^3
#
#
#
# Elastic Constant Matrix: (Units=GPa)
#
#
# Indices 1 2 3 4 5 6 
#
# 1 33.9137 1.6792 17.2154 0.0000 4.4765 0.0000
# 2 1.6792 71.2869 6.9120 0.0000 -11.2773 0.0000
# 3 17.2154 6.9120 79.5084 0.0000 7.5293 0.0000
# 4 0.0000 0.0000 0.0000 0.7943 0.0000 -1.3981
# 5 4.4765 -11.2773 7.5293 0.0000 24.4513 0.0000
# 6 0.0000 0.0000 0.0000 -1.3981 0.0000 9.0268
#
#
#
# Elastic Compliance Matrix: (Units=1/GPa)
#
#
# Indices 1 2 3 4 5 6 
#
# 1 0.033552 -0.000837 -0.006771 0.000000 -0.004444 0.000000
# 2 -0.000837 0.015480 -0.001911 0.000000 0.007881 0.000000
# 3 -0.006771 -0.001911 0.014601 0.000000 -0.004138 0.000000
# 4 0.000000 0.000000 0.000000 1.730871 0.000000 0.268074
# 5 -0.004444 0.007881 -0.004138 0.000000 0.046620 0.000000
# 6 0.000000 0.000000 0.000000 0.268074 0.000000 0.152300
#
#
# Mechanical properties :
#
#
# Convention : Reuss Voigt Hill
#
# Bulk Modulus (GPa) = 22.42400 26.25804 24.34102
# Shear Modulus (GPa) = 2.46630 17.44798 9.95714
#
# Velocity S-wave (km/s) = 1.15361 3.06836 2.31794
# Velocity P-wave (km/s) = 3.72482 5.16932 4.50534
#
# Compressibility (1/GPa) = 0.04459509
#
# Stress axis : x y z
#
# Youngs Moduli (GPa) = 29.80471 64.60136 68.48679
#
# Poissons Ratio (x) = 0.05406 0.46374
# Poissons Ratio (y) = 0.02494 0.13087
# Poissons Ratio (z) = 0.20181 0.12344
#
# Static dielectric constant tensor:
#      x y z
#    x 1.632460 0.000000 -0.003490 
#    y 0.000000 1.661030 0.000000 
#    z -0.003490 0.000000 1.689650 
# 
# From -- ./inp_files/64941.got.cif
#   From: 2010.05.17/outbox.cif.g08.bks.cpg/sg10_33_cif.got.tgz:64941.got - 2010.06.03 11:33:40.
