data_PCOD9146485
_publ_section_title
;
Structure prediction by ZEFSAII (Michael W. Deem and Ramdas Pophale) SiO2 
 PCOD9146485
Probable space group: P 2/M
;
_chemical_formula_sum "Si O2"
_cell_formula_units_Z 28
_cell_length_a 9.668074
_cell_length_b 13.731268
_cell_length_c 11.373131
_cell_angle_alpha 90.000000
_cell_angle_beta 108.643321
_cell_angle_gamma 90.000000
_cell_volume 1430.613220
_symmetry_space_group_name_H-M "P 2/M"
_symmetry_group_IT_number 10
_symmetry_cell_setting 'monoclinic'
loop_
_space_group_symop_operation_xyz
x,y,z
-x,y,-z
-x,-y,-z
x,-y,z
loop_
_atom_site_type_symbol
_atom_site_label
_atom_site_fract_x
_atom_site_fract_y
_atom_site_fract_z
Si Si1 0.757976 0.694319 0.576204
Si Si2 0.331912 0.720683 0.189226
Si Si3 0.389948 0.612334 0.672556
Si Si4 0.933742 0.385168 0.313623
Si Si5 0.857535 0.389496 0.041614
Si Si6 0.893927 0.113857 0.585693
Si Si7 0.104022 0.884521 0.139366
O O1 0.731598 0.676575 0.706380
O O2 0.639725 0.635769 0.471247
O O3 0.923537 0.662586 0.593675
O O4 0.761378 0.808809 0.544426
O O5 0.501310 0.692323 0.244070
O O6 0.266509 0.667639 0.058833
O O7 0.257937 0.827293 0.169660
O O8 0.437987 0.500000 0.705233
O O9 0.225803 0.624039 0.675878
O O10 0.969203 0.500000 0.319148
O O11 0.911654 0.344643 0.177065
O O12 0.807018 0.500000 0.051959
O O13 0.000000 0.393851 0.000000
O O14 0.000000 0.129585 0.500000
O O15 0.950367 0.129770 0.738100
O O16 0.851815 0.000000 0.568841
O O17 0.124076 0.000000 0.131515
O O18 0.000000 0.852973 0.000000
#
# Coordination Sequence:
#
# PCOD9146485 Si02
#       7
#     4   4   4   4   4   4   4
#     4  11  21  36  58  81 111 149 196 238 284 341
#     4  11  22  35  56  82 114 149 187 229 289 350
#     4  11  24  38  53  81 118 155 192 236 290 346
#     4  10  21  36  56  80 109 148 195 242 284 333
#     4  10  19  33  55  81 107 141 190 240 281 334
#     4   9  18  33  56  86 116 145 184 238 296 346
#     4   9  19  36  60  90 119 149 195 247 292 346
#
# _framework density 19.572026000000001
#
# number of rings (size 3 to 8) (size 9 to 14) (size 15 to 20)
#    0.000    1.857    1.429    3.000    2.000    4.000 
#    0.000    2.857    0.000    4.286    0.000    1.000 
#    0.000    0.000    0.000    0.000    0.000    0.000 
#
# Total GULP energy -155937.779803 kJ/mol
# GULP energy per Si atom -5569.206422 kJ/mol
# Density = 1.952748 g / cm^3
# Si number density = 19.572026 Si / 1000 Ang^3
#
#
#
# Elastic Constant Matrix: (Units=GPa)
#
#
# Indices 1 2 3 4 5 6 
#
# 1 24.8410 21.4947 20.5814 0.0000 0.7504 0.0000
# 2 21.4947 73.4610 26.4311 0.0000 10.4225 0.0000
# 3 20.5814 26.4311 95.1775 0.0000 9.6377 0.0000
# 4 0.0000 0.0000 0.0000 26.3712 0.0000 0.1202
# 5 0.7504 10.4225 9.6377 0.0000 29.6698 0.0000
# 6 0.0000 0.0000 0.0000 0.1202 0.0000 18.0843
#
#
#
# Elastic Compliance Matrix: (Units=1/GPa)
#
#
# Indices 1 2 3 4 5 6 
#
# 1 0.061499 -0.015501 -0.009707 0.000000 0.007043 0.000000
# 2 -0.015501 0.019525 -0.001463 0.000000 -0.005991 0.000000
# 3 -0.009707 -0.001463 0.013375 0.000000 -0.003585 0.000000
# 4 0.000000 0.000000 0.000000 0.037921 0.000000 -0.000252
# 5 0.007043 -0.005991 -0.003585 0.000000 0.036795 0.000000
# 6 0.000000 0.000000 0.000000 -0.000252 0.000000 0.055298
#
#
# Mechanical properties :
#
#
# Convention : Reuss Voigt Hill
#
# Bulk Modulus (GPa) = 24.35726 36.72154 30.53940
# Shear Modulus (GPa) = 17.15603 23.15655 20.15629
#
# Velocity S-wave (km/s) = 2.96389 3.44342 3.21261
# Velocity P-wave (km/s) = 4.91780 5.88324 5.42205
#
# Compressibility (1/GPa) = 0.04105551
#
# Stress axis : x y z
#
# Youngs Moduli (GPa) = 16.26044 51.21661 74.76527
#
# Poissons Ratio (x) = 0.79392 0.72575
# Poissons Ratio (y) = 0.25206 0.10941
# Poissons Ratio (z) = 0.15784 0.07495
#
# Static dielectric constant tensor:
#      x y z
#    x 1.708910 0.000000 -0.054800 
#    y 0.000000 1.717460 0.000000 
#    z -0.054800 0.000000 1.745670 
# 
# From -- ./inp_files/25411.got.cif
#   From: 2010.05.17/outbox.cif.g08.bks.cpg/sg10_13_cif.got.tgz:25411.got - 2010.06.03 11:33:40.
