data_PCOD9146121
_publ_section_title
;
Structure prediction by ZEFSAII (Michael W. Deem and Ramdas Pophale) SiO2 
 PCOD9146121
Probable space group: P 2/M
;
_chemical_formula_sum "Si O2"
_cell_formula_units_Z 32
_cell_length_a 16.007808
_cell_length_b 8.805889
_cell_length_c 14.555622
_cell_angle_alpha 90.000000
_cell_angle_beta 90.501913
_cell_angle_gamma 90.000000
_cell_volume 2051.725133
_symmetry_space_group_name_H-M "P 2/M"
_symmetry_group_IT_number 10
_symmetry_cell_setting 'monoclinic'
loop_
_space_group_symop_operation_xyz
x,y,z
-x,y,-z
-x,-y,-z
x,-y,z
loop_
_atom_site_type_symbol
_atom_site_label
_atom_site_fract_x
_atom_site_fract_y
_atom_site_fract_z
Si Si1 0.591832 0.181976 0.906531
Si Si2 0.171961 0.182841 0.389909
Si Si3 0.822842 0.817388 0.396701
Si Si4 0.499304 0.680738 0.608836
Si Si5 0.593859 0.681691 0.100022
Si Si6 0.340019 0.182662 0.289767
Si Si7 0.342671 0.817492 0.715446
Si Si8 0.002710 0.323883 0.611378
O O1 0.499605 0.250523 0.887927
O O2 0.647568 0.214575 0.817936
O O3 0.584500 0.000000 0.917202
O O4 0.622758 0.255627 0.001491
O O5 0.186736 0.230418 0.496437
O O6 0.250730 0.229964 0.329447
O O7 0.082960 0.247122 0.357083
O O8 0.167210 0.000000 0.388843
O O9 0.742378 0.771972 0.337154
O O10 0.910345 0.753465 0.360456
O O11 0.827308 0.000000 0.396369
O O12 0.500000 0.711285 0.500000
O O13 0.491150 0.500000 0.623104
O O14 0.584858 0.739061 0.654663
O O15 0.421757 0.763502 0.656400
O O16 0.589681 0.500000 0.099222
O O17 0.648277 0.742128 0.184834
O O18 0.347893 0.000000 0.301978
O O19 0.344837 0.000000 0.724037
O O20 0.003549 0.500000 0.636062
O O21 0.000000 0.311210 0.500000
#
# Coordination Sequence:
#
# PCOD9146121 Si02
#       8
#     4   4   4   4   4   4   4   4
#     4  10  19  33  52  72  94 124 164 206 246 288
#     4   9  17  31  49  71  97 127 163 199 237 283
#     4   9  18  31  49  70  95 128 164 201 238 281
#     4  11  23  34  45  66  99 135 166 198 238 285
#     4  11  21  33  50  71  96 126 160 203 253 294
#     4  10  20  33  51  72  95 128 166 203 240 284
#     4  11  21  34  51  71  95 128 168 205 242 288
#     4   9  17  29  46  69  96 126 159 198 242 283
#
# _framework density 15.596629999999999
#
# number of rings (size 3 to 8) (size 9 to 14) (size 15 to 20)
#    0.000    2.000    1.250    4.125    0.000    5.500 
#    0.000    2.500    0.000    0.000    0.000    0.875 
#    0.000    7.000    0.000    0.000    0.000    0.000 
#
# Total GULP energy -178554.058652 kJ/mol
# GULP energy per Si atom -5579.814333 kJ/mol
# Density = 1.556113 g / cm^3
# Si number density = 15.596630 Si / 1000 Ang^3
#
#
#
# Elastic Constant Matrix: (Units=GPa)
#
#
# Indices 1 2 3 4 5 6 
#
# 1 141.1174 45.7002 70.0658 0.0000 -7.3134 0.0000
# 2 45.7002 55.6277 46.1538 0.0000 -2.2586 0.0000
# 3 70.0658 46.1538 101.9495 0.0000 -5.7650 0.0000
# 4 0.0000 0.0000 0.0000 18.5834 0.0000 8.2356
# 5 -7.3134 -2.2586 -5.7650 0.0000 7.5251 0.0000
# 6 0.0000 0.0000 0.0000 8.2356 0.0000 -17.9043
#
#
#
# Elastic Compliance Matrix: (Units=1/GPa)
#
#
# Indices 1 2 3 4 5 6 
#
# 1 0.011677 -0.004757 -0.005551 0.000000 0.005668 0.000000
# 2 -0.004757 0.030743 -0.010858 0.000000 -0.003715 0.000000
# 3 -0.005551 -0.010858 0.018867 0.000000 0.005801 0.000000
# 4 0.000000 0.000000 0.000000 0.044699 0.000000 0.020561
# 5 0.005668 -0.003715 0.005801 0.000000 0.141727 0.000000
# 6 0.000000 0.000000 0.000000 0.020561 0.000000 -0.046395
#
#
# Mechanical properties :
#
#
# Convention : Reuss Voigt Hill
#
# Bulk Modulus (GPa) = 52.75825 69.17046 60.96436
# Shear Modulus (GPa) = 20.00248 10.75917 15.38083
#
# Velocity S-wave (km/s) = 3.58507 2.62933 3.14373
# Velocity P-wave (km/s) = 7.14402 7.32555 7.23536
#
# Compressibility (1/GPa) = 0.01895438
#
# Stress axis : x y z
#
# Youngs Moduli (GPa) = 85.64132 32.52751 53.00177
#
# Poissons Ratio (x) = 0.15474 0.29420
# Poissons Ratio (y) = 0.40742 0.57551
# Poissons Ratio (z) = 0.47537 0.35320
#
# Static dielectric constant tensor:
#      x y z
#    x 1.499720 0.000000 -0.004340 
#    y 0.000000 1.521330 0.000000 
#    z -0.004340 0.000000 1.518210 
# 
# From -- ./inp_files/66143.got.cif
#   From: 2010.05.17/outbox.cif.g08.bks.cpg/sg10_34_cif.got.tgz:66143.got - 2010.06.03 11:33:40.
