data_PCOD9146324
_publ_section_title
;
Structure prediction by ZEFSAII (Michael W. Deem and Ramdas Pophale) SiO2 
 PCOD9146324
Probable space group: P 2/M
;
_chemical_formula_sum "Si O2"
_cell_formula_units_Z 32
_cell_length_a 20.568233
_cell_length_b 7.749790
_cell_length_c 11.733886
_cell_angle_alpha 90.000000
_cell_angle_beta 125.746755
_cell_angle_gamma 90.000000
_cell_volume 1518.009900
_symmetry_space_group_name_H-M "P 2/M"
_symmetry_group_IT_number 10
_symmetry_cell_setting 'monoclinic'
loop_
_space_group_symop_operation_xyz
x,y,z
-x,y,-z
-x,-y,-z
x,-y,z
loop_
_atom_site_type_symbol
_atom_site_label
_atom_site_fract_x
_atom_site_fract_y
_atom_site_fract_z
Si Si1 0.585562 0.290355 0.138009
Si Si2 0.044356 0.292049 0.217386
Si Si3 0.277692 0.795380 0.091605
Si Si4 0.881347 0.291213 0.946988
Si Si5 0.182901 0.796202 0.516136
Si Si6 0.658233 0.701616 0.449180
Si Si7 0.251915 0.799040 0.817085
Si Si8 0.412537 0.799141 0.388249
O O1 0.591264 0.500000 0.140253
O O2 0.603159 0.237889 0.286682
O O3 0.657649 0.215589 0.137086
O O4 0.500000 0.239495 0.000000
O O5 0.044185 0.500000 0.217143
O O6 0.091543 0.235752 0.151313
O O7 0.094960 0.233009 0.376931
O O8 0.952613 0.236162 0.105913
O O9 0.204070 0.774495 0.102091
O O10 0.357651 0.721850 0.231989
O O11 0.291323 0.000000 0.088594
O O12 0.252348 0.720207 0.943381
O O13 0.878836 0.500000 0.943872
O O14 0.250485 0.720821 0.500772
O O15 0.198626 0.724711 0.659314
O O16 0.199192 0.000000 0.536133
O O17 0.642611 0.500000 0.451945
O O18 0.637267 0.792055 0.545406
O O19 0.228468 0.000000 0.804509
O O20 0.500000 0.720652 0.500000
O O21 0.425590 0.000000 0.371380
#
# Coordination Sequence:
#
# PCOD9146324 Si02
#       8
#     4   4   4   4   4   4   4   4
#     4   9  19  34  52  75 101 129 169 221 265 304
#     4   9  18  34  56  81 110 136 170 216 260 310
#     4  10  21  37  54  74 106 142 176 216 261 312
#     4   9  19  35  55  81 108 139 173 211 260 313
#     4  10  19  33  54  79 105 135 174 217 259 307
#     4  10  20  34  52  75 104 135 170 213 263 313
#     4   9  20  36  52  74 102 138 179 214 257 312
#     4  10  22  37  53  76 105 137 175 219 262 309
#
# _framework density 21.080231999999999
#
# number of rings (size 3 to 8) (size 9 to 14) (size 15 to 20)
#    0.000    2.500    0.000    2.250    1.750    5.500 
#    0.000    1.875    0.000    3.750    0.000    0.000 
#    0.000    0.000    0.000    0.000    0.000    0.000 
#
# Total GULP energy -178583.018288 kJ/mol
# GULP energy per Si atom -5580.719321 kJ/mol
# Density = 2.103225 g / cm^3
# Si number density = 21.080232 Si / 1000 Ang^3
#
#
#
# Elastic Constant Matrix: (Units=GPa)
#
#
# Indices 1 2 3 4 5 6 
#
# 1 34.8697 -3.8063 35.4891 0.0000 1.7660 0.0000
# 2 -3.8063 30.3839 4.8944 0.0000 -1.1541 0.0000
# 3 35.4891 4.8944 134.9104 0.0000 21.6921 0.0000
# 4 0.0000 0.0000 0.0000 9.4162 0.0000 6.4614
# 5 1.7660 -1.1541 21.6921 0.0000 25.9932 0.0000
# 6 0.0000 0.0000 0.0000 6.4614 0.0000 18.4319
#
#
#
# Elastic Compliance Matrix: (Units=1/GPa)
#
#
# Indices 1 2 3 4 5 6 
#
# 1 0.041909 0.007581 -0.012584 0.000000 0.007991 0.000000
# 2 0.007581 0.034661 -0.003946 0.000000 0.004317 0.000000
# 3 -0.012584 -0.003946 0.012424 0.000000 -0.009688 0.000000
# 4 0.000000 0.000000 0.000000 0.139837 0.000000 -0.049020
# 5 0.007991 0.004317 -0.009688 0.000000 0.046205 0.000000
# 6 0.000000 0.000000 0.000000 -0.049020 0.000000 0.071438
#
#
# Mechanical properties :
#
#
# Convention : Reuss Voigt Hill
#
# Bulk Modulus (GPa) = 14.06562 30.36870 22.21716
# Shear Modulus (GPa) = 12.88424 21.67407 17.27915
#
# Velocity S-wave (km/s) = 2.47493 3.20999 2.86612
# Velocity P-wave (km/s) = 3.85408 5.30813 4.63843
#
# Compressibility (1/GPa) = 0.07109531
#
# Stress axis : x y z
#
# Youngs Moduli (GPa) = 23.86132 28.85052 80.49194
#
# Poissons Ratio (x) = -0.21871 1.01294
# Poissons Ratio (y) = -0.18089 0.31760
# Poissons Ratio (z) = 0.30028 0.11384
#
# Static dielectric constant tensor:
#      x y z
#    x 1.704740 0.000000 -0.009960 
#    y 0.000000 1.779110 0.000000 
#    z -0.009960 0.000000 1.810730 
# 
# From -- ./inp_files/55219.got.cif
#   From: 2010.05.17/outbox.cif.g08.bks.cpg/sg10_28_cif.got.tgz:55219.got - 2010.06.03 11:33:40.
