data_PCOD9146107
_publ_section_title
;
Structure prediction by ZEFSAII (Michael W. Deem and Ramdas Pophale) SiO2 
 PCOD9146107
Probable space group: P 2/M
;
_chemical_formula_sum "Si O2"
_cell_formula_units_Z 32
_cell_length_a 20.167396
_cell_length_b 7.339840
_cell_length_c 26.097488
_cell_angle_alpha 90.000000
_cell_angle_beta 21.640412
_cell_angle_gamma 90.000000
_cell_volume 1424.632291
_symmetry_space_group_name_H-M "P 2/M"
_symmetry_group_IT_number 10
_symmetry_cell_setting 'monoclinic'
loop_
_space_group_symop_operation_xyz
x,y,z
-x,y,-z
-x,-y,-z
x,-y,z
loop_
_atom_site_type_symbol
_atom_site_label
_atom_site_fract_x
_atom_site_fract_y
_atom_site_fract_z
Si Si1 0.794365 0.219299 0.644855
Si Si2 0.530164 0.791176 0.922508
Si Si3 0.236953 0.722671 0.540809
Si Si4 0.148785 0.279437 0.148605
Si Si5 0.902144 0.722098 0.121889
Si Si6 0.575307 0.284179 0.698055
Si Si7 0.493988 0.722116 0.563604
Si Si8 0.176055 0.722271 0.012146
O O1 0.672966 0.287808 0.779535
O O2 0.698027 0.260457 0.660156
O O3 0.000000 0.283993 0.500000
O O4 0.797554 0.000000 0.646066
O O5 0.589967 0.000000 0.888601
O O6 0.500000 0.705847 0.000000
O O7 0.335978 0.790269 0.035692
O O8 0.237937 0.500000 0.539925
O O9 0.333058 0.785646 0.419720
O O10 0.346031 0.778732 0.513388
O O11 0.029418 0.778585 0.693420
O O12 0.157657 0.500000 0.144013
O O13 0.133809 0.223928 0.100267
O O14 0.900456 0.500000 0.122603
O O15 0.696307 0.778274 0.275524
O O16 0.000000 0.781538 0.000000
O O17 0.022335 0.779791 0.083512
O O18 0.554487 0.500000 0.705073
O O19 0.374476 0.214220 0.853169
O O20 0.500000 0.780990 0.500000
O O21 0.498950 0.500000 0.559016
O O22 0.178397 0.500000 0.009822
#
# Coordination Sequence:
#
# PCOD9146107 Si02
#       8
#     4   4   4   4   4   4   4   4
#     4  10  22  39  57  77 101 129 162 204 251 298
#     4  10  22  39  57  77 101 128 162 206 250 296
#     4   9  18  29  44  70 105 139 170 208 250 292
#     4  10  19  33  51  74 103 135 168 203 248 296
#     4   9  15  22  36  60  91 129 167 200 239 288
#     4  10  19  33  51  74 105 137 167 204 251 299
#     4   9  15  24  38  60  95 137 172 201 242 293
#     4   9  16  27  44  66  97 133 167 205 247 290
#
# _framework density 22.461936000000001
#
# number of rings (size 3 to 8) (size 9 to 14) (size 15 to 20)
#    0.000    2.500    1.250    1.500    1.750    6.500 
#    0.000    0.000    0.000    0.000    0.000    0.000 
#    0.000   20.000    0.000    0.000    0.000    0.000 
#
# Total GULP energy -178840.426794 kJ/mol
# GULP energy per Si atom -5588.763337 kJ/mol
# Density = 2.241081 g / cm^3
# Si number density = 22.461936 Si / 1000 Ang^3
#
#
#
# Elastic Constant Matrix: (Units=GPa)
#
#
# Indices 1 2 3 4 5 6 
#
# 1 92.5832 -8.9081 24.6099 0.0000 15.8365 0.0000
# 2 -8.9081 85.3268 -0.1689 0.0000 6.2769 0.0000
# 3 24.6099 -0.1689 140.5733 0.0000 10.0381 0.0000
# 4 0.0000 0.0000 0.0000 3.8251 0.0000 -17.3736
# 5 15.8365 6.2769 10.0381 0.0000 46.2599 0.0000
# 6 0.0000 0.0000 0.0000 -17.3736 0.0000 20.7304
#
#
#
# Elastic Compliance Matrix: (Units=1/GPa)
#
#
# Indices 1 2 3 4 5 6 
#
# 1 0.012116 0.001553 -0.001836 0.000000 -0.003960 0.000000
# 2 0.001553 0.012039 -0.000104 0.000000 -0.002142 0.000000
# 3 -0.001836 -0.000104 0.007506 0.000000 -0.000986 0.000000
# 4 0.000000 0.000000 0.000000 -0.093151 0.000000 -0.078067
# 5 -0.003960 -0.002142 -0.000986 0.000000 0.023477 0.000000
# 6 0.000000 0.000000 0.000000 -0.078067 0.000000 -0.017188
#
#
# Mechanical properties :
#
#
# Convention : Reuss Voigt Hill
#
# Bulk Modulus (GPa) = 32.37912 38.83879 35.60895
# Shear Modulus (GPa) = -113.30275 34.35976 -39.47149
#
# Velocity S-wave (km/s) = -7.10997 3.91537 -4.19652
# Velocity P-wave (km/s) = 7.27707 6.14562 2.75565
#
# Compressibility (1/GPa) = 0.03088410
#
# Stress axis : x y z
#
# Youngs Moduli (GPa) = 82.53551 83.06248 133.23553
#
# Poissons Ratio (x) = -0.12896 0.24469
# Poissons Ratio (y) = -0.12814 0.01390
# Poissons Ratio (z) = 0.15158 0.00867
#
# Static dielectric constant tensor:
#      x y z
#    x 1.756860 0.000000 0.011460 
#    y 0.000000 1.907860 0.000000 
#    z 0.011460 0.000000 1.783140 
# 
# From -- ./inp_files/34611.got.cif
#   From: 2010.05.17/outbox.cif.g08.bks.cpg/sg10_18_cif.got.tgz:34611.got - 2010.06.03 11:33:40.
