data_PCOD9146143
_publ_section_title
;
Structure prediction by ZEFSAII (Michael W. Deem and Ramdas Pophale) SiO2 
 PCOD9146143
Probable space group: P 2/M
;
_chemical_formula_sum "Si O2"
_cell_formula_units_Z 28
_cell_length_a 31.572381
_cell_length_b 8.034322
_cell_length_c 31.575773
_cell_angle_alpha 90.000000
_cell_angle_beta 170.598452
_cell_angle_gamma 90.000000
_cell_volume 1308.388314
_symmetry_space_group_name_H-M "P 2/M"
_symmetry_group_IT_number 10
_symmetry_cell_setting 'monoclinic'
loop_
_space_group_symop_operation_xyz
x,y,z
-x,y,-z
-x,-y,-z
x,-y,z
loop_
_atom_site_type_symbol
_atom_site_label
_atom_site_fract_x
_atom_site_fract_y
_atom_site_fract_z
Si Si1 0.235318 0.296378 0.261522
Si Si2 0.010278 0.310097 0.698867
Si Si3 0.256404 0.296709 0.379288
Si Si4 0.131256 0.798796 0.535074
Si Si5 0.733068 0.701388 0.906286
Si Si6 0.488535 0.810278 0.222300
Si Si7 0.394271 0.796634 0.941200
O O1 0.500000 0.246693 0.500000
O O2 0.229345 0.500000 0.256591
O O3 0.222904 0.240817 0.297911
O O4 0.000000 0.240843 0.000000
O O5 0.095650 0.500000 0.784187
O O6 0.929494 0.259984 0.571927
O O7 0.748692 0.290859 0.468466
O O8 0.256760 0.210599 0.959756
O O9 0.252748 0.500000 0.375002
O O10 0.018135 0.242181 0.173690
O O11 0.527159 0.247260 0.667297
O O12 0.895938 0.744979 0.333504
O O13 0.134506 0.000000 0.537607
O O14 0.404799 0.743269 0.824177
O O15 0.735746 0.500000 0.910676
O O16 0.635562 0.763613 0.855202
O O17 0.575681 0.000000 0.308313
O O18 0.393808 0.000000 0.939957
O O19 0.500000 0.741319 0.000000
#
# Coordination Sequence:
#
# PCOD9146143 Si02
#       7
#     4   4   4   4   4   4   4
#     4   9  15  23  37  61  97 137 174 215 267 323
#     4  12  25  42  63  88 120 157 196 238 294 357
#     4   9  17  28  45  70 102 141 180 221 273 334
#     4  10  19  33  55  82 113 149 192 239 283 331
#     4  10  19  33  52  75 106 142 181 225 281 342
#     4  12  25  42  63  88 117 150 195 246 295 346
#     4   9  17  30  52  82 113 147 190 237 281 329
#
# _framework density 21.400375
#
# number of rings (size 3 to 8) (size 9 to 14) (size 15 to 20)
#    0.000    1.857    0.000    5.571    0.000    7.429 
#    0.000    0.000    0.000    2.571    0.000    0.000 
#    0.000   11.429    0.000    0.000    0.000    0.000 
#
# Total GULP energy -156537.878868 kJ/mol
# GULP energy per Si atom -5590.638531 kJ/mol
# Density = 2.135167 g / cm^3
# Si number density = 21.400375 Si / 1000 Ang^3
#
#
#
# Elastic Constant Matrix: (Units=GPa)
#
#
# Indices 1 2 3 4 5 6 
#
# 1 51.9880 -0.8972 -30.3077 0.0000 -1.4168 0.0000
# 2 -0.8972 24.0855 -1.8944 0.0000 -1.4781 0.0000
# 3 -30.3077 -1.8944 57.3723 0.0000 1.9244 0.0000
# 4 0.0000 0.0000 0.0000 9.9763 0.0000 5.6244
# 5 -1.4168 -1.4781 1.9244 0.0000 37.8039 0.0000
# 6 0.0000 0.0000 0.0000 5.6244 0.0000 -102.7136
#
#
#
# Elastic Compliance Matrix: (Units=1/GPa)
#
#
# Indices 1 2 3 4 5 6 
#
# 1 0.027917 0.002228 0.014808 0.000000 0.000380 0.000000
# 2 0.002228 0.041897 0.002507 0.000000 0.001594 0.000000
# 3 0.014808 0.002507 0.025357 0.000000 -0.000638 0.000000
# 4 0.000000 0.000000 0.000000 0.097236 0.000000 0.005324
# 5 0.000380 0.001594 -0.000638 0.000000 0.026561 0.000000
# 6 0.000000 0.000000 0.000000 0.005324 0.000000 -0.009444
#
#
# Mechanical properties :
#
#
# Convention : Reuss Voigt Hill
#
# Bulk Modulus (GPa) = 7.44841 7.47191 7.46016
# Shear Modulus (GPa) = 23.23533 0.11632 11.67583
#
# Velocity S-wave (km/s) = 3.29864 0.23340 2.33832
# Velocity P-wave (km/s) = 4.24218 1.88989 3.28388
#
# Compressibility (1/GPa) = 0.13425676
#
# Stress axis : x y z
#
# Youngs Moduli (GPa) = 35.82059 23.86821 39.43701
#
# Poissons Ratio (x) = -0.05318 -0.58400
# Poissons Ratio (y) = -0.07981 -0.09886
# Poissons Ratio (z) = -0.53044 -0.05983
#
# Static dielectric constant tensor:
#      x y z
#    x 1.742100 0.000000 -0.001510 
#    y 0.000000 1.774460 0.000000 
#    z -0.001510 0.000000 1.734180 
# 
# From -- ./inp_files/95999.got.cif
#   From: 2010.05.17/outbox.cif.g08.bks.cpg/sg10_48_cif.got.tgz:95999.got - 2010.06.03 11:33:40.
