data_PCOD9146310
_publ_section_title
;
Structure prediction by ZEFSAII (Michael W. Deem and Ramdas Pophale) SiO2 
 PCOD9146310
Probable space group: P 2/M
;
_chemical_formula_sum "Si O2"
_cell_formula_units_Z 28
_cell_length_a 15.632664
_cell_length_b 11.157176
_cell_length_c 7.911315
_cell_angle_alpha 90.000000
_cell_angle_beta 67.049820
_cell_angle_gamma 90.000000
_cell_volume 1270.638872
_symmetry_space_group_name_H-M "P 2/M"
_symmetry_group_IT_number 10
_symmetry_cell_setting 'monoclinic'
loop_
_space_group_symop_operation_xyz
x,y,z
-x,y,-z
-x,-y,-z
x,-y,z
loop_
_atom_site_type_symbol
_atom_site_label
_atom_site_fract_x
_atom_site_fract_y
_atom_site_fract_z
Si Si1 0.297887 0.752060 0.633673
Si Si2 0.946270 0.145169 0.875056
Si Si3 0.609003 0.500000 0.939229
Si Si4 0.767674 0.862631 0.855550
Si Si5 0.448652 0.139099 0.723831
Si Si6 0.609402 0.500000 0.347067
Si Si7 0.609978 0.246349 0.788261
Si Si8 0.134241 0.860467 0.585735
O O1 0.343763 0.825860 0.751940
O O2 0.337468 0.618208 0.629447
O O3 0.342837 0.794752 0.422437
O O4 0.191194 0.777494 0.672841
O O5 0.844189 0.197669 0.918622
O O6 0.024970 0.166287 0.673251
O O7 0.936319 0.000000 0.894226
O O8 0.000000 0.186143 0.000000
O O9 0.638294 0.381031 0.816957
O O10 0.500000 0.500000 0.000000
O O11 0.620575 0.500000 0.133450
O O12 0.662954 0.826059 0.892059
O O13 0.822653 0.852254 0.633582
O O14 0.761265 0.000000 0.908747
O O15 0.500000 0.154647 0.500000
O O16 0.502716 0.224224 0.816950
O O17 0.459383 0.000000 0.764131
O O18 0.500000 0.500000 0.500000
O O19 0.146283 0.000000 0.631870
#
# Coordination Sequence:
#
# PCOD9146310 Si02
#       8
#     4   4   2   4   4   2   4   4
#     4  10  19  33  54  78 106 139 178 220 261 312
#     4   9  17  29  47  73 107 144 178 214 256 306
#     4  12  24  38  56  75 102 139 182 226 269 313
#     4   9  17  31  53  80 110 141 172 210 259 317
#     4   9  16  28  50  80 112 143 172 207 257 316
#     4  12  24  40  58  75  98 137 186 228 265 311
#     4  10  20  34  54  80 108 138 174 219 266 313
#     4   9  17  30  51  80 109 139 175 213 260 316
#
# _framework density 22.036158
#
# number of rings (size 3 to 8) (size 9 to 14) (size 15 to 20)
#    0.000    2.286    0.000    4.714    0.000    6.286 
#    0.000    0.357    0.000    9.429    0.000    6.000 
#    0.000    0.000    0.000    0.000    0.000    0.000 
#
# Total GULP energy -156094.902863 kJ/mol
# GULP energy per Si atom -5574.817959 kJ/mol
# Density = 2.198600 g / cm^3
# Si number density = 22.036158 Si / 1000 Ang^3
#
#
#
# Elastic Constant Matrix: (Units=GPa)
#
#
# Indices 1 2 3 4 5 6 
#
# 1 175.8929 33.1873 31.5346 0.0000 17.5332 0.0000
# 2 33.1873 62.9156 -9.3342 0.0000 21.9321 0.0000
# 3 31.5346 -9.3342 74.2658 0.0000 12.5552 0.0000
# 4 0.0000 0.0000 0.0000 17.9599 0.0000 9.7183
# 5 17.5332 21.9321 12.5552 0.0000 37.5912 0.0000
# 6 0.0000 0.0000 0.0000 9.7183 0.0000 17.9604
#
#
#
# Elastic Compliance Matrix: (Units=1/GPa)
#
#
# Indices 1 2 3 4 5 6 
#
# 1 0.007143 -0.004497 -0.003687 0.000000 0.000524 0.000000
# 2 -0.004497 0.024496 0.007472 0.000000 -0.014690 0.000000
# 3 -0.003687 0.007472 0.017398 0.000000 -0.008451 0.000000
# 4 0.000000 0.000000 0.000000 0.078731 0.000000 -0.042601
# 5 0.000524 -0.014690 -0.008451 0.000000 0.037751 0.000000
# 6 0.000000 0.000000 0.000000 -0.042601 0.000000 0.078729
#
#
# Mechanical properties :
#
#
# Convention : Reuss Voigt Hill
#
# Bulk Modulus (GPa) = 21.00286 47.09441 34.04864
# Shear Modulus (GPa) = 19.11733 31.88141 25.49937
#
# Velocity S-wave (km/s) = 2.94860 3.80778 3.40540
# Velocity P-wave (km/s) = 4.59828 6.38358 5.56301
#
# Compressibility (1/GPa) = 0.04761255
#
# Stress axis : x y z
#
# Youngs Moduli (GPa) = 140.00646 40.82344 57.47698
#
# Poissons Ratio (x) = 0.18359 0.21189
# Poissons Ratio (y) = 0.62962 -0.42945
# Poissons Ratio (z) = 0.51615 -0.30502
#
# Static dielectric constant tensor:
#      x y z
#    x 1.863440 0.000000 -0.043800 
#    y 0.000000 29.225350 0.000000 
#    z -0.043800 0.000000 1.993900 
# 
# From -- ./inp_files/28255.got.cif
#   From: 2010.05.17/outbox.cif.g08.bks.cpg/sg10_15_cif.got.tgz:28255.got - 2010.06.03 11:33:40.
