data_PCOD9146548
_publ_section_title
;
Structure prediction by ZEFSAII (Michael W. Deem and Ramdas Pophale) SiO2 
 PCOD9146548
Probable space group: P 2/M
;
_chemical_formula_sum "Si O2"
_cell_formula_units_Z 28
_cell_length_a 22.882970
_cell_length_b 11.492817
_cell_length_c 12.274355
_cell_angle_alpha 90.000000
_cell_angle_beta 28.197917
_cell_angle_gamma 90.000000
_cell_volume 1525.304620
_symmetry_space_group_name_H-M "P 2/M"
_symmetry_group_IT_number 10
_symmetry_cell_setting 'monoclinic'
loop_
_space_group_symop_operation_xyz
x,y,z
-x,y,-z
-x,-y,-z
x,-y,z
loop_
_atom_site_type_symbol
_atom_site_label
_atom_site_fract_x
_atom_site_fract_y
_atom_site_fract_z
Si Si1 0.699163 0.362923 0.126926
Si Si2 0.139390 0.360632 0.756605
Si Si3 0.642919 0.361154 0.454294
Si Si4 0.198394 0.245219 0.438621
Si Si5 0.404815 0.247834 0.915592
Si Si6 0.009851 0.633909 0.353556
Si Si7 0.492248 0.000000 0.833854
Si Si8 0.290395 0.000000 0.359626
O O1 0.670056 0.500000 0.151786
O O2 0.630279 0.323227 0.349763
O O3 0.667498 0.287165 0.073865
O O4 0.845508 0.356955 0.911767
O O5 0.134241 0.500000 0.775505
O O6 0.232627 0.314952 0.694995
O O7 0.193445 0.328984 0.550469
O O8 0.000000 0.315652 0.000000
O O9 0.652501 0.500000 0.432707
O O10 0.526207 0.327290 0.718124
O O11 0.077029 0.276649 0.567391
O O12 0.211096 0.115668 0.467263
O O13 0.314902 0.262387 0.166589
O O14 0.457470 0.116788 0.826778
O O15 0.970018 0.500000 0.393990
O O16 0.000000 0.649184 0.500000
O O17 0.630673 0.000000 0.657523
O O18 0.397067 0.000000 0.091950
#
# Coordination Sequence:
#
# PCOD9146548 Si02
#       8
#     4   4   4   4   4   4   2   2
#     4  10  20  36  56  81 119 155 182 221 279 342
#     4  10  21  37  57  82 113 148 184 228 282 342
#     4  10  21  35  53  80 114 150 182 223 284 342
#     4  11  21  36  59  84 109 145 191 237 277 330
#     4  11  21  35  57  83 108 144 191 235 279 330
#     4  10  19  33  55  85 116 146 181 222 276 339
#     4   9  20  38  56  76 109 150 189 233 285 338
#     4   9  20  38  57  79 110 149 188 231 290 333
#
# _framework density 18.356988999999999
#
# number of rings (size 3 to 8) (size 9 to 14) (size 15 to 20)
#    0.000    1.857    1.429    3.000    0.000    6.857 
#    0.000    4.286    0.000    1.714    0.000    0.000 
#    0.000    0.000    0.000    0.000    0.000    0.000 
#
# Total GULP energy -156181.461866 kJ/mol
# GULP energy per Si atom -5577.909352 kJ/mol
# Density = 1.831521 g / cm^3
# Si number density = 18.356989 Si / 1000 Ang^3
#
#
#
# Elastic Constant Matrix: (Units=GPa)
#
#
# Indices 1 2 3 4 5 6 
#
# 1 113.0906 47.4182 45.3401 0.0000 -9.1398 0.0000
# 2 47.4182 47.8304 18.2584 0.0000 -11.2966 0.0000
# 3 45.3401 18.2584 73.2391 0.0000 -4.0614 0.0000
# 4 0.0000 0.0000 0.0000 4.4654 0.0000 -4.3529
# 5 -9.1398 -11.2966 -4.0614 0.0000 31.7311 0.0000
# 6 0.0000 0.0000 0.0000 -4.3529 0.0000 5.7031
#
#
#
# Elastic Compliance Matrix: (Units=1/GPa)
#
#
# Indices 1 2 3 4 5 6 
#
# 1 0.018264 -0.015533 -0.007502 0.000000 -0.001229 0.000000
# 2 -0.015533 0.038259 0.000589 0.000000 0.009222 0.000000
# 3 -0.007502 0.000589 0.018172 0.000000 0.000375 0.000000
# 4 0.000000 0.000000 0.000000 0.874842 0.000000 0.667722
# 5 -0.001229 0.009222 0.000375 0.000000 0.034492 0.000000
# 6 0.000000 0.000000 0.000000 0.667722 0.000000 0.684981
#
#
# Mechanical properties :
#
#
# Convention : Reuss Voigt Hill
#
# Bulk Modulus (GPa) = 33.55312 50.68815 42.12063
# Shear Modulus (GPa) = 2.90051 16.58950 9.74500
#
# Velocity S-wave (km/s) = 1.25837 3.00945 2.30654
# Velocity P-wave (km/s) = 4.51986 6.30461 5.48531
#
# Compressibility (1/GPa) = 0.02980349
#
# Stress axis : x y z
#
# Youngs Moduli (GPa) = 54.75319 26.13751 55.02880
#
# Poissons Ratio (x) = 0.40599 0.41285
# Poissons Ratio (y) = 0.85047 -0.03243
# Poissons Ratio (z) = 0.41078 -0.01540
#
# Static dielectric constant tensor:
#      x y z
#    x 1.653250 0.000000 -0.010650 
#    y 0.000000 1.621870 0.000000 
#    z -0.010650 0.000000 1.646260 
# 
# From -- ./inp_files/55846.got.cif
#   From: 2010.05.17/outbox.cif.g08.bks.cpg/sg10_28_cif.got.tgz:55846.got - 2010.06.03 11:33:40.
