data_PCOD9146840
_publ_section_title
;
Structure prediction by ZEFSAII (Michael W. Deem and Ramdas Pophale) SiO2 
 PCOD9146840
Probable space group: P 2/M
;
_chemical_formula_sum "Si O2"
_cell_formula_units_Z 28
_cell_length_a 14.334652
_cell_length_b 19.158754
_cell_length_c 19.238356
_cell_angle_alpha 90.000000
_cell_angle_beta 160.752974
_cell_angle_gamma 90.000000
_cell_volume 1741.664258
_symmetry_space_group_name_H-M "P 2/M"
_symmetry_group_IT_number 10
_symmetry_cell_setting 'monoclinic'
loop_
_space_group_symop_operation_xyz
x,y,z
-x,y,-z
-x,-y,-z
x,-y,z
loop_
_atom_site_type_symbol
_atom_site_label
_atom_site_fract_x
_atom_site_fract_y
_atom_site_fract_z
Si Si1 0.719202 0.920563 0.719195
Si Si2 0.543144 0.693635 0.414631
Si Si3 0.970918 0.306362 0.842407
Si Si4 0.739705 0.082511 0.369850
Si Si5 0.726600 0.842727 0.504821
Si Si6 0.736221 0.579011 0.868104
Si Si7 0.839478 0.842728 0.061263
O O1 0.500000 0.920601 0.500000
O O2 0.551926 0.881448 0.661778
O O3 0.991352 0.881443 0.881493
O O4 0.781664 0.000000 0.781662
O O5 0.247154 0.709235 0.247154
O O6 0.771918 0.681415 0.635963
O O7 0.642109 0.761360 0.441778
O O8 0.495031 0.625909 0.333957
O O9 0.159236 0.238641 0.958896
O O10 0.149282 0.374090 0.988207
O O11 0.808015 0.121093 0.490366
O O12 0.000000 0.088081 0.500000
O O13 0.682192 0.000000 0.341106
O O14 0.462595 0.121095 0.144936
O O15 0.971047 0.849523 0.735521
O O16 0.651497 0.500000 0.825759
O O17 0.000000 0.574448 0.000000
#
# Coordination Sequence:
#
# PCOD9146840 Si02
#       7
#     4   4   4   4   4   4   4
#     4   9  16  27  47  75  98 116 148 196 250 301
#     4   9  16  28  47  70  96 126 159 196 241 289
#     4   9  16  28  47  70  96 126 159 196 241 289
#     4  11  25  39  49  67  95 131 174 208 241 293
#     4  10  19  34  54  73  96 126 160 204 252 294
#     4   9  17  26  38  62  98 139 171 189 214 267
#     4  10  19  34  54  73  96 126 160 204 252 294
#
# _framework density 16.076578000000001
#
# number of rings (size 3 to 8) (size 9 to 14) (size 15 to 20)
#    0.000    2.429    1.429    1.714    0.000    3.429 
#    0.000    5.714    0.000    0.000    0.000    0.000 
#    0.000    9.143    0.000   25.143    0.000    1.143 
#
# Total GULP energy -156159.188592 kJ/mol
# GULP energy per Si atom -5577.113878 kJ/mol
# Density = 1.603999 g / cm^3
# Si number density = 16.076578 Si / 1000 Ang^3
#
#
#
# Elastic Constant Matrix: (Units=GPa)
#
#
# Indices 1 2 3 4 5 6 
#
# 1 61.7467 53.6134 37.8510 0.0000 -2.7981 0.0000
# 2 53.6134 166.9228 60.4351 0.0000 -8.5412 0.0000
# 3 37.8510 60.4351 69.2776 0.0000 -6.6122 0.0000
# 4 0.0000 0.0000 0.0000 16.6150 0.0000 -2.7876
# 5 -2.7981 -8.5412 -6.6122 0.0000 17.8468 0.0000
# 6 0.0000 0.0000 0.0000 -2.7876 0.0000 14.3893
#
#
#
# Elastic Compliance Matrix: (Units=1/GPa)
#
#
# Indices 1 2 3 4 5 6 
#
# 1 0.026844 -0.004891 -0.010597 0.000000 -0.002058 0.000000
# 2 -0.004891 0.009682 -0.005603 0.000000 0.001791 0.000000
# 3 -0.010597 -0.005603 0.025603 0.000000 0.005143 0.000000
# 4 0.000000 0.000000 0.000000 0.062208 0.000000 0.012051
# 5 -0.002058 0.001791 0.005143 0.000000 0.058472 0.000000
# 6 0.000000 0.000000 0.000000 0.012051 0.000000 0.071831
#
#
# Mechanical properties :
#
#
# Convention : Reuss Voigt Hill
#
# Bulk Modulus (GPa) = 50.12967 66.86067 58.49517
# Shear Modulus (GPa) = 16.47602 19.50673 17.99138
#
# Velocity S-wave (km/s) = 3.20480 3.48712 3.34893
# Velocity P-wave (km/s) = 6.70401 7.60871 7.17064
#
# Compressibility (1/GPa) = 0.01994827
#
# Stress axis : x y z
#
# Youngs Moduli (GPa) = 37.25178 103.28590 39.05765
#
# Poissons Ratio (x) = 0.50514 0.41389
# Poissons Ratio (y) = 0.18219 0.21884
# Poissons Ratio (z) = 0.39475 0.57871
#
# Static dielectric constant tensor:
#      x y z
#    x 1.525300 0.000000 -0.034600 
#    y 0.000000 1.537570 0.000000 
#    z -0.034600 0.000000 1.552820 
# 
# From -- ./inp_files/85460.got.cif
#   From: 2010.05.17/outbox.cif.g08.bks.cpg/sg10_43_cif.got.tgz:85460.got - 2010.06.03 11:33:40.
