data_PCOD9146727
_publ_section_title
;
Structure prediction by ZEFSAII (Michael W. Deem and Ramdas Pophale) SiO2 
 PCOD9146727
Probable space group: P 2/M
;
_chemical_formula_sum "Si O2"
_cell_formula_units_Z 28
_cell_length_a 17.702747
_cell_length_b 8.750881
_cell_length_c 14.591389
_cell_angle_alpha 90.000000
_cell_angle_beta 137.007709
_cell_angle_gamma 90.000000
_cell_volume 1541.380060
_symmetry_space_group_name_H-M "P 2/M"
_symmetry_group_IT_number 10
_symmetry_cell_setting 'monoclinic'
loop_
_space_group_symop_operation_xyz
x,y,z
-x,y,-z
-x,-y,-z
x,-y,z
loop_
_atom_site_type_symbol
_atom_site_label
_atom_site_fract_x
_atom_site_fract_y
_atom_site_fract_z
Si Si1 0.836805 0.817348 0.124880
Si Si2 0.942271 0.317226 0.748697
Si Si3 0.588782 0.182874 0.421206
Si Si4 0.125612 0.317193 0.641144
Si Si5 0.750990 0.682550 0.715834
Si Si6 0.218473 0.181590 0.546193
Si Si7 0.664525 0.184203 0.824335
O O1 0.850199 0.740730 0.235579
O O2 0.940698 0.765026 0.155351
O O3 0.839112 0.000000 0.137776
O O4 0.725625 0.771680 0.972326
O O5 0.957260 0.500000 0.761679
O O6 0.865811 0.273383 0.767410
O O7 0.871398 0.267924 0.596655
O O8 0.652276 0.261330 0.561625
O O9 0.663441 0.209896 0.397304
O O10 0.462898 0.235186 0.297085
O O11 0.588684 0.000000 0.438180
O O12 0.134200 0.500000 0.645122
O O13 0.205944 0.241949 0.637529
O O14 0.000000 0.274872 0.500000
O O15 0.748614 0.500000 0.719338
O O16 0.732412 0.753413 0.798323
O O17 0.196638 0.000000 0.523280
O O18 0.664746 0.000000 0.820462
#
# Coordination Sequence:
#
# PCOD9146727 Si02
#       7
#     4   4   4   4   4   4   4
#     4  11  23  37  56  81 109 144 186 226 266 323
#     4  10  20  35  53  79 114 145 176 223 277 323
#     4   9  19  37  59  82 110 144 182 226 272 315
#     4  11  22  36  57  83 112 144 175 217 275 330
#     4  10  21  35  56  84 111 143 185 227 270 321
#     4  10  19  33  58  86 108 137 181 227 267 316
#     4  10  22  39  56  78 111 148 184 225 272 318
#
# _framework density 18.165538999999999
#
# number of rings (size 3 to 8) (size 9 to 14) (size 15 to 20)
#    0.000    1.857    1.429    2.571    0.000    6.857 
#    0.000    3.571    0.000    4.286    0.000    0.000 
#    0.000    0.000    0.000    0.000    0.000    0.000 
#
# Total GULP energy -156384.111123 kJ/mol
# GULP energy per Si atom -5585.146826 kJ/mol
# Density = 1.812419 g / cm^3
# Si number density = 18.165539 Si / 1000 Ang^3
#
#
#
# Elastic Constant Matrix: (Units=GPa)
#
#
# Indices 1 2 3 4 5 6 
#
# 1 55.7331 9.3846 14.1074 0.0000 -22.1452 0.0000
# 2 9.3846 18.4337 5.9951 0.0000 -9.4151 0.0000
# 3 14.1074 5.9951 42.6102 0.0000 -20.8150 0.0000
# 4 0.0000 0.0000 0.0000 -117.8213 0.0000 -3.0706
# 5 -22.1452 -9.4151 -20.8150 0.0000 20.8082 0.0000
# 6 0.0000 0.0000 0.0000 -3.0706 0.0000 30.2805
#
#
#
# Elastic Compliance Matrix: (Units=1/GPa)
#
#
# Indices 1 2 3 4 5 6 
#
# 1 0.034567 0.004815 0.013520 0.000000 0.052491 0.000000
# 2 0.004815 0.074007 0.013405 0.000000 0.052020 0.000000
# 3 0.013520 0.013405 0.052994 0.000000 0.073465 0.000000
# 4 0.000000 0.000000 0.000000 -0.008465 0.000000 -0.000858
# 5 0.052491 0.052020 0.073465 0.000000 0.200948 0.000000
# 6 0.000000 0.000000 0.000000 -0.000858 0.000000 0.032937
#
#
# Mechanical properties :
#
#
# Convention : Reuss Voigt Hill
#
# Bulk Modulus (GPa) = 4.44351 19.52792 11.98571
# Shear Modulus (GPa) = 12.54627 -7.52719 2.50954
#
# Velocity S-wave (km/s) = 2.63090 -2.03781 1.17664
# Velocity P-wave (km/s) = 3.41764 2.28833 2.90832
#
# Compressibility (1/GPa) = 0.22504714
#
# Stress axis : x y z
#
# Youngs Moduli (GPa) = 28.92968 13.51224 18.87000
#
# Poissons Ratio (x) = -0.06506 -0.25512
# Poissons Ratio (y) = -0.13930 -0.25295
# Poissons Ratio (z) = -0.39113 -0.18113
#
# Static dielectric constant tensor:
#      x y z
#    x 1.626040 0.000000 0.012870 
#    y 0.000000 1.607760 0.000000 
#    z 0.012870 0.000000 1.606230 
# 
# From -- ./inp_files/49161.got.cif
#   From: 2010.05.17/outbox.cif.g08.bks.cpg/sg10_25_cif.got.tgz:49161.got - 2010.06.03 11:33:40.
