data_PCOD9146093
_publ_section_title
;
Structure prediction by ZEFSAII (Michael W. Deem and Ramdas Pophale) SiO2 
 PCOD9146093
Probable space group: P 2/M
;
_chemical_formula_sum "Si O2"
_cell_formula_units_Z 32
_cell_length_a 24.128763
_cell_length_b 8.653206
_cell_length_c 15.962941
_cell_angle_alpha 90.000000
_cell_angle_beta 32.107859
_cell_angle_gamma 90.000000
_cell_volume 1771.496696
_symmetry_space_group_name_H-M "P 2/M"
_symmetry_group_IT_number 10
_symmetry_cell_setting 'monoclinic'
loop_
_space_group_symop_operation_xyz
x,y,z
-x,y,-z
-x,-y,-z
x,-y,z
loop_
_atom_site_type_symbol
_atom_site_label
_atom_site_fract_x
_atom_site_fract_y
_atom_site_fract_z
Si Si1 0.386176 0.176347 0.683962
Si Si2 0.700701 0.183570 0.025559
Si Si3 0.870225 0.315997 0.403110
Si Si4 0.650174 0.813734 0.745244
Si Si5 0.101188 0.182165 0.816868
Si Si6 0.428215 0.811673 0.969467
Si Si7 0.799406 0.321614 0.161040
Si Si8 0.902569 0.313530 0.855369
O O1 0.500000 0.181249 0.500000
O O2 0.315135 0.299930 0.728729
O O3 0.344882 0.000000 0.723545
O O4 0.374743 0.205355 0.797565
O O5 0.641891 0.243886 0.018264
O O6 0.812804 0.253156 0.908276
O O7 0.716453 0.000000 0.994656
O O8 0.865666 0.500000 0.416283
O O9 0.762162 0.247582 0.574453
O O10 0.884129 0.270204 0.288232
O O11 0.977715 0.263386 0.311319
O O12 0.622774 0.769791 0.876042
O O13 0.653177 0.000000 0.737778
O O14 0.549960 0.762889 0.817857
O O15 0.190836 0.221037 0.768406
O O16 0.093674 0.000000 0.809530
O O17 0.000000 0.232134 0.000000
O O18 0.429759 0.000000 0.963545
O O19 0.824323 0.500000 0.147279
O O20 0.870831 0.266311 0.991277
O O21 0.898725 0.500000 0.858819
#
# Coordination Sequence:
#
# PCOD9146093 Si02
#       8
#     4   4   4   4   4   4   4   4
#     4   9  18  31  47  72 106 139 174 222 268 307
#     4   9  17  31  54  77  98 134 180 219 260 315
#     4  11  22  36  53  77 111 143 176 217 270 324
#     4   9  18  35  58  81 106 138 176 221 272 323
#     4  11  22  34  52  77 103 135 178 219 256 308
#     4   8  16  34  58  81 106 137 176 223 275 322
#     4  10  19  33  51  70  99 140 178 214 261 313
#     4   9  19  34  50  71 104 142 172 208 261 317
#
# _framework density 18.063821000000001
#
# number of rings (size 3 to 8) (size 9 to 14) (size 15 to 20)
#    0.000    2.500    1.250    1.875    0.000    3.250 
#    0.000    5.625    0.000    3.750    0.000    0.000 
#    0.000    0.000    0.000    0.000    0.000    0.000 
#
# Total GULP energy -178294.654201 kJ/mol
# GULP energy per Si atom -5571.707944 kJ/mol
# Density = 1.802271 g / cm^3
# Si number density = 18.063821 Si / 1000 Ang^3
#
#
#
# Elastic Constant Matrix: (Units=GPa)
#
#
# Indices 1 2 3 4 5 6 
#
# 1 141.5646 18.4394 62.4248 0.0000 -13.1190 0.0000
# 2 18.4394 14.1870 26.6606 0.0000 -4.8074 0.0000
# 3 62.4248 26.6606 120.8932 0.0000 -24.5569 0.0000
# 4 0.0000 0.0000 0.0000 16.8601 0.0000 -3.1777
# 5 -13.1190 -4.8074 -24.5569 0.0000 16.4950 0.0000
# 6 0.0000 0.0000 0.0000 -3.1777 0.0000 17.3097
#
#
#
# Elastic Compliance Matrix: (Units=1/GPa)
#
#
# Indices 1 2 3 4 5 6 
#
# 1 0.009377 -0.005321 -0.003539 0.000000 0.000639 0.000000
# 2 -0.005321 0.123860 -0.025938 0.000000 -0.006749 0.000000
# 3 -0.003539 -0.025938 0.019656 0.000000 0.018889 0.000000
# 4 0.000000 0.000000 0.000000 0.061437 0.000000 0.011279
# 5 0.000639 -0.006749 0.018889 0.000000 0.087286 0.000000
# 6 0.000000 0.000000 0.000000 0.011279 0.000000 0.059842
#
#
# Mechanical properties :
#
#
# Convention : Reuss Voigt Hill
#
# Bulk Modulus (GPa) = 12.00524 54.63271 33.31898
# Shear Modulus (GPa) = 10.89756 21.40761 16.15258
#
# Velocity S-wave (km/s) = 2.45884 3.44628 2.99355
# Velocity P-wave (km/s) = 3.83688 6.79306 5.51667
#
# Compressibility (1/GPa) = 0.08329695
#
# Stress axis : x y z
#
# Youngs Moduli (GPa) = 106.64913 8.07365 50.87507
#
# Poissons Ratio (x) = 0.04296 0.18002
# Poissons Ratio (y) = 0.56746 1.31961
# Poissons Ratio (z) = 0.37738 0.20942
#
# Static dielectric constant tensor:
#      x y z
#    x 1.648730 0.000000 -0.027790 
#    y 0.000000 1.625280 0.000000 
#    z -0.027790 0.000000 1.617060 
# 
# From -- ./inp_files/71481.got.cif
#   From: 2010.05.17/outbox.cif.g08.bks.cpg/sg10_36_cif.got.tgz:71481.got - 2010.06.03 11:33:40.
