data_PCOD9146147
_publ_section_title
;
Structure prediction by ZEFSAII (Michael W. Deem and Ramdas Pophale) SiO2 
 PCOD9146147
Probable space group: P 2/M
;
_chemical_formula_sum "Si O2"
_cell_formula_units_Z 22
_cell_length_a 7.799006
_cell_length_b 27.022347
_cell_length_c 7.728103
_cell_angle_alpha 90.000000
_cell_angle_beta 38.110306
_cell_angle_gamma 90.000000
_cell_volume 1005.183259
_symmetry_space_group_name_H-M "P 2/M"
_symmetry_group_IT_number 10
_symmetry_cell_setting 'monoclinic'
loop_
_space_group_symop_operation_xyz
x,y,z
-x,y,-z
-x,-y,-z
x,-y,z
loop_
_atom_site_type_symbol
_atom_site_label
_atom_site_fract_x
_atom_site_fract_y
_atom_site_fract_z
Si Si1 0.315302 0.000000 0.819375
Si Si2 0.111723 0.728703 0.611619
Si Si3 0.395934 0.785989 0.886737
Si Si4 0.310909 0.106414 0.820456
Si Si5 0.696083 0.555761 0.178000
Si Si6 0.315291 0.364790 0.302250
O O1 0.500000 0.000000 0.500000
O O2 0.370806 0.946778 0.863291
O O3 0.000000 0.000000 0.000000
O O4 0.352485 0.768924 0.432856
O O5 0.251021 0.674543 0.506614
O O6 0.000000 0.728459 0.500000
O O7 0.859354 0.747735 0.927398
O O8 0.331144 0.843246 0.910352
O O9 0.500000 0.781302 0.000000
O O10 0.500000 0.110531 0.500000
O O11 0.000000 0.103746 0.000000
O O12 0.500000 0.552150 0.500000
O O13 0.735156 0.500000 0.074084
O O14 0.523555 0.591741 0.191543
O O15 0.000000 0.573501 0.000000
O O16 0.000000 0.381334 0.500000
O O17 0.500000 0.340161 0.000000
#
# Coordination Sequence:
#
# PCOD9146147 Si02
#       6
#     2   4   4   4   4   4
#     4   8  16  30  49  70  99 136 170 210 266 322
#     4   9  18  33  52  75 104 139 175 216 270 323
#     4  10  19  33  53  74 102 139 174 211 267 326
#     4  10  19  33  52  76 103 135 176 220 265 315
#     4  10  22  40  59  83 120 158 184 221 288 349
#     4  11  21  36  61  87 109 143 195 241 269 318
#
# _framework density 21.886557
#
# number of rings (size 3 to 8) (size 9 to 14) (size 15 to 20)
#    0.000    2.182    0.000    4.909    0.000    0.727 
#    0.000    4.091    0.000    0.000    0.000   11.455 
#    0.000    0.000    0.000    0.000    0.000    0.000 
#
# Total GULP energy -122650.878031 kJ/mol
# GULP energy per Si atom -5575.039910 kJ/mol
# Density = 2.183674 g / cm^3
# Si number density = 21.886557 Si / 1000 Ang^3
#
#
#
# Elastic Constant Matrix: (Units=GPa)
#
#
# Indices 1 2 3 4 5 6 
#
# 1 62.4076 47.5809 22.7068 0.0000 -23.1293 0.0000
# 2 47.5809 153.7450 15.3609 0.0000 -26.1557 0.0000
# 3 22.7068 15.3609 127.0086 0.0000 -42.6711 0.0000
# 4 0.0000 0.0000 0.0000 33.0387 0.0000 -1.8857
# 5 -23.1293 -26.1557 -42.6711 0.0000 30.0936 0.0000
# 6 0.0000 0.0000 0.0000 -1.8857 0.0000 37.8805
#
#
#
# Elastic Compliance Matrix: (Units=1/GPa)
#
#
# Indices 1 2 3 4 5 6 
#
# 1 0.026054 -0.005085 0.002292 0.000000 0.018855 0.000000
# 2 -0.005085 0.009062 0.002189 0.000000 0.007073 0.000000
# 3 0.002292 0.002189 0.016100 0.000000 0.026493 0.000000
# 4 0.000000 0.000000 0.000000 0.030354 0.000000 0.001511
# 5 0.018855 0.007073 0.026493 0.000000 0.091434 0.000000
# 6 0.000000 0.000000 0.000000 0.001511 0.000000 0.026474
#
#
# Mechanical properties :
#
#
# Convention : Reuss Voigt Hill
#
# Bulk Modulus (GPa) = 19.99627 57.16205 38.57916
# Shear Modulus (GPa) = 23.00377 37.37006 30.18691
#
# Velocity S-wave (km/s) = 3.24550 4.13660 3.71785
# Velocity P-wave (km/s) = 4.81669 6.99925 6.00791
#
# Compressibility (1/GPa) = 0.05000933
#
# Stress axis : x y z
#
# Youngs Moduli (GPa) = 38.38110 110.34624 62.11265
#
# Poissons Ratio (x) = 0.56106 -0.14234
# Poissons Ratio (y) = 0.19515 -0.13598
# Poissons Ratio (z) = -0.08796 -0.24158
#
# Static dielectric constant tensor:
#      x y z
#    x 1.846720 0.000000 0.008880 
#    y 0.000000 1.907580 0.000000 
#    z 0.008880 0.000000 1.775770 
# 
# From -- ./inp_files/20745.got.cif
#   From: 2010.05.17/outbox.cif.g08.bks.cpg/sg10_11_cif.got.tgz:20745.got - 2010.06.03 11:33:40.
