data_PCOD9146164
_publ_section_title
;
Structure prediction by ZEFSAII (Michael W. Deem and Ramdas Pophale) SiO2 
 PCOD9146164
Probable space group: P 2/M
;
_chemical_formula_sum "Si O2"
_cell_formula_units_Z 32
_cell_length_a 27.807649
_cell_length_b 7.579324
_cell_length_c 21.800784
_cell_angle_alpha 90.000000
_cell_angle_beta 160.417206
_cell_angle_gamma 90.000000
_cell_volume 1540.033799
_symmetry_space_group_name_H-M "P 2/M"
_symmetry_group_IT_number 10
_symmetry_cell_setting 'monoclinic'
loop_
_space_group_symop_operation_xyz
x,y,z
-x,y,-z
-x,-y,-z
x,-y,z
loop_
_atom_site_type_symbol
_atom_site_label
_atom_site_fract_x
_atom_site_fract_y
_atom_site_fract_z
Si Si1 0.653203 0.283770 0.709649
Si Si2 0.949406 0.715423 0.006133
Si Si3 0.723898 0.705529 0.930546
Si Si4 0.504743 0.793004 0.770611
Si Si5 0.827105 0.286792 0.620710
Si Si6 0.721083 0.790234 0.280004
Si Si7 0.033841 0.288001 0.339042
Si Si8 0.456794 0.216044 0.046270
O O1 0.500000 0.224761 0.500000
O O2 0.649845 0.500000 0.705755
O O3 0.788637 0.230864 0.830940
O O4 0.682141 0.221145 0.813888
O O5 0.950795 0.500000 0.007603
O O6 0.000000 0.774208 0.000000
O O7 0.060152 0.771619 0.192161
O O8 0.754991 0.500000 0.955690
O O9 0.595119 0.714993 0.823737
O O10 0.871235 0.778534 0.136447
O O11 0.334575 0.768395 0.559620
O O12 0.547893 0.721100 0.889622
O O13 0.536771 0.000000 0.808452
O O14 0.829952 0.500000 0.623334
O O15 0.878006 0.224359 0.614809
O O16 0.878729 0.756366 0.494777
O O17 0.603567 0.725781 0.188632
O O18 0.702386 0.000000 0.255678
O O19 0.671307 0.727373 0.153137
O O20 0.032404 0.500000 0.335087
O O21 0.459355 0.000000 0.051927
#
# Coordination Sequence:
#
# PCOD9146164 Si02
#       8
#     4   4   4   4   4   4   4   4
#     4   9  17  30  50  78 107 136 173 215 256 302
#     4   9  17  29  49  81 110 132 169 220 261 301
#     4  10  21  37  54  76 110 145 175 214 263 312
#     4  11  22  36  54  79 107 138 179 221 262 311
#     4  10  19  33  54  80 109 138 172 219 269 310
#     4   9  16  31  55  77 100 135 176 217 265 309
#     4  10  19  33  52  78 110 139 171 213 265 319
#     4   8  16  31  51  76 104 133 172 224 263 301
#
# _framework density 20.778766000000001
#
# number of rings (size 3 to 8) (size 9 to 14) (size 15 to 20)
#    0.000    2.500    2.500    1.125    1.750    0.500 
#    0.000    3.125    0.000    4.500    0.000    0.000 
#    0.000    0.000    0.000    0.000    0.000    0.000 
#
# Total GULP energy -178605.924074 kJ/mol
# GULP energy per Si atom -5581.435127 kJ/mol
# Density = 2.073147 g / cm^3
# Si number density = 20.778766 Si / 1000 Ang^3
#
#
#
# Elastic Constant Matrix: (Units=GPa)
#
#
# Indices 1 2 3 4 5 6 
#
# 1 110.3783 -3.8607 76.3182 0.0000 -1.3130 0.0000
# 2 -3.8607 41.7753 -4.4278 0.0000 -5.6274 0.0000
# 3 76.3182 -4.4278 185.1075 0.0000 -9.3790 0.0000
# 4 0.0000 0.0000 0.0000 22.1187 0.0000 -6.1703
# 5 -1.3130 -5.6274 -9.3790 0.0000 31.7457 0.0000
# 6 0.0000 0.0000 0.0000 -6.1703 0.0000 -8.3319
#
#
#
# Elastic Compliance Matrix: (Units=1/GPa)
#
#
# Indices 1 2 3 4 5 6 
#
# 1 0.012715 0.000488 -0.005279 0.000000 -0.000947 0.000000
# 2 0.000488 0.024665 0.000621 0.000000 0.004576 0.000000
# 3 -0.005279 0.000621 0.007703 0.000000 0.002168 0.000000
# 4 0.000000 0.000000 0.000000 0.037470 0.000000 -0.027749
# 5 -0.000947 0.004576 0.002168 0.000000 0.032913 0.000000
# 6 0.000000 0.000000 0.000000 -0.027749 0.000000 -0.099471
#
#
# Mechanical properties :
#
#
# Convention : Reuss Voigt Hill
#
# Bulk Modulus (GPa) = 27.21581 52.59117 39.90349
# Shear Modulus (GPa) = 136.67430 27.05526 81.86478
#
# Velocity S-wave (km/s) = 8.11904 3.61233 6.28361
# Velocity P-wave (km/s) = 10.05077 6.53938 8.47884
#
# Compressibility (1/GPa) = 0.03674335
#
# Stress axis : x y z
#
# Youngs Moduli (GPa) = 78.64462 40.54349 129.81399
#
# Poissons Ratio (x) = -0.01979 0.68526
# Poissons Ratio (y) = -0.03838 -0.08057
# Poissons Ratio (z) = 0.41515 -0.02516
#
# Static dielectric constant tensor:
#      x y z
#    x 1.714810 0.000000 -0.023380 
#    y 0.000000 1.796080 0.000000 
#    z -0.023380 0.000000 1.735100 
# 
# From -- ./inp_files/86966.got.cif
#   From: 2010.05.17/outbox.cif.g08.bks.cpg/sg10_44_cif.got.tgz:86966.got - 2010.06.03 11:33:40.
