data_PCOD9146304
_publ_section_title
;
Structure prediction by ZEFSAII (Michael W. Deem and Ramdas Pophale) SiO2 
 PCOD9146304
Probable space group: P 2/M
;
_chemical_formula_sum "Si O2"
_cell_formula_units_Z 28
_cell_length_a 25.742896
_cell_length_b 7.328012
_cell_length_c 9.778975
_cell_angle_alpha 90.000000
_cell_angle_beta 40.383111
_cell_angle_gamma 90.000000
_cell_volume 1195.203354
_symmetry_space_group_name_H-M "P 2/M"
_symmetry_group_IT_number 10
_symmetry_cell_setting 'monoclinic'
loop_
_space_group_symop_operation_xyz
x,y,z
-x,y,-z
-x,-y,-z
x,-y,z
loop_
_atom_site_type_symbol
_atom_site_label
_atom_site_fract_x
_atom_site_fract_y
_atom_site_fract_z
Si Si1 0.075968 0.207300 0.268125
Si Si2 0.810361 0.293681 0.192196
Si Si3 0.172876 0.720441 0.332496
Si Si4 0.500103 0.277576 0.841742
Si Si5 0.086430 0.723422 0.773270
Si Si6 0.652953 0.722918 0.354201
Si Si7 0.647907 0.722177 0.048330
O O1 0.145963 0.209673 0.239893
O O2 0.000000 0.289549 0.500000
O O3 0.055118 0.000000 0.272544
O O4 0.112228 0.298935 0.062245
O O5 0.785187 0.500000 0.276390
O O6 0.843472 0.212217 0.265428
O O7 0.736028 0.213857 0.257307
O O8 0.171300 0.500000 0.327980
O O9 0.109900 0.778185 0.573749
O O10 0.263848 0.774540 0.180621
O O11 0.499094 0.500000 0.845833
O O12 0.579422 0.224784 0.598866
O O13 0.422905 0.217513 0.909334
O O14 0.500000 0.218231 0.000000
O O15 0.086188 0.500000 0.777147
O O16 0.000000 0.783149 0.000000
O O17 0.656007 0.500000 0.341918
O O18 0.640934 0.780955 0.220988
O O19 0.644923 0.500000 0.055535
#
# Coordination Sequence:
#
# PCOD9146304 Si02
#       7
#     4   4   4   4   4   4   4
#     4  11  23  37  53  76 105 136 174 219 263 313
#     4  10  19  33  54  78 104 137 176 215 260 310
#     4  10  19  33  54  78 104 137 176 215 260 310
#     4   9  17  25  39  67 105 140 164 199 256 312
#     4   9  18  30  47  74 104 132 167 215 263 307
#     4   9  16  27  43  67  99 135 169 203 249 306
#     4   9  16  27  43  67  99 135 169 203 249 306
#
# _framework density 23.426976
#
# number of rings (size 3 to 8) (size 9 to 14) (size 15 to 20)
#    0.000    2.429    1.429    1.714    2.000    4.000 
#    0.000    0.714    0.000    2.571    0.000    2.000 
#    0.000    1.143    0.000    0.000    0.000    0.000 
#
# Total GULP energy -156492.039806 kJ/mol
# GULP energy per Si atom -5589.001422 kJ/mol
# Density = 2.337366 g / cm^3
# Si number density = 23.426976 Si / 1000 Ang^3
#
#
#
# Elastic Constant Matrix: (Units=GPa)
#
#
# Indices 1 2 3 4 5 6 
#
# 1 116.3590 2.2795 22.8420 0.0000 1.8094 0.0000
# 2 2.2795 91.6546 1.3524 0.0000 -0.3423 0.0000
# 3 22.8420 1.3524 107.4530 0.0000 0.2002 0.0000
# 4 0.0000 0.0000 0.0000 -29.4324 0.0000 -4.9565
# 5 1.8094 -0.3423 0.2002 0.0000 44.0154 0.0000
# 6 0.0000 0.0000 0.0000 -4.9565 0.0000 -0.2408
#
#
#
# Elastic Compliance Matrix: (Units=1/GPa)
#
#
# Indices 1 2 3 4 5 6 
#
# 1 0.008978 -0.000197 -0.001905 0.000000 -0.000362 0.000000
# 2 -0.000197 0.010917 -0.000096 0.000000 0.000093 0.000000
# 3 -0.001905 -0.000096 0.009713 0.000000 0.000033 0.000000
# 4 0.000000 0.000000 0.000000 0.013775 0.000000 -0.283555
# 5 -0.000362 0.000093 0.000033 0.000000 0.022735 0.000000
# 6 0.000000 0.000000 0.000000 -0.283555 0.000000 1.683803
#
#
# Mechanical properties :
#
#
# Convention : Reuss Voigt Hill
#
# Bulk Modulus (GPa) = 39.66344 40.93492 40.29918
# Shear Modulus (GPa) = 2.83653 22.13463 12.48558
#
# Velocity S-wave (km/s) = 1.10155 3.07715 2.31109
# Velocity P-wave (km/s) = 4.31107 5.48967 4.93568
#
# Compressibility (1/GPa) = 0.02521214
#
# Stress axis : x y z
#
# Youngs Moduli (GPa) = 111.38851 91.59874 102.95950
#
# Poissons Ratio (x) = 0.01800 0.19617
# Poissons Ratio (y) = 0.02189 0.00986
# Poissons Ratio (z) = 0.21223 0.00878
#
# Static dielectric constant tensor:
#      x y z
#    x 1.844030 0.000000 -0.023140 
#    y 0.000000 2.001230 0.000000 
#    z -0.023140 0.000000 1.820750 
# 
# From -- ./inp_files/36954.got.cif
#   From: 2010.05.17/outbox.cif.g08.bks.cpg/sg10_19_cif.got.tgz:36954.got - 2010.06.03 11:33:40.
