data_PCOD9146204
_publ_section_title
;
Structure prediction by ZEFSAII (Michael W. Deem and Ramdas Pophale) SiO2 
 PCOD9146204
Probable space group: P 2/M
;
_chemical_formula_sum "Si O2"
_cell_formula_units_Z 28
_cell_length_a 5.509027
_cell_length_b 13.961815
_cell_length_c 17.893448
_cell_angle_alpha 90.000000
_cell_angle_beta 62.588513
_cell_angle_gamma 90.000000
_cell_volume 1221.766853
_symmetry_space_group_name_H-M "P 2/M"
_symmetry_group_IT_number 10
_symmetry_cell_setting 'monoclinic'
loop_
_space_group_symop_operation_xyz
x,y,z
-x,y,-z
-x,-y,-z
x,-y,z
loop_
_atom_site_type_symbol
_atom_site_label
_atom_site_fract_x
_atom_site_fract_y
_atom_site_fract_z
Si Si1 0.100980 0.891356 0.587513
Si Si2 0.395910 0.305539 0.154411
Si Si3 0.608827 0.771590 0.696028
Si Si4 0.148708 0.103050 0.756875
Si Si5 0.530078 0.896746 0.906978
Si Si6 0.705188 0.301222 0.527727
Si Si7 0.968899 0.612322 0.091383
O O1 0.186350 0.889456 0.662081
O O2 0.225621 0.803880 0.521403
O O3 0.784175 0.862162 0.641766
O O4 0.147703 0.000000 0.552966
O O5 0.246106 0.277107 0.253882
O O6 0.552369 0.210036 0.103243
O O7 0.640709 0.374744 0.147165
O O8 0.180447 0.338831 0.120975
O O9 0.322317 0.811305 0.764479
O O10 0.576025 0.708759 0.627436
O O11 0.839894 0.103094 0.830187
O O12 0.265574 0.000000 0.761439
O O13 0.406000 0.000000 0.899696
O O14 0.500000 0.899066 0.000000
O O15 0.500000 0.349844 0.500000
O O16 0.000000 0.346213 0.500000
O O17 0.037823 0.500000 0.086101
O O18 0.000000 0.642587 0.000000
#
# Coordination Sequence:
#
# PCOD9146204 Si02
#       7
#     4   4   4   4   4   4   4
#     4  10  20  34  52  77 119 176 231 282 327 376
#     4  12  24  40  69  98 133 176 218 265 334 398
#     4  11  22  34  55  85 126 162 217 270 326 395
#     4  10  19  33  53  75 115 174 230 287 330 365
#     4  10  21  38  58  86 128 180 232 269 308 380
#     4  10  21  35  52  78 117 164 216 274 324 381
#     4  11  25  47  74 103 131 162 211 279 353 420
#
# _framework density 22.917629999999999
#
# number of rings (size 3 to 8) (size 9 to 14) (size 15 to 20)
#    0.000    1.429    2.857    3.000    0.000    5.143 
#    0.000    0.714    0.000    8.571    0.000    0.000 
#    0.000   48.000    0.000    0.000    0.000    0.000 
#
# Total GULP energy -155978.224410 kJ/mol
# GULP energy per Si atom -5570.650872 kJ/mol
# Density = 2.286547 g / cm^3
# Si number density = 22.917630 Si / 1000 Ang^3
#
#
#
# Elastic Constant Matrix: (Units=GPa)
#
#
# Indices 1 2 3 4 5 6 
#
# 1 131.1964 25.2383 35.8830 0.0000 36.9553 0.0000
# 2 25.2383 52.6343 23.2687 0.0000 10.8017 0.0000
# 3 35.8830 23.2687 113.0009 0.0000 37.8017 0.0000
# 4 0.0000 0.0000 0.0000 14.7100 0.0000 -4.0422
# 5 36.9553 10.8017 37.8017 0.0000 51.1628 0.0000
# 6 0.0000 0.0000 0.0000 -4.0422 0.0000 -10.7142
#
#
#
# Elastic Compliance Matrix: (Units=1/GPa)
#
#
# Indices 1 2 3 4 5 6 
#
# 1 0.010170 -0.003395 -0.000415 0.000000 -0.006322 0.000000
# 2 -0.003395 0.022139 -0.003636 0.000000 0.000465 0.000000
# 3 -0.000415 -0.003636 0.012450 0.000000 -0.008131 0.000000
# 4 0.000000 0.000000 0.000000 0.061595 0.000000 -0.023238
# 5 -0.006322 0.000465 -0.008131 0.000000 0.030021 0.000000
# 6 0.000000 0.000000 0.000000 -0.023238 0.000000 -0.084567
#
#
# Mechanical properties :
#
#
# Convention : Reuss Voigt Hill
#
# Bulk Modulus (GPa) = 33.48367 51.73461 42.60914
# Shear Modulus (GPa) = 65.22464 25.19448 45.20956
#
# Velocity S-wave (km/s) = 5.34062 3.31924 4.44632
# Velocity P-wave (km/s) = 7.25754 6.10843 6.70764
#
# Compressibility (1/GPa) = 0.02986530
#
# Stress axis : x y z
#
# Youngs Moduli (GPa) = 98.33143 45.16878 80.31994
#
# Poissons Ratio (x) = 0.15337 0.03336
# Poissons Ratio (y) = 0.33387 0.29206
# Poissons Ratio (z) = 0.04084 0.16424
#
# Static dielectric constant tensor:
#      x y z
#    x 1.976910 0.000000 0.006760 
#    y 0.000000 1.913810 0.000000 
#    z 0.006760 0.000000 1.887440 
# 
# From -- ./inp_files/73483.got.cif
#   From: 2010.05.17/outbox.cif.g08.bks.cpg/sg10_37_cif.got.tgz:73483.got - 2010.06.03 11:33:40.
