data_PCOD9146142
_publ_section_title
;
Structure prediction by ZEFSAII (Michael W. Deem and Ramdas Pophale) SiO2 
 PCOD9146142
Probable space group: P 2/M
;
_chemical_formula_sum "Si O2"
_cell_formula_units_Z 24
_cell_length_a 21.064537
_cell_length_b 7.711179
_cell_length_c 9.403826
_cell_angle_alpha 90.000000
_cell_angle_beta 131.255498
_cell_angle_gamma 90.000000
_cell_volume 1148.328260
_symmetry_space_group_name_H-M "P 2/M"
_symmetry_group_IT_number 10
_symmetry_cell_setting 'monoclinic'
loop_
_space_group_symop_operation_xyz
x,y,z
-x,y,-z
-x,-y,-z
x,-y,z
loop_
_atom_site_type_symbol
_atom_site_label
_atom_site_fract_x
_atom_site_fract_y
_atom_site_fract_z
Si Si1 0.243401 0.205191 0.454147
Si Si2 0.083773 0.212370 0.038115
Si Si3 0.413049 0.697855 0.546815
Si Si4 0.249690 0.212466 0.785831
Si Si5 0.599488 0.200711 0.793166
Si Si6 0.917552 0.788126 0.291240
O O1 0.167502 0.273767 0.244018
O O2 0.333321 0.228330 0.511925
O O3 0.244927 0.275218 0.616777
O O4 0.227185 0.000000 0.443116
O O5 0.084992 0.000000 0.037259
O O6 0.081574 0.269170 0.871106
O O7 0.000000 0.263717 0.000000
O O8 0.424075 0.500000 0.606102
O O9 0.395777 0.707123 0.352082
O O10 0.502990 0.788958 0.702770
O O11 0.167425 0.264638 0.753270
O O12 0.251247 0.000000 0.784266
O O13 0.333880 0.267230 0.993647
O O14 0.620130 0.000000 0.793683
O O15 0.000000 0.731918 0.500000
O O16 0.918360 0.000000 0.291327
#
# Coordination Sequence:
#
# PCOD9146142 Si02
#       6
#     4   4   4   4   4   4
#     4  10  19  33  52  75 105 138 174 213 256 305
#     4   9  16  26  45  74 105 136 170 211 257 302
#     4  11  22  36  53  76 104 134 172 213 259 310
#     4   9  18  30  48  75 103 134 172 213 254 302
#     4  10  19  35  57  78 101 132 172 214 260 308
#     4   9  15  24  40  67 105 139 166 203 253 303
#
# _framework density 20.89995
#
# number of rings (size 3 to 8) (size 9 to 14) (size 15 to 20)
#    0.000    2.333    0.000    5.000    0.000    7.333 
#    0.000    5.000    0.000    0.500    0.000    0.000 
#    0.000    8.000    0.000    0.000    0.000    0.000 
#
# Total GULP energy -134057.084732 kJ/mol
# GULP energy per Si atom -5585.711864 kJ/mol
# Density = 2.085238 g / cm^3
# Si number density = 20.899950 Si / 1000 Ang^3
#
#
#
# Elastic Constant Matrix: (Units=GPa)
#
#
# Indices 1 2 3 4 5 6 
#
# 1 185.8589 -19.2960 134.9221 0.0000 -1.8996 0.0000
# 2 -19.2960 30.6178 5.0785 0.0000 -0.8669 0.0000
# 3 134.9221 5.0785 215.1403 0.0000 0.9134 0.0000
# 4 0.0000 0.0000 0.0000 -36.4812 0.0000 1.4405
# 5 -1.8996 -0.8669 0.9134 0.0000 28.2552 0.0000
# 6 0.0000 0.0000 0.0000 1.4405 0.0000 -20.5816
#
#
#
# Elastic Compliance Matrix: (Units=1/GPa)
#
#
# Indices 1 2 3 4 5 6 
#
# 1 0.011859 0.008780 -0.007650 0.000000 0.001314 0.000000
# 2 0.008780 0.039319 -0.006443 0.000000 0.002005 0.000000
# 3 -0.007650 -0.006443 0.009602 0.000000 -0.001022 0.000000
# 4 0.000000 0.000000 0.000000 -0.027487 0.000000 -0.001924
# 5 0.001314 0.002005 -0.001022 0.000000 0.035575 0.000000
# 6 0.000000 0.000000 0.000000 -0.001924 0.000000 -0.048722
#
#
# Mechanical properties :
#
#
# Convention : Reuss Voigt Hill
#
# Bulk Modulus (GPa) = 19.93855 74.78071 47.35963
# Shear Modulus (GPa) = 105.28689 14.96595 60.12642
#
# Velocity S-wave (km/s) = 7.10535 2.67886 5.36946
# Velocity P-wave (km/s) = 8.76786 6.73991 7.81990
#
# Compressibility (1/GPa) = 0.05015410
#
# Stress axis : x y z
#
# Youngs Moduli (GPa) = 84.32669 25.43290 104.14486
#
# Poissons Ratio (x) = -0.22329 0.79669
# Poissons Ratio (y) = -0.74035 0.67097
# Poissons Ratio (z) = 0.64508 0.16386
#
# Static dielectric constant tensor:
#      x y z
#    x 1.710660 0.000000 0.008080 
#    y 0.000000 1.754850 0.000000 
#    z 0.008080 0.000000 1.730840 
# 
# From -- ./inp_files/33955.got.cif
#   From: 2010.05.17/outbox.cif.g08.bks.cpg/sg10_17_cif.got.tgz:33955.got - 2010.06.03 11:33:40.
