data_PCOD9146371
_publ_section_title
;
Structure prediction by ZEFSAII (Michael W. Deem and Ramdas Pophale) SiO2 
 PCOD9146371
Probable space group: P 2/M
;
_chemical_formula_sum "Si O2"
_cell_formula_units_Z 32
_cell_length_a 14.554712
_cell_length_b 7.991108
_cell_length_c 12.959990
_cell_angle_alpha 90.000000
_cell_angle_beta 87.811967
_cell_angle_gamma 90.000000
_cell_volume 1506.255094
_symmetry_space_group_name_H-M "P 2/M"
_symmetry_group_IT_number 10
_symmetry_cell_setting 'monoclinic'
loop_
_space_group_symop_operation_xyz
x,y,z
-x,y,-z
-x,-y,-z
x,-y,z
loop_
_atom_site_type_symbol
_atom_site_label
_atom_site_fract_x
_atom_site_fract_y
_atom_site_fract_z
Si Si1 0.466702 0.203888 0.616700
Si Si2 0.228515 0.693430 0.444689
Si Si3 0.021321 0.301668 0.168579
Si Si4 0.226148 0.800603 0.100031
Si Si5 0.828966 0.802804 0.112143
Si Si6 0.638129 0.194205 0.730530
Si Si7 0.023545 0.305898 0.390306
Si Si8 0.257855 0.302907 0.669642
O O1 0.500000 0.254021 0.500000
O O2 0.540258 0.265358 0.698861
O O3 0.365574 0.267847 0.647755
O O4 0.464874 0.000000 0.617662
O O5 0.260861 0.500000 0.449963
O O6 0.301067 0.796264 0.376162
O O7 0.133741 0.691807 0.386604
O O8 0.213504 0.753741 0.562443
O O9 0.036083 0.500000 0.177548
O O10 0.119537 0.227257 0.134930
O O11 0.993228 0.233089 0.283292
O O12 0.931479 0.273049 0.104031
O O13 0.299250 0.730513 0.180214
O O14 0.241166 0.000000 0.099650
O O15 0.231115 0.737860 0.981912
O O16 0.781241 0.773716 0.224045
O O17 0.840989 0.000000 0.097311
O O18 0.621558 0.000000 0.756596
O O19 0.988513 0.500000 0.396079
O O20 0.000000 0.223945 0.500000
O O21 0.240009 0.500000 0.679750
#
# Coordination Sequence:
#
# PCOD9146371 Si02
#       8
#     4   4   4   4   4   4   4   4
#     4  10  20  36  60  89 119 151 186 230 288 350
#     4  10  19  33  54  81 114 149 183 226 286 341
#     4  11  21  35  59  87 115 151 195 240 286 339
#     4  10  22  40  60  83 114 155 199 241 283 333
#     4  11  24  41  59  80 114 157 198 241 288 337
#     4  10  20  36  59  85 114 146 188 234 278 338
#     4   9  17  30  48  74 112 150 182 221 275 335
#     4  11  23  38  60  88 118 151 191 239 288 345
#
# _framework density 21.244743
#
# number of rings (size 3 to 8) (size 9 to 14) (size 15 to 20)
#    0.000    1.750    2.500    2.250    0.000    5.750 
#    0.000    0.625    0.000    5.625    0.000    0.000 
#    0.000    0.000    0.000    0.000    0.000    0.000 
#
# Total GULP energy -178584.691222 kJ/mol
# GULP energy per Si atom -5580.771601 kJ/mol
# Density = 2.119639 g / cm^3
# Si number density = 21.244743 Si / 1000 Ang^3
#
#
#
# Elastic Constant Matrix: (Units=GPa)
#
#
# Indices 1 2 3 4 5 6 
#
# 1 85.3490 -1.2546 35.0621 0.0000 21.2403 0.0000
# 2 -1.2546 15.0813 4.0911 0.0000 6.3465 0.0000
# 3 35.0621 4.0911 130.1797 0.0000 27.2702 0.0000
# 4 0.0000 0.0000 0.0000 19.6319 0.0000 -9.5539
# 5 21.2403 6.3465 27.2702 0.0000 36.7930 0.0000
# 6 0.0000 0.0000 0.0000 -9.5539 0.0000 30.8227
#
#
#
# Elastic Compliance Matrix: (Units=1/GPa)
#
#
# Indices 1 2 3 4 5 6 
#
# 1 0.014698 0.005056 -0.002554 0.000000 -0.007464 0.000000
# 2 0.005056 0.073254 -0.000480 0.000000 -0.015199 0.000000
# 3 -0.002554 -0.000480 0.009540 0.000000 -0.005513 0.000000
# 4 0.000000 0.000000 0.000000 0.059986 0.000000 0.018593
# 5 -0.007464 -0.015199 -0.005513 0.000000 0.038196 0.000000
# 6 0.000000 0.000000 0.000000 0.018593 0.000000 0.038207
#
#
# Mechanical properties :
#
#
# Convention : Reuss Voigt Hill
#
# Bulk Modulus (GPa) = 9.84870 34.04524 21.94697
# Shear Modulus (GPa) = 18.96233 30.29695 24.62964
#
# Velocity S-wave (km/s) = 2.99083 3.78046 3.40859
# Velocity P-wave (km/s) = 4.07095 5.92587 5.08372
#
# Compressibility (1/GPa) = 0.10153621
#
# Stress axis : x y z
#
# Youngs Moduli (GPa) = 68.03809 13.65111 104.82638
#
# Poissons Ratio (x) = -0.06903 0.26772
# Poissons Ratio (y) = -0.34403 0.05033
# Poissons Ratio (z) = 0.17376 0.00655
#
# Static dielectric constant tensor:
#      x y z
#    x 1.755580 0.000000 0.027250 
#    y 0.000000 1.757930 0.000000 
#    z 0.027250 0.000000 1.828620 
# 
# From -- ./inp_files/49914.got.cif
#   From: 2010.05.17/outbox.cif.g08.bks.cpg/sg10_25_cif.got.tgz:49914.got - 2010.06.03 11:33:40.
