data_PCOD9146431
_publ_section_title
;
Structure prediction by ZEFSAII (Michael W. Deem and Ramdas Pophale) SiO2 
 PCOD9146431
Probable space group: P 2/M
;
_chemical_formula_sum "Si O2"
_cell_formula_units_Z 28
_cell_length_a 9.059721
_cell_length_b 13.795155
_cell_length_c 17.503804
_cell_angle_alpha 90.000000
_cell_angle_beta 48.484547
_cell_angle_gamma 90.000000
_cell_volume 1638.046909
_symmetry_space_group_name_H-M "P 2/M"
_symmetry_group_IT_number 10
_symmetry_cell_setting 'monoclinic'
loop_
_space_group_symop_operation_xyz
x,y,z
-x,y,-z
-x,-y,-z
x,-y,z
loop_
_atom_site_type_symbol
_atom_site_label
_atom_site_fract_x
_atom_site_fract_y
_atom_site_fract_z
Si Si1 0.921194 0.385170 0.217881
Si Si2 0.229366 0.388284 0.894883
Si Si3 0.699221 0.284682 0.979661
Si Si4 0.196155 0.113766 0.482029
Si Si5 0.622452 0.885682 0.304381
Si Si6 0.016009 0.111900 0.085168
Si Si7 0.286246 0.747493 0.589671
O O1 0.913334 0.500000 0.233882
O O2 0.780173 0.364391 0.192057
O O3 0.852583 0.324793 0.315173
O O4 0.140656 0.355183 0.115744
O O5 0.294999 0.500000 0.880310
O O6 0.335280 0.321813 0.921381
O O7 0.000000 0.384017 0.000000
O O8 0.813854 0.182487 0.944342
O O9 0.500000 0.280583 0.000000
O O10 0.393672 0.131944 0.363744
O O11 0.199019 0.196125 0.546547
O O12 0.000000 0.120870 0.500000
O O13 0.209407 0.000000 0.505433
O O14 0.659677 0.833705 0.371061
O O15 0.801443 0.856242 0.188728
O O16 0.642484 0.000000 0.306165
O O17 0.052644 0.000000 0.094374
O O18 0.000000 0.117715 0.000000
O O19 0.500000 0.699394 0.500000
#
# Coordination Sequence:
#
# PCOD9146431 Si02
#       7
#     4   4   4   4   4   4   4
#     4  10  20  36  56  79 106 138 182 226 268 320
#     4   8  16  32  55  76  98 132 177 224 262 308
#     4  11  21  34  54  81 110 143 178 225 273 315
#     4   9  18  34  56  84 110 136 177 224 265 311
#     4   9  17  32  55  78 103 139 179 217 257 309
#     4  10  20  35  54  77 109 147 182 214 258 323
#     4  10  19  33  55  79 104 139 176 219 268 317
#
# _framework density 17.093527000000002
#
# number of rings (size 3 to 8) (size 9 to 14) (size 15 to 20)
#    0.000    2.429    1.429    3.000    0.000    3.429 
#    2.571    0.000    0.000    0.429    0.000    0.000 
#    0.000    0.000    0.000    0.000    0.000    0.000 
#
# Total GULP energy -155890.691480 kJ/mol
# GULP energy per Si atom -5567.524696 kJ/mol
# Density = 1.705462 g / cm^3
# Si number density = 17.093527 Si / 1000 Ang^3
#
#
#
# Elastic Constant Matrix: (Units=GPa)
#
#
# Indices 1 2 3 4 5 6 
#
# 1 104.7047 62.5456 47.0995 0.0000 -18.0591 0.0000
# 2 62.5456 90.2762 35.0810 0.0000 -1.9815 0.0000
# 3 47.0995 35.0810 82.0068 0.0000 -0.0062 0.0000
# 4 0.0000 0.0000 0.0000 23.6150 0.0000 9.5917
# 5 -18.0591 -1.9815 -0.0062 0.0000 18.6201 0.0000
# 6 0.0000 0.0000 0.0000 9.5917 0.0000 16.1136
#
#
#
# Elastic Compliance Matrix: (Units=1/GPa)
#
#
# Indices 1 2 3 4 5 6 
#
# 1 0.026099 -0.014075 -0.008967 0.000000 0.023812 0.000000
# 2 -0.014075 0.020913 -0.000864 0.000000 -0.011425 0.000000
# 3 -0.008967 -0.000864 0.017713 0.000000 -0.008783 0.000000
# 4 0.000000 0.000000 0.000000 0.055849 0.000000 -0.033244
# 5 0.023812 -0.011425 -0.008783 0.000000 0.075581 0.000000
# 6 0.000000 0.000000 0.000000 -0.033244 0.000000 0.081848
#
#
# Mechanical properties :
#
#
# Convention : Reuss Voigt Hill
#
# Bulk Modulus (GPa) = 59.12011 62.93777 61.02894
# Shear Modulus (GPa) = 15.08516 20.48715 17.78616
#
# Velocity S-wave (km/s) = 2.97393 3.46574 3.22921
# Velocity P-wave (km/s) = 6.81569 7.27425 7.04870
#
# Compressibility (1/GPa) = 0.01691472
#
# Stress axis : x y z
#
# Youngs Moduli (GPa) = 38.31596 47.81654 56.45648
#
# Poissons Ratio (x) = 0.67301 0.50623
# Poissons Ratio (y) = 0.53929 0.04875
# Poissons Ratio (z) = 0.34357 0.04129
#
# Static dielectric constant tensor:
#      x y z
#    x 1.559680 0.000000 0.004170 
#    y 0.000000 1.607880 0.000000 
#    z 0.004170 0.000000 1.634850 
# 
# From -- ./inp_files/29422.got.cif
#   From: 2010.05.17/outbox.cif.g08.bks.cpg/sg10_15_cif.got.tgz:29422.got - 2010.06.03 11:33:40.
