data_PCOD9146061
_publ_section_title
;
Structure prediction by ZEFSAII (Michael W. Deem and Ramdas Pophale) SiO2 
 PCOD9146061
Probable space group: P 2/M
;
_chemical_formula_sum "Si O2"
_cell_formula_units_Z 28
_cell_length_a 12.227575
_cell_length_b 7.695101
_cell_length_c 15.907180
_cell_angle_alpha 90.000000
_cell_angle_beta 124.278982
_cell_angle_gamma 90.000000
_cell_volume 1236.767927
_symmetry_space_group_name_H-M "P 2/M"
_symmetry_group_IT_number 10
_symmetry_cell_setting 'monoclinic'
loop_
_space_group_symop_operation_xyz
x,y,z
-x,y,-z
-x,-y,-z
x,-y,z
loop_
_atom_site_type_symbol
_atom_site_label
_atom_site_fract_x
_atom_site_fract_y
_atom_site_fract_z
Si Si1 0.660181 0.713035 0.726260
Si Si2 0.397069 0.299179 0.689467
Si Si3 0.422329 0.202121 0.885350
Si Si4 0.846270 0.288533 0.148542
Si Si5 0.126039 0.800663 0.506487
Si Si6 0.861697 0.297307 0.676770
Si Si7 0.148396 0.711442 0.039946
O O1 0.652927 0.500000 0.723074
O O2 0.510581 0.772100 0.677140
O O3 0.739327 0.772902 0.678128
O O4 0.748796 0.766118 0.844589
O O5 0.372057 0.500000 0.657941
O O6 0.448785 0.288711 0.807379
O O7 0.257020 0.206807 0.619352
O O8 0.267536 0.220085 0.840208
O O9 0.458234 0.000000 0.892614
O O10 0.500000 0.275341 0.000000
O O11 0.842960 0.500000 0.152024
O O12 0.993557 0.226707 0.236207
O O13 0.817788 0.235325 0.040080
O O14 0.156300 0.716095 0.430153
O O15 0.000000 0.722025 0.500000
O O16 0.092184 0.000000 0.472445
O O17 0.868964 0.500000 0.704057
O O18 0.147319 0.500000 0.039846
O O19 0.000000 0.767299 0.000000
#
# Coordination Sequence:
#
# PCOD9146061 Si02
#       7
#     4   4   4   4   4   4   4
#     4   9  18  33  55  88 124 153 185 234 295 348
#     4  11  23  40  64  90 117 150 193 245 293 344
#     4  11  24  40  57  81 120 163 197 235 287 345
#     4  10  19  32  58  90 117 151 197 247 291 340
#     4  11  25  44  63  83 113 154 196 241 295 352
#     4  10  20  36  60  90 119 148 190 242 294 347
#     4   9  14  26  51  85 122 153 184 228 283 337
#
# _framework density 22.639655000000001
#
# number of rings (size 3 to 8) (size 9 to 14) (size 15 to 20)
#    0.000    1.857    1.429    3.000    0.000    6.857 
#    0.000    4.286    0.000    1.286    0.000    0.000 
#    0.000    0.000    0.000    0.000    0.000    0.000 
#
# Total GULP energy -156524.239597 kJ/mol
# GULP energy per Si atom -5590.151414 kJ/mol
# Density = 2.258813 g / cm^3
# Si number density = 22.639655 Si / 1000 Ang^3
#
#
#
# Elastic Constant Matrix: (Units=GPa)
#
#
# Indices 1 2 3 4 5 6 
#
# 1 159.6459 1.3115 43.2617 0.0000 -1.7938 0.0000
# 2 1.3115 39.2356 -5.3789 0.0000 2.3768 0.0000
# 3 43.2617 -5.3789 87.3638 0.0000 -6.2519 0.0000
# 4 0.0000 0.0000 0.0000 -1.7642 0.0000 7.2485
# 5 -1.7938 2.3768 -6.2519 0.0000 34.5831 0.0000
# 6 0.0000 0.0000 0.0000 7.2485 0.0000 33.0075
#
#
#
# Elastic Compliance Matrix: (Units=1/GPa)
#
#
# Indices 1 2 3 4 5 6 
#
# 1 0.007258 -0.000730 -0.003656 0.000000 -0.000234 0.000000
# 2 -0.000730 0.025854 0.001847 0.000000 -0.001481 0.000000
# 3 -0.003656 0.001847 0.013523 0.000000 0.002128 0.000000
# 4 0.000000 0.000000 0.000000 -0.297975 0.000000 0.065436
# 5 -0.000234 -0.001481 0.002128 0.000000 0.029390 0.000000
# 6 0.000000 0.000000 0.000000 0.065436 0.000000 0.015926
#
#
# Mechanical properties :
#
#
# Convention : Reuss Voigt Hill
#
# Bulk Modulus (GPa) = 24.06238 40.51489 32.28863
# Shear Modulus (GPa) = -26.72452 29.63535 1.45541
#
# Velocity S-wave (km/s) = -3.43947 3.62194 0.80266
# Velocity P-wave (km/s) = 2.26312 5.95194 3.89255
#
# Compressibility (1/GPa) = 0.04155865
#
# Stress axis : x y z
#
# Youngs Moduli (GPa) = 137.78153 38.67813 73.94991
#
# Poissons Ratio (x) = 0.02822 0.27034
# Poissons Ratio (y) = 0.10052 -0.13660
# Poissons Ratio (z) = 0.50369 -0.07144
#
# Static dielectric constant tensor:
#      x y z
#    x 1.842880 0.000000 0.010450 
#    y 0.000000 1.842880 0.000000 
#    z 0.010450 0.000000 1.804260 
# 
# From -- ./inp_files/63906.got.cif
#   From: 2010.05.17/outbox.cif.g08.bks.cpg/sg10_32_cif.got.tgz:63906.got - 2010.06.03 11:33:40.
