data_PCOD9146831
_publ_section_title
;
Structure prediction by ZEFSAII (Michael W. Deem and Ramdas Pophale) SiO2 
 PCOD9146831
Probable space group: P 2/M
;
_chemical_formula_sum "Si O2"
_cell_formula_units_Z 20
_cell_length_a 8.087201
_cell_length_b 12.557358
_cell_length_c 12.617566
_cell_angle_alpha 90.000000
_cell_angle_beta 129.750439
_cell_angle_gamma 90.000000
_cell_volume 985.159014
_symmetry_space_group_name_H-M "P 2/M"
_symmetry_group_IT_number 10
_symmetry_cell_setting 'monoclinic'
loop_
_space_group_symop_operation_xyz
x,y,z
-x,y,-z
-x,-y,-z
x,-y,z
loop_
_atom_site_type_symbol
_atom_site_label
_atom_site_fract_x
_atom_site_fract_y
_atom_site_fract_z
Si Si1 0.728308 0.312088 0.796489
Si Si2 0.740276 0.874555 0.647253
Si Si3 0.720238 0.381391 0.423750
Si Si4 0.206187 0.377658 0.947585
Si Si5 0.074212 0.279579 0.686348
O O1 0.751521 0.193513 0.760081
O O2 0.527451 0.363938 0.654903
O O3 0.949458 0.372258 0.863631
O O4 0.692700 0.322969 0.907572
O O5 0.500000 0.857460 0.500000
O O6 0.934934 0.825565 0.655792
O O7 0.768358 0.000000 0.673282
O O8 0.748672 0.500000 0.390651
O O9 0.880556 0.364429 0.586866
O O10 0.790470 0.292556 0.365908
O O11 0.275724 0.500000 0.968725
O O12 0.223502 0.314358 0.844986
#
# Coordination Sequence:
#
# PCOD9146831 Si02
#       5
#     4   4   4   4   4
#     4  10  20  34  54  82 107 142 183 224 268 323
#     4  10  20  39  60  79 102 139 188 240 277 308
#     4  11  20  34  54  81 118 147 178 217 268 331
#     4  10  19  34  53  80 116 147 181 220 267 326
#     4  10  21  35  52  81 111 146 182 220 267 325
#
# _framework density 20.301292
#
# number of rings (size 3 to 8) (size 9 to 14) (size 15 to 20)
#    0.000    1.800    2.000    4.800    0.000    0.800 
#    0.000   16.000    0.000    0.000    0.000   14.000 
#    0.000    0.000    0.000    0.000    0.000    0.000 
#
# Total GULP energy -111533.475009 kJ/mol
# GULP energy per Si atom -5576.673750 kJ/mol
# Density = 2.025509 g / cm^3
# Si number density = 20.301292 Si / 1000 Ang^3
#
#
#
# Elastic Constant Matrix: (Units=GPa)
#
#
# Indices 1 2 3 4 5 6 
#
# 1 56.1693 24.6037 9.9289 0.0000 3.7007 0.0000
# 2 24.6037 142.9844 27.5364 0.0000 -6.3412 0.0000
# 3 9.9289 27.5364 66.7268 0.0000 -9.9488 0.0000
# 4 0.0000 0.0000 0.0000 22.0213 0.0000 1.0835
# 5 3.7007 -6.3412 -9.9488 0.0000 34.1741 0.0000
# 6 0.0000 0.0000 0.0000 1.0835 0.0000 9.8915
#
#
#
# Elastic Compliance Matrix: (Units=1/GPa)
#
#
# Indices 1 2 3 4 5 6 
#
# 1 0.019778 -0.003138 -0.002147 0.000000 -0.003349 0.000000
# 2 -0.003138 0.008104 -0.002721 0.000000 0.001052 0.000000
# 3 -0.002147 -0.002721 0.017132 0.000000 0.004715 0.000000
# 4 0.000000 0.000000 0.000000 0.045657 0.000000 -0.005001
# 5 -0.003349 0.001052 0.004715 0.000000 0.031192 0.000000
# 6 0.000000 0.000000 0.000000 -0.005001 0.000000 0.101645
#
#
# Mechanical properties :
#
#
# Convention : Reuss Voigt Hill
#
# Bulk Modulus (GPa) = 34.48054 43.33539 38.90796
# Shear Modulus (GPa) = 20.06517 26.80480 23.43499
#
# Velocity S-wave (km/s) = 3.14724 3.63760 3.40127
# Velocity P-wave (km/s) = 5.49801 6.24783 5.88487
#
# Compressibility (1/GPa) = 0.02900187
#
# Stress axis : x y z
#
# Youngs Moduli (GPa) = 50.56067 123.39001 58.37107
#
# Poissons Ratio (x) = 0.38723 0.12534
# Poissons Ratio (y) = 0.15867 0.15881
# Poissons Ratio (z) = 0.10857 0.33571
#
# Static dielectric constant tensor:
#      x y z
#    x 1.817860 0.000000 -0.022010 
#    y 0.000000 1.669280 0.000000 
#    z -0.022010 0.000000 1.759480 
# 
# From -- ./inp_files/60828.got.cif
#   From: 2010.05.17/outbox.cif.g08.bks.cpg/sg10_31_cif.got.tgz:60828.got - 2010.06.03 11:33:40.
