data_PCOD9146519
_publ_section_title
;
Structure prediction by ZEFSAII (Michael W. Deem and Ramdas Pophale) SiO2 
 PCOD9146519
Probable space group: P 2/M
;
_chemical_formula_sum "Si O2"
_cell_formula_units_Z 28
_cell_length_a 12.183778
_cell_length_b 19.147648
_cell_length_c 6.325879
_cell_angle_alpha 90.000000
_cell_angle_beta 57.743290
_cell_angle_gamma 90.000000
_cell_volume 1248.006409
_symmetry_space_group_name_H-M "P 2/M"
_symmetry_group_IT_number 10
_symmetry_cell_setting 'monoclinic'
loop_
_space_group_symop_operation_xyz
x,y,z
-x,y,-z
-x,-y,-z
x,-y,z
loop_
_atom_site_type_symbol
_atom_site_label
_atom_site_fract_x
_atom_site_fract_y
_atom_site_fract_z
Si Si1 0.111885 0.418641 0.062885
Si Si2 0.360647 0.076467 0.752253
Si Si3 0.885281 0.926879 0.291824
Si Si4 0.791547 0.328922 0.648215
Si Si5 0.644176 0.354303 0.417728
Si Si6 0.738056 0.774595 0.066615
Si Si7 0.034950 0.775260 0.706902
O O1 0.097833 0.500000 0.127970
O O2 0.248155 0.400195 0.812154
O O3 0.128286 0.376243 0.267956
O O4 0.000000 0.403535 0.000000
O O5 0.500000 0.083547 0.500000
O O6 0.251508 0.072345 0.684058
O O7 0.320099 0.148391 0.906507
O O8 0.356907 0.000000 0.869162
O O9 0.899413 0.850988 0.373764
O O10 0.896617 0.000000 0.406324
O O11 0.000000 0.928991 0.000000
O O12 0.675818 0.362780 0.633268
O O13 0.875492 0.292957 0.373357
O O14 0.733553 0.267956 0.854390
O O15 0.500000 0.374347 0.500000
O O16 0.664889 0.273646 0.312525
O O17 0.893996 0.779171 0.968385
O O18 0.000000 0.763918 0.500000
#
# Coordination Sequence:
#
# PCOD9146519 Si02
#       7
#     4   4   4   4   4   4   4
#     4  10  25  47  73 104 134 171 216 263 319 385
#     4  10  20  35  57  86 122 169 220 270 328 386
#     4  10  19  33  55  82 116 161 212 266 320 380
#     4  10  24  41  68  99 136 169 217 272 328 388
#     4  11  25  42  68 100 135 176 217 266 322 390
#     4  10  21  37  60  93 129 168 220 273 328 388
#     4  10  21  35  57  94 121 167 210 273 331 379
#
# _framework density 22.435782
#
# number of rings (size 3 to 8) (size 9 to 14) (size 15 to 20)
#    0.000    1.857    1.429    1.286    8.000    3.429 
#    0.000    5.714    0.000    0.857    0.000   23.000 
#    0.000    0.000    0.000    0.000    0.000    0.000 
#
# Total GULP energy -156011.861556 kJ/mol
# GULP energy per Si atom -5571.852198 kJ/mol
# Density = 2.238472 g / cm^3
# Si number density = 22.435782 Si / 1000 Ang^3
#
#
#
# Elastic Constant Matrix: (Units=GPa)
#
#
# Indices 1 2 3 4 5 6 
#
# 1 160.0030 33.4910 51.0808 0.0000 -20.5996 0.0000
# 2 33.4910 143.5480 55.7954 0.0000 9.1994 0.0000
# 3 51.0808 55.7954 62.0609 0.0000 2.7388 0.0000
# 4 0.0000 0.0000 0.0000 12.7068 0.0000 1.8317
# 5 -20.5996 9.1994 2.7388 0.0000 28.4587 0.0000
# 6 0.0000 0.0000 0.0000 1.8317 0.0000 24.6856
#
#
#
# Elastic Compliance Matrix: (Units=1/GPa)
#
#
# Indices 1 2 3 4 5 6 
#
# 1 0.010102 0.000770 -0.009358 0.000000 0.007964 0.000000
# 2 0.000770 0.010954 -0.010395 0.000000 -0.001983 0.000000
# 3 -0.009358 -0.010395 0.033454 0.000000 -0.006633 0.000000
# 4 0.000000 0.000000 0.000000 0.079549 0.000000 -0.005903
# 5 0.007964 -0.001983 -0.006633 0.000000 0.042182 0.000000
# 6 0.000000 0.000000 0.000000 -0.005903 0.000000 0.040947
#
#
# Mechanical properties :
#
#
# Convention : Reuss Voigt Hill
#
# Bulk Modulus (GPa) = 60.44474 71.81625 66.13049
# Shear Modulus (GPa) = 19.18149 28.18653 23.68401
#
# Velocity S-wave (km/s) = 2.92713 3.54831 3.25258
# Velocity P-wave (km/s) = 6.19869 6.99046 6.60645
#
# Compressibility (1/GPa) = 0.01654404
#
# Stress axis : x y z
#
# Youngs Moduli (GPa) = 98.99461 91.29165 29.89202
#
# Poissons Ratio (x) = -0.07033 0.27974
# Poissons Ratio (y) = -0.07626 0.31071
# Poissons Ratio (z) = 0.92643 0.94894
#
# Static dielectric constant tensor:
#      x y z
#    x 1.902470 0.000000 -0.014110 
#    y 0.000000 1.915880 0.000000 
#    z -0.014110 0.000000 1.912170 
# 
# From -- ./inp_files/7698.got.cif
#   From: 2010.05.17/outbox.cif.g08.bks.cpg/sg10_4_cif.got.tgz:7698.got - 2010.06.03 11:33:40.
