data_PCOD9146323
_publ_section_title
;
Structure prediction by ZEFSAII (Michael W. Deem and Ramdas Pophale) SiO2 
 PCOD9146323
Probable space group: P 2/M
;
_chemical_formula_sum "Si O2"
_cell_formula_units_Z 32
_cell_length_a 10.846177
_cell_length_b 19.838564
_cell_length_c 7.322119
_cell_angle_alpha 90.000000
_cell_angle_beta 61.937815
_cell_angle_gamma 90.000000
_cell_volume 1390.297297
_symmetry_space_group_name_H-M "P 2/M"
_symmetry_group_IT_number 10
_symmetry_cell_setting 'monoclinic'
loop_
_space_group_symop_operation_xyz
x,y,z
-x,y,-z
-x,-y,-z
x,-y,z
loop_
_atom_site_type_symbol
_atom_site_label
_atom_site_fract_x
_atom_site_fract_y
_atom_site_fract_z
Si Si1 0.702972 0.797386 0.010776
Si Si2 0.074911 0.576426 0.752492
Si Si3 0.570456 0.574335 0.151936
Si Si4 0.323582 0.341113 0.458773
Si Si5 0.390784 0.803009 0.353209
Si Si6 0.198289 0.075862 0.532988
Si Si7 0.182951 0.656201 0.158096
Si Si8 0.115785 0.076511 0.157669
O O1 0.658879 0.799588 0.825580
O O2 0.789398 0.727474 0.961223
O O3 0.795765 0.862875 0.987927
O O4 0.558005 0.800267 0.221901
O O5 0.080159 0.500000 0.672009
O O6 0.227662 0.609459 0.642735
O O7 0.973677 0.629770 0.723876
O O8 0.000000 0.572108 0.000000
O O9 0.566588 0.500000 0.236807
O O10 0.476850 0.628183 0.322126
O O11 0.500000 0.570637 0.000000
O O12 0.724870 0.599731 0.006405
O O13 0.335648 0.262865 0.497017
O O14 0.249267 0.340497 0.312254
O O15 0.318124 0.869689 0.480375
O O16 0.158437 0.076469 0.343868
O O17 0.050296 0.089649 0.734400
O O18 0.243325 0.000000 0.546431
O O19 0.142887 0.000000 0.071703
#
# Coordination Sequence:
#
# PCOD9146323 Si02
#       8
#     4   4   4   4   4   4   4   4
#     4   9  16  26  42  68  99 128 163 207 251 294
#     4  11  25  41  53  71 102 135 168 208 253 305
#     4   9  16  28  49  75 100 124 156 203 253 299
#     4  10  19  33  54  79 102 128 166 211 255 301
#     4   9  16  26  42  68  99 128 163 207 251 294
#     4   8  14  23  35  56  92 137 174 199 233 288
#     4  10  19  33  54  79 102 128 166 211 255 301
#     4   8  14  23  35  56  92 137 174 199 233 288
#
# _framework density 23.016660999999999
#
# number of rings (size 3 to 8) (size 9 to 14) (size 15 to 20)
#    0.000    2.750    1.250    1.875    1.750    2.500 
#    0.000    3.125    0.000    2.250    0.000    0.000 
#    0.000    2.000    0.000    2.250    0.000    2.500 
#
# Total GULP energy -178857.551517 kJ/mol
# GULP energy per Si atom -5589.298485 kJ/mol
# Density = 2.296427 g / cm^3
# Si number density = 23.016661 Si / 1000 Ang^3
#
#
#
# Elastic Constant Matrix: (Units=GPa)
#
#
# Indices 1 2 3 4 5 6 
#
# 1 41.0046 28.7179 23.2895 0.0000 -0.2205 0.0000
# 2 28.7179 183.3642 51.5103 0.0000 -29.4462 0.0000
# 3 23.2895 51.5103 72.1250 0.0000 -19.6395 0.0000
# 4 0.0000 0.0000 0.0000 27.4892 0.0000 -22.4299
# 5 -0.2205 -29.4462 -19.6395 0.0000 41.6407 0.0000
# 6 0.0000 0.0000 0.0000 -22.4299 0.0000 6.1544
#
#
#
# Elastic Compliance Matrix: (Units=1/GPa)
#
#
# Indices 1 2 3 4 5 6 
#
# 1 0.032350 -0.003393 -0.009901 0.000000 -0.006898 0.000000
# 2 -0.003393 0.007497 -0.003236 0.000000 0.003758 0.000000
# 3 -0.009901 -0.003236 0.021496 0.000000 0.007798 0.000000
# 4 0.000000 0.000000 0.000000 -0.018431 0.000000 -0.067171
# 5 -0.006898 0.003758 0.007798 0.000000 0.030314 0.000000
# 6 0.000000 0.000000 0.000000 -0.067171 0.000000 -0.082322
#
#
# Mechanical properties :
#
#
# Convention : Reuss Voigt Hill
#
# Bulk Modulus (GPa) = 35.35523 55.94767 45.65145
# Shear Modulus (GPa) = 149.73664 27.92194 88.82929
#
# Velocity S-wave (km/s) = 8.07447 3.48676 6.21910
# Velocity P-wave (km/s) = 10.11550 6.36948 8.45262
#
# Compressibility (1/GPa) = 0.02828436
#
# Stress axis : x y z
#
# Youngs Moduli (GPa) = 30.91171 133.37915 46.51985
#
# Poissons Ratio (x) = 0.45254 0.46060
# Poissons Ratio (y) = 0.10488 0.15053
# Poissons Ratio (z) = 0.30606 0.43158
#
# Static dielectric constant tensor:
#      x y z
#    x 1.878810 0.000000 0.085500 
#    y 0.000000 1.817200 0.000000 
#    z 0.085500 0.000000 1.867050 
# 
# From -- ./inp_files/26054.got.cif
#   From: 2010.05.17/outbox.cif.g08.bks.cpg/sg10_14_cif.got.tgz:26054.got - 2010.06.03 11:33:40.
