data_PCOD9146686
_publ_section_title
;
Structure prediction by ZEFSAII (Michael W. Deem and Ramdas Pophale) SiO2 
 PCOD9146686
Probable space group: P 2/M
;
_chemical_formula_sum "Si O2"
_cell_formula_units_Z 32
_cell_length_a 12.994628
_cell_length_b 8.796953
_cell_length_c 32.400968
_cell_angle_alpha 90.000000
_cell_angle_beta 26.979316
_cell_angle_gamma 90.000000
_cell_volume 1680.324013
_symmetry_space_group_name_H-M "P 2/M"
_symmetry_group_IT_number 10
_symmetry_cell_setting 'monoclinic'
loop_
_space_group_symop_operation_xyz
x,y,z
-x,y,-z
-x,-y,-z
x,-y,z
loop_
_atom_site_type_symbol
_atom_site_label
_atom_site_fract_x
_atom_site_fract_y
_atom_site_fract_z
Si Si1 0.059674 0.681418 0.067977
Si Si2 0.073378 0.682491 0.154737
Si Si3 0.250778 0.680039 0.397362
Si Si4 0.675683 0.820370 0.402579
Si Si5 0.580010 0.182032 0.215322
Si Si6 0.567560 0.181773 0.123761
Si Si7 0.418230 0.823529 0.657313
Si Si8 0.830670 0.681249 0.788587
O O1 0.055576 0.500000 0.064863
O O2 0.804493 0.744216 0.155173
O O3 0.161879 0.715603 0.077101
O O4 0.212556 0.753802 0.977956
O O5 0.031293 0.500000 0.171292
O O6 0.206090 0.720006 0.149507
O O7 0.837371 0.771470 0.242365
O O8 0.247261 0.500000 0.390705
O O9 0.361041 0.763462 0.318867
O O10 0.414427 0.719112 0.376901
O O11 0.000000 0.730592 0.500000
O O12 0.500000 0.766769 0.500000
O O13 0.555634 0.808253 0.401061
O O14 0.914637 0.733597 0.314227
O O15 0.724538 0.000000 0.392264
O O16 0.564755 0.227739 0.172780
O O17 0.600170 0.000000 0.210492
O O18 0.350495 0.241105 0.176307
O O19 0.573003 0.000000 0.120399
O O20 0.449675 0.000000 0.657840
O O21 0.811022 0.500000 0.791655
#
# Coordination Sequence:
#
# PCOD9146686 Si02
#       8
#     4   4   4   4   4   4   4   4
#     4  11  22  38  64  92 119 156 200 245 300 360
#     4   9  19  36  59  86 117 152 190 242 294 343
#     4  11  24  40  59  86 119 154 194 245 302 356
#     4   9  19  36  58  85 117 154 196 241 293 353
#     4  11  24  42  63  87 118 157 202 250 299 354
#     4  11  25  42  59  85 124 162 199 249 301 353
#     4  10  19  33  57  84 112 150 193 239 291 349
#     4  10  21  38  59  85 119 156 199 246 298 354
#
# _framework density 19.043945000000001
#
# number of rings (size 3 to 8) (size 9 to 14) (size 15 to 20)
#    0.000    1.750    1.250    2.625    0.000    7.750 
#    0.000    6.250    0.000    0.000    0.000    0.000 
#    0.000    0.000    0.000    0.000    0.000    0.000 
#
# Total GULP energy -178709.035236 kJ/mol
# GULP energy per Si atom -5584.657351 kJ/mol
# Density = 1.900060 g / cm^3
# Si number density = 19.043945 Si / 1000 Ang^3
#
#
#
# Elastic Constant Matrix: (Units=GPa)
#
#
# Indices 1 2 3 4 5 6 
#
# 1 99.3228 28.2137 43.5602 0.0000 19.2335 0.0000
# 2 28.2137 33.6964 23.5140 0.0000 10.6751 0.0000
# 3 43.5602 23.5140 98.0378 0.0000 24.1827 0.0000
# 4 0.0000 0.0000 0.0000 29.8365 0.0000 1.4624
# 5 19.2335 10.6751 24.1827 0.0000 27.6905 0.0000
# 6 0.0000 0.0000 0.0000 1.4624 0.0000 30.5866
#
#
#
# Elastic Compliance Matrix: (Units=1/GPa)
#
#
# Indices 1 2 3 4 5 6 
#
# 1 0.014854 -0.008738 -0.003556 0.000000 -0.003843 0.000000
# 2 -0.008738 0.042228 -0.004751 0.000000 -0.006061 0.000000
# 3 -0.003556 -0.004751 0.015115 0.000000 -0.008898 0.000000
# 4 0.000000 0.000000 0.000000 0.033595 0.000000 -0.001606
# 5 -0.003843 -0.006061 -0.008898 0.000000 0.048891 0.000000
# 6 0.000000 0.000000 0.000000 -0.001606 0.000000 0.032771
#
#
# Mechanical properties :
#
#
# Convention : Reuss Voigt Hill
#
# Bulk Modulus (GPa) = 26.24174 46.84808 36.54491
# Shear Modulus (GPa) = 21.34507 26.67400 24.00953
#
# Velocity S-wave (km/s) = 3.35152 3.74659 3.55455
# Velocity P-wave (km/s) = 5.36529 6.58554 6.00648
#
# Compressibility (1/GPa) = 0.03810722
#
# Stress axis : x y z
#
# Youngs Moduli (GPa) = 67.32091 23.68071 66.16118
#
# Poissons Ratio (x) = 0.20693 0.23528
# Poissons Ratio (y) = 0.58826 0.31431
# Poissons Ratio (z) = 0.23941 0.11250
#
# Static dielectric constant tensor:
#      x y z
#    x 1.666710 0.000000 0.021560 
#    y 0.000000 1.638840 0.000000 
#    z 0.021560 0.000000 1.649350 
# 
# From -- ./inp_files/94978.got.cif
#   From: 2010.05.17/outbox.cif.g08.bks.cpg/sg10_48_cif.got.tgz:94978.got - 2010.06.03 11:33:40.
