data_PCOD9146013
_publ_section_title
;
Structure prediction by ZEFSAII (Michael W. Deem and Ramdas Pophale) SiO2 
 PCOD9146013
Probable space group: P 2/M
;
_chemical_formula_sum "Si O2"
_cell_formula_units_Z 28
_cell_length_a 31.909306
_cell_length_b 8.729337
_cell_length_c 10.531992
_cell_angle_alpha 90.000000
_cell_angle_beta 147.503868
_cell_angle_gamma 90.000000
_cell_volume 1576.085009
_symmetry_space_group_name_H-M "P 2/M"
_symmetry_group_IT_number 10
_symmetry_cell_setting 'monoclinic'
loop_
_space_group_symop_operation_xyz
x,y,z
-x,y,-z
-x,-y,-z
x,-y,z
loop_
_atom_site_type_symbol
_atom_site_label
_atom_site_fract_x
_atom_site_fract_y
_atom_site_fract_z
Si Si1 0.741542 0.315275 0.119626
Si Si2 0.327217 0.683532 0.325624
Si Si3 0.236296 0.815485 0.331307
Si Si4 0.491590 0.815116 0.830303
Si Si5 0.074964 0.183823 0.040010
Si Si6 0.088609 0.316040 0.358172
Si Si7 0.340342 0.815250 0.841223
O O1 0.738558 0.500000 0.115870
O O2 0.832249 0.271092 0.368069
O O3 0.694055 0.252386 0.118134
O O4 0.705330 0.263695 0.893838
O O5 0.328514 0.500000 0.329757
O O6 0.271981 0.741618 0.297556
O O7 0.413798 0.745215 0.573238
O O8 0.287502 0.769733 0.585244
O O9 0.242331 0.000000 0.335759
O O10 0.146622 0.775703 0.131544
O O11 0.485386 0.000000 0.810818
O O12 0.500000 0.771342 0.000000
O O13 0.570560 0.769878 0.959471
O O14 0.990820 0.248831 0.786653
O O15 0.071179 0.000000 0.040970
O O16 0.092716 0.251744 0.225022
O O17 0.083185 0.500000 0.339154
O O18 0.337435 0.000000 0.841108
#
# Coordination Sequence:
#
# PCOD9146013 Si02
#       7
#     4   4   4   4   4   4   4
#     4  10  23  40  55  80 118 153 185 227 276 331
#     4  11  24  39  57  82 114 151 188 227 279 333
#     4  10  20  37  58  84 113 145 186 233 279 328
#     4  10  20  38  60  83 113 144 183 234 280 328
#     4  10  19  32  55  85 113 139 181 235 279 321
#     4  10  19  33  54  80 113 149 184 223 274 329
#     4  10  20  36  61  85 108 145 189 230 277 330
#
# _framework density 17.765540999999999
#
# number of rings (size 3 to 8) (size 9 to 14) (size 15 to 20)
#    0.000    1.857    2.857    2.143    0.000    4.857 
#    0.000    3.571    0.000    4.286    0.000    0.000 
#    0.000    0.000    0.000    0.000    0.000    0.000 
#
# Total GULP energy -156339.794845 kJ/mol
# GULP energy per Si atom -5583.564102 kJ/mol
# Density = 1.772511 g / cm^3
# Si number density = 17.765541 Si / 1000 Ang^3
#
#
#
# Elastic Constant Matrix: (Units=GPa)
#
#
# Indices 1 2 3 4 5 6 
#
# 1 154.3824 39.2930 110.5823 0.0000 14.6213 0.0000
# 2 39.2930 30.0508 43.8413 0.0000 7.7814 0.0000
# 3 110.5823 43.8413 173.0140 0.0000 12.3587 0.0000
# 4 0.0000 0.0000 0.0000 29.0556 0.0000 12.2887
# 5 14.6213 7.7814 12.3587 0.0000 36.4051 0.0000
# 6 0.0000 0.0000 0.0000 12.2887 0.0000 31.5726
#
#
#
# Elastic Compliance Matrix: (Units=1/GPa)
#
#
# Indices 1 2 3 4 5 6 
#
# 1 0.013065 -0.007406 -0.006367 0.000000 -0.001503 0.000000
# 2 -0.007406 0.058745 -0.009703 0.000000 -0.006288 0.000000
# 3 -0.006367 -0.009703 0.012275 0.000000 0.000464 0.000000
# 4 0.000000 0.000000 0.000000 0.041199 0.000000 -0.016035
# 5 -0.001503 -0.006288 0.000464 0.000000 0.029259 0.000000
# 6 0.000000 0.000000 0.000000 -0.016035 0.000000 0.037914
#
#
# Mechanical properties :
#
#
# Convention : Reuss Voigt Hill
#
# Bulk Modulus (GPa) = 26.92997 82.76451 54.84724
# Shear Modulus (GPa) = 19.85823 30.32204 25.09013
#
# Velocity S-wave (km/s) = 3.34697 4.13581 3.76212
# Velocity P-wave (km/s) = 5.48887 8.33636 7.05771
#
# Compressibility (1/GPa) = 0.03713335
#
# Stress axis : x y z
#
# Youngs Moduli (GPa) = 76.54085 17.02283 81.46857
#
# Poissons Ratio (x) = 0.12607 0.51867
# Poissons Ratio (y) = 0.56684 0.79050
# Poissons Ratio (z) = 0.48730 0.16518
#
# Static dielectric constant tensor:
#      x y z
#    x 1.581520 0.000000 0.017520 
#    y 0.000000 1.601380 0.000000 
#    z 0.017520 0.000000 1.601700 
# 
# From -- ./inp_files/37350.got.cif
#   From: 2010.05.17/outbox.cif.g08.bks.cpg/sg10_19_cif.got.tgz:37350.got - 2010.06.03 11:33:40.
