data_PCOD9146792
_publ_section_title
;
Structure prediction by ZEFSAII (Michael W. Deem and Ramdas Pophale) SiO2 
 PCOD9146792
Probable space group: P 2/M
;
_chemical_formula_sum "Si O2"
_cell_formula_units_Z 32
_cell_length_a 26.760304
_cell_length_b 7.490943
_cell_length_c 20.844333
_cell_angle_alpha 90.000000
_cell_angle_beta 158.466170
_cell_angle_gamma 90.000000
_cell_volume 1533.703417
_symmetry_space_group_name_H-M "P 2/M"
_symmetry_group_IT_number 10
_symmetry_cell_setting 'monoclinic'
loop_
_space_group_symop_operation_xyz
x,y,z
-x,y,-z
-x,-y,-z
x,-y,z
loop_
_atom_site_type_symbol
_atom_site_label
_atom_site_fract_x
_atom_site_fract_y
_atom_site_fract_z
Si Si1 0.090156 0.210769 0.370830
Si Si2 0.152408 0.288000 0.188251
Si Si3 0.912262 0.217906 0.490034
Si Si4 0.227632 0.286173 0.027600
Si Si5 0.578476 0.790561 0.860352
Si Si6 0.795483 0.218005 0.217935
Si Si7 0.273690 0.783907 0.472718
Si Si8 0.654811 0.718545 0.695397
O O1 0.123018 0.282605 0.481090
O O2 0.176765 0.282163 0.414575
O O3 0.928796 0.231171 0.167605
O O4 0.119714 0.000000 0.408445
O O5 0.143179 0.500000 0.165694
O O6 0.213753 0.263863 0.331953
O O7 0.251661 0.218517 0.251450
O O8 0.000000 0.214197 0.000000
O O9 0.816269 0.273362 0.316439
O O10 0.066624 0.269884 0.655264
O O11 0.911630 0.000000 0.490236
O O12 0.231142 0.500000 0.031319
O O13 0.323485 0.224316 0.084135
O O14 0.285936 0.223776 0.165465
O O15 0.428437 0.717660 0.666923
O O16 0.558599 0.000000 0.850042
O O17 0.663779 0.716740 0.022447
O O18 0.793508 0.000000 0.214925
O O19 0.275068 0.000000 0.475878
O O20 0.500000 0.775340 0.500000
O O21 0.654786 0.500000 0.695604
#
# Coordination Sequence:
#
# PCOD9146792 Si02
#       8
#     4   4   4   4   4   4   4   4
#     4  10  19  34  52  74 105 138 168 207 255 302
#     4  10  20  36  56  73  94 132 176 214 254 299
#     4   8  13  24  47  75  98 129 172 211 248 291
#     4  11  21  33  54  80 100 126 171 218 258 304
#     4  10  19  34  52  75 108 141 169 206 257 309
#     4   8  13  24  47  75  99 129 171 211 247 294
#     4  10  22  35  51  77 109 140 169 205 258 315
#     4   9  18  32  49  70  95 122 158 207 254 294
#
# _framework density 20.864529999999998
#
# number of rings (size 3 to 8) (size 9 to 14) (size 15 to 20)
#    0.000    2.500    1.250    2.625    0.000    3.250 
#    0.000    1.875    0.000    8.625    0.000    0.000 
#    0.000    3.000    0.000    0.000    0.000    0.000 
#
# Total GULP energy -178682.994123 kJ/mol
# GULP energy per Si atom -5583.843566 kJ/mol
# Density = 2.081704 g / cm^3
# Si number density = 20.864530 Si / 1000 Ang^3
#
#
#
# Elastic Constant Matrix: (Units=GPa)
#
#
# Indices 1 2 3 4 5 6 
#
# 1 15.1890 -15.7446 147.1599 0.0000 -25.8234 0.0000
# 2 -15.7446 53.2428 -10.5752 0.0000 1.7276 0.0000
# 3 147.1599 -10.5752 171.7657 0.0000 -6.1063 0.0000
# 4 0.0000 0.0000 0.0000 -48.7778 0.0000 -80.7404
# 5 -25.8234 1.7276 -6.1063 0.0000 40.1077 0.0000
# 6 0.0000 0.0000 0.0000 -80.7404 0.0000 -52.1819
#
#
#
# Elastic Compliance Matrix: (Units=1/GPa)
#
#
# Indices 1 2 3 4 5 6 
#
# 1 -0.008183 -0.000932 0.006804 0.000000 -0.004193 0.000000
# 2 -0.000932 0.018925 0.001924 0.000000 -0.001122 0.000000
# 3 0.006804 0.001924 0.000265 0.000000 0.004339 0.000000
# 4 0.000000 0.000000 0.000000 0.013132 0.000000 -0.020319
# 5 -0.004193 -0.001122 0.004339 0.000000 0.022942 0.000000
# 6 0.000000 0.000000 0.000000 -0.020319 0.000000 0.012275
#
#
# Mechanical properties :
#
#
# Convention : Reuss Voigt Hill
#
# Bulk Modulus (GPa) = 37.59576 53.54198 45.56887
# Shear Modulus (GPa) = 95.00357 -4.21324 45.39517
#
# Velocity S-wave (km/s) = 6.75517 -1.42257 4.66951
# Velocity P-wave (km/s) = 8.88264 4.79783 7.13864
#
# Compressibility (1/GPa) = 0.02659874
#
# Stress axis : x y z
#
# Youngs Moduli (GPa) = -122.20176 52.84086 3775.75371
#
# Poissons Ratio (x) = 0.04926 -25.69205
# Poissons Ratio (y) = -0.11393 -7.26457
# Poissons Ratio (z) = 0.83152 -0.10167
#
# Static dielectric constant tensor:
#      x y z
#    x 1.732280 0.000000 0.000820 
#    y 0.000000 1.816970 0.000000 
#    z 0.000820 0.000000 1.732260 
# 
# From -- ./inp_files/87004.got.cif
#   From: 2010.05.17/outbox.cif.g08.bks.cpg/sg10_44_cif.got.tgz:87004.got - 2010.06.03 11:33:40.
