data_PCOD9146359
_publ_section_title
;
Structure prediction by ZEFSAII (Michael W. Deem and Ramdas Pophale) SiO2 
 PCOD9146359
Probable space group: P 2/M
;
_chemical_formula_sum "Si O2"
_cell_formula_units_Z 26
_cell_length_a 10.045537
_cell_length_b 13.485873
_cell_length_c 10.037876
_cell_angle_alpha 90.000000
_cell_angle_beta 115.560294
_cell_angle_gamma 90.000000
_cell_volume 1226.772452
_symmetry_space_group_name_H-M "P 2/M"
_symmetry_group_IT_number 10
_symmetry_cell_setting 'monoclinic'
loop_
_space_group_symop_operation_xyz
x,y,z
-x,y,-z
-x,-y,-z
x,-y,z
loop_
_atom_site_type_symbol
_atom_site_label
_atom_site_fract_x
_atom_site_fract_y
_atom_site_fract_z
Si Si1 0.565144 0.209196 0.316853
Si Si2 0.139001 0.389387 0.137837
Si Si3 0.719252 0.384831 0.522887
Si Si4 0.513257 0.000000 0.770872
Si Si5 0.829455 0.201613 0.239955
Si Si6 0.258909 0.000000 0.896353
Si Si7 0.000000 0.321883 0.500000
Si Si8 0.627543 0.334022 0.967084
O O1 0.598955 0.303429 0.425444
O O2 0.501002 0.100682 0.321387
O O3 0.724902 0.185918 0.322997
O O4 0.459384 0.250492 0.154517
O O5 0.085076 0.500000 0.151644
O O6 0.210492 0.351870 0.305470
O O7 0.273830 0.393716 0.092889
O O8 0.000000 0.340271 0.000000
O O9 0.667669 0.500000 0.509962
O O10 0.852587 0.382112 0.471588
O O11 0.385305 0.000000 0.833103
O O12 0.659204 0.000000 0.926325
O O13 0.972642 0.252021 0.360934
O O14 0.836124 0.098693 0.166202
O O15 0.742436 0.280388 0.113281
O O16 0.500000 0.384655 0.000000
#
# Coordination Sequence:
#
# PCOD9146359 Si02
#       8
#     4   4   4   2   4   2   2   4
#     4   9  18  31  54  84 112 145 187 236 289 342
#     4  10  22  39  58  79 109 154 200 237 286 351
#     4  10  21  37  56  80 113 154 195 238 291 345
#     4   9  14  28  52  82 112 148 182 229 294 347
#     4   9  17  29  49  82 113 146 188 236 286 340
#     4   9  14  25  50  79 112 148 183 236 288 341
#     4  10  19  33  54  80 114 153 194 242 283 342
#     4  10  19  34  56  84 114 143 189 242 293 342
#
# _framework density 21.193822999999998
#
# number of rings (size 3 to 8) (size 9 to 14) (size 15 to 20)
#    0.000    2.462    1.538    1.154    0.000    1.846 
#    0.000   10.000    0.000    2.769    0.000    3.769 
#    0.000    0.000    0.000    0.000    0.000    0.000 
#
# Total GULP energy -144782.446128 kJ/mol
# GULP energy per Si atom -5568.555620 kJ/mol
# Density = 2.114558 g / cm^3
# Si number density = 21.193823 Si / 1000 Ang^3
#
#
#
# Elastic Constant Matrix: (Units=GPa)
#
#
# Indices 1 2 3 4 5 6 
#
# 1 62.9933 16.8980 10.8828 0.0000 -9.0314 0.0000
# 2 16.8980 134.4559 58.9778 0.0000 13.7698 0.0000
# 3 10.8828 58.9778 126.1192 0.0000 17.8805 0.0000
# 4 0.0000 0.0000 0.0000 16.4744 0.0000 14.9475
# 5 -9.0314 13.7698 17.8805 0.0000 29.8895 0.0000
# 6 0.0000 0.0000 0.0000 14.9475 0.0000 -5.6709
#
#
#
# Elastic Compliance Matrix: (Units=1/GPa)
#
#
# Indices 1 2 3 4 5 6 
#
# 1 0.017812 -0.002340 -0.001485 0.000000 0.007348 0.000000
# 2 -0.002340 0.009759 -0.003960 0.000000 -0.002834 0.000000
# 3 -0.001485 -0.003960 0.010614 0.000000 -0.004974 0.000000
# 4 0.000000 0.000000 0.000000 0.017898 0.000000 0.047175
# 5 0.007348 -0.002834 -0.004974 0.000000 0.039958 0.000000
# 6 0.000000 0.000000 0.000000 0.047175 0.000000 -0.051994
#
#
# Mechanical properties :
#
#
# Convention : Reuss Voigt Hill
#
# Bulk Modulus (GPa) = 44.21574 55.23174 49.72374
# Shear Modulus (GPa) = 74.45582 23.92592 49.19087
#
# Velocity S-wave (km/s) = 5.93356 3.36357 4.82290
# Velocity P-wave (km/s) = 8.23716 6.41885 7.38419
#
# Compressibility (1/GPa) = 0.02261638
#
# Stress axis : x y z
#
# Youngs Moduli (GPa) = 56.14064 102.47368 94.21505
#
# Poissons Ratio (x) = 0.23978 0.13987
# Poissons Ratio (y) = 0.13137 0.37307
# Poissons Ratio (z) = 0.08335 0.40577
#
# Static dielectric constant tensor:
#      x y z
#    x 1.777630 0.000000 -0.001510 
#    y 0.000000 1.785590 0.000000 
#    z -0.001510 0.000000 1.786540 
# 
# From -- ./inp_files/25151.got.cif
#   From: 2010.05.17/outbox.cif.g08.bks.cpg/sg10_13_cif.got.tgz:25151.got - 2010.06.03 11:33:40.
