data_PCOD9146308
_publ_section_title
;
Structure prediction by ZEFSAII (Michael W. Deem and Ramdas Pophale) SiO2 
 PCOD9146308
Probable space group: P 2/M
;
_chemical_formula_sum "Si O2"
_cell_formula_units_Z 28
_cell_length_a 29.177272
_cell_length_b 7.569070
_cell_length_c 9.183929
_cell_angle_alpha 90.000000
_cell_angle_beta 140.551833
_cell_angle_gamma 90.000000
_cell_volume 1288.692196
_symmetry_space_group_name_H-M "P 2/M"
_symmetry_group_IT_number 10
_symmetry_cell_setting 'monoclinic'
loop_
_space_group_symop_operation_xyz
x,y,z
-x,y,-z
-x,-y,-z
x,-y,z
loop_
_atom_site_type_symbol
_atom_site_label
_atom_site_fract_x
_atom_site_fract_y
_atom_site_fract_z
Si Si1 0.855285 0.206726 0.487776
Si Si2 0.572210 0.784331 0.759988
Si Si3 0.855533 0.296790 0.821261
Si Si4 0.709488 0.204463 0.611868
Si Si5 0.572997 0.216330 0.096979
Si Si6 0.720188 0.783551 0.966358
Si Si7 0.999902 0.714110 0.667949
O O1 0.861709 0.289671 0.662668
O O2 0.788423 0.276764 0.228686
O O3 0.928549 0.226881 0.576887
O O4 0.841951 0.000000 0.481968
O O5 0.500000 0.726377 0.500000
O O6 0.571418 0.000000 0.757838
O O7 0.573299 0.726277 0.930166
O O8 0.644991 0.731372 0.855823
O O9 0.849615 0.500000 0.853301
O O10 0.782476 0.209719 0.698320
O O11 0.927861 0.223491 0.073094
O O12 0.643041 0.280206 0.356955
O O13 0.689561 0.000000 0.587898
O O14 0.722347 0.278878 0.804667
O O15 0.574569 0.000000 0.097573
O O16 0.500000 0.268015 0.000000
O O17 0.723580 0.000000 0.974399
O O18 0.999562 0.500000 0.670248
O O19 0.000000 0.770647 0.500000
#
# Coordination Sequence:
#
# PCOD9146308 Si02
#       7
#     4   4   4   4   4   4   4
#     4  11  22  36  56  81 109 139 174 218 265 313
#     4   9  15  24  40  65 102 142 174 207 253 309
#     4  11  23  38  56  78 106 139 175 215 262 316
#     4  10  19  33  54  78 106 138 176 221 264 310
#     4   9  16  26  44  73 106 139 175 216 262 309
#     4   9  18  31  48  75 107 137 171 215 264 308
#     4  10  22  40  59  79 106 140 177 217 262 314
#
# _framework density 21.727454000000002
#
# number of rings (size 3 to 8) (size 9 to 14) (size 15 to 20)
#    0.000    2.143    0.000    3.857    0.000    8.857 
#    0.000    0.714    0.000    0.429    0.000    0.000 
#    0.000    6.857    0.000    0.000    0.000    0.000 
#
# Total GULP energy -156524.374886 kJ/mol
# GULP energy per Si atom -5590.156246 kJ/mol
# Density = 2.167800 g / cm^3
# Si number density = 21.727454 Si / 1000 Ang^3
#
#
#
# Elastic Constant Matrix: (Units=GPa)
#
#
# Indices 1 2 3 4 5 6 
#
# 1 168.8545 -14.4730 106.1330 0.0000 -6.6393 0.0000
# 2 -14.4730 49.2406 -0.4962 0.0000 -2.7689 0.0000
# 3 106.1330 -0.4962 239.0235 0.0000 -0.1029 0.0000
# 4 0.0000 0.0000 0.0000 43.2226 0.0000 64.5022
# 5 -6.6393 -2.7689 -0.1029 0.0000 44.6435 0.0000
# 6 0.0000 0.0000 0.0000 64.5022 0.0000 119.4220
#
#
#
# Elastic Compliance Matrix: (Units=1/GPa)
#
#
# Indices 1 2 3 4 5 6 
#
# 1 0.008593 0.002568 -0.003810 0.000000 0.001428 0.000000
# 2 0.002568 0.021147 -0.001095 0.000000 0.001691 0.000000
# 3 -0.003810 -0.001095 0.005873 0.000000 -0.000621 0.000000
# 4 0.000000 0.000000 0.000000 0.119280 0.000000 -0.064425
# 5 0.001428 0.001691 -0.000621 0.000000 0.022716 0.000000
# 6 0.000000 0.000000 0.000000 -0.064425 0.000000 0.043171
#
#
# Mechanical properties :
#
#
# Convention : Reuss Voigt Hill
#
# Bulk Modulus (GPa) = 32.32264 71.04957 51.68610
# Shear Modulus (GPa) = 21.20742 65.85462 43.53102
#
# Velocity S-wave (km/s) = 3.12759 5.51137 4.48091
# Velocity P-wave (km/s) = 5.28689 8.55988 7.11417
#
# Compressibility (1/GPa) = 0.03093807
#
# Stress axis : x y z
#
# Youngs Moduli (GPa) = 116.37376 47.28759 170.27925
#
# Poissons Ratio (x) = -0.12142 0.64869
# Poissons Ratio (y) = -0.29880 0.18654
# Poissons Ratio (z) = 0.44334 0.05180
#
# Static dielectric constant tensor:
#      x y z
#    x 1.712060 0.000000 -0.009890 
#    y 0.000000 1.863790 0.000000 
#    z -0.009890 0.000000 1.764760 
# 
# From -- ./inp_files/37229.got.cif
#   From: 2010.05.17/outbox.cif.g08.bks.cpg/sg10_19_cif.got.tgz:37229.got - 2010.06.03 11:33:40.
