data_PCOD9146079
_publ_section_title
;
Structure prediction by ZEFSAII (Michael W. Deem and Ramdas Pophale) SiO2 
 PCOD9146079
Probable space group: P 2/M
;
_chemical_formula_sum "Si O2"
_cell_formula_units_Z 32
_cell_length_a 21.284997
_cell_length_b 7.818053
_cell_length_c 14.676919
_cell_angle_alpha 90.000000
_cell_angle_beta 44.097773
_cell_angle_gamma 90.000000
_cell_volume 1699.591317
_symmetry_space_group_name_H-M "P 2/M"
_symmetry_group_IT_number 10
_symmetry_cell_setting 'monoclinic'
loop_
_space_group_symop_operation_xyz
x,y,z
-x,y,-z
-x,-y,-z
x,-y,z
loop_
_atom_site_type_symbol
_atom_site_label
_atom_site_fract_x
_atom_site_fract_y
_atom_site_fract_z
Si Si1 0.836641 0.793775 0.862670
Si Si2 0.398621 0.291091 0.576799
Si Si3 0.786021 0.302285 0.568786
Si Si4 0.310241 0.703594 0.850715
Si Si5 0.700807 0.201974 0.842801
Si Si6 0.985395 0.202502 0.413387
Si Si7 0.363978 0.289974 0.406840
Si Si8 0.554328 0.293054 0.131073
O O1 0.772462 0.737966 0.845207
O O2 0.937309 0.731721 0.735469
O O3 0.834495 0.000000 0.866549
O O4 0.788001 0.736383 0.005475
O O5 0.500000 0.242065 0.500000
O O6 0.397343 0.500000 0.575127
O O7 0.332747 0.232195 0.726466
O O8 0.374744 0.233986 0.500030
O O9 0.803691 0.500000 0.530775
O O10 0.724416 0.288470 0.723300
O O11 0.883143 0.223425 0.488197
O O12 0.726631 0.229429 0.548220
O O13 0.323876 0.500000 0.833482
O O14 0.382667 0.768675 0.850201
O O15 0.714366 0.000000 0.815889
O O16 0.602859 0.234134 0.988275
O O17 0.000000 0.275153 0.500000
O O18 0.003010 0.000000 0.401960
O O19 0.363231 0.500000 0.406801
O O20 0.452564 0.237820 0.257308
O O21 0.555951 0.500000 0.129137
#
# Coordination Sequence:
#
# PCOD9146079 Si02
#       8
#     4   4   4   4   4   4   4   4
#     4   9  18  32  51  71  96 128 158 198 253 299
#     4   9  14  26  50  77 101 130 166 202 242 289
#     4  11  22  33  48  74 103 132 164 206 251 292
#     4   9  16  26  49  80 101 121 161 208 241 280
#     4  10  19  33  49  68  98 136 171 202 240 294
#     4  10  19  36  56  72  93 128 169 205 249 300
#     4   9  18  31  47  71 106 137 163 200 252 299
#     4   9  16  29  48  72 100 131 166 205 242 284
#
# _framework density 18.828054999999999
#
# number of rings (size 3 to 8) (size 9 to 14) (size 15 to 20)
#    0.000    2.500    2.500    0.750    0.000    1.750 
#    0.000    3.750    0.000    3.375    0.000    5.250 
#    0.000    0.000    0.000    0.000    0.000    0.000 
#
# Total GULP energy -178476.563895 kJ/mol
# GULP energy per Si atom -5577.392622 kJ/mol
# Density = 1.878520 g / cm^3
# Si number density = 18.828055 Si / 1000 Ang^3
#
#
#
# Elastic Constant Matrix: (Units=GPa)
#
#
# Indices 1 2 3 4 5 6 
#
# 1 96.5778 -6.3630 61.3905 0.0000 -2.1230 0.0000
# 2 -6.3630 16.0732 -5.2570 0.0000 -1.2307 0.0000
# 3 61.3905 -5.2570 133.0639 0.0000 -3.4894 0.0000
# 4 0.0000 0.0000 0.0000 34.5499 0.0000 -6.8316
# 5 -2.1230 -1.2307 -3.4894 0.0000 21.8843 0.0000
# 6 0.0000 0.0000 0.0000 -6.8316 0.0000 1.5935
#
#
#
# Elastic Compliance Matrix: (Units=1/GPa)
#
#
# Indices 1 2 3 4 5 6 
#
# 1 0.014871 0.003741 -0.006698 0.000000 0.000585 0.000000
# 2 0.003741 0.064315 0.000923 0.000000 0.004127 0.000000
# 3 -0.006698 0.000923 0.010671 0.000000 0.001104 0.000000
# 4 0.000000 0.000000 0.000000 0.190077 0.000000 0.814908
# 5 0.000585 0.004127 0.001104 0.000000 0.046160 0.000000
# 6 0.000000 0.000000 0.000000 0.814908 0.000000 4.121278
#
#
# Mechanical properties :
#
#
# Convention : Reuss Voigt Hill
#
# Bulk Modulus (GPa) = 11.65644 38.36176 25.00910
# Shear Modulus (GPa) = 1.11606 24.66850 12.89228
#
# Velocity S-wave (km/s) = 0.77075 3.62359 2.61959
# Velocity P-wave (km/s) = 2.64509 6.15843 4.73934
#
# Compressibility (1/GPa) = 0.08578947
#
# Stress axis : x y z
#
# Youngs Moduli (GPa) = 67.24383 15.54859 93.71433
#
# Poissons Ratio (x) = -0.05817 0.62769
# Poissons Ratio (y) = -0.25158 -0.08650
# Poissons Ratio (z) = 0.45039 -0.01435
#
# Static dielectric constant tensor:
#      x y z
#    x 1.643420 0.000000 0.002140 
#    y 0.000000 1.690030 0.000000 
#    z 0.002140 0.000000 1.663390 
# 
# From -- ./inp_files/69986.got.cif
#   From: 2010.05.17/outbox.cif.g08.bks.cpg/sg10_35_cif.got.tgz:69986.got - 2010.06.03 11:33:40.
