data_PCOD9146911
_publ_section_title
;
Structure prediction by ZEFSAII (Michael W. Deem and Ramdas Pophale) SiO2 
 PCOD9146911
Probable space group: P 2/M
;
_chemical_formula_sum "Si O2"
_cell_formula_units_Z 28
_cell_length_a 9.750714
_cell_length_b 7.872648
_cell_length_c 25.535626
_cell_angle_alpha 90.000000
_cell_angle_beta 139.003017
_cell_angle_gamma 90.000000
_cell_volume 1285.939004
_symmetry_space_group_name_H-M "P 2/M"
_symmetry_group_IT_number 10
_symmetry_cell_setting 'monoclinic'
loop_
_space_group_symop_operation_xyz
x,y,z
-x,y,-z
-x,-y,-z
x,-y,z
loop_
_atom_site_type_symbol
_atom_site_label
_atom_site_fract_x
_atom_site_fract_y
_atom_site_fract_z
Si Si1 0.102175 0.301105 0.753717
Si Si2 0.507382 0.303899 0.335128
Si Si3 0.261469 0.206616 0.420528
Si Si4 0.030957 0.707485 0.176048
Si Si5 0.578977 0.804060 0.243633
Si Si6 0.862941 0.804173 0.505539
Si Si7 0.895081 0.705459 0.916544
O O1 0.152038 0.500000 0.769069
O O2 0.254661 0.221516 0.754624
O O3 0.864485 0.276785 0.664840
O O4 0.108673 0.234207 0.815281
O O5 0.504146 0.500000 0.350696
O O6 0.271093 0.244503 0.257473
O O7 0.616156 0.291534 0.309268
O O8 0.630972 0.200719 0.414484
O O9 0.500000 0.257166 0.500000
O O10 0.138442 0.267060 0.436987
O O11 0.256616 0.000000 0.416682
O O12 0.024381 0.500000 0.174513
O O13 0.993933 0.762917 0.105600
O O14 0.348664 0.752942 0.157244
O O15 0.578142 0.000000 0.258346
O O16 0.000000 0.718908 0.500000
O O17 0.933223 0.000000 0.531271
O O18 0.905023 0.500000 0.919747
O O19 0.000000 0.769083 0.000000
#
# Coordination Sequence:
#
# PCOD9146911 Si02
#       7
#     4   4   4   4   4   4   4
#     4  11  21  35  55  78 108 144 185 229 270 317
#     4  10  19  34  55  77 101 133 180 228 269 320
#     4  10  21  35  50  72 106 145 183 224 274 328
#     4   8  17  33  54  81 107 133 170 217 265 313
#     4  11  22  36  55  80 112 146 180 220 269 324
#     4  10  20  32  46  67  98 135 174 220 271 318
#     4   9  18  37  64  89 112 139 175 218 263 317
#
# _framework density 21.773973000000002
#
# number of rings (size 3 to 8) (size 9 to 14) (size 15 to 20)
#    0.000    2.143    0.000    4.714    0.000    2.571 
#    0.000    7.143    0.000    4.286    0.000    0.000 
#    0.000    0.000    0.000    0.000    0.000    0.000 
#
# Total GULP energy -156347.076120 kJ/mol
# GULP energy per Si atom -5583.824147 kJ/mol
# Density = 2.172441 g / cm^3
# Si number density = 21.773973 Si / 1000 Ang^3
#
#
#
# Elastic Constant Matrix: (Units=GPa)
#
#
# Indices 1 2 3 4 5 6 
#
# 1 121.0565 -0.5824 23.0847 0.0000 -25.7407 0.0000
# 2 -0.5824 31.9499 -5.1898 0.0000 -3.3987 0.0000
# 3 23.0847 -5.1898 74.0335 0.0000 -27.8906 0.0000
# 4 0.0000 0.0000 0.0000 20.1921 0.0000 10.5528
# 5 -25.7407 -3.3987 -27.8906 0.0000 30.4521 0.0000
# 6 0.0000 0.0000 0.0000 10.5528 0.0000 4.7601
#
#
#
# Elastic Compliance Matrix: (Units=1/GPa)
#
#
# Indices 1 2 3 4 5 6 
#
# 1 0.010113 0.001187 0.000306 0.000000 0.008961 0.000000
# 2 0.001187 0.033308 0.005715 0.000000 0.009955 0.000000
# 3 0.000306 0.005715 0.021605 0.000000 0.020684 0.000000
# 4 0.000000 0.000000 0.000000 -0.312261 0.000000 0.692253
# 5 0.008961 0.009955 0.020684 0.000000 0.060468 0.000000
# 6 0.000000 0.000000 0.000000 0.692253 0.000000 -1.324580
#
#
# Mechanical properties :
#
#
# Convention : Reuss Voigt Hill
#
# Bulk Modulus (GPa) = 12.58768 29.07388 20.83078
# Shear Modulus (GPa) = -3.33493 25.06269 10.86388
#
# Velocity S-wave (km/s) = -1.23893 3.39638 2.23612
# Velocity P-wave (km/s) = 1.93573 5.36303 4.03169
#
# Compressibility (1/GPa) = 0.07944273
#
# Stress axis : x y z
#
# Youngs Moduli (GPa) = 98.87777 30.02284 46.28566
#
# Poissons Ratio (x) = -0.03564 -0.01415
# Poissons Ratio (y) = -0.11739 -0.26453
# Poissons Ratio (z) = -0.03022 -0.17159
#
# Static dielectric constant tensor:
#      x y z
#    x 1.862770 0.000000 0.007200 
#    y 0.000000 1.780470 0.000000 
#    z 0.007200 0.000000 1.776180 
# 
# From -- ./inp_files/91981.got.cif
#   From: 2010.05.17/outbox.cif.g08.bks.cpg/sg10_46_cif.got.tgz:91981.got - 2010.06.03 11:33:40.
