data_PCOD9146535
_publ_section_title
;
Structure prediction by ZEFSAII (Michael W. Deem and Ramdas Pophale) SiO2 
 PCOD9146535
Probable space group: P 2/M
;
_chemical_formula_sum "Si O2"
_cell_formula_units_Z 32
_cell_length_a 13.692132
_cell_length_b 12.432117
_cell_length_c 16.348654
_cell_angle_alpha 90.000000
_cell_angle_beta 143.004296
_cell_angle_gamma 90.000000
_cell_volume 1674.626569
_symmetry_space_group_name_H-M "P 2/M"
_symmetry_group_IT_number 10
_symmetry_cell_setting 'monoclinic'
loop_
_space_group_symop_operation_xyz
x,y,z
-x,y,-z
-x,-y,-z
x,-y,z
loop_
_atom_site_type_symbol
_atom_site_label
_atom_site_fract_x
_atom_site_fract_y
_atom_site_fract_z
Si Si1 0.320940 0.683549 0.363496
Si Si2 0.945555 0.203580 0.268353
Si Si3 0.038704 0.620814 0.848236
Si Si4 0.292314 0.123319 0.466944
Si Si5 0.633561 0.126675 0.155174
Si Si6 0.415958 0.746572 0.709134
Si Si7 0.101767 0.383501 0.485180
Si Si8 0.723271 0.627715 0.851842
O O1 0.500000 0.634537 0.500000
O O2 0.326383 0.798850 0.412773
O O3 0.288880 0.681059 0.245424
O O4 0.157251 0.628270 0.288681
O O5 0.892572 0.277809 0.156493
O O6 0.804271 0.146993 0.224206
O O7 0.096438 0.127856 0.346461
O O8 0.023192 0.292537 0.378750
O O9 0.090749 0.500000 0.857139
O O10 0.106796 0.633307 0.985933
O O11 0.373201 0.178783 0.601437
O O12 0.344953 0.000000 0.492820
O O13 0.611497 0.188013 0.225773
O O14 0.613338 0.000000 0.157083
O O15 0.500000 0.162566 0.000000
O O16 0.285441 0.650575 0.622657
O O17 0.590052 0.691556 0.815748
O O18 0.093408 0.500000 0.439773
O O19 0.000000 0.386393 0.500000
O O20 0.685238 0.500000 0.817431
#
# Coordination Sequence:
#
# PCOD9146535 Si02
#       8
#     4   4   4   4   4   4   4   4
#     4  11  22  41  60  92 117 152 192 244 294 353
#     4  10  20  38  59  86 118 153 196 241 288 346
#     4  10  22  39  62  89 121 157 194 237 291 355
#     4  10  22  39  62  88 115 150 194 247 302 348
#     4  11  23  38  58  82 112 156 203 245 290 340
#     4  11  21  39  57  87 118 152 197 243 289 345
#     4  10  19  33  55  83 117 151 186 234 290 344
#     4  11  23  40  61  88 121 158 194 236 294 356
#
# _framework density 19.108737999999999
#
# number of rings (size 3 to 8) (size 9 to 14) (size 15 to 20)
#    0.000    1.500    2.500    3.000    0.000    2.250 
#    0.000    1.875    0.000   10.500    0.000    0.000 
#    0.000    0.000    0.000    0.000    0.000    0.000 
#
# Total GULP energy -178478.589957 kJ/mol
# GULP energy per Si atom -5577.455936 kJ/mol
# Density = 1.906525 g / cm^3
# Si number density = 19.108738 Si / 1000 Ang^3
#
#
#
# Elastic Constant Matrix: (Units=GPa)
#
#
# Indices 1 2 3 4 5 6 
#
# 1 80.2974 19.7603 27.4000 0.0000 -7.2782 0.0000
# 2 19.7603 71.6318 23.3591 0.0000 -7.8769 0.0000
# 3 27.4000 23.3591 89.9528 0.0000 -5.1880 0.0000
# 4 0.0000 0.0000 0.0000 -8.7753 0.0000 34.9612
# 5 -7.2782 -7.8769 -5.1880 0.0000 34.4988 0.0000
# 6 0.0000 0.0000 0.0000 34.9612 0.0000 -44.1608
#
#
#
# Elastic Compliance Matrix: (Units=1/GPa)
#
#
# Indices 1 2 3 4 5 6 
#
# 1 0.014508 -0.002607 -0.003632 0.000000 0.001919 0.000000
# 2 -0.002607 0.016016 -0.003214 0.000000 0.002624 0.000000
# 3 -0.003632 -0.003214 0.013085 0.000000 0.000468 0.000000
# 4 0.000000 0.000000 0.000000 0.052902 0.000000 0.041882
# 5 0.001919 0.002624 0.000468 0.000000 0.030061 0.000000
# 6 0.000000 0.000000 0.000000 0.041882 0.000000 0.010512
#
#
# Mechanical properties :
#
#
# Convention : Reuss Voigt Hill
#
# Bulk Modulus (GPa) = 40.47838 42.54674 41.51256
# Shear Modulus (GPa) = 30.44624 7.73672 19.09148
#
# Velocity S-wave (km/s) = 3.99597 2.01434 3.16428
# Velocity P-wave (km/s) = 6.52070 5.26536 5.92636
#
# Compressibility (1/GPa) = 0.02470455
#
# Stress axis : x y z
#
# Youngs Moduli (GPa) = 68.92526 62.43797 76.42531
#
# Poissons Ratio (x) = 0.16277 0.27755
# Poissons Ratio (y) = 0.17968 0.24560
# Poissons Ratio (z) = 0.25031 0.20065
#
# Static dielectric constant tensor:
#      x y z
#    x 1.763630 0.000000 0.008950 
#    y 0.000000 1.636620 0.000000 
#    z 0.008950 0.000000 1.680990 
# 
# From -- ./inp_files/69174.got.cif
#   From: 2010.05.17/outbox.cif.g08.bks.cpg/sg10_35_cif.got.tgz:69174.got - 2010.06.03 11:33:40.
