data_PCOD9146489
_publ_section_title
;
Structure prediction by ZEFSAII (Michael W. Deem and Ramdas Pophale) SiO2 
 PCOD9146489
Probable space group: P 2/M
;
_chemical_formula_sum "Si O2"
_cell_formula_units_Z 32
_cell_length_a 25.074424
_cell_length_b 7.354771
_cell_length_c 16.369586
_cell_angle_alpha 90.000000
_cell_angle_beta 152.635230
_cell_angle_gamma 90.000000
_cell_volume 1387.613989
_symmetry_space_group_name_H-M "P 2/M"
_symmetry_group_IT_number 10
_symmetry_cell_setting 'monoclinic'
loop_
_space_group_symop_operation_xyz
x,y,z
-x,y,-z
-x,-y,-z
x,-y,z
loop_
_atom_site_type_symbol
_atom_site_label
_atom_site_fract_x
_atom_site_fract_y
_atom_site_fract_z
Si Si1 0.366071 0.778341 0.308614
Si Si2 0.403919 0.707227 0.810251
Si Si3 0.139705 0.276455 0.441807
Si Si4 0.258622 0.220649 0.990601
Si Si5 0.999592 0.707785 0.590255
Si Si6 0.928795 0.706632 0.827222
Si Si7 0.698776 0.219002 0.605443
Si Si8 0.482711 0.219118 0.205801
O O1 0.500000 0.720728 0.500000
O O2 0.294552 0.723269 0.291535
O O3 0.368521 0.000000 0.311240
O O4 0.307469 0.721163 0.144933
O O5 0.386645 0.500000 0.816564
O O6 0.274163 0.783355 0.626726
O O7 0.462428 0.706322 0.801496
O O8 0.500000 0.793904 0.000000
O O9 0.137541 0.500000 0.435126
O O10 0.077221 0.215269 0.272584
O O11 0.076817 0.216181 0.439303
O O12 0.131597 0.290549 0.799856
O O13 0.253941 0.000000 0.983989
O O14 0.353475 0.277194 0.052417
O O15 0.957338 0.500000 0.522522
O O16 0.000000 0.791486 0.500000
O O17 0.973564 0.500000 0.879854
O O18 0.796858 0.704157 0.680204
O O19 0.000000 0.791606 0.000000
O O20 0.571210 0.265207 0.398986
O O21 0.709996 0.000000 0.617209
O O22 0.482213 0.000000 0.198277
#
# Coordination Sequence:
#
# PCOD9146489 Si02
#       8
#     4   4   4   4   4   4   4   4
#     4   9  16  31  54  79 110 147 179 212 266 331
#     4  10  21  36  60  85 107 141 185 229 277 339
#     4   9  19  38  56  79 113 143 180 229 277 328
#     4  10  21  37  58  84 114 149 189 230 277 332
#     4  10  23  41  61  81 108 149 193 238 283 329
#     4  10  21  36  55  77 108 150 183 218 277 336
#     4  10  19  33  55  81 110 143 183 226 269 325
#     4  10  20  35  56  84 116 145 179 229 284 331
#
# _framework density 23.061167000000001
#
# number of rings (size 3 to 8) (size 9 to 14) (size 15 to 20)
#    0.000    2.250    2.500    0.000    3.500    1.250 
#    0.000    1.250    0.000    0.750    0.000    0.000 
#    0.000    0.000    0.000    0.000    0.000    0.000 
#
# Total GULP energy -178760.691744 kJ/mol
# GULP energy per Si atom -5586.271617 kJ/mol
# Density = 2.300868 g / cm^3
# Si number density = 23.061167 Si / 1000 Ang^3
#
#
#
# Elastic Constant Matrix: (Units=GPa)
#
#
# Indices 1 2 3 4 5 6 
#
# 1 183.3338 1.2493 63.3023 0.0000 -20.2920 0.0000
# 2 1.2493 83.1725 2.1877 0.0000 -5.1727 0.0000
# 3 63.3023 2.1877 123.7032 0.0000 -28.5716 0.0000
# 4 0.0000 0.0000 0.0000 4.2441 0.0000 4.0580
# 5 -20.2920 -5.1727 -28.5716 0.0000 33.9669 0.0000
# 6 0.0000 0.0000 0.0000 4.0580 0.0000 5.6487
#
#
#
# Elastic Compliance Matrix: (Units=1/GPa)
#
#
# Indices 1 2 3 4 5 6 
#
# 1 0.006678 0.000068 -0.003096 0.000000 0.001395 0.000000
# 2 0.000068 0.012146 0.000232 0.000000 0.002085 0.000000
# 3 -0.003096 0.000232 0.011474 0.000000 0.007838 0.000000
# 4 0.000000 0.000000 0.000000 0.752518 0.000000 -0.540604
# 5 0.001395 0.002085 0.007838 0.000000 0.037184 0.000000
# 6 0.000000 0.000000 0.000000 -0.540604 0.000000 0.565399
#
#
# Mechanical properties :
#
#
# Convention : Reuss Voigt Hill
#
# Bulk Modulus (GPa) = 40.47656 58.18756 49.33206
# Shear Modulus (GPa) = 3.57340 30.33659 16.95500
#
# Velocity S-wave (km/s) = 1.24615 3.63089 2.71443
# Velocity P-wave (km/s) = 4.43401 6.54710 5.59128
#
# Compressibility (1/GPa) = 0.02470566
#
# Stress axis : x y z
#
# Youngs Moduli (GPa) = 149.75660 82.33314 87.15133
#
# Poissons Ratio (x) = -0.00559 0.26982
# Poissons Ratio (y) = -0.01017 -0.02023
# Poissons Ratio (z) = 0.46365 -0.01911
#
# Static dielectric constant tensor:
#      x y z
#    x 1.831080 0.000000 -0.025310 
#    y 0.000000 1.897890 0.000000 
#    z -0.025310 0.000000 1.835590 
# 
# From -- ./inp_files/71565.got.cif
#   From: 2010.05.17/outbox.cif.g08.bks.cpg/sg10_36_cif.got.tgz:71565.got - 2010.06.03 11:33:40.
