data_PCOD9146348
_publ_section_title
;
Structure prediction by ZEFSAII (Michael W. Deem and Ramdas Pophale) SiO2 
 PCOD9146348
Probable space group: P 2/M
;
_chemical_formula_sum "Si O2"
_cell_formula_units_Z 24
_cell_length_a 11.210623
_cell_length_b 10.546864
_cell_length_c 15.789963
_cell_angle_alpha 90.000000
_cell_angle_beta 38.777249
_cell_angle_gamma 90.000000
_cell_volume 1169.264239
_symmetry_space_group_name_H-M "P 2/M"
_symmetry_group_IT_number 10
_symmetry_cell_setting 'monoclinic'
loop_
_space_group_symop_operation_xyz
x,y,z
-x,y,-z
-x,-y,-z
x,-y,z
loop_
_atom_site_type_symbol
_atom_site_label
_atom_site_fract_x
_atom_site_fract_y
_atom_site_fract_z
Si Si1 0.460024 0.143362 0.429262
Si Si2 0.485715 0.145706 0.782476
Si Si3 0.682192 0.153923 0.839411
Si Si4 0.967613 0.500000 0.919661
Si Si5 0.915082 0.767550 0.314816
Si Si6 0.917911 0.221645 0.950242
Si Si7 0.728167 0.500000 0.382806
O O1 0.500000 0.202507 0.500000
O O2 0.527504 0.205914 0.304068
O O3 0.231463 0.145248 0.553510
O O4 0.537842 0.000000 0.390112
O O5 0.629244 0.196749 0.773370
O O6 0.542349 0.000000 0.735799
O O7 0.277778 0.146651 0.939966
O O8 0.873006 0.219486 0.766895
O O9 0.707752 0.000000 0.826050
O O10 0.500000 0.180515 0.000000
O O11 0.868539 0.367837 0.954028
O O12 0.175268 0.500000 0.763017
O O13 0.000000 0.500000 0.000000
O O14 0.821513 0.627077 0.371248
O O15 0.934143 0.812881 0.205667
O O16 0.000000 0.213626 0.000000
O O17 0.500000 0.500000 0.500000
#
# Coordination Sequence:
#
# PCOD9146348 Si02
#       7
#     4   4   4   2   4   4   2
#     4  10  21  36  55  84 118 149 189 240 297 356
#     4  10  21  36  55  83 117 152 189 238 296 346
#     4  10  20  37  60  84 114 154 201 243 284 342
#     4   8  18  34  53  79 107 142 189 229 278 340
#     4  11  21  36  58  83 112 154 197 237 289 347
#     4  10  19  33  54  80 111 145 191 241 290 347
#     4  10  22  38  58  85 118 153 192 241 299 354
#
# _framework density 20.525728999999998
#
# number of rings (size 3 to 8) (size 9 to 14) (size 15 to 20)
#    0.000    2.000    1.667    2.000    0.000    4.333 
#    0.000    3.750    0.000    1.000    0.000    0.000 
#    0.000    0.000    0.000    0.000    0.000    0.000 
#
# Total GULP energy -133706.774655 kJ/mol
# GULP energy per Si atom -5571.115611 kJ/mol
# Density = 2.047901 g / cm^3
# Si number density = 20.525729 Si / 1000 Ang^3
#
#
#
# Elastic Constant Matrix: (Units=GPa)
#
#
# Indices 1 2 3 4 5 6 
#
# 1 117.1589 25.9346 33.0233 0.0000 -5.3959 0.0000
# 2 25.9346 57.5182 27.1418 0.0000 -8.3304 0.0000
# 3 33.0233 27.1418 84.3489 0.0000 -2.8115 0.0000
# 4 0.0000 0.0000 0.0000 21.3555 0.0000 -5.4691
# 5 -5.3959 -8.3304 -2.8115 0.0000 43.0667 0.0000
# 6 0.0000 0.0000 0.0000 -5.4691 0.0000 18.1002
#
#
#
# Elastic Compliance Matrix: (Units=1/GPa)
#
#
# Indices 1 2 3 4 5 6 
#
# 1 0.010067 -0.003087 -0.002932 0.000000 0.000473 0.000000
# 2 -0.003087 0.021999 -0.005754 0.000000 0.003493 0.000000
# 3 -0.002932 -0.005754 0.014838 0.000000 -0.000512 0.000000
# 4 0.000000 0.000000 0.000000 0.050754 0.000000 0.015336
# 5 0.000473 0.003493 -0.000512 0.000000 0.023921 0.000000
# 6 0.000000 0.000000 0.000000 0.015336 0.000000 0.059882
#
#
# Mechanical properties :
#
#
# Convention : Reuss Voigt Hill
#
# Bulk Modulus (GPa) = 42.81251 47.91392 45.36321
# Shear Modulus (GPa) = 23.49711 28.03290 25.76501
#
# Velocity S-wave (km/s) = 3.38711 3.69961 3.54680
# Velocity P-wave (km/s) = 6.01664 6.45318 6.23873
#
# Compressibility (1/GPa) = 0.02335766
#
# Stress axis : x y z
#
# Youngs Moduli (GPa) = 99.33398 45.45734 67.39504
#
# Poissons Ratio (x) = 0.14033 0.19762
# Poissons Ratio (y) = 0.30665 0.38777
# Poissons Ratio (z) = 0.29127 0.26155
#
# Static dielectric constant tensor:
#      x y z
#    x 1.792810 0.000000 0.032910 
#    y 0.000000 1.778290 0.000000 
#    z 0.032910 0.000000 1.743780 
# 
# From -- ./inp_files/76615.got.cif
#   From: 2010.05.17/outbox.cif.g08.bks.cpg/sg10_39_cif.got.tgz:76615.got - 2010.06.03 11:33:40.
