data_PCOD9146846
_publ_section_title
;
Structure prediction by ZEFSAII (Michael W. Deem and Ramdas Pophale) SiO2 
 PCOD9146846
Probable space group: P 2/M
;
_chemical_formula_sum "Si O2"
_cell_formula_units_Z 32
_cell_length_a 9.637971
_cell_length_b 14.424813
_cell_length_c 28.653532
_cell_angle_alpha 90.000000
_cell_angle_beta 153.876234
_cell_angle_gamma 90.000000
_cell_volume 1754.018325
_symmetry_space_group_name_H-M "P 2/M"
_symmetry_group_IT_number 10
_symmetry_cell_setting 'monoclinic'
loop_
_space_group_symop_operation_xyz
x,y,z
-x,y,-z
-x,-y,-z
x,-y,z
loop_
_atom_site_type_symbol
_atom_site_label
_atom_site_fract_x
_atom_site_fract_y
_atom_site_fract_z
Si Si1 0.117973 0.892296 0.889768
Si Si2 0.975008 0.392599 0.802560
Si Si3 0.765710 0.708299 0.612512
Si Si4 0.073604 0.393755 0.105209
Si Si5 0.142729 0.799123 0.994303
Si Si6 0.143885 0.215462 0.806756
Si Si7 0.823511 0.610619 0.340485
Si Si8 0.367630 0.392058 0.567925
O O1 0.008082 0.839583 0.810052
O O2 0.031802 0.000000 0.863654
O O3 0.500000 0.885703 0.000000
O O4 0.020409 0.844936 0.909023
O O5 0.005232 0.500000 0.797179
O O6 0.057147 0.386936 0.881536
O O7 0.610206 0.362031 0.681959
O O8 0.181968 0.321696 0.835833
O O9 0.500000 0.752656 0.500000
O O10 0.583492 0.629338 0.587502
O O11 0.913195 0.778780 0.693569
O O12 0.026436 0.662566 0.658358
O O13 0.024000 0.500000 0.073580
O O14 0.449177 0.378306 0.225391
O O15 0.929671 0.310640 0.032121
O O16 0.515188 0.818542 0.105826
O O17 0.000000 0.832958 0.000000
O O18 0.883452 0.500000 0.354845
O O19 0.022726 0.642633 0.446903
O O20 0.323115 0.500000 0.563952
#
# Coordination Sequence:
#
# PCOD9146846 Si02
#       8
#     4   4   4   4   4   4   4   4
#     4   9  19  37  59  79  98 124 162 206 254 303
#     4   9  17  29  46  69  97 133 176 211 240 287
#     4   9  16  27  46  71  98 128 170 211 245 291
#     4  10  20  31  43  65 102 141 173 203 239 292
#     4  11  22  35  52  76 104 133 166 206 247 295
#     4  10  19  34  54  75 102 135 166 204 249 292
#     4   9  16  26  40  62  98 139 173 211 252 281
#     4   8  14  24  40  62  89 127 175 218 248 279
#
# _framework density 18.243822999999999
#
# number of rings (size 3 to 8) (size 9 to 14) (size 15 to 20)
#    0.000    2.625    1.250    1.125    0.000    3.500 
#    0.000    3.750    0.000    0.375    0.000    0.000 
#    0.000   20.000    0.000    0.000    0.000    0.000 
#
# Total GULP energy -178200.190683 kJ/mol
# GULP energy per Si atom -5568.755959 kJ/mol
# Density = 1.820230 g / cm^3
# Si number density = 18.243823 Si / 1000 Ang^3
#
#
#
# Elastic Constant Matrix: (Units=GPa)
#
#
# Indices 1 2 3 4 5 6 
#
# 1 93.6319 27.3328 29.2553 0.0000 -13.8353 0.0000
# 2 27.3328 52.5848 15.2897 0.0000 -13.4930 0.0000
# 3 29.2553 15.2897 45.4072 0.0000 -16.8691 0.0000
# 4 0.0000 0.0000 0.0000 9.0160 0.0000 0.5199
# 5 -13.8353 -13.4930 -16.8691 0.0000 27.5785 0.0000
# 6 0.0000 0.0000 0.0000 0.5199 0.0000 7.1369
#
#
#
# Elastic Compliance Matrix: (Units=1/GPa)
#
#
# Indices 1 2 3 4 5 6 
#
# 1 0.014633 -0.005382 -0.007592 0.000000 0.000064 0.000000
# 2 -0.005382 0.024415 -0.001707 0.000000 0.008201 0.000000
# 3 -0.007592 -0.001707 0.033340 0.000000 0.015750 0.000000
# 4 0.000000 0.000000 0.000000 0.111382 0.000000 -0.008114
# 5 0.000064 0.008201 0.015750 0.000000 0.049938 0.000000
# 6 0.000000 0.000000 0.000000 -0.008114 0.000000 0.140708
#
#
# Mechanical properties :
#
#
# Convention : Reuss Voigt Hill
#
# Bulk Modulus (GPa) = 23.24131 37.26439 30.25285
# Shear Modulus (GPa) = 11.95830 16.72934 14.34382
#
# Velocity S-wave (km/s) = 2.56299 3.03146 2.80702
# Velocity P-wave (km/s) = 4.63956 5.72041 5.20810
#
# Compressibility (1/GPa) = 0.04302684
#
# Stress axis : x y z
#
# Youngs Moduli (GPa) = 68.34007 40.95828 29.99403
#
# Poissons Ratio (x) = 0.22044 0.22770
# Poissons Ratio (y) = 0.36781 0.05119
# Poissons Ratio (z) = 0.51881 0.06990
#
# Static dielectric constant tensor:
#      x y z
#    x 1.662960 0.000000 -0.005830 
#    y 0.000000 1.604280 0.000000 
#    z -0.005830 0.000000 1.686350 
# 
# From -- ./inp_files/37685.got.cif
#   From: 2010.05.17/outbox.cif.g08.bks.cpg/sg10_19_cif.got.tgz:37685.got - 2010.06.03 11:33:40.
