data_PCOD9146764
_publ_section_title
;
Structure prediction by ZEFSAII (Michael W. Deem and Ramdas Pophale) SiO2 
 PCOD9146764
Probable space group: P 2/M
;
_chemical_formula_sum "Si O2"
_cell_formula_units_Z 24
_cell_length_a 21.355764
_cell_length_b 10.238510
_cell_length_c 14.677057
_cell_angle_alpha 90.000000
_cell_angle_beta 155.015263
_cell_angle_gamma 90.000000
_cell_volume 1355.473166
_symmetry_space_group_name_H-M "P 2/M"
_symmetry_group_IT_number 10
_symmetry_cell_setting 'monoclinic'
loop_
_space_group_symop_operation_xyz
x,y,z
-x,y,-z
-x,-y,-z
x,-y,z
loop_
_atom_site_type_symbol
_atom_site_label
_atom_site_fract_x
_atom_site_fract_y
_atom_site_fract_z
Si Si1 0.324455 0.347381 0.770337
Si Si2 0.672307 0.000000 0.764062
Si Si3 0.119054 0.261608 0.347558
Si Si4 0.835120 0.657007 0.256661
Si Si5 0.792747 0.270970 0.995599
Si Si6 0.673157 0.500000 0.709874
Si Si7 0.991911 0.000000 0.095422
Si Si8 0.842482 0.500000 0.742343
O O1 0.277160 0.500000 0.693452
O O2 0.251239 0.263497 0.594188
O O3 0.268346 0.305988 0.795501
O O4 0.500000 0.343161 0.000000
O O5 0.500000 0.000000 0.500000
O O6 0.711190 0.866898 0.869622
O O7 0.815119 0.000000 0.884046
O O8 0.077230 0.126249 0.245196
O O9 0.156427 0.372945 0.321918
O O10 0.968888 0.283928 0.207877
O O11 0.841603 0.500000 0.261764
O O12 0.000000 0.705172 0.500000
O O13 0.777280 0.698966 0.081859
O O14 0.731218 0.373712 0.840912
O O15 0.500000 0.500000 0.500000
O O16 0.724447 0.500000 0.670957
O O17 0.000000 0.000000 0.000000
O O18 0.000000 0.500000 0.000000
#
# Coordination Sequence:
#
# PCOD9146764 Si02
#       8
#     4   2   4   4   4   2   2   2
#     4  10  21  37  58  90 124 153 193 252 304 355
#     4  10  24  44  62  83 126 164 196 251 308 353
#     4  11  21  39  64  89 117 159 207 243 300 362
#     4  10  19  33  62  88 116 153 194 241 304 352
#     4  11  21  40  63  89 118 161 202 246 300 365
#     4  12  26  38  58  93 123 148 206 267 299 349
#     4  10  24  42  64  86 118 164 208 246 294 366
#     4  12  22  36  64  88 117 162 201 255 302 353
#
# _framework density 17.705994
#
# number of rings (size 3 to 8) (size 9 to 14) (size 15 to 20)
#    0.000    1.333    5.000    1.000    2.333    1.333 
#    3.000    1.667    0.000    0.000    0.000    0.000 
#    0.000    0.000    0.000    0.000    0.000    0.000 
#
# Total GULP energy -133717.403887 kJ/mol
# GULP energy per Si atom -5571.558495 kJ/mol
# Density = 1.766569 g / cm^3
# Si number density = 17.705994 Si / 1000 Ang^3
#
#
#
# Elastic Constant Matrix: (Units=GPa)
#
#
# Indices 1 2 3 4 5 6 
#
# 1 159.5508 52.0217 62.6383 0.0000 -18.4240 0.0000
# 2 52.0217 72.4157 35.5576 0.0000 -2.8385 0.0000
# 3 62.6383 35.5576 99.3308 0.0000 -4.8105 0.0000
# 4 0.0000 0.0000 0.0000 12.7886 0.0000 9.2575
# 5 -18.4240 -2.8385 -4.8105 0.0000 29.8000 0.0000
# 6 0.0000 0.0000 0.0000 9.2575 0.0000 14.8920
#
#
#
# Elastic Compliance Matrix: (Units=1/GPa)
#
#
# Indices 1 2 3 4 5 6 
#
# 1 0.010212 -0.004968 -0.004413 0.000000 0.005128 0.000000
# 2 -0.004968 0.019183 -0.003824 0.000000 -0.001862 0.000000
# 3 -0.004413 -0.003824 0.014180 0.000000 -0.000804 0.000000
# 4 0.000000 0.000000 0.000000 0.142172 0.000000 -0.088381
# 5 0.005128 -0.001862 -0.000804 0.000000 0.036421 0.000000
# 6 0.000000 0.000000 0.000000 -0.088381 0.000000 0.122092
#
#
# Mechanical properties :
#
#
# Convention : Reuss Voigt Hill
#
# Bulk Modulus (GPa) = 58.25935 70.19249 64.22592
# Shear Modulus (GPa) = 13.28401 23.56810 18.42606
#
# Velocity S-wave (km/s) = 2.74205 3.65236 3.22944
# Velocity P-wave (km/s) = 6.55746 7.58391 7.08929
#
# Compressibility (1/GPa) = 0.01716463
#
# Stress axis : x y z
#
# Youngs Moduli (GPa) = 97.92231 52.12943 70.52084
#
# Poissons Ratio (x) = 0.25900 0.31121
# Poissons Ratio (y) = 0.48651 0.26968
# Poissons Ratio (z) = 0.43213 0.19935
#
# Static dielectric constant tensor:
#      x y z
#    x 1.608430 0.000000 0.029910 
#    y 0.000000 1.643340 0.000000 
#    z 0.029910 0.000000 1.333400 
# 
# From -- ./inp_files/53757.got.cif
#   From: 2010.05.17/outbox.cif.g08.bks.cpg/sg10_27_cif.got.tgz:53757.got - 2010.06.03 11:33:40.
