data_PCOD9146868
_publ_section_title
;
Structure prediction by ZEFSAII (Michael W. Deem and Ramdas Pophale) SiO2 
 PCOD9146868
Probable space group: P 2/M
;
_chemical_formula_sum "Si O2"
_cell_formula_units_Z 32
_cell_length_a 24.219798
_cell_length_b 8.065064
_cell_length_c 20.453330
_cell_angle_alpha 90.000000
_cell_angle_beta 154.738584
_cell_angle_gamma 90.000000
_cell_volume 1704.962426
_symmetry_space_group_name_H-M "P 2/M"
_symmetry_group_IT_number 10
_symmetry_cell_setting 'monoclinic'
loop_
_space_group_symop_operation_xyz
x,y,z
-x,y,-z
-x,-y,-z
x,-y,z
loop_
_atom_site_type_symbol
_atom_site_label
_atom_site_fract_x
_atom_site_fract_y
_atom_site_fract_z
Si Si1 0.590159 0.200281 0.913388
Si Si2 0.705780 0.797092 0.392079
Si Si3 0.826609 0.797515 0.255405
Si Si4 0.375010 0.194352 0.327010
Si Si5 0.739831 0.806717 0.575023
Si Si6 0.115729 0.797637 0.536005
Si Si7 0.548417 0.307848 0.725965
Si Si8 0.143375 0.694114 0.168117
O O1 0.702861 0.260349 0.082114
O O2 0.589941 0.000000 0.915258
O O3 0.444306 0.255040 0.775661
O O4 0.612358 0.252890 0.862292
O O5 0.754071 0.745227 0.515766
O O6 0.797288 0.740865 0.431298
O O7 0.705577 0.000000 0.392203
O O8 0.828209 0.747245 0.333224
O O9 0.965045 0.747048 0.373278
O O10 0.824797 0.000000 0.252929
O O11 0.500000 0.261837 0.500000
O O12 0.367302 0.277835 0.248057
O O13 0.250834 0.218553 0.239019
O O14 0.396651 0.000000 0.338688
O O15 0.586688 0.790134 0.426084
O O16 0.818504 0.715783 0.715448
O O17 0.775237 0.000000 0.615308
O O18 0.116829 0.000000 0.536194
O O19 0.513705 0.500000 0.693519
O O20 0.147228 0.500000 0.155390
O O21 0.000000 0.758250 0.000000
#
# Coordination Sequence:
#
# PCOD9146868 Si02
#       8
#     4   4   4   4   4   4   4   4
#     4   9  17  30  46  71 102 131 165 212 256 302
#     4   8  15  26  43  66  97 128 164 208 254 302
#     4   8  14  24  42  67 101 133 162 204 257 304
#     4  11  22  37  61  86 106 136 180 226 265 314
#     4  10  19  34  54  77 105 138 177 221 265 313
#     4   8  13  24  41  67  99 132 164 203 254 308
#     4  11  21  34  55  79 105 138 174 216 268 321
#     4  11  24  40  57  80 112 146 178 217 265 319
#
# _framework density 18.768742
#
# number of rings (size 3 to 8) (size 9 to 14) (size 15 to 20)
#    0.000    2.500    1.250    3.750    0.000    2.000 
#    2.250    2.500    0.000    0.000    0.000    9.625 
#    0.000    0.000    0.000    0.000    0.000    0.000 
#
# Total GULP energy -178501.129232 kJ/mol
# GULP energy per Si atom -5578.160288 kJ/mol
# Density = 1.872602 g / cm^3
# Si number density = 18.768742 Si / 1000 Ang^3
#
#
#
# Elastic Constant Matrix: (Units=GPa)
#
#
# Indices 1 2 3 4 5 6 
#
# 1 161.9263 0.4502 83.9010 0.0000 2.2781 0.0000
# 2 0.4502 15.9302 -5.1486 0.0000 1.9571 0.0000
# 3 83.9010 -5.1486 114.2006 0.0000 -9.1428 0.0000
# 4 0.0000 0.0000 0.0000 2.3880 0.0000 5.7031
# 5 2.2781 1.9571 -9.1428 0.0000 19.7097 0.0000
# 6 0.0000 0.0000 0.0000 5.7031 0.0000 -32.0409
#
#
#
# Elastic Compliance Matrix: (Units=1/GPa)
#
#
# Indices 1 2 3 4 5 6 
#
# 1 0.010500 -0.002360 -0.008204 0.000000 -0.004785 0.000000
# 2 -0.002360 0.064747 0.004321 0.000000 -0.004152 0.000000
# 3 -0.008204 0.004321 0.015599 0.000000 0.007755 0.000000
# 4 0.000000 0.000000 0.000000 0.293852 0.000000 0.052304
# 5 -0.004785 -0.004152 0.007755 0.000000 0.055299 0.000000
# 6 0.000000 0.000000 0.000000 0.052304 0.000000 -0.021900
#
#
# Mechanical properties :
#
#
# Convention : Reuss Voigt Hill
#
# Bulk Modulus (GPa) = 12.76162 50.05138 31.40650
# Shear Modulus (GPa) = 10.94798 12.20164 11.57481
#
# Velocity S-wave (km/s) = 2.41780 2.55248 2.48605
# Velocity P-wave (km/s) = 3.82211 5.95081 5.00103
#
# Compressibility (1/GPa) = 0.07835997
#
# Stress axis : x y z
#
# Youngs Moduli (GPa) = 95.23547 15.44467 64.10503
#
# Poissons Ratio (x) = 0.03645 0.52591
# Poissons Ratio (y) = 0.22479 -0.27698
# Poissons Ratio (z) = 0.78130 -0.06673
#
# Static dielectric constant tensor:
#      x y z
#    x 1.639100 0.000000 -0.005060 
#    y 0.000000 1.639790 0.000000 
#    z -0.005060 0.000000 1.635150 
# 
# From -- ./inp_files/91226.got.cif
#   From: 2010.05.17/outbox.cif.g08.bks.cpg/sg10_46_cif.got.tgz:91226.got - 2010.06.03 11:33:40.
