data_PCOD9146000
_publ_section_title
;
Structure prediction by ZEFSAII (Michael W. Deem and Ramdas Pophale) SiO2 
 PCOD9146000
Probable space group: P 2/M
;
_chemical_formula_sum "Si O2"
_cell_formula_units_Z 32
_cell_length_a 12.519528
_cell_length_b 31.874381
_cell_length_c 9.922335
_cell_angle_alpha 90.000000
_cell_angle_beta 155.663477
_cell_angle_gamma 90.000000
_cell_volume 1631.703351
_symmetry_space_group_name_H-M "P 2/M"
_symmetry_group_IT_number 10
_symmetry_cell_setting 'monoclinic'
loop_
_space_group_symop_operation_xyz
x,y,z
-x,y,-z
-x,-y,-z
x,-y,z
loop_
_atom_site_type_symbol
_atom_site_label
_atom_site_fract_x
_atom_site_fract_y
_atom_site_fract_z
Si Si1 0.109754 0.954769 0.474262
Si Si2 0.386666 0.706489 0.727588
Si Si3 0.291278 0.088993 0.151146
Si Si4 0.025058 0.825675 0.887047
Si Si5 0.298769 0.361447 0.394623
Si Si6 0.701536 0.454938 0.607009
Si Si7 0.116620 0.238587 0.773723
Si Si8 0.424644 0.870976 0.772142
O O1 0.000000 0.954903 0.500000
O O2 0.272549 0.912727 0.644709
O O3 0.242326 0.000000 0.605566
O O4 0.893852 0.948083 0.110690
O O5 0.351445 0.672207 0.571148
O O6 0.112287 0.730065 0.438173
O O7 0.500000 0.689126 0.000000
O O8 0.613626 0.738332 0.943512
O O9 0.500000 0.074262 0.500000
O O10 0.380044 0.109552 0.111200
O O11 0.163162 0.129821 0.071800
O O12 0.752001 0.838630 0.510585
O O13 0.162176 0.797388 0.934771
O O14 0.000000 0.802785 0.000000
O O15 0.500000 0.356511 0.500000
O O16 0.334834 0.408713 0.495835
O O17 0.000000 0.357662 0.000000
O O18 0.500000 0.455432 0.500000
O O19 0.662002 0.500000 0.488468
O O20 0.000000 0.455188 0.000000
O O21 0.000000 0.220788 0.500000
O O22 0.500000 0.850407 0.000000
#
# Coordination Sequence:
#
# PCOD9146000 Si02
#       8
#     4   4   4   4   4   4   4   4
#     4  10  22  39  60  90 117 145 191 227 260 323
#     4  10  22  41  57  82 116 154 191 239 293 350
#     4  11  23  41  60  86 119 146 178 226 281 329
#     4  11  25  40  60  87 112 141 180 234 279 332
#     4  10  19  32  55  83 111 150 198 244 293 349
#     4   8  14  25  43  72 108 143 185 239 292 342
#     4  10  24  40  62  86 115 150 197 237 285 351
#     4  11  23  39  63  87 113 151 184 220 274 329
#
# _framework density 19.611408999999998
#
# number of rings (size 3 to 8) (size 9 to 14) (size 15 to 20)
#    0.000    1.875    2.500    0.750    3.500    3.000 
#    0.000    0.625    0.000    0.375    0.000    0.000 
#    0.000   13.000    0.000    0.000    0.000    2.000 
#
# Total GULP energy -178392.492825 kJ/mol
# GULP energy per Si atom -5574.765401 kJ/mol
# Density = 1.956677 g / cm^3
# Si number density = 19.611409 Si / 1000 Ang^3
#
#
#
# Elastic Constant Matrix: (Units=GPa)
#
#
# Indices 1 2 3 4 5 6 
#
# 1 92.9645 23.8372 23.4326 0.0000 -3.5979 0.0000
# 2 23.8372 52.8214 14.8539 0.0000 -22.1220 0.0000
# 3 23.4326 14.8539 86.5682 0.0000 -12.2567 0.0000
# 4 0.0000 0.0000 0.0000 -0.9217 0.0000 14.4800
# 5 -3.5979 -22.1220 -12.2567 0.0000 36.8663 0.0000
# 6 0.0000 0.0000 0.0000 14.4800 0.0000 28.4931
#
#
#
# Elastic Compliance Matrix: (Units=1/GPa)
#
#
# Indices 1 2 3 4 5 6 
#
# 1 0.013042 -0.006596 -0.002916 0.000000 -0.003655 0.000000
# 2 -0.006596 0.029066 -0.000864 0.000000 0.016510 0.000000
# 3 -0.002916 -0.000864 0.012987 0.000000 0.003514 0.000000
# 4 0.000000 0.000000 0.000000 -0.120768 0.000000 0.061374
# 5 -0.003655 0.016510 0.003514 0.000000 0.037844 0.000000
# 6 0.000000 0.000000 0.000000 0.061374 0.000000 0.003907
#
#
# Mechanical properties :
#
#
# Convention : Reuss Voigt Hill
#
# Bulk Modulus (GPa) = 29.11872 39.62238 34.37055
# Shear Modulus (GPa) = 604.09774 24.23622 314.16698
#
# Velocity S-wave (km/s) = 17.56993 3.51924 12.67059
# Velocity P-wave (km/s) = 20.65148 6.06309 15.21914
#
# Compressibility (1/GPa) = 0.03434217
#
# Stress axis : x y z
#
# Youngs Moduli (GPa) = 76.67758 34.40434 77.00158
#
# Poissons Ratio (x) = 0.22693 0.22452
# Poissons Ratio (y) = 0.50577 0.06655
# Poissons Ratio (z) = 0.22358 0.02973
#
# Static dielectric constant tensor:
#      x y z
#    x 1.435420 0.000000 0.341950 
#    y 0.000000 1.698790 0.000000 
#    z 0.341950 0.000000 1.449870 
# 
# From -- ./inp_files/26236.got.cif
#   From: 2010.05.17/outbox.cif.g08.bks.cpg/sg10_14_cif.got.tgz:26236.got - 2010.06.03 11:33:40.
