data_PCOD9146860
_publ_section_title
;
Structure prediction by ZEFSAII (Michael W. Deem and Ramdas Pophale) SiO2 
 PCOD9146860
Probable space group: P 2/M
;
_chemical_formula_sum "Si O2"
_cell_formula_units_Z 28
_cell_length_a 8.702344
_cell_length_b 7.834492
_cell_length_c 28.048784
_cell_angle_alpha 90.000000
_cell_angle_beta 141.229087
_cell_angle_gamma 90.000000
_cell_volume 1197.511794
_symmetry_space_group_name_H-M "P 2/M"
_symmetry_group_IT_number 10
_symmetry_cell_setting 'monoclinic'
loop_
_space_group_symop_operation_xyz
x,y,z
-x,y,-z
-x,-y,-z
x,-y,z
loop_
_atom_site_type_symbol
_atom_site_label
_atom_site_fract_x
_atom_site_fract_y
_atom_site_fract_z
Si Si1 0.262417 0.205112 0.851555
Si Si2 0.720093 0.694923 0.456973
Si Si3 0.246254 0.793963 0.086227
Si Si4 0.384314 0.705734 0.664483
Si Si5 0.911692 0.704991 0.602105
Si Si6 0.873098 0.296680 0.832280
Si Si7 0.807882 0.806535 0.679465
O O1 0.517312 0.266840 0.888356
O O2 0.139581 0.246347 0.873977
O O3 0.046120 0.261781 0.763504
O O4 0.278276 0.000000 0.854593
O O5 0.805572 0.500000 0.482703
O O6 0.786495 0.771615 0.421368
O O7 0.432363 0.694351 0.373533
O O8 0.761811 0.766501 0.519338
O O9 0.203531 0.749899 0.131969
O O10 0.257205 0.000000 0.087438
O O11 0.000000 0.735545 0.000000
O O12 0.392994 0.500000 0.661556
O O13 0.199755 0.732961 0.663455
O O14 0.652466 0.771169 0.744457
O O15 0.865115 0.500000 0.597815
O O16 0.847140 0.804603 0.633079
O O17 0.865915 0.500000 0.827911
O O18 0.757045 0.000000 0.682822
#
# Coordination Sequence:
#
# PCOD9146860 Si02
#       7
#     4   4   4   4   4   4   4
#     4  10  22  41  64  89 120 163 206 243 293 359
#     4  10  19  34  54  76 106 145 192 239 285 343
#     4  10  23  44  68  93 123 160 201 242 288 356
#     4   9  18  34  55  81 109 142 190 239 286 340
#     4  10  20  33  53  77 105 147 193 242 292 339
#     4  11  22  38  65  96 126 159 196 249 305 354
#     4  11  22  35  52  77 111 147 187 238 289 343
#
# _framework density 23.381813000000001
#
# number of rings (size 3 to 8) (size 9 to 14) (size 15 to 20)
#    0.000    1.857    1.429    2.571    0.000    6.000 
#    0.000    4.286    0.000    1.714    0.000    0.000 
#    0.000    0.000    0.000    0.000    0.000    0.000 
#
# Total GULP energy -155937.257728 kJ/mol
# GULP energy per Si atom -5569.187776 kJ/mol
# Density = 2.332860 g / cm^3
# Si number density = 23.381813 Si / 1000 Ang^3
#
#
#
# Elastic Constant Matrix: (Units=GPa)
#
#
# Indices 1 2 3 4 5 6 
#
# 1 89.7394 10.9921 24.5941 0.0000 -5.1676 0.0000
# 2 10.9921 39.6329 2.3279 0.0000 5.5209 0.0000
# 3 24.5941 2.3279 75.3390 0.0000 -0.6172 0.0000
# 4 0.0000 0.0000 0.0000 18.0178 0.0000 -7.6391
# 5 -5.1676 5.5209 -0.6172 0.0000 38.2592 0.0000
# 6 0.0000 0.0000 0.0000 -7.6391 0.0000 21.0925
#
#
#
# Elastic Compliance Matrix: (Units=1/GPa)
#
#
# Indices 1 2 3 4 5 6 
#
# 1 0.012825 -0.003624 -0.004057 0.000000 0.002190 0.000000
# 2 -0.003624 0.026825 0.000318 0.000000 -0.004355 0.000000
# 3 -0.004057 0.000318 0.014585 0.000000 -0.000359 0.000000
# 4 0.000000 0.000000 0.000000 0.065569 0.000000 0.023747
# 5 0.002190 -0.004355 -0.000359 0.000000 0.027056 0.000000
# 6 0.000000 0.000000 0.000000 0.023747 0.000000 0.056011
#
#
# Mechanical properties :
#
#
# Convention : Reuss Voigt Hill
#
# Bulk Modulus (GPa) = 25.30984 31.17105 28.24045
# Shear Modulus (GPa) = 21.66707 26.59370 24.13039
#
# Velocity S-wave (km/s) = 3.04742 3.37615 3.21598
# Velocity P-wave (km/s) = 4.81979 5.34398 5.08864
#
# Compressibility (1/GPa) = 0.03951032
#
# Stress axis : x y z
#
# Youngs Moduli (GPa) = 77.97172 37.27927 68.56408
#
# Poissons Ratio (x) = 0.13509 0.27815
# Poissons Ratio (y) = 0.28255 -0.02183
# Poissons Ratio (z) = 0.31632 -0.01187
#
# Static dielectric constant tensor:
#      x y z
#    x 2.160920 0.000000 0.003880 
#    y 0.000000 1.691150 0.000000 
#    z 0.003880 0.000000 1.920990 
# 
# From -- ./inp_files/92058.got.cif
#   From: 2010.05.17/outbox.cif.g08.bks.cpg/sg10_47_cif.got.tgz:92058.got - 2010.06.03 11:33:40.
