data_PCOD9146312
_publ_section_title
;
Structure prediction by ZEFSAII (Michael W. Deem and Ramdas Pophale) SiO2 
 PCOD9146312
Probable space group: P 2/M
;
_chemical_formula_sum "Si O2"
_cell_formula_units_Z 32
_cell_length_a 32.193299
_cell_length_b 8.200669
_cell_length_c 12.456259
_cell_angle_alpha 90.000000
_cell_angle_beta 29.339207
_cell_angle_gamma 90.000000
_cell_volume 1611.313107
_symmetry_space_group_name_H-M "P 2/M"
_symmetry_group_IT_number 10
_symmetry_cell_setting 'monoclinic'
loop_
_space_group_symop_operation_xyz
x,y,z
-x,y,-z
-x,-y,-z
x,-y,z
loop_
_atom_site_type_symbol
_atom_site_label
_atom_site_fract_x
_atom_site_fract_y
_atom_site_fract_z
Si Si1 0.402061 0.802742 0.213118
Si Si2 0.216285 0.694912 0.234313
Si Si3 0.470165 0.803591 0.446977
Si Si4 0.749279 0.696014 0.306366
Si Si5 0.634410 0.197380 0.943703
Si Si6 0.278703 0.305258 0.863014
Si Si7 0.934730 0.812294 0.286948
Si Si8 0.884960 0.690433 0.172795
O O1 0.343425 0.738557 0.440169
O O2 0.363549 0.750714 0.184914
O O3 0.401159 0.000000 0.218933
O O4 0.500000 0.750958 0.000000
O O5 0.208116 0.500000 0.248899
O O6 0.290762 0.737111 0.150510
O O7 0.129125 0.767510 0.474883
O O8 0.242173 0.758450 0.057949
O O9 0.500000 0.761276 0.500000
O O10 0.378830 0.728487 0.632557
O O11 0.461941 0.000000 0.459587
O O12 0.543949 0.754069 0.198653
O O13 0.757788 0.500000 0.284049
O O14 0.760414 0.758888 0.160114
O O15 0.817472 0.756352 0.239507
O O16 0.638635 0.000000 0.937178
O O17 0.266233 0.500000 0.893021
O O18 0.886343 0.781777 0.283199
O O19 0.960168 0.000000 0.235214
O O20 0.020389 0.707819 0.088059
O O21 0.867435 0.500000 0.233896
#
# Coordination Sequence:
#
# PCOD9146312 Si02
#       8
#     4   4   4   4   4   4   4   4
#     4  10  21  36  54  78 110 147 185 225 274 326
#     4  11  22  36  55  80 110 144 183 226 276 328
#     4  10  19  33  54  78 107 145 188 230 276 326
#     4  10  22  39  58  81 110 146 187 228 272 325
#     4  10  20  34  53  79 110 142 182 232 280 330
#     4  10  22  38  55  78 110 148 189 231 274 324
#     4  11  22  37  60  88 117 142 175 224 277 330
#     4  10  20  38  63  88 114 144 181 222 272 331
#
# _framework density 19.859580999999999
#
# number of rings (size 3 to 8) (size 9 to 14) (size 15 to 20)
#    0.000    1.750    1.250    4.125    0.000    6.500 
#    0.000    0.625    0.000    3.750    0.000    0.000 
#    0.000    0.000    0.000    0.000    0.000    0.000 
#
# Total GULP energy -178807.991814 kJ/mol
# GULP energy per Si atom -5587.749744 kJ/mol
# Density = 1.981438 g / cm^3
# Si number density = 19.859581 Si / 1000 Ang^3
#
#
#
# Elastic Constant Matrix: (Units=GPa)
#
#
# Indices 1 2 3 4 5 6 
#
# 1 97.2004 -1.4510 28.6542 0.0000 7.4795 0.0000
# 2 -1.4510 15.1012 -8.0345 0.0000 2.8929 0.0000
# 3 28.6542 -8.0345 80.9908 0.0000 14.8283 0.0000
# 4 0.0000 0.0000 0.0000 32.6270 0.0000 -5.2502
# 5 7.4795 2.8929 14.8283 0.0000 30.8080 0.0000
# 6 0.0000 0.0000 0.0000 -5.2502 0.0000 13.1120
#
#
#
# Elastic Compliance Matrix: (Units=1/GPa)
#
#
# Indices 1 2 3 4 5 6 
#
# 1 0.011520 -0.000883 -0.004021 0.000000 -0.000779 0.000000
# 2 -0.000883 0.073455 0.009676 0.000000 -0.011340 0.000000
# 3 -0.004021 0.009676 0.016139 0.000000 -0.007700 0.000000
# 4 0.000000 0.000000 0.000000 0.032760 0.000000 0.013117
# 5 -0.000779 -0.011340 -0.007700 0.000000 0.037419 0.000000
# 6 0.000000 0.000000 0.000000 0.013117 0.000000 0.081518
#
#
# Mechanical properties :
#
#
# Convention : Reuss Voigt Hill
#
# Bulk Modulus (GPa) = 9.03687 25.73662 17.38674
# Shear Modulus (GPa) = 17.84727 26.91766 22.38247
#
# Velocity S-wave (km/s) = 3.00104 3.68557 3.36078
# Velocity P-wave (km/s) = 4.07045 5.57662 4.88197
#
# Compressibility (1/GPa) = 0.11065784
#
# Stress axis : x y z
#
# Youngs Moduli (GPa) = 86.80505 13.61375 61.96053
#
# Poissons Ratio (x) = 0.01202 0.24913
# Poissons Ratio (y) = 0.07666 -0.59951
# Poissons Ratio (z) = 0.34903 -0.13172
#
# Static dielectric constant tensor:
#      x y z
#    x 1.712690 0.000000 0.015460 
#    y 0.000000 1.696310 0.000000 
#    z 0.015460 0.000000 1.678280 
# 
# From -- ./inp_files/58207.got.cif
#   From: 2010.05.17/outbox.cif.g08.bks.cpg/sg10_30_cif.got.tgz:58207.got - 2010.06.03 11:33:40.
