data_PCOD9146517
_publ_section_title
;
Structure prediction by ZEFSAII (Michael W. Deem and Ramdas Pophale) SiO2 
 PCOD9146517
Probable space group: P 2/M
;
_chemical_formula_sum "Si O2"
_cell_formula_units_Z 32
_cell_length_a 13.219609
_cell_length_b 8.687247
_cell_length_c 33.515002
_cell_angle_alpha 90.000000
_cell_angle_beta 25.784727
_cell_angle_gamma 90.000000
_cell_volume 1674.250325
_symmetry_space_group_name_H-M "P 2/M"
_symmetry_group_IT_number 10
_symmetry_cell_setting 'monoclinic'
loop_
_space_group_symop_operation_xyz
x,y,z
-x,y,-z
-x,-y,-z
x,-y,z
loop_
_atom_site_type_symbol
_atom_site_label
_atom_site_fract_x
_atom_site_fract_y
_atom_site_fract_z
Si Si1 0.584913 0.819578 0.238618
Si Si2 0.741354 0.315851 0.578072
Si Si3 0.204427 0.178661 0.587478
Si Si4 0.970380 0.686706 0.963552
Si Si5 0.021794 0.317852 0.733033
Si Si6 0.520143 0.816533 0.404104
Si Si7 0.461001 0.681369 0.124976
Si Si8 0.708451 0.173177 0.736456
O O1 0.455926 0.737444 0.320710
O O2 0.822075 0.747064 0.137718
O O3 0.410345 0.805868 0.263308
O O4 0.618599 0.000000 0.235878
O O5 0.750051 0.500000 0.573553
O O6 0.650787 0.254206 0.567896
O O7 0.000000 0.261064 0.500000
O O8 0.121480 0.282231 0.653424
O O9 0.422184 0.223291 0.483173
O O10 0.984680 0.181464 0.635699
O O11 0.227869 0.000000 0.593029
O O12 0.971870 0.500000 0.963323
O O13 0.000000 0.734911 0.000000
O O14 0.724553 0.741505 0.032138
O O15 0.018327 0.500000 0.741497
O O16 0.213725 0.241003 0.693326
O O17 0.753904 0.257963 0.825807
O O18 0.513528 0.000000 0.403208
O O19 0.473460 0.500000 0.112147
O O20 0.380383 0.708207 0.199189
O O21 0.650880 0.000000 0.771936
#
# Coordination Sequence:
#
# PCOD9146517 Si02
#       8
#     4   4   4   4   4   4   4   4
#     4  11  22  35  55  83 115 151 191 233 282 337
#     4  11  25  43  62  84 111 147 191 235 279 330
#     4   9  18  32  50  75 107 144 183 224 276 333
#     4  10  19  33  55  82 116 153 190 233 284 339
#     4  10  20  33  52  79 111 145 186 231 279 335
#     4  11  22  37  57  78 107 145 187 233 282 334
#     4   9  18  32  50  76 110 148 182 221 276 332
#     4   9  17  29  47  73 107 143 179 220 267 327
#
# _framework density 19.113030999999999
#
# number of rings (size 3 to 8) (size 9 to 14) (size 15 to 20)
#    0.000    2.000    1.250    2.625    0.000    6.250 
#    0.000    2.500    0.000    0.750    0.000    5.250 
#    0.000    0.000    0.000    0.000    0.000    0.000 
#
# Total GULP energy -178386.781970 kJ/mol
# GULP energy per Si atom -5574.586937 kJ/mol
# Density = 1.906953 g / cm^3
# Si number density = 19.113031 Si / 1000 Ang^3
#
#
#
# Elastic Constant Matrix: (Units=GPa)
#
#
# Indices 1 2 3 4 5 6 
#
# 1 70.2233 25.8596 27.5338 0.0000 -19.2092 0.0000
# 2 25.8596 25.9252 19.8568 0.0000 -7.5627 0.0000
# 3 27.5338 19.8568 79.1516 0.0000 -9.2767 0.0000
# 4 0.0000 0.0000 0.0000 19.8385 0.0000 -0.7248
# 5 -19.2092 -7.5627 -9.2767 0.0000 26.5329 0.0000
# 6 0.0000 0.0000 0.0000 -0.7248 0.0000 27.3288
#
#
#
# Elastic Compliance Matrix: (Units=1/GPa)
#
#
# Indices 1 2 3 4 5 6 
#
# 1 0.026139 -0.020610 -0.002495 0.000000 0.012177 0.000000
# 2 -0.020610 0.066586 -0.009447 0.000000 0.000755 0.000000
# 3 -0.002495 -0.009447 0.016000 0.000000 0.001095 0.000000
# 4 0.000000 0.000000 0.000000 0.050456 0.000000 0.001338
# 5 0.012177 0.000755 0.001095 0.000000 0.047103 0.000000
# 6 0.000000 0.000000 0.000000 0.001338 0.000000 0.036627
#
#
# Mechanical properties :
#
#
# Convention : Reuss Voigt Hill
#
# Bulk Modulus (GPa) = 22.92410 35.75563 29.33986
# Shear Modulus (GPa) = 15.50121 21.54335 18.52228
#
# Velocity S-wave (km/s) = 2.85095 3.36095 3.11640
# Velocity P-wave (km/s) = 4.78092 5.81459 5.32290
#
# Compressibility (1/GPa) = 0.04362221
#
# Stress axis : x y z
#
# Youngs Moduli (GPa) = 38.25668 15.01819 62.49911
#
# Poissons Ratio (x) = 0.30952 0.15595
# Poissons Ratio (y) = 0.78846 0.59041
# Poissons Ratio (z) = 0.09546 0.14187
#
# Static dielectric constant tensor:
#      x y z
#    x 1.702830 0.000000 -0.043630 
#    y 0.000000 1.658240 0.000000 
#    z -0.043630 0.000000 1.688880 
# 
# From -- ./inp_files/94999.got.cif
#   From: 2010.05.17/outbox.cif.g08.bks.cpg/sg10_48_cif.got.tgz:94999.got - 2010.06.03 11:33:40.
