data_PCOD9146089
_publ_section_title
;
Structure prediction by ZEFSAII (Michael W. Deem and Ramdas Pophale) SiO2 
 PCOD9146089
Probable space group: P 2/M
;
_chemical_formula_sum "Si O2"
_cell_formula_units_Z 28
_cell_length_a 19.629642
_cell_length_b 7.763417
_cell_length_c 14.344336
_cell_angle_alpha 90.000000
_cell_angle_beta 145.798006
_cell_angle_gamma 90.000000
_cell_volume 1228.764694
_symmetry_space_group_name_H-M "P 2/M"
_symmetry_group_IT_number 10
_symmetry_cell_setting 'monoclinic'
loop_
_space_group_symop_operation_xyz
x,y,z
-x,y,-z
-x,-y,-z
x,-y,z
loop_
_atom_site_type_symbol
_atom_site_label
_atom_site_fract_x
_atom_site_fract_y
_atom_site_fract_z
Si Si1 0.729594 0.701081 0.104692
Si Si2 0.530956 0.710022 0.137329
Si Si3 0.696143 0.702853 0.480405
Si Si4 0.892866 0.792405 0.449631
Si Si5 0.525616 0.792853 0.636376
Si Si6 0.207121 0.803928 0.015402
Si Si7 0.948500 0.795286 0.720708
O O1 0.743141 0.500000 0.098993
O O2 0.774112 0.730064 0.260374
O O3 0.589218 0.750087 0.939576
O O4 0.801391 0.803543 0.107322
O O5 0.539317 0.500000 0.141151
O O6 0.645133 0.776159 0.324158
O O7 0.500000 0.775813 0.000000
O O8 0.710457 0.500000 0.485591
O O9 0.588698 0.731748 0.432245
O O10 0.830313 0.771686 0.650537
O O11 0.915016 0.726641 0.579110
O O12 0.000000 0.738888 0.500000
O O13 0.889312 0.000000 0.447835
O O14 0.500000 0.752568 0.500000
O O15 0.661061 0.724734 0.813852
O O16 0.528588 0.000000 0.651778
O O17 0.213166 0.000000 0.058062
O O18 0.078831 0.724946 0.901581
O O19 0.967049 0.000000 0.731238
#
# Coordination Sequence:
#
# PCOD9146089 Si02
#       7
#     4   4   4   4   4   4   4
#     4  11  20  31  51  79 112 151 199 246 289 340
#     4   9  18  32  49  74 114 155 190 233 285 339
#     4  11  22  38  60  88 123 158 193 244 302 353
#     4  10  19  33  50  74 114 161 206 246 288 340
#     4  10  22  42  69  95 116 147 196 250 304 364
#     4  10  20  38  61  83 114 151 191 241 295 350
#     4  10  21  37  57  82 117 161 200 241 292 348
#
# _framework density 22.787113000000002
#
# number of rings (size 3 to 8) (size 9 to 14) (size 15 to 20)
#    0.000    1.857    2.857    1.714    0.000    2.857 
#    0.000    0.714    0.000    7.714    0.000    0.000 
#    0.000    0.000    0.000    0.000    0.000    0.000 
#
# Total GULP energy -156305.385178 kJ/mol
# GULP energy per Si atom -5582.335185 kJ/mol
# Density = 2.273525 g / cm^3
# Si number density = 22.787113 Si / 1000 Ang^3
#
#
#
# Elastic Constant Matrix: (Units=GPa)
#
#
# Indices 1 2 3 4 5 6 
#
# 1 78.1242 6.7259 53.7421 0.0000 32.9087 0.0000
# 2 6.7259 36.5132 11.6687 0.0000 6.7341 0.0000
# 3 53.7421 11.6687 116.0378 0.0000 43.2285 0.0000
# 4 0.0000 0.0000 0.0000 67.5777 0.0000 67.0513
# 5 32.9087 6.7341 43.2285 0.0000 40.6125 0.0000
# 6 0.0000 0.0000 0.0000 67.0513 0.0000 86.6836
#
#
#
# Elastic Compliance Matrix: (Units=1/GPa)
#
#
# Indices 1 2 3 4 5 6 
#
# 1 0.021525 -0.000041 -0.005750 0.000000 -0.011315 0.000000
# 2 -0.000041 0.028484 -0.001820 0.000000 -0.002753 0.000000
# 3 -0.005750 -0.001820 0.015934 0.000000 -0.012000 0.000000
# 4 0.000000 0.000000 0.000000 0.063644 0.000000 -0.049230
# 5 -0.011315 -0.002753 -0.012000 0.000000 0.047021 0.000000
# 6 0.000000 0.000000 0.000000 -0.049230 0.000000 0.049616
#
#
# Mechanical properties :
#
#
# Convention : Reuss Voigt Hill
#
# Bulk Modulus (GPa) = 19.71502 41.66093 30.68797
# Shear Modulus (GPa) = 19.35329 49.54400 34.44865
#
# Velocity S-wave (km/s) = 2.91745 4.66790 3.89235
# Velocity P-wave (km/s) = 4.47429 6.88293 5.80492
#
# Compressibility (1/GPa) = 0.05072275
#
# Stress axis : x y z
#
# Youngs Moduli (GPa) = 46.45677 35.10721 62.75791
#
# Poissons Ratio (x) = 0.00143 0.36085
# Poissons Ratio (y) = 0.00189 0.11422
# Poissons Ratio (z) = 0.26712 0.06389
#
# Static dielectric constant tensor:
#      x y z
#    x 1.861160 0.000000 0.049520 
#    y 0.000000 1.814100 0.000000 
#    z 0.049520 0.000000 1.916100 
# 
# From -- ./inp_files/70284.got.cif
#   From: 2010.05.17/outbox.cif.g08.bks.cpg/sg10_36_cif.got.tgz:70284.got - 2010.06.03 11:33:40.
