data_PCOD9146728
_publ_section_title
;
Structure prediction by ZEFSAII (Michael W. Deem and Ramdas Pophale) SiO2 
 PCOD9146728
Probable space group: P 2/M
;
_chemical_formula_sum "Si O2"
_cell_formula_units_Z 14
_cell_length_a 5.278870
_cell_length_b 14.312964
_cell_length_c 11.655544
_cell_angle_alpha 90.000000
_cell_angle_beta 131.219916
_cell_angle_gamma 90.000000
_cell_volume 662.412141
_symmetry_space_group_name_H-M "P 2/M"
_symmetry_group_IT_number 10
_symmetry_cell_setting 'monoclinic'
loop_
_space_group_symop_operation_xyz
x,y,z
-x,y,-z
-x,-y,-z
x,-y,z
loop_
_atom_site_type_symbol
_atom_site_label
_atom_site_fract_x
_atom_site_fract_y
_atom_site_fract_z
Si Si1 0.218537 0.105736 0.315404
Si Si2 0.115505 0.500000 0.402660
Si Si3 0.559829 0.605270 0.150452
Si Si4 0.714372 0.782301 0.315063
O O1 0.500000 0.102979 0.500000
O O2 0.438616 0.144361 0.276695
O O3 0.924394 0.174116 0.271886
O O4 0.095298 0.000000 0.260974
O O5 0.500000 0.500000 0.500000
O O6 0.000000 0.500000 0.500000
O O7 0.955484 0.588089 0.290969
O O8 0.418732 0.500000 0.135953
O O9 0.498469 0.691012 0.215135
O O10 0.500000 0.624259 0.000000
O O11 0.000000 0.764068 0.500000
#
# Coordination Sequence:
#
# PCOD9146728 Si02
#       4
#     4   2   4   4
#     4   9  18  33  55  85 116 145 188 245 296 341
#     4  10  21  38  61  84 112 148 194 242 281 334
#     4   9  21  41  59  86 123 162 195 239 295 351
#     4  10  19  33  58  86 112 151 196 238 287 343
#
# _framework density 21.134879999999999
#
# number of rings (size 3 to 8) (size 9 to 14) (size 15 to 20)
#    0.857    1.714    0.000    1.714    0.000    9.143 
#    0.000    7.143    0.000    5.143    0.000    0.000 
#    0.000    0.000    0.000    0.000    0.000    0.000 
#
# Total GULP energy -77956.363558 kJ/mol
# GULP energy per Si atom -5568.311683 kJ/mol
# Density = 2.108678 g / cm^3
# Si number density = 21.134880 Si / 1000 Ang^3
#
#
#
# Elastic Constant Matrix: (Units=GPa)
#
#
# Indices 1 2 3 4 5 6 
#
# 1 100.7898 15.0811 26.2724 0.0000 -3.8648 0.0000
# 2 15.0811 113.9049 20.3202 0.0000 -12.9736 0.0000
# 3 26.2724 20.3202 80.6641 0.0000 -4.6404 0.0000
# 4 0.0000 0.0000 0.0000 -6.9261 0.0000 -14.6288
# 5 -3.8648 -12.9736 -4.6404 0.0000 6.9792 0.0000
# 6 0.0000 0.0000 0.0000 -14.6288 0.0000 9.6006
#
#
#
# Elastic Compliance Matrix: (Units=1/GPa)
#
#
# Indices 1 2 3 4 5 6 
#
# 1 0.010965 -0.000539 -0.003269 0.000000 0.002897 0.000000
# 2 -0.000539 0.011387 -0.001552 0.000000 0.019837 0.000000
# 3 -0.003269 -0.001552 0.014123 0.000000 0.004695 0.000000
# 4 0.000000 0.000000 0.000000 -0.034227 0.000000 -0.052153
# 5 0.002897 0.019837 0.004695 0.000000 0.184882 0.000000
# 6 0.000000 0.000000 0.000000 -0.052153 0.000000 0.024692
#
#
# Mechanical properties :
#
#
# Convention : Reuss Voigt Hill
#
# Bulk Modulus (GPa) = 38.82604 46.52293 42.67448
# Shear Modulus (GPa) = 21.63311 17.50974 19.57143
#
# Velocity S-wave (km/s) = 3.20281 2.88145 3.04637
# Velocity P-wave (km/s) = 5.66461 5.75591 5.71044
#
# Compressibility (1/GPa) = 0.02575591
#
# Stress axis : x y z
#
# Youngs Moduli (GPa) = 91.19535 87.82106 70.80707
#
# Poissons Ratio (x) = 0.04730 0.23148
# Poissons Ratio (y) = 0.04912 0.10988
# Poissons Ratio (z) = 0.29813 0.13629
#
# Static dielectric constant tensor:
#      x y z
#    x 2.032230 0.000000 0.082990 
#    y 0.000000 1.909860 0.000000 
#    z 0.082990 0.000000 1.802190 
# 
# From -- ./inp_files/6502.got.cif
#   From: 2010.05.17/outbox.cif.g08.bks.cpg/sg10_4_cif.got.tgz:6502.got - 2010.06.03 11:33:40.
