data_PCOD9146755
_publ_section_title
;
Structure prediction by ZEFSAII (Michael W. Deem and Ramdas Pophale) SiO2 
 PCOD9146755
Probable space group: P 2/M
;
_chemical_formula_sum "Si O2"
_cell_formula_units_Z 28
_cell_length_a 7.181875
_cell_length_b 14.733702
_cell_length_c 18.916076
_cell_angle_alpha 90.000000
_cell_angle_beta 33.823742
_cell_angle_gamma 90.000000
_cell_volume 1114.179371
_symmetry_space_group_name_H-M "P 2/M"
_symmetry_group_IT_number 10
_symmetry_cell_setting 'monoclinic'
loop_
_space_group_symop_operation_xyz
x,y,z
-x,y,-z
-x,-y,-z
x,-y,z
loop_
_atom_site_type_symbol
_atom_site_label
_atom_site_fract_x
_atom_site_fract_y
_atom_site_fract_z
Si Si1 0.282590 0.355993 0.972118
Si Si2 0.758285 0.400909 0.246080
Si Si3 0.224872 0.806238 0.710802
Si Si4 0.758955 0.147955 0.976113
Si Si5 0.076041 0.229091 0.553958
Si Si6 0.822674 0.598943 0.691960
Si Si7 0.292826 0.896322 0.235580
O O1 0.329804 0.253099 0.981529
O O2 0.614039 0.392735 0.830517
O O3 0.000000 0.356426 0.000000
O O4 0.107061 0.403962 0.092895
O O5 0.713117 0.500000 0.295997
O O6 0.768729 0.303823 0.282135
O O7 0.460715 0.393838 0.280837
O O8 0.583393 0.826106 0.562994
O O9 0.955974 0.847435 0.741739
O O10 0.108479 0.848015 0.823517
O O11 0.655160 0.106022 0.083862
O O12 0.500000 0.108822 0.000000
O O13 0.000000 0.263765 0.500000
O O14 0.073429 0.317889 0.603380
O O15 0.777050 0.165369 0.674680
O O16 0.977766 0.500000 0.636968
O O17 0.200970 0.000000 0.277241
#
# Coordination Sequence:
#
# PCOD9146755 Si02
#       7
#     4   4   4   4   4   4   4
#     4   9  16  30  57  91 124 163 208 251 301 357
#     4   9  17  32  58  94 131 165 206 252 300 357
#     4  10  22  39  64  95 127 165 202 252 309 366
#     4   9  19  37  64  91 119 154 203 254 311 366
#     4  12  24  41  63  94 128 168 204 255 307 365
#     4  10  19  33  59  92 127 170 213 247 295 361
#     4  11  25  46  70  90 117 158 209 263 320 379
#
# _framework density 25.130602
#
# number of rings (size 3 to 8) (size 9 to 14) (size 15 to 20)
#    0.000    2.000    2.857    0.857    0.000    6.571 
#    0.000    0.714    0.000    8.571    0.000    0.000 
#    0.000    0.000    0.000    0.000    0.000    0.000 
#
# Total GULP energy -156426.818610 kJ/mol
# GULP energy per Si atom -5586.672093 kJ/mol
# Density = 2.507340 g / cm^3
# Si number density = 25.130602 Si / 1000 Ang^3
#
#
#
# Elastic Constant Matrix: (Units=GPa)
#
#
# Indices 1 2 3 4 5 6 
#
# 1 49.5569 -6.0982 40.9516 0.0000 -1.3761 0.0000
# 2 -6.0982 115.4248 27.2941 0.0000 13.8381 0.0000
# 3 40.9516 27.2941 173.3442 0.0000 0.4151 0.0000
# 4 0.0000 0.0000 0.0000 3.5463 0.0000 2.9295
# 5 -1.3761 13.8381 0.4151 0.0000 40.5261 0.0000
# 6 0.0000 0.0000 0.0000 2.9295 0.0000 39.4735
#
#
#
# Elastic Compliance Matrix: (Units=1/GPa)
#
#
# Indices 1 2 3 4 5 6 
#
# 1 0.025997 0.002942 -0.006605 0.000000 -0.000054 0.000000
# 2 0.002942 0.009727 -0.002219 0.000000 -0.003199 0.000000
# 3 -0.006605 -0.002219 0.007678 0.000000 0.000455 0.000000
# 4 0.000000 0.000000 0.000000 0.300401 0.000000 -0.022294
# 5 -0.000054 -0.003199 0.000455 0.000000 0.025761 0.000000
# 6 0.000000 0.000000 0.000000 -0.022294 0.000000 0.026988
#
#
# Mechanical properties :
#
#
# Convention : Reuss Voigt Hill
#
# Bulk Modulus (GPa) = 31.60738 51.40231 41.50484
# Shear Modulus (GPa) = 11.93712 35.12109 23.52910
#
# Velocity S-wave (km/s) = 2.18182 3.74243 3.06318
# Velocity P-wave (km/s) = 4.35335 6.25882 5.39094
#
# Compressibility (1/GPa) = 0.03163818
#
# Stress axis : x y z
#
# Youngs Moduli (GPa) = 38.46566 102.80361 130.25065
#
# Poissons Ratio (x) = -0.30243 0.86028
# Poissons Ratio (y) = -0.11316 0.28902
# Poissons Ratio (z) = 0.25406 0.22812
#
# Static dielectric constant tensor:
#      x y z
#    x 2.079590 0.000000 -0.020810 
#    y 0.000000 1.909620 0.000000 
#    z -0.020810 0.000000 2.021460 
# 
# From -- ./inp_files/64910.got.cif
#   From: 2010.05.17/outbox.cif.g08.bks.cpg/sg10_33_cif.got.tgz:64910.got - 2010.06.03 11:33:40.
