data_PCOD9146950
_publ_section_title
;
Structure prediction by ZEFSAII (Michael W. Deem and Ramdas Pophale) SiO2 
 PCOD9146950
Probable space group: P 2/M
;
_chemical_formula_sum "Si O2"
_cell_formula_units_Z 28
_cell_length_a 5.449299
_cell_length_b 17.210707
_cell_length_c 16.780291
_cell_angle_alpha 90.000000
_cell_angle_beta 65.774830
_cell_angle_gamma 90.000000
_cell_volume 1435.175720
_symmetry_space_group_name_H-M "P 2/M"
_symmetry_group_IT_number 10
_symmetry_cell_setting 'monoclinic'
loop_
_space_group_symop_operation_xyz
x,y,z
-x,y,-z
-x,-y,-z
x,-y,z
loop_
_atom_site_type_symbol
_atom_site_label
_atom_site_fract_x
_atom_site_fract_y
_atom_site_fract_z
Si Si1 0.678592 0.591275 0.553921
Si Si2 0.957164 0.248047 0.232050
Si Si3 0.693147 0.853723 0.409641
Si Si4 0.473034 0.000000 0.200026
Si Si5 0.807174 0.826723 0.955132
Si Si6 0.730540 0.117362 0.645106
Si Si7 0.609716 0.293966 0.709425
Si Si8 0.882454 0.000000 0.910515
O O1 0.500000 0.614431 0.500000
O O2 0.620045 0.500000 0.575222
O O3 0.620910 0.642373 0.639022
O O4 0.000000 0.599352 0.500000
O O5 0.825475 0.198800 0.322397
O O6 0.702477 0.289270 0.225357
O O7 0.083217 0.194119 0.147202
O O8 0.182573 0.301005 0.244839
O O9 0.500000 0.811679 0.500000
O O10 0.477620 0.907902 0.394741
O O11 0.954519 0.894841 0.410984
O O12 0.371652 0.925003 0.262317
O O13 0.305477 0.000000 0.141868
O O14 0.796272 0.000000 0.150195
O O15 0.810504 0.920027 0.963194
O O16 0.500000 0.799153 0.000000
O O17 0.000000 0.796065 0.000000
O O18 0.691161 0.210298 0.660246
#
# Coordination Sequence:
#
# PCOD9146950 Si02
#       8
#     4   4   4   2   4   4   4   2
#     4  10  21  36  56  87 125 161 195 238 291 344
#     4  10  21  36  56  83 112 149 191 237 289 341
#     4  10  20  36  54  75 102 136 185 237 283 334
#     4  12  22  39  59  78 111 150 191 248 301 340
#     4  12  24  40  59  85 117 148 191 248 307 367
#     4  10  21  34  51  76 103 146 192 233 282 328
#     4  10  19  34  55  80 111 149 195 230 275 346
#     4  12  22  37  60  84 106 142 190 240 309 378
#
# _framework density 19.509805
#
# number of rings (size 3 to 8) (size 9 to 14) (size 15 to 20)
#    0.000    1.429    0.000    7.714    0.000    6.857 
#    0.000    2.143    0.000    0.000    0.000    0.000 
#    0.000   11.429    0.000    0.000    0.000    0.000 
#
# Total GULP energy -156175.751253 kJ/mol
# GULP energy per Si atom -5577.705402 kJ/mol
# Density = 1.946540 g / cm^3
# Si number density = 19.509805 Si / 1000 Ang^3
#
#
#
# Elastic Constant Matrix: (Units=GPa)
#
#
# Indices 1 2 3 4 5 6 
#
# 1 227.2431 16.6397 44.9151 0.0000 -0.1302 0.0000
# 2 16.6397 39.7506 12.6811 0.0000 -1.1583 0.0000
# 3 44.9151 12.6811 78.9349 0.0000 -3.0182 0.0000
# 4 0.0000 0.0000 0.0000 6.3699 0.0000 2.7428
# 5 -0.1302 -1.1583 -3.0182 0.0000 37.7819 0.0000
# 6 0.0000 0.0000 0.0000 2.7428 0.0000 8.3472
#
#
#
# Elastic Compliance Matrix: (Units=1/GPa)
#
#
# Indices 1 2 3 4 5 6 
#
# 1 0.005019 -0.001258 -0.002663 0.000000 -0.000234 0.000000
# 2 -0.001258 0.026840 -0.003576 0.000000 0.000533 0.000000
# 3 -0.002663 -0.003576 0.014799 0.000000 0.001063 0.000000
# 4 0.000000 0.000000 0.000000 0.182861 0.000000 -0.060086
# 5 -0.000234 0.000533 0.001063 0.000000 0.026568 0.000000
# 6 0.000000 0.000000 0.000000 -0.060086 0.000000 0.139544
#
#
# Mechanical properties :
#
#
# Convention : Reuss Voigt Hill
#
# Bulk Modulus (GPa) = 31.58103 54.93339 43.25721
# Shear Modulus (GPa) = 11.87146 28.61264 20.24205
#
# Velocity S-wave (km/s) = 2.46943 3.83375 3.22457
# Velocity P-wave (km/s) = 4.93489 6.91482 6.00699
#
# Compressibility (1/GPa) = 0.03166458
#
# Stress axis : x y z
#
# Youngs Moduli (GPa) = 199.24897 37.25812 67.57300
#
# Poissons Ratio (x) = 0.04688 0.17992
# Poissons Ratio (y) = 0.25072 0.24161
# Poissons Ratio (z) = 0.53052 0.13322
#
# Static dielectric constant tensor:
#      x y z
#    x 1.811140 0.000000 0.042390 
#    y 0.000000 1.643100 0.000000 
#    z 0.042390 0.000000 1.769840 
# 
# From -- ./inp_files/59396.got.cif
#   From: 2010.05.17/outbox.cif.g08.bks.cpg/sg10_30_cif.got.tgz:59396.got - 2010.06.03 11:33:40.
