data_PCOD9146349
_publ_section_title
;
Structure prediction by ZEFSAII (Michael W. Deem and Ramdas Pophale) SiO2 
 PCOD9146349
Probable space group: P 2/M
;
_chemical_formula_sum "Si O2"
_cell_formula_units_Z 20
_cell_length_a 9.353180
_cell_length_b 23.279786
_cell_length_c 8.040927
_cell_angle_alpha 90.000000
_cell_angle_beta 33.070296
_cell_angle_gamma 90.000000
_cell_volume 955.372096
_symmetry_space_group_name_H-M "P 2/M"
_symmetry_group_IT_number 10
_symmetry_cell_setting 'monoclinic'
loop_
_space_group_symop_operation_xyz
x,y,z
-x,y,-z
-x,-y,-z
x,-y,z
loop_
_atom_site_type_symbol
_atom_site_label
_atom_site_fract_x
_atom_site_fract_y
_atom_site_fract_z
Si Si1 0.745497 0.064414 0.137341
Si Si2 0.890622 0.238614 0.291127
Si Si3 0.483458 0.564626 0.813891
Si Si4 0.613199 0.822435 0.072814
Si Si5 0.981487 0.634230 0.316372
O O1 0.500000 0.062678 0.500000
O O2 0.686554 0.114490 0.066208
O O3 0.781636 0.000000 0.030741
O O4 0.000000 0.078059 0.000000
O O5 0.613119 0.208031 0.595424
O O6 0.885820 0.306275 0.332082
O O7 0.000000 0.227727 0.000000
O O8 0.119338 0.213380 0.184223
O O9 0.421571 0.500000 0.818727
O O10 0.767079 0.586121 0.483455
O O11 0.500000 0.563449 0.000000
O O12 0.262434 0.610959 0.983999
O O13 0.500000 0.824913 0.000000
O O14 0.000000 0.640993 0.500000
#
# Coordination Sequence:
#
# PCOD9146349 Si02
#       5
#     4   4   4   4   4
#     4  10  21  39  63  90 123 162 200 239 292 357
#     4  12  25  41  61  86 121 162 202 244 301 366
#     4   9  17  30  52  81 110 143 186 237 290 345
#     4  12  24  40  63  91 122 156 202 254 300 347
#     4  10  19  33  54  80 111 146 191 242 288 342
#
# _framework density 20.934253999999999
#
# number of rings (size 3 to 8) (size 9 to 14) (size 15 to 20)
#    0.000    1.400    0.000    7.200    0.000    4.400 
#    0.000    0.000    0.000    9.600    0.000    0.000 
#    0.000    0.000    0.000    0.000    0.000    0.000 
#
# Total GULP energy -111837.236728 kJ/mol
# GULP energy per Si atom -5591.861836 kJ/mol
# Density = 2.088661 g / cm^3
# Si number density = 20.934254 Si / 1000 Ang^3
#
#
#
# Elastic Constant Matrix: (Units=GPa)
#
#
# Indices 1 2 3 4 5 6 
#
# 1 55.4892 27.5555 14.7421 0.0000 -11.4241 0.0000
# 2 27.5555 120.1931 6.2187 0.0000 -4.9371 0.0000
# 3 14.7421 6.2187 81.3785 0.0000 -22.5504 0.0000
# 4 0.0000 0.0000 0.0000 36.4147 0.0000 -13.3643
# 5 -11.4241 -4.9371 -22.5504 0.0000 30.7168 0.0000
# 6 0.0000 0.0000 0.0000 -13.3643 0.0000 22.1230
#
#
#
# Elastic Compliance Matrix: (Units=1/GPa)
#
#
# Indices 1 2 3 4 5 6 
#
# 1 0.022133 -0.004725 -0.001981 0.000000 0.006018 0.000000
# 2 -0.004725 0.009391 0.000087 0.000000 -0.000184 0.000000
# 3 -0.001981 0.000087 0.015617 0.000000 0.010743 0.000000
# 4 0.000000 0.000000 0.000000 0.035284 0.000000 0.021315
# 5 0.006018 -0.000184 0.010743 0.000000 0.042651 0.000000
# 6 0.000000 0.000000 0.000000 0.021315 0.000000 0.058078
#
#
# Mechanical properties :
#
#
# Convention : Reuss Voigt Hill
#
# Bulk Modulus (GPa) = 29.49397 39.34374 34.41885
# Shear Modulus (GPa) = 24.07415 31.75386 27.91400
#
# Velocity S-wave (km/s) = 3.39483 3.89888 3.65555
# Velocity P-wave (km/s) = 5.43009 6.25325 5.85615
#
# Compressibility (1/GPa) = 0.03390524
#
# Stress axis : x y z
#
# Youngs Moduli (GPa) = 45.18153 106.48457 64.03176
#
# Poissons Ratio (x) = 0.50309 0.12684
# Poissons Ratio (y) = 0.21346 -0.00559
# Poissons Ratio (z) = 0.08950 -0.00930
#
# Static dielectric constant tensor:
#      x y z
#    x 1.754860 0.000000 0.018920 
#    y 0.000000 1.751770 0.000000 
#    z 0.018920 0.000000 1.717240 
# 
# From -- ./inp_files/20587.got.cif
#   From: 2010.05.17/outbox.cif.g08.bks.cpg/sg10_11_cif.got.tgz:20587.got - 2010.06.03 11:33:40.
