data_PCOD9146668
_publ_section_title
;
Structure prediction by ZEFSAII (Michael W. Deem and Ramdas Pophale) SiO2 
 PCOD9146668
Probable space group: P 2/M
;
_chemical_formula_sum "Si O2"
_cell_formula_units_Z 20
_cell_length_a 12.541091
_cell_length_b 8.860865
_cell_length_c 21.205867
_cell_angle_alpha 90.000000
_cell_angle_beta 157.089984
_cell_angle_gamma 90.000000
_cell_volume 917.350112
_symmetry_space_group_name_H-M "P 2/M"
_symmetry_group_IT_number 10
_symmetry_cell_setting 'monoclinic'
loop_
_space_group_symop_operation_xyz
x,y,z
-x,y,-z
-x,-y,-z
x,-y,z
loop_
_atom_site_type_symbol
_atom_site_label
_atom_site_fract_x
_atom_site_fract_y
_atom_site_fract_z
Si Si1 0.092103 0.325324 0.753269
Si Si2 0.823424 0.674171 0.479566
Si Si3 0.738067 0.819982 0.816123
Si Si4 0.618100 0.821941 0.197106
Si Si5 0.036817 0.319908 0.868655
O O1 0.192985 0.500000 0.807181
O O2 0.309915 0.218378 0.836876
O O3 0.018288 0.285568 0.784012
O O4 0.843505 0.321078 0.567767
O O5 0.806789 0.500000 0.451709
O O6 0.549503 0.762150 0.313770
O O7 0.121747 0.744914 0.626503
O O8 0.800059 0.753860 0.781009
O O9 0.732677 0.000000 0.811450
O O10 0.000000 0.770825 0.000000
O O11 0.611931 0.000000 0.204862
O O12 0.326344 0.747136 0.050057
O O13 0.035206 0.500000 0.875388
#
# Coordination Sequence:
#
# PCOD9146668 Si02
#       5
#     4   4   4   4   4
#     4   8  18  34  56  86 120 151 182 226 278 333
#     4   9  19  38  60  83 115 151 188 227 279 338
#     4  11  25  43  59  80 112 147 189 242 291 331
#     4  10  19  33  56  89 123 151 183 226 280 336
#     4  11  21  36  59  86 117 153 192 228 274 336
#
# _framework density 21.801926999999999
#
# number of rings (size 3 to 8) (size 9 to 14) (size 15 to 20)
#    1.200    1.000    0.000    3.600    0.000    6.400 
#    0.000    5.000    0.000    6.000    0.000    0.000 
#    0.000    0.000    0.000    0.000    0.000    0.000 
#
# Total GULP energy -111661.211068 kJ/mol
# GULP energy per Si atom -5583.060553 kJ/mol
# Density = 2.175231 g / cm^3
# Si number density = 21.801927 Si / 1000 Ang^3
#
#
#
# Elastic Constant Matrix: (Units=GPa)
#
#
# Indices 1 2 3 4 5 6 
#
# 1 97.5363 22.6233 28.5270 0.0000 15.7580 0.0000
# 2 22.6233 69.6319 24.2950 0.0000 11.3903 0.0000
# 3 28.5270 24.2950 93.0512 0.0000 17.6014 0.0000
# 4 0.0000 0.0000 0.0000 57.0235 0.0000 -29.9796
# 5 15.7580 11.3903 17.6014 0.0000 37.8200 0.0000
# 6 0.0000 0.0000 0.0000 -29.9796 0.0000 29.9002
#
#
#
# Elastic Compliance Matrix: (Units=1/GPa)
#
#
# Indices 1 2 3 4 5 6 
#
# 1 0.012064 -0.002558 -0.002440 0.000000 -0.003120 0.000000
# 2 -0.002558 0.016684 -0.003096 0.000000 -0.002518 0.000000
# 3 -0.002440 -0.003096 0.013087 0.000000 -0.004141 0.000000
# 4 0.000000 0.000000 0.000000 0.037086 0.000000 0.037185
# 5 -0.003120 -0.002518 -0.004141 0.000000 0.030427 0.000000
# 6 0.000000 0.000000 0.000000 0.037185 0.000000 0.070728
#
#
# Mechanical properties :
#
#
# Convention : Reuss Voigt Hill
#
# Bulk Modulus (GPa) = 38.99053 45.67889 42.33471
# Shear Modulus (GPa) = 24.41258 37.26700 30.83979
#
# Velocity S-wave (km/s) = 3.34989 4.13891 3.76512
# Velocity P-wave (km/s) = 5.73456 6.62103 6.19367
#
# Compressibility (1/GPa) = 0.02564725
#
# Stress axis : x y z
#
# Youngs Moduli (GPa) = 82.89323 59.93670 76.41435
#
# Poissons Ratio (x) = 0.15329 0.18648
# Poissons Ratio (y) = 0.21201 0.23655
# Poissons Ratio (z) = 0.20229 0.18554
#
# Static dielectric constant tensor:
#      x y z
#    x 1.838120 0.000000 -0.058370 
#    y 0.000000 1.722790 0.000000 
#    z -0.058370 0.000000 1.816290 
# 
# From -- ./inp_files/31687.got.cif
#   From: 2010.05.17/outbox.cif.g08.bks.cpg/sg10_16_cif.got.tgz:31687.got - 2010.06.03 11:33:40.
