data_PCOD9146695
_publ_section_title
;
Structure prediction by ZEFSAII (Michael W. Deem and Ramdas Pophale) SiO2 
 PCOD9146695
Probable space group: P 2/M
;
_chemical_formula_sum "Si O2"
_cell_formula_units_Z 28
_cell_length_a 14.471350
_cell_length_b 7.480031
_cell_length_c 12.663624
_cell_angle_alpha 90.000000
_cell_angle_beta 62.940941
_cell_angle_gamma 90.000000
_cell_volume 1220.739372
_symmetry_space_group_name_H-M "P 2/M"
_symmetry_group_IT_number 10
_symmetry_cell_setting 'monoclinic'
loop_
_space_group_symop_operation_xyz
x,y,z
-x,y,-z
-x,-y,-z
x,-y,z
loop_
_atom_site_type_symbol
_atom_site_label
_atom_site_fract_x
_atom_site_fract_y
_atom_site_fract_z
Si Si1 0.097525 0.211768 0.884106
Si Si2 0.886858 0.295422 0.572211
Si Si3 0.707913 0.284079 0.068685
Si Si4 0.471320 0.717956 0.218714
Si Si5 0.172433 0.205408 0.626608
Si Si6 0.400034 0.716223 0.486285
Si Si7 0.284001 0.718760 0.175016
O O1 0.203344 0.231629 0.895287
O O2 0.111673 0.284035 0.758102
O O3 0.079827 0.000000 0.879797
O O4 0.000000 0.285619 0.000000
O O5 0.904121 0.500000 0.599545
O O6 0.839721 0.298018 0.479641
O O7 0.805512 0.218585 0.698172
O O8 0.000000 0.210522 0.500000
O O9 0.705289 0.500000 0.070987
O O10 0.590552 0.222180 0.153875
O O11 0.733959 0.225739 0.935776
O O12 0.474144 0.500000 0.215985
O O13 0.416696 0.770914 0.356444
O O14 0.396517 0.773389 0.161861
O O15 0.294188 0.212032 0.589146
O O16 0.140944 0.000000 0.627009
O O17 0.500000 0.771596 0.500000
O O18 0.394106 0.500000 0.492602
O O19 0.284479 0.500000 0.176776
#
# Coordination Sequence:
#
# PCOD9146695 Si02
#       7
#     4   4   4   4   4   4   4
#     4  10  24  44  59  75 109 154 189 227 287 340
#     4  10  21  37  60  87 116 148 185 235 291 338
#     4  10  20  34  59  90 112 141 192 237 272 326
#     4   9  16  30  53  84 119 148 175 221 283 335
#     4  11  23  39  59  83 112 149 192 235 279 335
#     4  10  19  33  57  85 115 151 188 229 282 338
#     4   9  17  32  55  86 118 146 178 225 283 334
#
# _framework density 22.936919
#
# number of rings (size 3 to 8) (size 9 to 14) (size 15 to 20)
#    0.000    2.143    1.429    1.714    2.000    4.857 
#    0.000    1.429    0.000    0.857    0.000    0.000 
#    0.000    0.000    0.000    0.000    0.000    0.000 
#
# Total GULP energy -156475.170032 kJ/mol
# GULP energy per Si atom -5588.398930 kJ/mol
# Density = 2.288471 g / cm^3
# Si number density = 22.936919 Si / 1000 Ang^3
#
#
#
# Elastic Constant Matrix: (Units=GPa)
#
#
# Indices 1 2 3 4 5 6 
#
# 1 58.4164 -10.1610 10.3631 0.0000 -21.3361 0.0000
# 2 -10.1610 63.8264 1.8797 0.0000 -2.8133 0.0000
# 3 10.3631 1.8797 138.6079 0.0000 -19.4384 0.0000
# 4 0.0000 0.0000 0.0000 -8.8342 0.0000 6.5092
# 5 -21.3361 -2.8133 -19.4384 0.0000 42.2137 0.0000
# 6 0.0000 0.0000 0.0000 6.5092 0.0000 80.7023
#
#
#
# Elastic Compliance Matrix: (Units=1/GPa)
#
#
# Indices 1 2 3 4 5 6 
#
# 1 0.021968 0.003999 -0.000109 0.000000 0.011319 0.000000
# 2 0.003999 0.016442 -0.000091 0.000000 0.003075 0.000000
# 3 -0.000109 -0.000091 0.007714 0.000000 0.003491 0.000000
# 4 0.000000 0.000000 0.000000 -0.106846 0.000000 0.008618
# 5 0.011319 0.003075 0.003491 0.000000 0.031222 0.000000
# 6 0.000000 0.000000 0.000000 0.008618 0.000000 0.011696
#
#
# Mechanical properties :
#
#
# Convention : Reuss Voigt Hill
#
# Bulk Modulus (GPa) = 18.61410 29.44603 24.03007
# Shear Modulus (GPa) = -667.11255 40.06761 -313.52247
#
# Velocity S-wave (km/s) = -17.07273 4.18408 -11.70409
# Velocity P-wave (km/s) = 19.50652 6.01729 13.12053
#
# Compressibility (1/GPa) = 0.05372271
#
# Stress axis : x y z
#
# Youngs Moduli (GPa) = 45.52109 60.81828 129.64247
#
# Poissons Ratio (x) = -0.24324 0.01416
# Poissons Ratio (y) = -0.18206 0.01176
# Poissons Ratio (z) = 0.00497 0.00552
#
# Static dielectric constant tensor:
#      x y z
#    x 1.836150 0.000000 -0.006780 
#    y 0.000000 1.911490 0.000000 
#    z -0.006780 0.000000 1.845500 
# 
# From -- ./inp_files/49613.got.cif
#   From: 2010.05.17/outbox.cif.g08.bks.cpg/sg10_25_cif.got.tgz:49613.got - 2010.06.03 11:33:40.
