data_PCOD9146243
_publ_section_title
;
Structure prediction by ZEFSAII (Michael W. Deem and Ramdas Pophale) SiO2 
 PCOD9146243
Probable space group: P 2/M
;
_chemical_formula_sum "Si O2"
_cell_formula_units_Z 32
_cell_length_a 12.235914
_cell_length_b 7.422252
_cell_length_c 29.872839
_cell_angle_alpha 90.000000
_cell_angle_beta 148.970115
_cell_angle_gamma 90.000000
_cell_volume 1398.507252
_symmetry_space_group_name_H-M "P 2/M"
_symmetry_group_IT_number 10
_symmetry_cell_setting 'monoclinic'
loop_
_space_group_symop_operation_xyz
x,y,z
-x,y,-z
-x,-y,-z
x,-y,z
loop_
_atom_site_type_symbol
_atom_site_label
_atom_site_fract_x
_atom_site_fract_y
_atom_site_fract_z
Si Si1 0.942732 0.293832 0.187731
Si Si2 0.659327 0.203709 0.167340
Si Si3 0.539334 0.220258 0.279386
Si Si4 0.253988 0.781859 0.972592
Si Si5 0.112130 0.779651 0.664963
Si Si6 0.580190 0.790498 0.664730
Si Si7 0.624508 0.779328 0.499167
Si Si8 0.104690 0.218951 0.083180
O O1 0.975827 0.500000 0.211797
O O2 0.848789 0.198066 0.198020
O O3 0.777923 0.281623 0.089017
O O4 0.165762 0.219003 0.248931
O O5 0.748998 0.284523 0.244135
O O6 0.590578 0.000000 0.155069
O O7 0.460217 0.285467 0.071397
O O8 0.761738 0.272509 0.335405
O O9 0.498948 0.285143 0.315708
O O10 0.342489 0.276630 0.178649
O O11 0.532696 0.000000 0.277824
O O12 0.049484 0.731666 0.930107
O O13 0.265684 0.000000 0.974075
O O14 0.869629 0.722865 0.584350
O O15 0.108798 0.000000 0.665394
O O16 0.486478 0.716652 0.585623
O O17 0.517290 0.000000 0.643341
O O18 0.500000 0.721143 0.500000
O O19 0.619415 0.000000 0.497872
O O20 0.107857 0.000000 0.082260
O O21 0.000000 0.281185 0.000000
#
# Coordination Sequence:
#
# PCOD9146243 Si02
#       8
#     4   4   4   4   4   4   4   4
#     4  12  24  36  52  75 107 144 182 227 273 317
#     4  10  20  34  55  79 106 141 179 220 267 321
#     4   9  16  27  47  77 110 138 170 218 267 314
#     4  10  19  33  53  79 107 140 181 220 264 321
#     4   9  17  30  50  83 115 136 170 220 273 321
#     4  10  19  34  56  79 106 142 180 222 271 322
#     4   9  17  29  49  78 112 145 175 215 268 321
#     4   9  15  25  45  74 107 138 171 215 262 306
#
# _framework density 22.881537999999999
#
# number of rings (size 3 to 8) (size 9 to 14) (size 15 to 20)
#    0.000    2.250    1.250    3.000    0.000    7.500 
#    0.000    2.500    0.000    4.500    0.000    0.875 
#    0.000    0.000    0.000    0.000    0.000    0.000 
#
# Total GULP energy -178849.300392 kJ/mol
# GULP energy per Si atom -5589.040637 kJ/mol
# Density = 2.282946 g / cm^3
# Si number density = 22.881538 Si / 1000 Ang^3
#
#
#
# Elastic Constant Matrix: (Units=GPa)
#
#
# Indices 1 2 3 4 5 6 
#
# 1 140.4422 -0.6375 85.3297 0.0000 12.6053 0.0000
# 2 -0.6375 72.9785 -4.4002 0.0000 -4.1185 0.0000
# 3 85.3297 -4.4002 143.2343 0.0000 -6.8875 0.0000
# 4 0.0000 0.0000 0.0000 48.8616 0.0000 -65.3759
# 5 12.6053 -4.1185 -6.8875 0.0000 38.9116 0.0000
# 6 0.0000 0.0000 0.0000 -65.3759 0.0000 26.0655
#
#
#
# Elastic Compliance Matrix: (Units=1/GPa)
#
#
# Indices 1 2 3 4 5 6 
#
# 1 0.012170 -0.000649 -0.007527 0.000000 -0.005344 0.000000
# 2 -0.000649 0.013855 0.000901 0.000000 0.001836 0.000000
# 3 -0.007527 0.000901 0.011715 0.000000 0.004607 0.000000
# 4 0.000000 0.000000 0.000000 -0.008687 0.000000 -0.021789
# 5 -0.005344 0.001836 0.004607 0.000000 0.028440 0.000000
# 6 0.000000 0.000000 0.000000 -0.021789 0.000000 -0.016285
#
#
# Mechanical properties :
#
#
# Convention : Reuss Voigt Hill
#
# Bulk Modulus (GPa) = 43.12407 57.47099 50.29753
# Shear Modulus (GPa) = 78.75352 41.19195 59.97274
#
# Velocity S-wave (km/s) = 5.87304 4.24751 5.12513
# Velocity P-wave (km/s) = 8.05467 7.01615 7.55328
#
# Compressibility (1/GPa) = 0.02318891
#
# Stress axis : x y z
#
# Youngs Moduli (GPa) = 82.16647 72.17656 85.36058
#
# Poissons Ratio (x) = 0.04685 0.64253
# Poissons Ratio (y) = 0.05333 -0.07688
# Poissons Ratio (z) = 0.61849 -0.06500
#
# Static dielectric constant tensor:
#      x y z
#    x 1.812030 0.000000 -0.005250 
#    y 0.000000 1.897030 0.000000 
#    z -0.005250 0.000000 1.820480 
# 
# From -- ./inp_files/95045.got.cif
#   From: 2010.05.17/outbox.cif.g08.bks.cpg/sg10_48_cif.got.tgz:95045.got - 2010.06.03 11:33:40.
