data_PCOD9146968
_publ_section_title
;
Structure prediction by ZEFSAII (Michael W. Deem and Ramdas Pophale) SiO2 
 PCOD9146968
Probable space group: P 2/M
;
_chemical_formula_sum "Si O2"
_cell_formula_units_Z 28
_cell_length_a 26.296100
_cell_length_b 7.478142
_cell_length_c 10.267270
_cell_angle_alpha 90.000000
_cell_angle_beta 139.901976
_cell_angle_gamma 90.000000
_cell_volume 1300.443467
_symmetry_space_group_name_H-M "P 2/M"
_symmetry_group_IT_number 10
_symmetry_cell_setting 'monoclinic'
loop_
_space_group_symop_operation_xyz
x,y,z
-x,y,-z
-x,-y,-z
x,-y,z
loop_
_atom_site_type_symbol
_atom_site_label
_atom_site_fract_x
_atom_site_fract_y
_atom_site_fract_z
Si Si1 0.853215 0.704583 0.917824
Si Si2 0.818739 0.216482 0.362180
Si Si3 0.564932 0.781761 0.523889
Si Si4 0.431490 0.218827 0.766191
Si Si5 0.262335 0.206190 0.536499
Si Si6 0.742145 0.217030 0.940636
Si Si7 0.002970 0.710908 0.357519
O O1 0.866279 0.500000 0.901757
O O2 0.804076 0.791205 0.705253
O O3 0.797718 0.711124 0.935970
O O4 0.935994 0.784877 0.129644
O O5 0.774467 0.284454 0.404000
O O6 0.909901 0.269960 0.528790
O O7 0.818112 0.000000 0.363979
O O8 0.774380 0.273103 0.143929
O O9 0.500000 0.720881 0.500000
O O10 0.552084 0.724166 0.349808
O O11 0.652359 0.728998 0.739764
O O12 0.563021 0.000000 0.520060
O O13 0.344787 0.281152 0.643234
O O14 0.430367 0.000000 0.761569
O O15 0.500000 0.273001 0.000000
O O16 0.280995 0.000000 0.604198
O O17 0.745730 0.000000 0.940638
O O18 0.983859 0.500000 0.331838
O O19 0.000000 0.784348 0.500000
#
# Coordination Sequence:
#
# PCOD9146968 Si02
#       7
#     4   4   4   4   4   4   4
#     4  11  22  37  59  81 104 146 190 226 269 326
#     4  10  22  35  55  84 113 144 179 226 279 331
#     4   9  17  28  48  80 111 140 177 221 267 316
#     4   9  17  29  49  77 110 145 176 216 268 320
#     4  10  21  38  55  81 117 147 180 224 276 328
#     4  10  19  34  55  83 114 144 180 227 275 322
#     4  10  21  38  57  79 109 142 184 232 272 321
#
# _framework density 21.531116000000001
#
# number of rings (size 3 to 8) (size 9 to 14) (size 15 to 20)
#    0.000    2.143    2.857    0.429    2.000    2.571 
#    0.000    2.857    0.000    0.857    0.000    0.000 
#    0.000    0.000    0.000    0.000    0.000    0.000 
#
# Total GULP energy -156420.685842 kJ/mol
# GULP energy per Si atom -5586.453066 kJ/mol
# Density = 2.148211 g / cm^3
# Si number density = 21.531116 Si / 1000 Ang^3
#
#
#
# Elastic Constant Matrix: (Units=GPa)
#
#
# Indices 1 2 3 4 5 6 
#
# 1 144.8886 -12.6630 68.4135 0.0000 -5.0798 0.0000
# 2 -12.6630 55.6072 -14.6309 0.0000 3.4535 0.0000
# 3 68.4135 -14.6309 143.8489 0.0000 13.3638 0.0000
# 4 0.0000 0.0000 0.0000 25.0387 0.0000 16.4786
# 5 -5.0798 3.4535 13.3638 0.0000 35.1399 0.0000
# 6 0.0000 0.0000 0.0000 16.4786 0.0000 29.8071
#
#
#
# Elastic Compliance Matrix: (Units=1/GPa)
#
#
# Indices 1 2 3 4 5 6 
#
# 1 0.009244 0.000706 -0.004605 0.000000 0.003018 0.000000
# 2 0.000706 0.018768 0.001799 0.000000 -0.002426 0.000000
# 3 -0.004605 0.001799 0.009747 0.000000 -0.004549 0.000000
# 4 0.000000 0.000000 0.000000 0.062780 0.000000 -0.034707
# 5 0.003018 -0.002426 -0.004549 0.000000 0.030863 0.000000
# 6 0.000000 0.000000 0.000000 -0.034707 0.000000 0.052737
#
#
# Mechanical properties :
#
#
# Convention : Reuss Voigt Hill
#
# Bulk Modulus (GPa) = 29.79880 47.39821 38.59850
# Shear Modulus (GPa) = 25.05954 38.21214 31.63584
#
# Velocity S-wave (km/s) = 3.41526 4.21734 3.83731
# Velocity P-wave (km/s) = 5.42420 6.76581 6.13181
#
# Compressibility (1/GPa) = 0.03355840
#
# Stress axis : x y z
#
# Youngs Moduli (GPa) = 108.18216 53.28231 102.59220
#
# Poissons Ratio (x) = -0.03762 0.47242
# Poissons Ratio (y) = -0.07637 -0.18452
# Poissons Ratio (z) = 0.49816 -0.09583
#
# Static dielectric constant tensor:
#      x y z
#    x 1.734150 0.000000 0.000060 
#    y 0.000000 1.807460 0.000000 
#    z 0.000060 0.000000 1.750790 
# 
# From -- ./inp_files/37339.got.cif
#   From: 2010.05.17/outbox.cif.g08.bks.cpg/sg10_19_cif.got.tgz:37339.got - 2010.06.03 11:33:40.
