data_PCOD9146712
_publ_section_title
;
Structure prediction by ZEFSAII (Michael W. Deem and Ramdas Pophale) SiO2 
 PCOD9146712
Probable space group: P 2/M
;
_chemical_formula_sum "Si O2"
_cell_formula_units_Z 28
_cell_length_a 16.059642
_cell_length_b 7.894708
_cell_length_c 12.285089
_cell_angle_alpha 90.000000
_cell_angle_beta 56.313955
_cell_angle_gamma 90.000000
_cell_volume 1296.045183
_symmetry_space_group_name_H-M "P 2/M"
_symmetry_group_IT_number 10
_symmetry_cell_setting 'monoclinic'
loop_
_space_group_symop_operation_xyz
x,y,z
-x,y,-z
-x,-y,-z
x,-y,z
loop_
_atom_site_type_symbol
_atom_site_label
_atom_site_fract_x
_atom_site_fract_y
_atom_site_fract_z
Si Si1 0.224625 0.801463 0.831335
Si Si2 0.833926 0.799693 0.361681
Si Si3 0.454936 0.295464 0.649880
Si Si4 0.385692 0.293038 0.089819
Si Si5 0.201780 0.297249 0.088195
Si Si6 0.978273 0.699233 0.635112
Si Si7 0.353737 0.295098 0.356578
O O1 0.181172 0.730209 0.749713
O O2 0.343991 0.772505 0.744776
O O3 0.205348 0.000000 0.842718
O O4 0.182926 0.736027 0.975485
O O5 0.923546 0.715019 0.362359
O O6 0.731348 0.774179 0.502745
O O7 0.854906 0.000000 0.341292
O O8 0.500000 0.246607 0.500000
O O9 0.447473 0.500000 0.658148
O O10 0.536354 0.244074 0.680710
O O11 0.389788 0.500000 0.082669
O O12 0.310402 0.235062 0.050252
O O13 0.341383 0.246713 0.239900
O O14 0.500000 0.233511 0.000000
O O15 0.203769 0.500000 0.098810
O O16 0.115517 0.228423 0.230012
O O17 0.955667 0.500000 0.634560
O O18 0.000000 0.773712 0.500000
O O19 0.348754 0.500000 0.366605
#
# Coordination Sequence:
#
# PCOD9146712 Si02
#       7
#     4   4   4   4   4   4   4
#     4  11  24  39  56  82 121 163 196 234 290 351
#     4  11  24  39  57  84 117 154 194 238 289 348
#     4  10  19  33  57  88 117 152 198 243 287 340
#     4   9  17  32  57  87 116 146 183 232 290 346
#     4  10  21  38  61  87 115 149 193 242 288 343
#     4  10  22  42  67  91 114 145 190 244 298 348
#     4  10  19  34  59  87 116 151 193 244 295 344
#
# _framework density 21.604185000000001
#
# number of rings (size 3 to 8) (size 9 to 14) (size 15 to 20)
#    0.000    1.857    1.429    2.571    0.000    8.571 
#    0.000    5.000    0.000    1.714    0.000    0.000 
#    0.000    0.000    0.000    0.000    0.000    0.000 
#
# Total GULP energy -156465.126554 kJ/mol
# GULP energy per Si atom -5588.040234 kJ/mol
# Density = 2.155501 g / cm^3
# Si number density = 21.604185 Si / 1000 Ang^3
#
#
#
# Elastic Constant Matrix: (Units=GPa)
#
#
# Indices 1 2 3 4 5 6 
#
# 1 99.9348 -9.1606 61.2402 0.0000 10.9733 0.0000
# 2 -9.1606 16.9843 6.3668 0.0000 0.6150 0.0000
# 3 61.2402 6.3668 154.3019 0.0000 15.0156 0.0000
# 4 0.0000 0.0000 0.0000 -257.5354 0.0000 -74.1199
# 5 10.9733 0.6150 15.0156 0.0000 34.2105 0.0000
# 6 0.0000 0.0000 0.0000 -74.1199 0.0000 -59.8097
#
#
#
# Elastic Compliance Matrix: (Units=1/GPa)
#
#
# Indices 1 2 3 4 5 6 
#
# 1 0.014994 0.010479 -0.006160 0.000000 -0.002294 0.000000
# 2 0.010479 0.067127 -0.006774 0.000000 -0.001595 0.000000
# 3 -0.006160 -0.006774 0.009403 0.000000 -0.002029 0.000000
# 4 0.000000 0.000000 0.000000 -0.006036 0.000000 0.007480
# 5 -0.002294 -0.001595 -0.002029 0.000000 0.030886 0.000000
# 6 0.000000 0.000000 0.000000 0.007480 0.000000 -0.025989
#
#
# Mechanical properties :
#
#
# Convention : Reuss Voigt Hill
#
# Bulk Modulus (GPa) = 11.54539 43.12375 27.33457
# Shear Modulus (GPa) = 40.26904 -42.44194 -1.08645
#
# Velocity S-wave (km/s) = 4.32203 -4.43710 -0.70992
# Velocity P-wave (km/s) = 5.50111 2.49927 3.46525
#
# Compressibility (1/GPa) = 0.08661464
#
# Stress axis : x y z
#
# Youngs Moduli (GPa) = 66.69390 14.89715 106.35357
#
# Poissons Ratio (x) = -0.15611 0.65514
# Poissons Ratio (y) = -0.69890 0.72040
# Poissons Ratio (z) = 0.41084 0.10091
#
# Static dielectric constant tensor:
#      x y z
#    x 1.770270 0.000000 0.019470 
#    y 0.000000 1.792860 0.000000 
#    z 0.019470 0.000000 1.784660 
# 
# From -- ./inp_files/49645.got.cif
#   From: 2010.05.17/outbox.cif.g08.bks.cpg/sg10_25_cif.got.tgz:49645.got - 2010.06.03 11:33:40.
