data_PCOD9146647
_publ_section_title
;
Structure prediction by ZEFSAII (Michael W. Deem and Ramdas Pophale) SiO2 
 PCOD9146647
Probable space group: P 2/M
;
_chemical_formula_sum "Si O2"
_cell_formula_units_Z 22
_cell_length_a 12.559495
_cell_length_b 7.449440
_cell_length_c 10.588821
_cell_angle_alpha 90.000000
_cell_angle_beta 97.088446
_cell_angle_gamma 90.000000
_cell_volume 983.130748
_symmetry_space_group_name_H-M "P 2/M"
_symmetry_group_IT_number 10
_symmetry_cell_setting 'monoclinic'
loop_
_space_group_symop_operation_xyz
x,y,z
-x,y,-z
-x,-y,-z
x,-y,z
loop_
_atom_site_type_symbol
_atom_site_label
_atom_site_fract_x
_atom_site_fract_y
_atom_site_fract_z
Si Si1 0.841568 0.282786 0.384402
Si Si2 0.926849 0.718382 0.667958
Si Si3 0.551370 0.500000 0.771901
Si Si4 0.394108 0.205319 0.748039
Si Si5 0.346214 0.206319 0.026367
Si Si6 0.882851 0.717282 0.937773
O O1 0.839167 0.500000 0.380505
O O2 0.865871 0.226327 0.532190
O O3 0.727890 0.219353 0.317850
O O4 0.948183 0.226781 0.323053
O O5 0.927356 0.500000 0.667398
O O6 0.873152 0.773816 0.790273
O O7 0.474841 0.343088 0.697265
O O8 0.618278 0.342627 0.860224
O O9 0.392617 0.261798 0.896671
O O10 0.426905 0.000000 0.741811
O O11 0.377460 0.000000 0.053947
O O12 0.217331 0.213566 0.998818
O O13 0.880316 0.500000 0.944818
O O14 0.000000 0.774579 0.000000
#
# Coordination Sequence:
#
# PCOD9146647 Si02
#       6
#     4   4   2   4   4   4
#     4   9  16  32  56  83 115 149 187 232 277 327
#     4   8  16  30  54  85 116 152 189 224 273 335
#     4  12  23  40  61  80 111 151 185 233 295 332
#     4  11  22  35  57  87 113 142 189 237 279 334
#     4  11  23  37  56  85 116 147 186 230 279 337
#     4  10  19  33  56  85 118 154 187 221 273 339
#
# _framework density 22.377490000000002
#
# number of rings (size 3 to 8) (size 9 to 14) (size 15 to 20)
#    0.000    2.000    1.818    4.364    0.000    3.273 
#    0.000    3.636    0.000    2.182    0.000    2.545 
#    0.000    0.000    0.000    0.000    0.000    0.000 
#
# Total GULP energy -122476.498535 kJ/mol
# GULP energy per Si atom -5567.113570 kJ/mol
# Density = 2.232656 g / cm^3
# Si number density = 22.377490 Si / 1000 Ang^3
#
#
#
# Elastic Constant Matrix: (Units=GPa)
#
#
# Indices 1 2 3 4 5 6 
#
# 1 60.5004 9.4120 12.4388 0.0000 27.3532 0.0000
# 2 9.4120 101.3663 5.0204 0.0000 9.6029 0.0000
# 3 12.4388 5.0204 35.9197 0.0000 15.8832 0.0000
# 4 0.0000 0.0000 0.0000 -165.1782 0.0000 -252.5035
# 5 27.3532 9.6029 15.8832 0.0000 44.6510 0.0000
# 6 0.0000 0.0000 0.0000 -252.5035 0.0000 -377.8827
#
#
#
# Elastic Compliance Matrix: (Units=1/GPa)
#
#
# Indices 1 2 3 4 5 6 
#
# 1 0.023049 -0.000787 -0.002021 0.000000 -0.013232 0.000000
# 2 -0.000787 0.010106 -0.000465 0.000000 -0.001526 0.000000
# 3 -0.002021 -0.000465 0.033242 0.000000 -0.010487 0.000000
# 4 0.000000 0.000000 0.000000 0.282001 0.000000 -0.188435
# 5 -0.013232 -0.001526 -0.010487 0.000000 0.034560 0.000000
# 6 0.000000 0.000000 0.000000 -0.188435 0.000000 0.123267
#
#
# Mechanical properties :
#
#
# Convention : Reuss Voigt Hill
#
# Bulk Modulus (GPa) = 16.70813 27.94765 22.32789
# Shear Modulus (GPa) = 9.38578 -88.28762 -39.45092
#
# Velocity S-wave (km/s) = 2.05022 -6.28804 -4.20333
# Velocity P-wave (km/s) = 3.61763 6.34058 3.68210
#
# Compressibility (1/GPa) = 0.05985108
#
# Stress axis : x y z
#
# Youngs Moduli (GPa) = 43.38587 98.95252 30.08267
#
# Poissons Ratio (x) = 0.07783 0.06079
# Poissons Ratio (y) = 0.03413 0.01400
# Poissons Ratio (z) = 0.08768 0.04604
#
# Static dielectric constant tensor:
#      x y z
#    x 1.838610 0.000000 0.005000 
#    y 0.000000 1.834180 0.000000 
#    z 0.005000 0.000000 1.837260 
# 
# From -- ./inp_files/45318.got.cif
#   From: 2010.05.17/outbox.cif.g08.bks.cpg/sg10_23_cif.got.tgz:45318.got - 2010.06.03 11:33:40.
