data_PCOD9146488
_publ_section_title
;
Structure prediction by ZEFSAII (Michael W. Deem and Ramdas Pophale) SiO2 
 PCOD9146488
Probable space group: P 2/M
;
_chemical_formula_sum "Si O2"
_cell_formula_units_Z 32
_cell_length_a 12.564887
_cell_length_b 8.639698
_cell_length_c 21.123185
_cell_angle_alpha 90.000000
_cell_angle_beta 127.490123
_cell_angle_gamma 90.000000
_cell_volume 1819.452170
_symmetry_space_group_name_H-M "P 2/M"
_symmetry_group_IT_number 10
_symmetry_cell_setting 'monoclinic'
loop_
_space_group_symop_operation_xyz
x,y,z
-x,y,-z
-x,-y,-z
x,-y,z
loop_
_atom_site_type_symbol
_atom_site_label
_atom_site_fract_x
_atom_site_fract_y
_atom_site_fract_z
Si Si1 0.869365 0.685984 0.623923
Si Si2 0.855381 0.814976 0.120997
Si Si3 0.431735 0.687293 0.288813
Si Si4 0.142198 0.313516 0.231721
Si Si5 0.411775 0.311072 0.528755
Si Si6 0.845060 0.813899 0.264989
Si Si7 0.587529 0.314810 0.970348
Si Si8 0.556860 0.185588 0.205842
O O1 0.875110 0.500000 0.622780
O O2 0.843955 0.726843 0.688636
O O3 0.741577 0.739186 0.537223
O O4 0.014210 0.751385 0.658357
O O5 0.834483 0.766152 0.187122
O O6 0.005140 0.761810 0.157897
O O7 0.844646 0.000000 0.113887
O O8 0.739054 0.739186 0.037587
O O9 0.434126 0.500000 0.288376
O O10 0.277381 0.733982 0.244924
O O11 0.519443 0.738409 0.381201
O O12 0.491985 0.750354 0.246039
O O13 0.130130 0.500000 0.223810
O O14 0.500000 0.263208 0.500000
O O15 0.412339 0.500000 0.528735
O O16 0.711488 0.762130 0.252685
O O17 0.849700 0.000000 0.267529
O O18 0.581829 0.500000 0.963652
O O19 0.524734 0.242189 0.884889
O O20 0.500000 0.266050 0.000000
O O21 0.555801 0.000000 0.206645
#
# Coordination Sequence:
#
# PCOD9146488 Si02
#       8
#     4   4   4   4   4   4   4   4
#     4   9  16  28  53  83 106 135 178 226 270 316
#     4  10  19  33  55  81 110 142 178 220 267 321
#     4  10  20  35  56  81 112 146 182 226 275 324
#     4   9  17  31  52  80 111 141 177 224 274 319
#     4   9  15  29  54  83 110 139 179 226 274 320
#     4   9  19  34  51  74 107 145 178 216 267 319
#     4  11  22  36  58  86 110 135 177 228 272 318
#     4  11  23  39  56  76 110 150 184 218 267 329
#
# _framework density 17.587713000000001
#
# number of rings (size 3 to 8) (size 9 to 14) (size 15 to 20)
#    0.000    2.250    2.500    1.125    0.000    2.500 
#    0.000    1.875    0.000    8.250    0.000    0.000 
#    0.000    0.000    0.000    0.000    0.000    0.000 
#
# Total GULP energy -178542.448202 kJ/mol
# GULP energy per Si atom -5579.451506 kJ/mol
# Density = 1.754768 g / cm^3
# Si number density = 17.587713 Si / 1000 Ang^3
#
#
#
# Elastic Constant Matrix: (Units=GPa)
#
#
# Indices 1 2 3 4 5 6 
#
# 1 160.2695 32.1298 92.5582 0.0000 18.2902 0.0000
# 2 32.1298 14.8429 23.7564 0.0000 2.7659 0.0000
# 3 92.5582 23.7564 124.5685 0.0000 16.4574 0.0000
# 4 0.0000 0.0000 0.0000 -82.0451 0.0000 -21.2112
# 5 18.2902 2.7659 16.4574 0.0000 33.2066 0.0000
# 6 0.0000 0.0000 0.0000 -21.2112 0.0000 15.7387
#
#
#
# Elastic Compliance Matrix: (Units=1/GPa)
#
#
# Indices 1 2 3 4 5 6 
#
# 1 0.014332 -0.020232 -0.006389 0.000000 -0.003043 0.000000
# 2 -0.020232 0.125573 -0.009636 0.000000 0.005460 0.000000
# 3 -0.006389 -0.009636 0.015026 0.000000 -0.003125 0.000000
# 4 0.000000 0.000000 0.000000 -0.009039 0.000000 -0.012182
# 5 -0.003043 0.005460 -0.003125 0.000000 0.032884 0.000000
# 6 0.000000 0.000000 0.000000 -0.012182 0.000000 0.047120
#
#
# Mechanical properties :
#
#
# Convention : Reuss Voigt Hill
#
# Bulk Modulus (GPa) = 12.13349 66.28552 39.20950
# Shear Modulus (GPa) = 15.34289 3.46248 9.40268
#
# Velocity S-wave (km/s) = 2.95679 1.40462 2.31469
# Velocity P-wave (km/s) = 4.30936 6.35618 5.43008
#
# Compressibility (1/GPa) = 0.08241655
#
# Stress axis : x y z
#
# Youngs Moduli (GPa) = 69.77152 7.96347 66.55325
#
# Poissons Ratio (x) = 0.16112 0.42521
# Poissons Ratio (y) = 1.41162 0.64133
# Poissons Ratio (z) = 0.44577 0.07674
#
# Static dielectric constant tensor:
#      x y z
#    x 1.591150 0.000000 0.015640 
#    y 0.000000 1.594310 0.000000 
#    z 0.015640 0.000000 1.583230 
# 
# From -- ./inp_files/49832.got.cif
#   From: 2010.05.17/outbox.cif.g08.bks.cpg/sg10_25_cif.got.tgz:49832.got - 2010.06.03 11:33:40.
