data_PCOD9146849
_publ_section_title
;
Structure prediction by ZEFSAII (Michael W. Deem and Ramdas Pophale) SiO2 
 PCOD9146849
Probable space group: P 2/M
;
_chemical_formula_sum "Si O2"
_cell_formula_units_Z 22
_cell_length_a 6.745123
_cell_length_b 28.244104
_cell_length_c 9.140559
_cell_angle_alpha 90.000000
_cell_angle_beta 145.662393
_cell_angle_gamma 90.000000
_cell_volume 982.249938
_symmetry_space_group_name_H-M "P 2/M"
_symmetry_group_IT_number 10
_symmetry_cell_setting 'monoclinic'
loop_
_space_group_symop_operation_xyz
x,y,z
-x,y,-z
-x,-y,-z
x,-y,z
loop_
_atom_site_type_symbol
_atom_site_label
_atom_site_fract_x
_atom_site_fract_y
_atom_site_fract_z
Si Si1 0.411626 0.398569 0.775003
Si Si2 0.577002 0.500000 0.220674
Si Si3 0.173347 0.946516 0.416343
Si Si4 0.419916 0.802179 0.278153
Si Si5 0.588210 0.301371 0.723659
Si Si6 0.330813 0.102962 0.087020
O O1 0.564007 0.449047 0.809638
O O2 0.498481 0.349125 0.753008
O O3 0.000000 0.403391 0.500000
O O4 0.500000 0.395042 0.000000
O O5 0.000000 0.500000 0.500000
O O6 0.500000 0.500000 0.000000
O O7 0.500000 0.943130 0.500000
O O8 0.876200 0.909089 0.186867
O O9 0.038463 0.000000 0.325402
O O10 0.380052 0.935440 0.690883
O O11 0.500000 0.811694 0.500000
O O12 0.572015 0.750182 0.332349
O O13 0.509563 0.846264 0.228630
O O14 0.000000 0.798864 0.000000
O O15 0.500000 0.308049 0.500000
O O16 0.000000 0.296517 0.000000
O O17 0.000000 0.100490 0.000000
#
# Coordination Sequence:
#
# PCOD9146849 Si02
#       6
#     4   2   4   4   4   4
#     4  10  19  34  54  75  99 131 167 199 238 290
#     4   8  16  30  50  72  96 128 164 196 230 286
#     4   9  15  20  27  41  62  89 127 175 215 249
#     4   9  16  26  39  54  76 108 144 182 223 271
#     4  10  20  33  49  72 100 127 161 206 247 281
#     4   9  14  21  31  43  62  93 133 171 210 260
#
# _framework density 22.397559999999999
#
# number of rings (size 3 to 8) (size 9 to 14) (size 15 to 20)
#    0.000    2.727    0.000    4.364    0.000    2.182 
#    0.000    0.909    0.000    0.000    0.000    0.000 
#    0.000    0.000    0.000    0.000    0.000   18.182 
#
# Total GULP energy -122588.225341 kJ/mol
# GULP energy per Si atom -5572.192061 kJ/mol
# Density = 2.234658 g / cm^3
# Si number density = 22.397560 Si / 1000 Ang^3
#
#
#
# Elastic Constant Matrix: (Units=GPa)
#
#
# Indices 1 2 3 4 5 6 
#
# 1 27.6322 19.1726 24.2879 0.0000 -6.9176 0.0000
# 2 19.1726 215.6340 60.7678 0.0000 -7.4133 0.0000
# 3 24.2879 60.7678 177.9597 0.0000 -12.1722 0.0000
# 4 0.0000 0.0000 0.0000 37.6331 0.0000 -2.9025
# 5 -6.9176 -7.4133 -12.1722 0.0000 24.1250 0.0000
# 6 0.0000 0.0000 0.0000 -2.9025 0.0000 25.3378
#
#
#
# Elastic Compliance Matrix: (Units=1/GPa)
#
#
# Indices 1 2 3 4 5 6 
#
# 1 0.044244 -0.002308 -0.004589 0.000000 0.009662 0.000000
# 2 -0.002308 0.005264 -0.001468 0.000000 0.000215 0.000000
# 3 -0.004589 -0.001468 0.006863 0.000000 0.001696 0.000000
# 4 0.000000 0.000000 0.000000 0.026809 0.000000 0.003071
# 5 0.009662 0.000215 0.001696 0.000000 0.045143 0.000000
# 6 0.000000 0.000000 0.000000 0.003071 0.000000 0.039819
#
#
# Mechanical properties :
#
#
# Convention : Reuss Voigt Hill
#
# Bulk Modulus (GPa) = 25.22720 69.96472 47.59596
# Shear Modulus (GPa) = 25.24170 38.55236 31.89703
#
# Velocity S-wave (km/s) = 3.36070 4.15333 3.77786
# Velocity P-wave (km/s) = 5.13292 7.36923 6.35030
#
# Compressibility (1/GPa) = 0.03963975
#
# Stress axis : x y z
#
# Youngs Moduli (GPa) = 22.60193 189.97968 145.71456
#
# Poissons Ratio (x) = 0.43854 0.66873
# Poissons Ratio (y) = 0.05217 0.21386
# Poissons Ratio (z) = 0.10373 0.27882
#
# Static dielectric constant tensor:
#      x y z
#    x 1.926700 0.000000 -0.008190 
#    y 0.000000 1.977990 0.000000 
#    z -0.008190 0.000000 1.762770 
# 
# From -- ./inp_files/20908.got.cif
#   From: 2010.05.17/outbox.cif.g08.bks.cpg/sg10_11_cif.got.tgz:20908.got - 2010.06.03 11:33:40.
