data_PCOD9146420
_publ_section_title
;
Structure prediction by ZEFSAII (Michael W. Deem and Ramdas Pophale) SiO2 
 PCOD9146420
Probable space group: P 2/M
;
_chemical_formula_sum "Si O2"
_cell_formula_units_Z 32
_cell_length_a 28.450177
_cell_length_b 8.653055
_cell_length_c 21.537396
_cell_angle_alpha 90.000000
_cell_angle_beta 160.684222
_cell_angle_gamma 90.000000
_cell_volume 1753.797174
_symmetry_space_group_name_H-M "P 2/M"
_symmetry_group_IT_number 10
_symmetry_cell_setting 'monoclinic'
loop_
_space_group_symop_operation_xyz
x,y,z
-x,y,-z
-x,-y,-z
x,-y,z
loop_
_atom_site_type_symbol
_atom_site_label
_atom_site_fract_x
_atom_site_fract_y
_atom_site_fract_z
Si Si1 0.558195 0.683232 0.886371
Si Si2 0.417279 0.186706 0.834458
Si Si3 0.820761 0.816273 0.155713
Si Si4 0.060033 0.315862 0.889397
Si Si5 0.911215 0.186683 0.580216
Si Si6 0.329731 0.315075 0.154721
Si Si7 0.591041 0.185578 0.423290
Si Si8 0.080557 0.813506 0.162287
O O1 0.548724 0.500000 0.868649
O O2 0.490280 0.740375 0.865414
O O3 0.472165 0.758564 0.721542
O O4 0.722738 0.734868 0.084443
O O5 0.251756 0.231783 0.631899
O O6 0.423184 0.000000 0.835733
O O7 0.500000 0.230233 0.000000
O O8 0.983663 0.769679 0.345578
O O9 0.813642 0.000000 0.156299
O O10 0.744836 0.770307 0.996280
O O11 0.045787 0.500000 0.874240
O O12 0.972794 0.255815 0.720779
O O13 0.998197 0.243795 0.874437
O O14 0.226606 0.279861 0.083847
O O15 0.918423 0.000000 0.594305
O O16 0.326405 0.500000 0.140263
O O17 0.490678 0.256721 0.351736
O O18 0.754523 0.234676 0.632258
O O19 0.582368 0.000000 0.414950
O O20 0.079173 0.000000 0.161216
O O21 0.000000 0.760108 0.000000
#
# Coordination Sequence:
#
# PCOD9146420 Si02
#       8
#     4   4   4   4   4   4   4   4
#     4  11  21  33  52  78 106 134 166 205 252 304
#     4  10  21  37  54  73 101 136 173 212 252 296
#     4   9  16  29  51  77 102 128 164 208 251 295
#     4  10  20  33  53  80 105 133 167 205 253 305
#     4   9  18  33  55  80 102 130 169 211 253 297
#     4   9  17  30  49  76 106 130 160 204 252 300
#     4  10  19  33  55  79 101 130 170 210 250 297
#     4  10  22  38  53  72 101 136 173 212 251 294
#
# _framework density 18.246123999999998
#
# number of rings (size 3 to 8) (size 9 to 14) (size 15 to 20)
#    0.000    2.250    0.000    4.875    0.000    7.000 
#    0.000    1.250    0.000    7.500    0.000    0.000 
#    0.000    0.000    0.000    0.000    0.000    0.000 
#
# Total GULP energy -178473.850242 kJ/mol
# GULP energy per Si atom -5577.307820 kJ/mol
# Density = 1.820459 g / cm^3
# Si number density = 18.246124 Si / 1000 Ang^3
#
#
#
# Elastic Constant Matrix: (Units=GPa)
#
#
# Indices 1 2 3 4 5 6 
#
# 1 87.5689 21.8852 112.2709 0.0000 33.3646 0.0000
# 2 21.8852 27.7958 34.0035 0.0000 7.2157 0.0000
# 3 112.2709 34.0035 115.2921 0.0000 32.9930 0.0000
# 4 0.0000 0.0000 0.0000 26.2182 0.0000 -17.2378
# 5 33.3646 7.2157 32.9930 0.0000 31.3295 0.0000
# 6 0.0000 0.0000 0.0000 -17.2378 0.0000 35.4580
#
#
#
# Elastic Compliance Matrix: (Units=1/GPa)
#
#
# Indices 1 2 3 4 5 6 
#
# 1 -0.034649 -0.021976 0.040386 0.000000 -0.000568 0.000000
# 2 -0.021976 0.043277 0.006858 0.000000 0.006214 0.000000
# 3 0.040386 0.006858 -0.028508 0.000000 -0.014567 0.000000
# 4 0.000000 0.000000 0.000000 0.056060 0.000000 0.027253
# 5 -0.000568 0.006214 -0.014567 0.000000 0.046433 0.000000
# 6 0.000000 0.000000 0.000000 0.027253 0.000000 0.041452
#
#
# Mechanical properties :
#
#
# Convention : Reuss Voigt Hill
#
# Bulk Modulus (GPa) = 32.62107 62.99731 47.80919
# Shear Modulus (GPa) = 59.70326 22.76761 41.23543
#
# Velocity S-wave (km/s) = 5.72644 3.53626 4.75906
# Velocity P-wave (km/s) = 7.85111 7.16065 7.51382
#
# Compressibility (1/GPa) = 0.03065503
#
# Stress axis : x y z
#
# Youngs Moduli (GPa) = -28.86048 23.10709 -35.07833
#
# Poissons Ratio (x) = 0.50780 1.41666
# Poissons Ratio (y) = -0.63424 0.24057
# Poissons Ratio (z) = 1.16555 -0.15847
#
# Static dielectric constant tensor:
#      x y z
#    x 1.613770 0.000000 0.042670 
#    y 0.000000 1.610950 0.000000 
#    z 0.042670 0.000000 1.643760 
# 
# From -- ./inp_files/86925.got.cif
#   From: 2010.05.17/outbox.cif.g08.bks.cpg/sg10_44_cif.got.tgz:86925.got - 2010.06.03 11:33:40.
