data_PCOD9146196
_publ_section_title
;
Structure prediction by ZEFSAII (Michael W. Deem and Ramdas Pophale) SiO2 
 PCOD9146196
Probable space group: P 2/M
;
_chemical_formula_sum "Si O2"
_cell_formula_units_Z 24
_cell_length_a 24.436766
_cell_length_b 8.769282
_cell_length_c 11.525812
_cell_angle_alpha 90.000000
_cell_angle_beta 34.786683
_cell_angle_gamma 90.000000
_cell_volume 1409.133773
_symmetry_space_group_name_H-M "P 2/M"
_symmetry_group_IT_number 10
_symmetry_cell_setting 'monoclinic'
loop_
_space_group_symop_operation_xyz
x,y,z
-x,y,-z
-x,-y,-z
x,-y,z
loop_
_atom_site_type_symbol
_atom_site_label
_atom_site_fract_x
_atom_site_fract_y
_atom_site_fract_z
Si Si1 0.142455 0.182384 0.808970
Si Si2 0.955061 0.683013 0.245479
Si Si3 0.682984 0.683479 0.359839
Si Si4 0.527282 0.324613 0.315575
Si Si5 0.281317 0.820284 0.956208
Si Si6 0.097036 0.317264 0.399783
O O1 0.113864 0.249700 0.733583
O O2 0.243913 0.242128 0.677799
O O3 0.139139 0.000000 0.812201
O O4 0.059447 0.245255 0.039284
O O5 0.961958 0.500000 0.220486
O O6 0.918660 0.717707 0.437565
O O7 0.688421 0.500000 0.354998
O O8 0.571259 0.727137 0.573113
O O9 0.712508 0.736743 0.179153
O O10 0.500000 0.324996 0.500000
O O11 0.548140 0.500000 0.246655
O O12 0.622648 0.225746 0.140582
O O13 0.279739 0.000000 0.938581
O O14 0.187628 0.766175 0.187180
O O15 0.111212 0.500000 0.363502
O O16 0.000000 0.277518 0.500000
#
# Coordination Sequence:
#
# PCOD9146196 Si02
#       6
#     4   4   4   4   4   4
#     4  11  21  33  52  77 105 132 163 211 260 298
#     4  10  20  35  54  74 100 137 175 206 243 297
#     4  10  19  33  53  75 101 134 173 210 246 296
#     4   8  16  31  50  71  98 133 169 206 246 294
#     4  11  21  31  49  77 108 136 162 204 258 304
#     4  10  21  36  54  74  99 135 174 207 241 292
#
# _framework density 17.031739999999999
#
# number of rings (size 3 to 8) (size 9 to 14) (size 15 to 20)
#    0.000    2.000    0.000    7.000    0.000    6.667 
#    0.000    0.000    0.000    1.000    0.000    7.000 
#    0.000    0.000    0.000    0.000    0.000    0.000 
#
# Total GULP energy -133959.082777 kJ/mol
# GULP energy per Si atom -5581.628449 kJ/mol
# Density = 1.699297 g / cm^3
# Si number density = 17.031740 Si / 1000 Ang^3
#
#
#
# Elastic Constant Matrix: (Units=GPa)
#
#
# Indices 1 2 3 4 5 6 
#
# 1 72.7545 34.4262 44.6577 0.0000 -25.9031 0.0000
# 2 34.4262 82.9745 45.3104 0.0000 -8.5260 0.0000
# 3 44.6577 45.3104 87.0100 0.0000 -16.5756 0.0000
# 4 0.0000 0.0000 0.0000 -125.1990 0.0000 1.0363
# 5 -25.9031 -8.5260 -16.5756 0.0000 30.5464 0.0000
# 6 0.0000 0.0000 0.0000 1.0363 0.0000 11.2475
#
#
#
# Elastic Compliance Matrix: (Units=1/GPa)
#
#
# Indices 1 2 3 4 5 6 
#
# 1 0.027279 -0.005163 -0.008008 0.000000 0.017346 0.000000
# 2 -0.005163 0.017818 -0.007267 0.000000 -0.003348 0.000000
# 3 -0.008008 -0.007267 0.019749 0.000000 0.001897 0.000000
# 4 0.000000 0.000000 0.000000 -0.007981 0.000000 0.000735
# 5 0.017346 -0.003348 0.001897 0.000000 0.047541 0.000000
# 6 0.000000 0.000000 0.000000 0.000735 0.000000 0.088841
#
#
# Mechanical properties :
#
#
# Convention : Reuss Voigt Hill
#
# Bulk Modulus (GPa) = 41.71750 54.61420 48.16585
# Shear Modulus (GPa) = 20.65161 -8.79137 5.93012
#
# Velocity S-wave (km/s) = 3.48593 -2.27441 1.86798
# Velocity P-wave (km/s) = 6.38353 5.02379 5.74403
#
# Compressibility (1/GPa) = 0.02397076
#
# Stress axis : x y z
#
# Youngs Moduli (GPa) = 36.65845 56.12263 50.63650
#
# Poissons Ratio (x) = 0.28975 0.40549
# Poissons Ratio (y) = 0.18926 0.36796
# Poissons Ratio (z) = 0.29356 0.40783
#
# Static dielectric constant tensor:
#      x y z
#    x 1.579360 0.000000 -0.021290 
#    y 0.000000 1.566920 0.000000 
#    z -0.021290 0.000000 1.557300 
# 
# From -- ./inp_files/56522.got.cif
#   From: 2010.05.17/outbox.cif.g08.bks.cpg/sg10_29_cif.got.tgz:56522.got - 2010.06.03 11:33:40.
