data_PCOD9146465
_publ_section_title
;
Structure prediction by ZEFSAII (Michael W. Deem and Ramdas Pophale) SiO2 
 PCOD9146465
Probable space group: P 2/M
;
_chemical_formula_sum "Si O2"
_cell_formula_units_Z 28
_cell_length_a 15.692151
_cell_length_b 7.566578
_cell_length_c 14.966080
_cell_angle_alpha 90.000000
_cell_angle_beta 45.993648
_cell_angle_gamma 90.000000
_cell_volume 1278.137697
_symmetry_space_group_name_H-M "P 2/M"
_symmetry_group_IT_number 10
_symmetry_cell_setting 'monoclinic'
loop_
_space_group_symop_operation_xyz
x,y,z
-x,y,-z
-x,-y,-z
x,-y,z
loop_
_atom_site_type_symbol
_atom_site_label
_atom_site_fract_x
_atom_site_fract_y
_atom_site_fract_z
Si Si1 0.156097 0.793942 0.695494
Si Si2 0.885947 0.713186 0.468281
Si Si3 0.064690 0.295141 0.039430
Si Si4 0.671483 0.286990 0.125717
Si Si5 0.386618 0.283519 0.026208
Si Si6 0.154823 0.284510 0.302486
Si Si7 0.615859 0.210877 0.365893
O O1 0.178938 0.773559 0.573794
O O2 0.262255 0.719566 0.678986
O O3 0.030196 0.710192 0.812305
O O4 0.143077 0.000000 0.725739
O O5 0.885813 0.500000 0.467664
O O6 0.833189 0.768797 0.602264
O O7 0.023883 0.771994 0.366447
O O8 0.088216 0.500000 0.999866
O O9 0.192625 0.219466 0.969148
O O10 0.000000 0.214604 0.000000
O O11 0.673754 0.500000 0.118092
O O12 0.612794 0.241235 0.262545
O O13 0.611341 0.225100 0.078223
O O14 0.386822 0.500000 0.027286
O O15 0.263747 0.227055 0.162212
O O16 0.500000 0.225492 0.000000
O O17 0.153724 0.500000 0.301595
O O18 0.500000 0.281756 0.500000
O O19 0.618649 0.000000 0.379100
#
# Coordination Sequence:
#
# PCOD9146465 Si02
#       7
#     4   4   4   4   4   4   4
#     4  11  22  34  52  79 108 140 178 218 263 316
#     4   9  17  31  54  77 101 135 173 215 261 311
#     4  10  19  33  55  80 108 138 171 217 268 314
#     4  10  20  35  57  84 108 135 174 221 267 311
#     4   9  17  29  48  76 108 134 163 210 264 312
#     4   8  15  30  50  73 101 136 173 208 258 318
#     4  10  23  41  55  70 103 148 182 211 258 317
#
# _framework density 21.906873999999998
#
# number of rings (size 3 to 8) (size 9 to 14) (size 15 to 20)
#    0.000    2.429    1.429    2.143    0.000    5.143 
#    0.000    2.857    0.000    1.286    0.000    0.000 
#    0.000    0.000    0.000    0.000    0.000    0.000 
#
# Total GULP energy -156366.606085 kJ/mol
# GULP energy per Si atom -5584.521646 kJ/mol
# Density = 2.185701 g / cm^3
# Si number density = 21.906874 Si / 1000 Ang^3
#
#
#
# Elastic Constant Matrix: (Units=GPa)
#
#
# Indices 1 2 3 4 5 6 
#
# 1 125.2834 1.3715 69.5083 0.0000 25.1284 0.0000
# 2 1.3715 48.0908 -6.4003 0.0000 -5.6111 0.0000
# 3 69.5083 -6.4003 141.1550 0.0000 12.5952 0.0000
# 4 0.0000 0.0000 0.0000 51.0539 0.0000 34.9636
# 5 25.1284 -5.6111 12.5952 0.0000 33.6409 0.0000
# 6 0.0000 0.0000 0.0000 34.9636 0.0000 19.4451
#
#
#
# Elastic Compliance Matrix: (Units=1/GPa)
#
#
# Indices 1 2 3 4 5 6 
#
# 1 0.012681 -0.002011 -0.005649 0.000000 -0.007693 0.000000
# 2 -0.002011 0.021587 0.001566 0.000000 0.004516 0.000000
# 3 -0.005649 0.001566 0.009867 0.000000 0.000787 0.000000
# 4 0.000000 0.000000 0.000000 -0.084653 0.000000 0.152212
# 5 -0.007693 0.004516 0.000787 0.000000 0.035931 0.000000
# 6 0.000000 0.000000 0.000000 0.152212 0.000000 -0.222260
#
#
# Mechanical properties :
#
#
# Convention : Reuss Voigt Hill
#
# Bulk Modulus (GPa) = 31.30239 49.27647 40.28943
# Shear Modulus (GPa) = -24.50858 37.49795 6.49469
#
# Velocity S-wave (km/s) = -3.34842 4.14176 1.72369
# Velocity P-wave (km/s) = 0.79331 6.73904 4.73209
#
# Compressibility (1/GPa) = 0.03194644
#
# Stress axis : x y z
#
# Youngs Moduli (GPa) = 78.85754 46.32477 101.34729
#
# Poissons Ratio (x) = 0.09316 0.57254
# Poissons Ratio (y) = 0.15859 -0.15872
# Poissons Ratio (z) = 0.44549 -0.07255
#
# Static dielectric constant tensor:
#      x y z
#    x 1.800770 0.000000 0.007980 
#    y 0.000000 1.826880 0.000000 
#    z 0.007980 0.000000 1.780410 
# 
# From -- ./inp_files/66409.got.cif
#   From: 2010.05.17/outbox.cif.g08.bks.cpg/sg10_34_cif.got.tgz:66409.got - 2010.06.03 11:33:40.
