data_PCOD9146456
_publ_section_title
;
Structure prediction by ZEFSAII (Michael W. Deem and Ramdas Pophale) SiO2 
 PCOD9146456
Probable space group: P 2/M
;
_chemical_formula_sum "Si O2"
_cell_formula_units_Z 28
_cell_length_a 9.768441
_cell_length_b 7.841224
_cell_length_c 28.061642
_cell_angle_alpha 90.000000
_cell_angle_beta 139.266939
_cell_angle_gamma 90.000000
_cell_volume 1402.576352
_symmetry_space_group_name_H-M "P 2/M"
_symmetry_group_IT_number 10
_symmetry_cell_setting 'monoclinic'
loop_
_space_group_symop_operation_xyz
x,y,z
-x,y,-z
-x,-y,-z
x,-y,z
loop_
_atom_site_type_symbol
_atom_site_label
_atom_site_fract_x
_atom_site_fract_y
_atom_site_fract_z
Si Si1 0.456064 0.803707 0.211176
Si Si2 0.770828 0.800760 0.948953
Si Si3 0.041949 0.299306 0.762344
Si Si4 0.911460 0.309684 0.330361
Si Si5 0.578003 0.697848 0.071183
Si Si6 0.633935 0.795557 0.710523
Si Si7 0.850300 0.797053 0.419252
O O1 0.338315 0.798024 0.130960
O O2 0.659115 0.688325 0.261913
O O3 0.319568 0.761607 0.221384
O O4 0.531740 0.000000 0.238969
O O5 0.621975 0.709198 0.947006
O O6 0.791989 0.000000 0.969833
O O7 0.000000 0.727774 0.000000
O O8 0.094688 0.500000 0.769864
O O9 0.032983 0.225694 0.706027
O O10 0.223972 0.228689 0.846006
O O11 0.814890 0.282623 0.726232
O O12 0.001803 0.500000 0.355091
O O13 0.946705 0.231825 0.392011
O O14 0.634290 0.500000 0.076250
O O15 0.500000 0.773803 0.000000
O O16 0.391979 0.735400 0.640610
O O17 0.640242 0.000000 0.704441
O O18 0.000000 0.726190 0.500000
O O19 0.835683 0.000000 0.421889
#
# Coordination Sequence:
#
# PCOD9146456 Si02
#       7
#     4   4   4   4   4   4   4
#     4   9  18  34  52  74 103 137 178 224 269 317
#     4  10  21  35  53  77 105 135 177 231 280 323
#     4  10  21  36  52  76 110 144 181 224 266 314
#     4  10  19  33  55  80 106 139 179 218 260 315
#     4  10  22  39  54  73 106 147 188 228 271 319
#     4   9  19  33  54  81 105 135 177 217 261 317
#     4   9  19  38  61  84 111 140 173 216 264 318
#
# _framework density 19.963260999999999
#
# number of rings (size 3 to 8) (size 9 to 14) (size 15 to 20)
#    0.000    2.429    1.429    1.286    2.000    4.857 
#    0.000    0.714    0.000    4.286    0.000    0.000 
#    0.000    0.000    0.000    0.000    0.000    0.000 
#
# Total GULP energy -155946.238258 kJ/mol
# GULP energy per Si atom -5569.508509 kJ/mol
# Density = 1.991782 g / cm^3
# Si number density = 19.963261 Si / 1000 Ang^3
#
#
#
# Elastic Constant Matrix: (Units=GPa)
#
#
# Indices 1 2 3 4 5 6 
#
# 1 147.8419 -0.3423 61.0224 0.0000 -20.2038 0.0000
# 2 -0.3423 20.7585 6.4412 0.0000 -3.1027 0.0000
# 3 61.0224 6.4412 98.8355 0.0000 -22.5859 0.0000
# 4 0.0000 0.0000 0.0000 7.7727 0.0000 4.1710
# 5 -20.2038 -3.1027 -22.5859 0.0000 26.0519 0.0000
# 6 0.0000 0.0000 0.0000 4.1710 0.0000 20.0271
#
#
#
# Elastic Compliance Matrix: (Units=1/GPa)
#
#
# Indices 1 2 3 4 5 6 
#
# 1 0.009333 0.002220 -0.005228 0.000000 0.002970 0.000000
# 2 0.002220 0.050005 -0.003586 0.000000 0.004569 0.000000
# 3 -0.005228 -0.003586 0.015657 0.000000 0.009093 0.000000
# 4 0.000000 0.000000 0.000000 0.144844 0.000000 -0.030167
# 5 0.002970 0.004569 0.009093 0.000000 0.049115 0.000000
# 6 0.000000 0.000000 0.000000 -0.030167 0.000000 0.056215
#
#
# Mechanical properties :
#
#
# Convention : Reuss Voigt Hill
#
# Bulk Modulus (GPa) = 16.17916 44.63094 30.40505
# Shear Modulus (GPa) = 13.92913 24.12464 19.02688
#
# Velocity S-wave (km/s) = 2.64434 3.48005 3.09057
# Velocity P-wave (km/s) = 4.17677 6.20909 5.29142
#
# Compressibility (1/GPa) = 0.06180792
#
# Stress axis : x y z
#
# Youngs Moduli (GPa) = 107.14696 19.99792 63.86757
#
# Poissons Ratio (x) = -0.04440 0.33392
# Poissons Ratio (y) = -0.23788 0.22900
# Poissons Ratio (z) = 0.56021 0.07170
#
# Static dielectric constant tensor:
#      x y z
#    x 1.688440 0.000000 -0.033980 
#    y 0.000000 1.772420 0.000000 
#    z -0.033980 0.000000 1.732010 
# 
# From -- ./inp_files/37237.got.cif
#   From: 2010.05.17/outbox.cif.g08.bks.cpg/sg10_19_cif.got.tgz:37237.got - 2010.06.03 11:33:40.
