data_PCOD9146250
_publ_section_title
;
Structure prediction by ZEFSAII (Michael W. Deem and Ramdas Pophale) SiO2 
 PCOD9146250
Probable space group: P 2/M
;
_chemical_formula_sum "Si O2"
_cell_formula_units_Z 32
_cell_length_a 15.439676
_cell_length_b 7.696488
_cell_length_c 22.005022
_cell_angle_alpha 90.000000
_cell_angle_beta 151.807946
_cell_angle_gamma 90.000000
_cell_volume 1235.346275
_symmetry_space_group_name_H-M "P 2/M"
_symmetry_group_IT_number 10
_symmetry_cell_setting 'monoclinic'
loop_
_space_group_symop_operation_xyz
x,y,z
-x,y,-z
-x,-y,-z
x,-y,z
loop_
_atom_site_type_symbol
_atom_site_label
_atom_site_fract_x
_atom_site_fract_y
_atom_site_fract_z
Si Si1 0.265959 0.301286 0.451980
Si Si2 0.377291 0.299855 0.007512
Si Si3 0.889987 0.713868 0.253695
Si Si4 0.661383 0.700699 0.675784
Si Si5 0.056163 0.795849 0.896773
Si Si6 0.264494 0.793683 0.140878
Si Si7 0.242654 0.710122 0.702473
Si Si8 0.675043 0.799598 0.377006
O O1 0.254217 0.500000 0.422860
O O2 0.455165 0.222483 0.543426
O O3 0.287408 0.306963 0.538942
O O4 0.065182 0.219027 0.324682
O O5 0.427134 0.500000 0.026131
O O6 0.294954 0.227320 0.894031
O O7 0.200146 0.295304 0.941831
O O8 0.556129 0.225992 0.150615
O O9 0.893700 0.500000 0.254021
O O10 0.888280 0.765339 0.323149
O O11 0.645611 0.500000 0.650081
O O12 0.711788 0.713484 0.778342
O O13 0.839718 0.772371 0.752196
O O14 0.098605 0.000000 0.920416
O O15 0.108665 0.735478 0.997894
O O16 0.460369 0.766089 0.229403
O O17 0.238865 0.000000 0.135968
O O18 0.238854 0.500000 0.697794
O O19 0.214577 0.767865 0.616226
O O20 0.690484 0.000000 0.404898
#
# Coordination Sequence:
#
# PCOD9146250 Si02
#       8
#     4   4   4   4   4   4   4   4
#     4   9  19  37  57  77 107 144 183 221 262 315
#     4  10  20  35  57  83 109 136 177 228 269 312
#     4   9  19  37  59  80 104 141 182 223 271 318
#     4  10  20  32  51  79 105 135 178 223 262 307
#     4  11  21  34  52  76 108 144 176 211 267 328
#     4   9  18  32  49  72 106 144 173 205 262 326
#     4  10  19  33  57  85 110 136 174 222 273 323
#     4  10  19  33  53  79 113 146 176 216 265 317
#
# _framework density 25.903668
#
# number of rings (size 3 to 8) (size 9 to 14) (size 15 to 20)
#    0.000    2.250    1.250    1.875    0.000    5.500 
#    0.000    5.000    0.000    5.250    0.000    0.000 
#    0.000    0.000    0.000    0.000    0.000    0.000 
#
# Total GULP energy -178902.966632 kJ/mol
# GULP energy per Si atom -5590.717707 kJ/mol
# Density = 2.584471 g / cm^3
# Si number density = 25.903668 Si / 1000 Ang^3
#
#
#
# Elastic Constant Matrix: (Units=GPa)
#
#
# Indices 1 2 3 4 5 6 
#
# 1 149.4591 2.2463 27.0154 0.0000 9.1618 0.0000
# 2 2.2463 50.1495 -1.8883 0.0000 0.8189 0.0000
# 3 27.0154 -1.8883 114.6812 0.0000 16.0594 0.0000
# 4 0.0000 0.0000 0.0000 1.0164 0.0000 15.0652
# 5 9.1618 0.8189 16.0594 0.0000 48.4194 0.0000
# 6 0.0000 0.0000 0.0000 15.0652 0.0000 39.0951
#
#
#
# Elastic Compliance Matrix: (Units=1/GPa)
#
#
# Indices 1 2 3 4 5 6 
#
# 1 0.007026 -0.000360 -0.001548 0.000000 -0.000810 0.000000
# 2 -0.000360 0.019981 0.000474 0.000000 -0.000427 0.000000
# 3 -0.001548 0.000474 0.009493 0.000000 -0.002864 0.000000
# 4 0.000000 0.000000 0.000000 -0.208816 0.000000 0.080467
# 5 -0.000810 -0.000427 -0.002864 0.000000 0.021763 0.000000
# 6 0.000000 0.000000 0.000000 0.080467 0.000000 -0.005429
#
#
# Mechanical properties :
#
#
# Convention : Reuss Voigt Hill
#
# Bulk Modulus (GPa) = 29.73299 41.00406 35.36852
# Shear Modulus (GPa) = -35.23522 36.83395 0.79936
#
# Velocity S-wave (km/s) = -3.69214 3.77498 0.55611
# Velocity P-wave (km/s) = 2.58316 5.90461 3.75444
#
# Compressibility (1/GPa) = 0.03363268
#
# Stress axis : x y z
#
# Youngs Moduli (GPa) = 142.33720 50.04680 105.33852
#
# Poissons Ratio (x) = 0.01800 0.16301
# Poissons Ratio (y) = 0.05120 -0.04988
# Poissons Ratio (z) = 0.22027 -0.02370
#
# Static dielectric constant tensor:
#      x y z
#    x 2.064860 0.000000 0.003340 
#    y 0.000000 1.961320 0.000000 
#    z 0.003340 0.000000 2.084770 
# 
# From -- ./inp_files/71444.got.cif
#   From: 2010.05.17/outbox.cif.g08.bks.cpg/sg10_36_cif.got.tgz:71444.got - 2010.06.03 11:33:40.
