data_PCOD9146495
_publ_section_title
;
Structure prediction by ZEFSAII (Michael W. Deem and Ramdas Pophale) SiO2 
 PCOD9146495
Probable space group: P 2/M
;
_chemical_formula_sum "Si O2"
_cell_formula_units_Z 28
_cell_length_a 9.702713
_cell_length_b 8.970497
_cell_length_c 28.149187
_cell_angle_alpha 90.000000
_cell_angle_beta 143.981002
_cell_angle_gamma 90.000000
_cell_volume 1440.762398
_symmetry_space_group_name_H-M "P 2/M"
_symmetry_group_IT_number 10
_symmetry_cell_setting 'monoclinic'
loop_
_space_group_symop_operation_xyz
x,y,z
-x,y,-z
-x,-y,-z
x,-y,z
loop_
_atom_site_type_symbol
_atom_site_label
_atom_site_fract_x
_atom_site_fract_y
_atom_site_fract_z
Si Si1 0.822882 0.674274 0.144212
Si Si2 0.059387 0.823974 0.918353
Si Si3 0.369064 0.171348 0.514856
Si Si4 0.641923 0.326202 0.921295
Si Si5 0.945200 0.323090 0.352881
Si Si6 0.466709 0.175841 0.209331
Si Si7 0.145668 0.179585 0.311808
O O1 0.878687 0.500000 0.153365
O O2 0.810288 0.753221 0.090040
O O3 0.581003 0.683871 0.105709
O O4 0.017933 0.755139 0.230558
O O5 0.781198 0.802172 0.833824
O O6 0.105284 0.000000 0.935096
O O7 0.144106 0.743973 0.989892
O O8 0.500000 0.173102 0.500000
O O9 0.577326 0.216838 0.608318
O O10 0.141414 0.272162 0.445341
O O11 0.299856 0.000000 0.504782
O O12 0.682539 0.500000 0.921415
O O13 0.577185 0.236936 0.855997
O O14 0.942973 0.500000 0.346788
O O15 0.687656 0.261830 0.292316
O O16 0.022052 0.249025 0.324020
O O17 0.518504 0.000000 0.222147
O O18 0.125432 0.000000 0.308369
#
# Coordination Sequence:
#
# PCOD9146495 Si02
#       7
#     4   4   4   4   4   4   4
#     4  11  23  38  58  85 116 149 187 232 282 336
#     4  11  25  41  58  82 111 150 194 233 281 335
#     4   8  16  30  49  77 111 146 182 224 275 327
#     4  11  23  39  60  86 113 144 186 236 287 335
#     4  11  20  31  52  83 114 146 184 229 282 331
#     4  11  23  39  59  82 112 150 192 235 278 333
#     4  10  19  33  55  81 112 149 187 228 274 328
#
# _framework density 19.434156000000002
#
# number of rings (size 3 to 8) (size 9 to 14) (size 15 to 20)
#    0.000    1.571    1.429    5.143    0.000   10.571 
#    0.000    0.000    0.000    0.857    0.000    6.000 
#    0.000    0.000    0.000    0.000    0.000    0.000 
#
# Total GULP energy -156476.970667 kJ/mol
# GULP energy per Si atom -5588.463238 kJ/mol
# Density = 1.938992 g / cm^3
# Si number density = 19.434156 Si / 1000 Ang^3
#
#
#
# Elastic Constant Matrix: (Units=GPa)
#
#
# Indices 1 2 3 4 5 6 
#
# 1 28.7048 14.8113 -5.2604 0.0000 5.5028 0.0000
# 2 14.8113 86.5999 35.8889 0.0000 20.1580 0.0000
# 3 -5.2604 35.8889 100.5616 0.0000 20.3595 0.0000
# 4 0.0000 0.0000 0.0000 30.2463 0.0000 -32.2950
# 5 5.5028 20.1580 20.3595 0.0000 20.3115 0.0000
# 6 0.0000 0.0000 0.0000 -32.2950 0.0000 21.5148
#
#
#
# Elastic Compliance Matrix: (Units=1/GPa)
#
#
# Indices 1 2 3 4 5 6 
#
# 1 0.042197 -0.007611 0.007162 0.000000 -0.011058 0.000000
# 2 -0.007611 0.017115 -0.004372 0.000000 -0.010541 0.000000
# 3 0.007162 -0.004372 0.014294 0.000000 -0.011930 0.000000
# 4 0.000000 0.000000 0.000000 -0.054854 0.000000 -0.082339
# 5 -0.011058 -0.010541 -0.011930 0.000000 0.074648 0.000000
# 6 0.000000 0.000000 0.000000 -0.082339 0.000000 -0.077115
#
#
# Mechanical properties :
#
#
# Convention : Reuss Voigt Hill
#
# Bulk Modulus (GPa) = 15.63377 34.08287 24.85832
# Shear Modulus (GPa) = 105.82399 25.77629 65.80014
#
# Velocity S-wave (km/s) = 7.38720 3.64585 5.82507
# Velocity P-wave (km/s) = 8.99016 5.94126 7.61976
#
# Compressibility (1/GPa) = 0.06396408
#
# Stress axis : x y z
#
# Youngs Moduli (GPa) = 23.69833 58.42961 69.95757
#
# Poissons Ratio (x) = 0.44473 -0.50107
# Poissons Ratio (y) = 0.18038 0.30586
# Poissons Ratio (z) = -0.16974 0.25546
#
# Static dielectric constant tensor:
#      x y z
#    x 1.671450 0.000000 0.026290 
#    y 0.000000 1.646050 0.000000 
#    z 0.026290 0.000000 1.695320 
# 
# From -- ./inp_files/52454.got.cif
#   From: 2010.05.17/outbox.cif.g08.bks.cpg/sg10_27_cif.got.tgz:52454.got - 2010.06.03 11:33:40.
