data_PCOD9146545
_publ_section_title
;
Structure prediction by ZEFSAII (Michael W. Deem and Ramdas Pophale) SiO2 
 PCOD9146545
Probable space group: P 2/M
;
_chemical_formula_sum "Si O2"
_cell_formula_units_Z 30
_cell_length_a 15.406017
_cell_length_b 7.478504
_cell_length_c 24.941010
_cell_angle_alpha 90.000000
_cell_angle_beta 28.121556
_cell_angle_gamma 90.000000
_cell_volume 1354.430948
_symmetry_space_group_name_H-M "P 2/M"
_symmetry_group_IT_number 10
_symmetry_cell_setting 'monoclinic'
loop_
_space_group_symop_operation_xyz
x,y,z
-x,y,-z
-x,-y,-z
x,-y,z
loop_
_atom_site_type_symbol
_atom_site_label
_atom_site_fract_x
_atom_site_fract_y
_atom_site_fract_z
Si Si1 0.888685 0.000000 0.416122
Si Si2 0.999095 0.790165 0.836622
Si Si3 0.117490 0.207191 0.886726
Si Si4 0.474526 0.714683 0.753164
Si Si5 0.062851 0.703728 0.682951
Si Si6 0.344803 0.282413 0.127171
Si Si7 0.899115 0.287946 0.498672
Si Si8 0.416165 0.283894 0.906228
O O1 0.961150 0.842103 0.418183
O O2 0.812847 0.842036 0.416263
O O3 0.071848 0.706550 0.742258
O O4 0.078962 0.715695 0.849111
O O5 0.041363 0.000000 0.809797
O O6 0.778538 0.767208 0.961822
O O7 0.327320 0.214643 0.791153
O O8 0.057161 0.000000 0.915349
O O9 0.000000 0.287884 0.000000
O O10 0.456802 0.500000 0.763481
O O11 0.683241 0.755487 0.624369
O O12 0.430314 0.780213 0.837448
O O13 0.082774 0.500000 0.653821
O O14 0.856157 0.778024 0.781518
O O15 0.337895 0.500000 0.129936
O O16 0.417842 0.225674 0.145543
O O17 0.500000 0.227679 0.000000
O O18 0.922351 0.500000 0.473952
O O19 0.000000 0.255948 0.500000
O O20 0.422720 0.500000 0.901379
#
# Coordination Sequence:
#
# PCOD9146545 Si02
#       8
#     2   4   4   4   4   4   4   4
#     4  12  25  44  65  95 122 164 222 273 324 385
#     4  11  21  37  55  89 131 168 215 261 311 388
#     4  10  21  37  59  89 132 176 207 257 325 387
#     4  10  22  38  62  95 125 166 215 257 323 397
#     4  11  23  40  63  89 126 173 219 271 322 378
#     4   9  17  31  52  80 120 169 208 244 305 374
#     4  10  24  47  71  98 133 168 214 277 333 385
#     4  10  19  33  55  84 125 168 204 250 312 385
#
# _framework density 22.149525000000001
#
# number of rings (size 3 to 8) (size 9 to 14) (size 15 to 20)
#    0.000    1.733    3.333    1.000    2.800    1.333 
#    1.200    1.000    0.000    1.600    0.000    2.800 
#    0.000    0.000    0.000    0.000    0.000    0.000 
#
# Total GULP energy -167180.825623 kJ/mol
# GULP energy per Si atom -5572.694187 kJ/mol
# Density = 2.209911 g / cm^3
# Si number density = 22.149525 Si / 1000 Ang^3
#
#
#
# Elastic Constant Matrix: (Units=GPa)
#
#
# Indices 1 2 3 4 5 6 
#
# 1 161.0815 22.3864 27.1065 0.0000 18.8840 0.0000
# 2 22.3864 103.8028 15.8932 0.0000 12.5296 0.0000
# 3 27.1065 15.8932 34.2461 0.0000 7.3385 0.0000
# 4 0.0000 0.0000 0.0000 -0.1716 0.0000 -0.0426
# 5 18.8840 12.5296 7.3385 0.0000 34.6622 0.0000
# 6 0.0000 0.0000 0.0000 -0.0426 0.0000 19.1071
#
#
#
# Elastic Compliance Matrix: (Units=1/GPa)
#
#
# Indices 1 2 3 4 5 6 
#
# 1 0.007460 -0.000493 -0.005073 0.000000 -0.002812 0.000000
# 2 -0.000493 0.010681 -0.003978 0.000000 -0.002750 0.000000
# 3 -0.005073 -0.003978 0.035785 0.000000 -0.003374 0.000000
# 4 0.000000 0.000000 0.000000 -5.825314 0.000000 -0.012980
# 5 -0.002812 -0.002750 -0.003374 0.000000 0.032090 0.000000
# 6 0.000000 0.000000 0.000000 -0.012980 0.000000 0.052308
#
#
# Mechanical properties :
#
#
# Convention : Reuss Voigt Hill
#
# Bulk Modulus (GPa) = 28.70375 47.76694 38.23535
# Shear Modulus (GPa) = -0.88397 26.30249 12.70926
#
# Velocity S-wave (km/s) = -0.63242 3.44975 2.39800
# Velocity P-wave (km/s) = 3.52901 6.12210 4.99670
#
# Compressibility (1/GPa) = 0.03483865
#
# Stress axis : x y z
#
# Youngs Moduli (GPa) = 134.04986 93.62516 27.94450
#
# Poissons Ratio (x) = 0.04612 0.14178
# Poissons Ratio (y) = 0.06603 0.11115
# Poissons Ratio (z) = 0.68010 0.37240
#
# Static dielectric constant tensor:
#      x y z
#    x 1.817670 0.000000 0.037100 
#    y 0.000000 1.838640 0.000000 
#    z 0.037100 0.000000 1.852500 
# 
# From -- ./inp_files/89371.got.cif
#   From: 2010.05.17/outbox.cif.g08.bks.cpg/sg10_45_cif.got.tgz:89371.got - 2010.06.03 11:33:40.
