data_PCOD9146008
_publ_section_title
;
Structure prediction by ZEFSAII (Michael W. Deem and Ramdas Pophale) SiO2 
 PCOD9146008
Probable space group: P 2/M
;
_chemical_formula_sum "Si O2"
_cell_formula_units_Z 28
_cell_length_a 32.015545
_cell_length_b 8.040258
_cell_length_c 10.424335
_cell_angle_alpha 90.000000
_cell_angle_beta 35.510861
_cell_angle_gamma 90.000000
_cell_volume 1558.650246
_symmetry_space_group_name_H-M "P 2/M"
_symmetry_group_IT_number 10
_symmetry_cell_setting 'monoclinic'
loop_
_space_group_symop_operation_xyz
x,y,z
-x,y,-z
-x,-y,-z
x,-y,z
loop_
_atom_site_type_symbol
_atom_site_label
_atom_site_fract_x
_atom_site_fract_y
_atom_site_fract_z
Si Si1 0.900470 0.304325 0.498824
Si Si2 0.417516 0.000000 0.050070
Si Si3 0.934698 0.798598 0.913255
Si Si4 0.321374 0.313705 0.292034
Si Si5 0.678626 0.686295 0.398904
Si Si6 0.832406 0.196268 0.934740
Si Si7 0.832407 0.196268 0.403227
Si Si8 0.582484 0.000000 0.637649
O O1 0.885556 0.500000 0.536110
O O2 0.866375 0.225909 0.711340
O O3 0.866375 0.225909 0.456783
O O4 0.985913 0.274697 0.285219
O O5 0.374539 0.834143 0.118293
O O6 0.418585 0.000000 0.203537
O O7 0.500000 0.000000 0.800078
O O8 0.889100 0.749618 0.902012
O O9 0.941731 0.000000 0.895672
O O10 0.889100 0.749618 0.152489
O O11 0.348311 0.500000 0.197080
O O12 0.312273 0.299754 0.469318
O O13 0.243187 0.287314 0.426356
O O14 0.651688 0.500000 0.438638
O O15 0.625461 0.834143 0.490989
O O16 0.756813 0.712686 0.142289
O O17 0.818973 0.000000 0.988866
O O18 0.818973 0.000000 0.416266
#
# Coordination Sequence:
#
# PCOD9146008 Si02
#       8
#     4   2   4   4   4   4   4   2
#     4  12  26  38  50  80 118 147 192 248 293 336
#     4   9  18  32  52  81 118 152 183 226 283 337
#     4  10  22  38  60  80 104 147 196 243 293 346
#     4  10  19  32  55  84 113 149 192 232 278 338
#     4  10  19  32  55  84 113 149 192 232 278 338
#     4  11  21  38  60  80 109 151 197 238 287 344
#     4  11  21  38  60  80 109 151 197 238 287 344
#     4   9  18  32  52  81 118 152 183 226 283 337
#
# _framework density 17.964262000000002
#
# number of rings (size 3 to 8) (size 9 to 14) (size 15 to 20)
#    0.000    1.571    2.857    3.000    0.000    6.286 
#    0.000    2.857    0.000    0.000    0.000    2.000 
#    0.000    3.429    0.000    0.000    0.000    0.000 
#
# Total GULP energy -156407.099595 kJ/mol
# GULP energy per Si atom -5585.967843 kJ/mol
# Density = 1.792337 g / cm^3
# Si number density = 17.964262 Si / 1000 Ang^3
#
#
#
# Elastic Constant Matrix: (Units=GPa)
#
#
# Indices 1 2 3 4 5 6 
#
# 1 122.9094 31.8850 5.4968 0.0000 -17.9441 0.0000
# 2 31.8850 101.6884 41.9338 0.0000 -17.2780 0.0000
# 3 5.4968 41.9338 135.1879 0.0000 -3.2502 0.0000
# 4 0.0000 0.0000 0.0000 7.6986 0.0000 7.0326
# 5 -17.9441 -17.2780 -3.2502 0.0000 38.6637 0.0000
# 6 0.0000 0.0000 0.0000 7.0326 0.0000 11.7914
#
#
#
# Elastic Compliance Matrix: (Units=1/GPa)
#
#
# Indices 1 2 3 4 5 6 
#
# 1 0.009244 -0.002561 0.000495 0.000000 0.003187 0.000000
# 2 -0.002561 0.012931 -0.003804 0.000000 0.004270 0.000000
# 3 0.000495 -0.003804 0.008539 0.000000 -0.000752 0.000000
# 4 0.000000 0.000000 0.000000 0.285366 0.000000 -0.170197
# 5 0.003187 0.004270 -0.000752 0.000000 0.029188 0.000000
# 6 0.000000 0.000000 0.000000 -0.170197 0.000000 0.186315
#
#
# Mechanical properties :
#
#
# Convention : Reuss Voigt Hill
#
# Bulk Modulus (GPa) = 52.70509 57.60188 55.15348
# Shear Modulus (GPa) = 9.09671 30.32875 19.71273
#
# Velocity S-wave (km/s) = 2.25273 4.11333 3.31619
# Velocity P-wave (km/s) = 6.01406 7.39551 6.74027
#
# Compressibility (1/GPa) = 0.01897350
#
# Stress axis : x y z
#
# Youngs Moduli (GPa) = 108.18263 77.33104 117.11025
#
# Poissons Ratio (x) = 0.19805 -0.05799
# Poissons Ratio (y) = 0.27706 0.44553
# Poissons Ratio (z) = -0.05357 0.29420
#
# Static dielectric constant tensor:
#      x y z
#    x 1.580110 0.000000 0.001640 
#    y 0.000000 1.644040 0.000000 
#    z 0.001640 0.000000 1.579160 
# 
# From -- ./inp_files/37221.got.cif
#   From: 2010.05.17/outbox.cif.g08.bks.cpg/sg10_19_cif.got.tgz:37221.got - 2010.06.03 11:33:40.
