data_PCOD9146718
_publ_section_title
;
Structure prediction by ZEFSAII (Michael W. Deem and Ramdas Pophale) SiO2 
 PCOD9146718
Probable space group: P 2/M
;
_chemical_formula_sum "Si O2"
_cell_formula_units_Z 28
_cell_length_a 11.707896
_cell_length_b 11.874566
_cell_length_c 22.879669
_cell_angle_alpha 90.000000
_cell_angle_beta 29.157103
_cell_angle_gamma 90.000000
_cell_volume 1549.740351
_symmetry_space_group_name_H-M "P 2/M"
_symmetry_group_IT_number 10
_symmetry_cell_setting 'monoclinic'
loop_
_space_group_symop_operation_xyz
x,y,z
-x,y,-z
-x,-y,-z
x,-y,z
loop_
_atom_site_type_symbol
_atom_site_label
_atom_site_fract_x
_atom_site_fract_y
_atom_site_fract_z
Si Si1 0.663674 0.000000 0.866776
Si Si2 0.326963 0.628144 0.727908
Si Si3 0.509528 0.231665 0.877546
Si Si4 0.935260 0.630203 0.712844
Si Si5 0.623156 0.761470 0.508062
Si Si6 0.279071 0.627702 0.883476
Si Si7 0.826908 0.370406 0.894867
Si Si8 0.769092 0.000000 0.411680
O O1 0.580538 0.107751 0.866135
O O2 0.959881 0.000000 0.739140
O O3 0.500000 0.000000 0.000000
O O4 0.393102 0.500000 0.679189
O O5 0.445560 0.726969 0.637984
O O6 0.378052 0.637639 0.773634
O O7 0.049614 0.635427 0.838269
O O8 0.749079 0.298028 0.761484
O O9 0.358023 0.269544 0.889208
O O10 0.372010 0.289217 0.992919
O O11 0.885304 0.500000 0.729368
O O12 0.912941 0.659835 0.791610
O O13 0.188172 0.662912 0.577956
O O14 0.500000 0.759235 0.500000
O O15 0.749098 0.882847 0.455611
O O16 0.338000 0.500000 0.880194
O O17 0.000000 0.629686 0.000000
O O18 0.743699 0.500000 0.931288
O O19 0.500000 0.000000 0.500000
#
# Coordination Sequence:
#
# PCOD9146718 Si02
#       8
#     2   4   4   4   4   4   4   2
#     4  12  26  44  68  98 134 174 219 280 330 381
#     4  10  20  35  61  94 123 159 209 261 321 384
#     4  12  23  38  60  88 126 167 211 255 321 380
#     4  11  21  32  55  89 124 154 193 252 328 389
#     4  11  21  37  60  86 123 162 212 257 314 383
#     4  10  20  39  65  91 127 171 211 260 326 396
#     4  10  19  33  57  91 126 158 195 254 329 396
#     4  10  24  44  65  86 125 183 220 250 317 398
#
# _framework density 18.067544000000002
#
# number of rings (size 3 to 8) (size 9 to 14) (size 15 to 20)
#    0.000    1.286    4.286    3.000    0.000    1.714 
#    0.000    1.786    0.000    3.429    0.000    0.000 
#    0.000    0.000    0.000    0.000    0.000    0.000 
#
# Total GULP energy -155951.970708 kJ/mol
# GULP energy per Si atom -5569.713240 kJ/mol
# Density = 1.802642 g / cm^3
# Si number density = 18.067544 Si / 1000 Ang^3
#
#
#
# Elastic Constant Matrix: (Units=GPa)
#
#
# Indices 1 2 3 4 5 6 
#
# 1 66.2591 29.8683 17.1932 0.0000 -4.4653 0.0000
# 2 29.8683 74.8472 40.2669 0.0000 -5.4246 0.0000
# 3 17.1932 40.2669 73.8065 0.0000 -6.9045 0.0000
# 4 0.0000 0.0000 0.0000 17.0175 0.0000 -1.3816
# 5 -4.4653 -5.4246 -6.9045 0.0000 23.1838 0.0000
# 6 0.0000 0.0000 0.0000 -1.3816 0.0000 22.8302
#
#
#
# Elastic Compliance Matrix: (Units=1/GPa)
#
#
# Indices 1 2 3 4 5 6 
#
# 1 0.018485 -0.007105 -0.000259 0.000000 0.001821 0.000000
# 2 -0.007105 0.021686 -0.010111 0.000000 0.000694 0.000000
# 3 -0.000259 -0.010111 0.019441 0.000000 0.003374 0.000000
# 4 0.000000 0.000000 0.000000 0.059053 0.000000 0.003574
# 5 0.001821 0.000694 0.003374 0.000000 0.044651 0.000000
# 6 0.000000 0.000000 0.000000 0.003574 0.000000 0.044018
#
#
# Mechanical properties :
#
#
# Convention : Reuss Voigt Hill
#
# Bulk Modulus (GPa) = 40.54982 43.28552 41.91767
# Shear Modulus (GPa) = 19.95954 21.11193 20.53573
#
# Velocity S-wave (km/s) = 3.32734 3.42204 3.37502
# Velocity P-wave (km/s) = 6.10358 6.29472 6.19989
#
# Compressibility (1/GPa) = 0.02466102
#
# Stress axis : x y z
#
# Youngs Moduli (GPa) = 54.09758 46.11294 51.43662
#
# Poissons Ratio (x) = 0.32764 0.01335
# Poissons Ratio (y) = 0.38437 0.52008
# Poissons Ratio (z) = 0.01404 0.46626
#
# Static dielectric constant tensor:
#      x y z
#    x 1.685780 0.000000 -0.030750 
#    y 0.000000 1.629060 0.000000 
#    z -0.030750 0.000000 1.654590 
# 
# From -- ./inp_files/83983.got.cif
#   From: 2010.05.17/outbox.cif.g08.bks.cpg/sg10_42_cif.got.tgz:83983.got - 2010.06.03 11:33:40.
