data_PCOD9146474
_publ_section_title
;
Structure prediction by ZEFSAII (Michael W. Deem and Ramdas Pophale) SiO2 
 PCOD9146474
Probable space group: P 2/M
;
_chemical_formula_sum "Si O2"
_cell_formula_units_Z 24
_cell_length_a 24.127662
_cell_length_b 8.373751
_cell_length_c 9.696913
_cell_angle_alpha 90.000000
_cell_angle_beta 44.442543
_cell_angle_gamma 90.000000
_cell_volume 1371.787853
_symmetry_space_group_name_H-M "P 2/M"
_symmetry_group_IT_number 10
_symmetry_cell_setting 'monoclinic'
loop_
_space_group_symop_operation_xyz
x,y,z
-x,y,-z
-x,-y,-z
x,-y,z
loop_
_atom_site_type_symbol
_atom_site_label
_atom_site_fract_x
_atom_site_fract_y
_atom_site_fract_z
Si Si1 0.612324 0.000000 0.684735
Si Si2 0.191804 0.685288 0.447580
Si Si3 0.435322 0.000000 0.909086
Si Si4 0.656501 0.311477 0.022299
Si Si5 0.762120 0.823704 0.348384
Si Si6 0.084073 0.813044 0.402248
Si Si7 0.216705 0.317523 0.978174
O O1 0.595271 0.000000 0.877886
O O2 0.668747 0.850456 0.546368
O O3 0.530203 0.000000 0.750233
O O4 0.185931 0.500000 0.491848
O O5 0.272704 0.708159 0.215799
O O6 0.197466 0.779140 0.580015
O O7 0.120727 0.733918 0.473251
O O8 0.403550 0.834685 0.897879
O O9 0.629660 0.500000 0.061827
O O10 0.700378 0.286874 0.090960
O O11 0.789943 0.000000 0.254077
O O12 0.776004 0.707847 0.196958
O O13 0.149339 0.789194 0.167199
O O14 0.000000 0.747725 0.500000
O O15 0.074505 0.000000 0.448695
O O16 0.195560 0.500000 0.049861
#
# Coordination Sequence:
#
# PCOD9146474 Si02
#       7
#     2   4   2   4   4   4   4
#     4   9  22  33  55  87 106 144 184 226 286 331
#     4  10  19  33  55  80 109 146 185 225 272 326
#     4  11  18  37  59  81 114 145 186 234 288 334
#     4   9  19  33  54  83 106 145 193 231 274 330
#     4  10  19  35  54  80 107 143 183 226 270 329
#     4  10  21  36  57  85 111 140 181 228 272 322
#     4  10  21  35  55  81 111 145 184 227 276 328
#
# _framework density 17.495418000000001
#
# number of rings (size 3 to 8) (size 9 to 14) (size 15 to 20)
#    0.500    1.667    1.667    3.000    5.833    1.333 
#    0.000    5.833    0.000    7.000    0.000    0.000 
#    0.000    0.000    0.000    0.000    0.000    0.000 
#
# Total GULP energy -133665.683811 kJ/mol
# GULP energy per Si atom -5569.403492 kJ/mol
# Density = 1.745560 g / cm^3
# Si number density = 17.495418 Si / 1000 Ang^3
#
#
#
# Elastic Constant Matrix: (Units=GPa)
#
#
# Indices 1 2 3 4 5 6 
#
# 1 118.1595 38.8176 33.5352 0.0000 -4.8801 0.0000
# 2 38.8176 57.7529 0.7779 0.0000 -12.3930 0.0000
# 3 33.5352 0.7779 30.0033 0.0000 6.6786 0.0000
# 4 0.0000 0.0000 0.0000 1.5470 0.0000 14.0744
# 5 -4.8801 -12.3930 6.6786 0.0000 27.3640 0.0000
# 6 0.0000 0.0000 0.0000 14.0744 0.0000 22.0224
#
#
#
# Elastic Compliance Matrix: (Units=1/GPa)
#
#
# Indices 1 2 3 4 5 6 
#
# 1 0.018178 -0.011250 -0.020740 0.000000 0.003209 0.000000
# 2 -0.011250 0.026331 0.010240 0.000000 0.007420 0.000000
# 3 -0.020740 0.010240 0.059256 0.000000 -0.013524 0.000000
# 4 0.000000 0.000000 0.000000 -0.134266 0.000000 0.085809
# 5 0.003209 0.007420 -0.013524 0.000000 0.043778 0.000000
# 6 0.000000 0.000000 0.000000 0.085809 0.000000 -0.009432
#
#
# Mechanical properties :
#
#
# Convention : Reuss Voigt Hill
#
# Bulk Modulus (GPa) = 16.59355 39.13080 27.86217
# Shear Modulus (GPa) = 74.14746 19.03901 46.59323
#
# Velocity S-wave (km/s) = 6.51714 3.30241 5.16619
# Velocity P-wave (km/s) = 8.13240 6.07915 7.17955
#
# Compressibility (1/GPa) = 0.06026439
#
# Stress axis : x y z
#
# Youngs Moduli (GPa) = 55.01199 37.97826 16.87590
#
# Poissons Ratio (x) = 0.42726 0.35001
# Poissons Ratio (y) = 0.61889 -0.17281
# Poissons Ratio (z) = 1.14096 -0.38890
#
# Static dielectric constant tensor:
#      x y z
#    x 1.590530 0.000000 -0.008010 
#    y 0.000000 1.592870 0.000000 
#    z -0.008010 0.000000 1.569010 
# 
# From -- ./inp_files/33801.got.cif
#   From: 2010.05.17/outbox.cif.g08.bks.cpg/sg10_17_cif.got.tgz:33801.got - 2010.06.03 11:33:40.
