data_PCOD9146724
_publ_section_title
;
Structure prediction by ZEFSAII (Michael W. Deem and Ramdas Pophale) SiO2 
 PCOD9146724
Probable space group: P 2/M
;
_chemical_formula_sum "Si O2"
_cell_formula_units_Z 24
_cell_length_a 12.398654
_cell_length_b 7.535750
_cell_length_c 23.772378
_cell_angle_alpha 90.000000
_cell_angle_beta 153.916541
_cell_angle_gamma 90.000000
_cell_volume 976.585469
_symmetry_space_group_name_H-M "P 2/M"
_symmetry_group_IT_number 10
_symmetry_cell_setting 'monoclinic'
loop_
_space_group_symop_operation_xyz
x,y,z
-x,y,-z
-x,-y,-z
x,-y,z
loop_
_atom_site_type_symbol
_atom_site_label
_atom_site_fract_x
_atom_site_fract_y
_atom_site_fract_z
Si Si1 0.570826 0.790407 0.472908
Si Si2 0.078288 0.795837 0.452932
Si Si3 0.387419 0.281779 0.086190
Si Si4 0.391792 0.300932 0.701129
Si Si5 0.732479 0.705919 0.151767
Si Si6 0.045099 0.285543 0.198222
O O1 0.500000 0.711182 0.500000
O O2 0.806265 0.720302 0.550036
O O3 0.324040 0.767969 0.321179
O O4 0.616141 0.000000 0.500852
O O5 0.298842 0.794675 0.602056
O O6 0.854538 0.693134 0.375702
O O7 0.003109 0.000000 0.411029
O O8 0.393990 0.500000 0.089487
O O9 0.414405 0.224997 0.163434
O O10 0.617777 0.219641 0.155414
O O11 0.142143 0.228364 0.938240
O O12 0.465814 0.500000 0.719561
O O13 0.790019 0.500000 0.189356
O O14 0.947388 0.783397 0.213431
O O15 0.500000 0.708124 0.000000
O O16 0.031133 0.500000 0.193759
#
# Coordination Sequence:
#
# PCOD9146724 Si02
#       6
#     4   4   4   4   4   4
#     4  10  23  40  54  71 104 146 180 216 262 309
#     4  10  21  38  55  73 104 143 180 217 260 310
#     4   8  15  28  49  80 111 134 161 209 270 314
#     4  10  19  33  58  85 108 132 169 221 266 308
#     4   7  11  22  42  70 103 132 157 194 247 302
#     4   9  17  31  53  79 105 135 173 214 257 313
#
# _framework density 24.575422
#
# number of rings (size 3 to 8) (size 9 to 14) (size 15 to 20)
#    0.000    3.000    0.000    4.000    2.333    1.667 
#    0.000    2.500    0.000    9.500    0.000    0.000 
#    0.000    0.000    0.000    0.000    0.000    0.000 
#
# Total GULP energy -134014.827949 kJ/mol
# GULP energy per Si atom -5583.951165 kJ/mol
# Density = 2.451949 g / cm^3
# Si number density = 24.575422 Si / 1000 Ang^3
#
#
#
# Elastic Constant Matrix: (Units=GPa)
#
#
# Indices 1 2 3 4 5 6 
#
# 1 58.6166 4.1460 12.2750 0.0000 -3.3803 0.0000
# 2 4.1460 76.0511 1.9293 0.0000 -6.5520 0.0000
# 3 12.2750 1.9293 81.7203 0.0000 -16.3759 0.0000
# 4 0.0000 0.0000 0.0000 29.4367 0.0000 3.2303
# 5 -3.3803 -6.5520 -16.3759 0.0000 46.6144 0.0000
# 6 0.0000 0.0000 0.0000 3.2303 0.0000 9.7725
#
#
#
# Elastic Compliance Matrix: (Units=1/GPa)
#
#
# Indices 1 2 3 4 5 6 
#
# 1 0.017678 -0.000877 -0.002584 0.000000 0.000251 0.000000
# 2 -0.000877 0.013354 0.000193 0.000000 0.001881 0.000000
# 3 -0.002584 0.000193 0.013542 0.000000 0.004597 0.000000
# 4 0.000000 0.000000 0.000000 0.035250 0.000000 -0.011652
# 5 0.000251 0.001881 0.004597 0.000000 0.023350 0.000000
# 6 0.000000 0.000000 0.000000 -0.011652 0.000000 0.106179
#
#
# Mechanical properties :
#
#
# Convention : Reuss Voigt Hill
#
# Bulk Modulus (GPa) = 26.28926 28.12096 27.20511
# Shear Modulus (GPa) = 21.87542 30.36724 26.12133
#
# Velocity S-wave (km/s) = 2.98675 3.51903 3.26376
# Velocity P-wave (km/s) = 4.75550 5.28952 5.02960
#
# Compressibility (1/GPa) = 0.03803834
#
# Stress axis : x y z
#
# Youngs Moduli (GPa) = 56.56855 74.88385 73.84605
#
# Poissons Ratio (x) = 0.06564 0.19084
# Poissons Ratio (y) = 0.04959 -0.01428
# Poissons Ratio (z) = 0.14619 -0.01448
#
# Static dielectric constant tensor:
#      x y z
#    x 1.979180 0.000000 -0.043400 
#    y 0.000000 1.901310 0.000000 
#    z -0.043400 0.000000 1.996670 
# 
# From -- ./inp_files/88752.got.cif
#   From: 2010.05.17/outbox.cif.g08.bks.cpg/sg10_45_cif.got.tgz:88752.got - 2010.06.03 11:33:40.
