data_PCOD9146338
_publ_section_title
;
Structure prediction by ZEFSAII (Michael W. Deem and Ramdas Pophale) SiO2 
 PCOD9146338
Probable space group: P 2/M
;
_chemical_formula_sum "Si O2"
_cell_formula_units_Z 32
_cell_length_a 12.342118
_cell_length_b 7.528095
_cell_length_c 20.018093
_cell_angle_alpha 90.000000
_cell_angle_beta 49.458418
_cell_angle_gamma 90.000000
_cell_volume 1413.427741
_symmetry_space_group_name_H-M "P 2/M"
_symmetry_group_IT_number 10
_symmetry_cell_setting 'monoclinic'
loop_
_space_group_symop_operation_xyz
x,y,z
-x,y,-z
-x,-y,-z
x,-y,z
loop_
_atom_site_type_symbol
_atom_site_label
_atom_site_fract_x
_atom_site_fract_y
_atom_site_fract_z
Si Si1 0.482580 0.216603 0.083209
Si Si2 0.991420 0.698204 0.184187
Si Si3 0.426457 0.783800 0.330447
Si Si4 0.369849 0.782550 0.505349
Si Si5 0.761927 0.781832 0.718663
Si Si6 0.248252 0.215278 0.820466
Si Si7 0.946593 0.199958 0.345573
Si Si8 0.215702 0.214095 0.979457
O O1 0.341108 0.273037 0.178873
O O2 0.624081 0.269961 0.066481
O O3 0.480352 0.000000 0.083275
O O4 0.500000 0.276138 0.000000
O O5 0.008176 0.500000 0.202423
O O6 0.842167 0.720746 0.205824
O O7 0.997389 0.811455 0.248509
O O8 0.109373 0.733180 0.080636
O O9 0.392643 0.730291 0.419387
O O10 0.313877 0.726285 0.319594
O O11 0.587378 0.729571 0.248109
O O12 0.426104 0.000000 0.329071
O O13 0.500000 0.721669 0.500000
O O14 0.212080 0.721535 0.590170
O O15 0.372881 0.000000 0.507663
O O16 0.922859 0.718394 0.665574
O O17 0.764684 0.000000 0.718365
O O18 0.181924 0.274049 0.917829
O O19 0.243252 0.000000 0.820444
O O20 0.928890 0.000000 0.379896
O O21 0.213455 0.000000 0.978811
#
# Coordination Sequence:
#
# PCOD9146338 Si02
#       8
#     4   4   4   4   4   4   4   4
#     4   9  15  25  45  74 107 139 174 218 261 305
#     4  12  25  37  51  74 108 146 182 227 278 318
#     4   9  16  29  52  84 117 139 168 223 278 322
#     4   9  17  29  49  80 115 146 175 215 270 322
#     4   9  16  28  49  81 112 138 175 223 271 316
#     4  10  19  34  57  81 107 141 181 221 267 326
#     4  10  20  35  56  80 107 142 183 222 266 321
#     4  10  19  33  54  80 105 138 182 222 267 325
#
# _framework density 22.639994999999999
#
# number of rings (size 3 to 8) (size 9 to 14) (size 15 to 20)
#    0.000    2.250    1.250    3.000    0.000    6.500 
#    0.000    2.500    0.000    7.500    0.000    0.875 
#    0.000    0.000    0.000    0.000    0.000    0.000 
#
# Total GULP energy -178807.138696 kJ/mol
# GULP energy per Si atom -5587.723084 kJ/mol
# Density = 2.258847 g / cm^3
# Si number density = 22.639995 Si / 1000 Ang^3
#
#
#
# Elastic Constant Matrix: (Units=GPa)
#
#
# Indices 1 2 3 4 5 6 
#
# 1 152.1282 -2.0743 69.1892 0.0000 -21.8602 0.0000
# 2 -2.0743 59.8742 0.1399 0.0000 -2.5171 0.0000
# 3 69.1892 0.1399 124.7442 0.0000 -8.2681 0.0000
# 4 0.0000 0.0000 0.0000-4589.2154 0.0000 6530.5508
# 5 -21.8602 -2.5171 -8.2681 0.0000 39.6003 0.0000
# 6 0.0000 0.0000 0.0000 6530.5508 0.0000-9378.8710
#
#
#
# Elastic Compliance Matrix: (Units=1/GPa)
#
#
# Indices 1 2 3 4 5 6 
#
# 1 0.009440 0.000516 -0.004957 0.000000 0.004209 0.000000
# 2 0.000516 0.016775 -0.000218 0.000000 0.001305 0.000000
# 3 -0.004957 -0.000218 0.010733 0.000000 -0.000510 0.000000
# 4 0.000000 0.000000 0.000000 -0.023831 0.000000 -0.016593
# 5 0.004209 0.001305 -0.000510 0.000000 0.027552 0.000000
# 6 0.000000 0.000000 0.000000 -0.016593 0.000000 -0.011661
#
#
# Mechanical properties :
#
#
# Convention : Reuss Voigt Hill
#
# Bulk Modulus (GPa) = 36.19641 52.36181 44.27911
# Shear Modulus (GPa) = 105.17964 -2767.73111 -1331.27573
#
# Velocity S-wave (km/s) = 6.82336 -35.00215 -24.27542
# Velocity P-wave (km/s) = 8.83744 40.12923 27.67901
#
# Compressibility (1/GPa) = 0.02762705
#
# Stress axis : x y z
#
# Youngs Moduli (GPa) = 105.93327 59.61275 93.17480
#
# Poissons Ratio (x) = -0.03073 0.46191
# Poissons Ratio (y) = -0.05461 0.02034
# Poissons Ratio (z) = 0.52516 0.01301
#
# Static dielectric constant tensor:
#      x y z
#    x 1.809580 0.000000 -0.009800 
#    y 0.000000 1.882880 0.000000 
#    z -0.009800 0.000000 1.813000 
# 
# From -- ./inp_files/83549.got.cif
#   From: 2010.05.17/outbox.cif.g08.bks.cpg/sg10_42_cif.got.tgz:83549.got - 2010.06.03 11:33:40.
