data_PCOD9146708
_publ_section_title
;
Structure prediction by ZEFSAII (Michael W. Deem and Ramdas Pophale) SiO2 
 PCOD9146708
Probable space group: P 2/M
;
_chemical_formula_sum "Si O2"
_cell_formula_units_Z 28
_cell_length_a 9.744767
_cell_length_b 8.770255
_cell_length_c 32.326611
_cell_angle_alpha 90.000000
_cell_angle_beta 30.657121
_cell_angle_gamma 90.000000
_cell_volume 1408.731596
_symmetry_space_group_name_H-M "P 2/M"
_symmetry_group_IT_number 10
_symmetry_cell_setting 'monoclinic'
loop_
_space_group_symop_operation_xyz
x,y,z
-x,y,-z
-x,-y,-z
x,-y,z
loop_
_atom_site_type_symbol
_atom_site_label
_atom_site_fract_x
_atom_site_fract_y
_atom_site_fract_z
Si Si1 0.589874 0.317173 0.305608
Si Si2 0.878440 0.817765 0.629461
Si Si3 0.752396 0.674634 0.531320
Si Si4 0.113410 0.183261 0.924713
Si Si5 0.263005 0.185509 0.243415
Si Si6 0.124955 0.181177 0.189306
Si Si7 0.387460 0.322419 0.983019
O O1 0.568282 0.500000 0.309902
O O2 0.384750 0.248493 0.325481
O O3 0.488359 0.264721 0.377698
O O4 0.894732 0.263337 0.222626
O O5 0.871626 0.765665 0.678802
O O6 0.138802 0.765476 0.536074
O O7 0.861628 0.000000 0.632657
O O8 0.698147 0.500000 0.533369
O O9 0.000000 0.672815 0.500000
O O10 0.422891 0.231247 0.839446
O O11 0.100183 0.000000 0.923045
O O12 0.914668 0.263028 0.944053
O O13 0.000000 0.218911 0.000000
O O14 0.120966 0.234997 0.238024
O O15 0.261849 0.000000 0.242970
O O16 0.418187 0.222738 0.096206
O O17 0.084030 0.000000 0.198060
O O18 0.403100 0.500000 0.966970
O O19 0.500000 0.307316 0.000000
#
# Coordination Sequence:
#
# PCOD9146708 Si02
#       7
#     4   4   4   4   4   4   4
#     4  10  21  37  56  82 116 148 182 229 280 328
#     4  10  19  33  57  87 113 143 186 232 274 327
#     4   8  16  33  54  77 111 150 183 224 276 325
#     4  10  19  38  63  82 106 147 191 228 271 324
#     4   9  20  37  56  83 114 142 182 234 279 323
#     4  11  22  40  61  81 109 148 188 227 277 330
#     4  11  25  41  56  83 118 146 181 230 279 327
#
# _framework density 19.876035000000002
#
# number of rings (size 3 to 8) (size 9 to 14) (size 15 to 20)
#    0.000    2.143    1.429    2.571    2.000    4.571 
#    0.000    4.286    0.000    4.286    0.000    0.000 
#    0.000    0.000    0.000    0.000    0.000    0.000 
#
# Total GULP energy -156296.548160 kJ/mol
# GULP energy per Si atom -5582.019577 kJ/mol
# Density = 1.983080 g / cm^3
# Si number density = 19.876035 Si / 1000 Ang^3
#
#
#
# Elastic Constant Matrix: (Units=GPa)
#
#
# Indices 1 2 3 4 5 6 
#
# 1 43.3544 12.2956 -11.1909 0.0000 3.3787 0.0000
# 2 12.2956 36.3588 0.2788 0.0000 12.1978 0.0000
# 3 -11.1909 0.2788 31.2491 0.0000 14.0578 0.0000
# 4 0.0000 0.0000 0.0000 8.7573 0.0000 12.0592
# 5 3.3787 12.1978 14.0578 0.0000 32.1146 0.0000
# 6 0.0000 0.0000 0.0000 12.0592 0.0000 -8.8734
#
#
#
# Elastic Compliance Matrix: (Units=1/GPa)
#
#
# Indices 1 2 3 4 5 6 
#
# 1 0.029178 -0.008037 0.013110 0.000000 -0.005756 0.000000
# 2 -0.008037 0.034781 0.002956 0.000000 -0.013659 0.000000
# 3 0.013110 0.002956 0.047063 0.000000 -0.023104 0.000000
# 4 0.000000 0.000000 0.000000 0.039768 0.000000 0.054045
# 5 -0.005756 -0.013659 -0.023104 0.000000 0.047045 0.000000
# 6 0.000000 0.000000 0.000000 0.054045 0.000000 -0.039247
#
#
# Mechanical properties :
#
#
# Convention : Reuss Voigt Hill
#
# Bulk Modulus (GPa) = 7.86894 12.63660 10.25277
# Shear Modulus (GPa) = 27.04339 13.70496 20.37417
#
# Velocity S-wave (km/s) = 3.69264 2.62872 3.20513
# Velocity P-wave (km/s) = 4.70620 3.94780 4.34358
#
# Compressibility (1/GPa) = 0.12708193
#
# Stress axis : x y z
#
# Youngs Moduli (GPa) = 34.27286 28.75116 21.24813
#
# Poissons Ratio (x) = 0.23106 -0.27857
# Poissons Ratio (y) = 0.27544 -0.06282
# Poissons Ratio (z) = -0.44933 -0.08500
#
# Static dielectric constant tensor:
#      x y z
#    x 1.676950 0.000000 0.025170 
#    y 0.000000 1.669430 0.000000 
#    z 0.025170 0.000000 1.718580 
# 
# From -- ./inp_files/91970.got.cif
#   From: 2010.05.17/outbox.cif.g08.bks.cpg/sg10_46_cif.got.tgz:91970.got - 2010.06.03 11:33:40.
