data_PCOD9146262
_publ_section_title
;
Structure prediction by ZEFSAII (Michael W. Deem and Ramdas Pophale) SiO2 
 PCOD9146262
Probable space group: P 2/M
;
_chemical_formula_sum "Si O2"
_cell_formula_units_Z 28
_cell_length_a 16.924614
_cell_length_b 7.399981
_cell_length_c 12.450090
_cell_angle_alpha 90.000000
_cell_angle_beta 62.550756
_cell_angle_gamma 90.000000
_cell_volume 1383.728385
_symmetry_space_group_name_H-M "P 2/M"
_symmetry_group_IT_number 10
_symmetry_cell_setting 'monoclinic'
loop_
_space_group_symop_operation_xyz
x,y,z
-x,y,-z
-x,-y,-z
x,-y,z
loop_
_atom_site_type_symbol
_atom_site_label
_atom_site_fract_x
_atom_site_fract_y
_atom_site_fract_z
Si Si1 0.713394 0.279979 0.105438
Si Si2 0.386893 0.000000 0.453164
Si Si3 0.943520 0.790599 0.771043
Si Si4 0.716829 0.281296 0.623445
Si Si5 0.400584 0.000000 0.696965
Si Si6 0.248801 0.716462 0.163819
Si Si7 0.093270 0.701193 0.971246
Si Si8 0.079835 0.706875 0.519726
O O1 0.706946 0.500000 0.114427
O O2 0.637282 0.174007 0.215684
O O3 0.718297 0.225740 0.975354
O O4 0.807490 0.224248 0.102819
O O5 0.344411 0.173142 0.420072
O O6 0.369397 0.000000 0.592081
O O7 0.492905 0.000000 0.370874
O O8 0.854007 0.775610 0.756141
O O9 0.915342 0.689712 0.895466
O O10 0.032211 0.711368 0.664715
O O11 0.958456 0.000000 0.785276
O O12 0.709371 0.500000 0.616018
O O13 0.699373 0.232455 0.760059
O O14 0.820060 0.225228 0.538470
O O15 0.248495 0.500000 0.161484
O O16 0.092617 0.500000 0.922144
O O17 0.000000 0.793325 0.000000
O O18 0.088590 0.500000 0.474779
O O19 0.000000 0.795374 0.500000
#
# Coordination Sequence:
#
# PCOD9146262 Si02
#       8
#     4   2   4   4   2   4   4   4
#     4   9  20  39  68  95 120 161 206 251 306 371
#     4  11  28  47  66  91 119 156 205 269 316 373
#     4  11  21  28  47  81 119 164 202 236 284 347
#     4  10  22  40  65  93 128 166 203 253 313 370
#     4  11  26  49  68  87 119 157 210 265 320 372
#     4   9  18  36  60  91 126 159 197 243 300 372
#     4   9  19  36  55  80 117 158 202 249 296 350
#     4  10  19  33  53  80 119 164 200 232 279 350
#
# _framework density 20.235184
#
# number of rings (size 3 to 8) (size 9 to 14) (size 15 to 20)
#    0.000    2.143    1.429    2.143    6.000    2.857 
#    0.000    5.714    0.000    2.571    0.000    0.000 
#    0.000    0.000    0.000    0.000    0.000    0.000 
#
# Total GULP energy -156020.070985 kJ/mol
# GULP energy per Si atom -5572.145392 kJ/mol
# Density = 2.018913 g / cm^3
# Si number density = 20.235184 Si / 1000 Ang^3
#
#
#
# Elastic Constant Matrix: (Units=GPa)
#
#
# Indices 1 2 3 4 5 6 
#
# 1 110.2061 34.4036 55.3077 0.0000 7.4673 0.0000
# 2 34.4036 102.2842 31.4633 0.0000 2.3714 0.0000
# 3 55.3077 31.4633 108.7614 0.0000 -8.1752 0.0000
# 4 0.0000 0.0000 0.0000 31.4148 0.0000 -6.5638
# 5 7.4673 2.3714 -8.1752 0.0000 27.3361 0.0000
# 6 0.0000 0.0000 0.0000 -6.5638 0.0000 24.5105
#
#
#
# Elastic Compliance Matrix: (Units=1/GPa)
#
#
# Indices 1 2 3 4 5 6 
#
# 1 0.013490 -0.002387 -0.006578 0.000000 -0.005445 0.000000
# 2 -0.002387 0.011252 -0.002113 0.000000 -0.000956 0.000000
# 3 -0.006578 -0.002113 0.013606 0.000000 0.006049 0.000000
# 4 0.000000 0.000000 0.000000 0.033719 0.000000 0.009030
# 5 -0.005445 -0.000956 0.006049 0.000000 0.039961 0.000000
# 6 0.000000 0.000000 0.000000 0.009030 0.000000 0.043217
#
#
# Mechanical properties :
#
#
# Convention : Reuss Voigt Hill
#
# Bulk Modulus (GPa) = 61.76756 62.62229 62.19493
# Shear Modulus (GPa) = 27.35264 29.99074 28.67169
#
# Velocity S-wave (km/s) = 3.68059 3.85399 3.76829
# Velocity P-wave (km/s) = 6.97520 7.12873 7.05238
#
# Compressibility (1/GPa) = 0.01618973
#
# Stress axis : x y z
#
# Youngs Moduli (GPa) = 74.13130 88.87492 73.49917
#
# Poissons Ratio (x) = 0.21219 0.48351
# Poissons Ratio (y) = 0.17699 0.15529
# Poissons Ratio (z) = 0.48766 0.18777
#
# Static dielectric constant tensor:
#      x y z
#    x 1.752120 0.000000 0.043830 
#    y 0.000000 1.760940 0.000000 
#    z 0.043830 0.000000 1.754930 
# 
# From -- ./inp_files/49258.got.cif
#   From: 2010.05.17/outbox.cif.g08.bks.cpg/sg10_25_cif.got.tgz:49258.got - 2010.06.03 11:33:40.
