data_PCOD9146373
_publ_section_title
;
Structure prediction by ZEFSAII (Michael W. Deem and Ramdas Pophale) SiO2 
 PCOD9146373
Probable space group: P 2/M
;
_chemical_formula_sum "Si O2"
_cell_formula_units_Z 28
_cell_length_a 16.291494
_cell_length_b 8.855177
_cell_length_c 21.381875
_cell_angle_alpha 90.000000
_cell_angle_beta 152.947367
_cell_angle_gamma 90.000000
_cell_volume 1402.919682
_symmetry_space_group_name_H-M "P 2/M"
_symmetry_group_IT_number 10
_symmetry_cell_setting 'monoclinic'
loop_
_space_group_symop_operation_xyz
x,y,z
-x,y,-z
-x,-y,-z
x,-y,z
loop_
_atom_site_type_symbol
_atom_site_label
_atom_site_fract_x
_atom_site_fract_y
_atom_site_fract_z
Si Si1 0.056632 0.681138 0.468177
Si Si2 0.312868 0.674741 0.448936
Si Si3 0.751639 0.178901 0.016463
Si Si4 0.917575 0.675127 0.832217
Si Si5 0.647335 0.178280 0.737237
Si Si6 0.975136 0.179454 0.288854
Si Si7 0.478429 0.320352 0.746194
O O1 0.037079 0.500000 0.447355
O O2 0.945026 0.765179 0.338662
O O3 0.267662 0.719994 0.602353
O O4 0.000000 0.720507 0.500000
O O5 0.360061 0.500000 0.494794
O O6 0.234128 0.681899 0.325658
O O7 0.483240 0.778015 0.579274
O O8 0.149050 0.730021 0.381388
O O9 0.913386 0.234152 0.080681
O O10 0.817735 0.210673 0.131867
O O11 0.727963 0.000000 0.993384
O O12 0.574078 0.265173 0.874208
O O13 0.967189 0.500000 0.874737
O O14 0.826073 0.744175 0.831229
O O15 0.583101 0.242927 0.759971
O O16 0.671431 0.000000 0.756755
O O17 0.011732 0.000000 0.311763
O O18 0.493564 0.500000 0.750444
#
# Coordination Sequence:
#
# PCOD9146373 Si02
#       7
#     4   4   4   4   4   4   4
#     4  10  22  41  66  94 121 150 191 244 297 354
#     4  10  19  33  54  81 115 155 199 247 292 345
#     4  10  22  40  60  86 122 159 200 244 293 351
#     4  10  21  36  55  81 115 158 206 248 290 342
#     4  12  23  34  53  82 119 157 199 249 299 346
#     4  10  20  36  61  90 119 156 195 239 296 355
#     4  11  23  40  62  87 117 156 199 243 297 355
#
# _framework density 19.958378
#
# number of rings (size 3 to 8) (size 9 to 14) (size 15 to 20)
#    0.000    1.571    1.429    3.857    0.000    6.571 
#    0.000    3.571    0.000    4.286    0.000    0.000 
#    0.000    0.000    0.000    0.000    0.000    0.000 
#
# Total GULP energy -156561.796204 kJ/mol
# GULP energy per Si atom -5591.492722 kJ/mol
# Density = 1.991295 g / cm^3
# Si number density = 19.958378 Si / 1000 Ang^3
#
#
#
# Elastic Constant Matrix: (Units=GPa)
#
#
# Indices 1 2 3 4 5 6 
#
# 1 103.9854 38.5454 18.5474 0.0000 -18.7095 0.0000
# 2 38.5454 61.5539 22.0418 0.0000 -12.6947 0.0000
# 3 18.5474 22.0418 67.1178 0.0000 -14.3476 0.0000
# 4 0.0000 0.0000 0.0000 24.5617 0.0000 -12.6826
# 5 -18.7095 -12.6947 -14.3476 0.0000 -3.1673 0.0000
# 6 0.0000 0.0000 0.0000 -12.6826 0.0000 14.9781
#
#
#
# Elastic Compliance Matrix: (Units=1/GPa)
#
#
# Indices 1 2 3 4 5 6 
#
# 1 0.010764 -0.008562 -0.003261 0.000000 -0.014495 0.000000
# 2 -0.008562 0.022306 -0.006736 0.000000 -0.008311 0.000000
# 3 -0.003261 -0.006736 0.014175 0.000000 -0.017951 0.000000
# 4 0.000000 0.000000 0.000000 0.072344 0.000000 0.061257
# 5 -0.014495 -0.008311 -0.017951 0.000000 -0.115478 0.000000
# 6 0.000000 0.000000 0.000000 0.061257 0.000000 0.118633
#
#
# Mechanical properties :
#
#
# Convention : Reuss Voigt Hill
#
# Bulk Modulus (GPa) = 98.75124 43.43625 71.09375
# Shear Modulus (GPa) = 30.63004 17.50932 24.06968
#
# Velocity S-wave (km/s) = 3.92177 2.96512 3.47651
# Velocity P-wave (km/s) = 8.37216 5.79079 7.19814
#
# Compressibility (1/GPa) = 0.01012646
#
# Stress axis : x y z
#
# Youngs Moduli (GPa) = 92.89932 44.83183 70.54564
#
# Poissons Ratio (x) = 0.38386 0.23007
# Poissons Ratio (y) = 0.79542 0.47519
# Poissons Ratio (z) = 0.30297 0.30198
#
# Static dielectric constant tensor:
#      x y z
#    x 1.707080 0.000000 -0.033940 
#    y 0.000000 1.662110 0.000000 
#    z -0.033940 0.000000 1.724920 
# 
# From -- ./inp_files/84971.got.cif
#   From: 2010.05.17/outbox.cif.g08.bks.cpg/sg10_43_cif.got.tgz:84971.got - 2010.06.03 11:33:40.
