data_PCOD9146411
_publ_section_title
;
Structure prediction by ZEFSAII (Michael W. Deem and Ramdas Pophale) SiO2 
 PCOD9146411
Probable space group: P 2/M
;
_chemical_formula_sum "Si O2"
_cell_formula_units_Z 28
_cell_length_a 27.137646
_cell_length_b 9.647583
_cell_length_c 9.470258
_cell_angle_alpha 90.000000
_cell_angle_beta 41.392038
_cell_angle_gamma 90.000000
_cell_volume 1639.420487
_symmetry_space_group_name_H-M "P 2/M"
_symmetry_group_IT_number 10
_symmetry_cell_setting 'monoclinic'
loop_
_space_group_symop_operation_xyz
x,y,z
-x,y,-z
-x,-y,-z
x,-y,z
loop_
_atom_site_type_symbol
_atom_site_label
_atom_site_fract_x
_atom_site_fract_y
_atom_site_fract_z
Si Si1 0.572955 0.665179 0.924721
Si Si2 0.915216 0.664029 0.639206
Si Si3 0.745646 0.334140 0.544774
Si Si4 0.692517 0.155794 0.146027
Si Si5 0.575190 0.346548 0.250302
Si Si6 0.821444 0.159585 0.632269
Si Si7 0.213917 0.661652 0.857809
O O1 0.574616 0.500000 0.890097
O O2 0.658572 0.711070 0.712450
O O3 0.500000 0.722277 0.000000
O O4 0.560463 0.683853 0.118438
O O5 0.908552 0.500000 0.618230
O O6 0.887645 0.756547 0.567312
O O7 0.000000 0.692729 0.500000
O O8 0.860926 0.688829 0.890900
O O9 0.745308 0.500000 0.580585
O O10 0.785964 0.245890 0.579504
O O11 0.788451 0.316238 0.304446
O O12 0.626152 0.233524 0.212232
O O13 0.722315 0.243455 0.212943
O O14 0.673350 0.000000 0.228167
O O15 0.758375 0.153079 0.889042
O O16 0.500000 0.352917 0.500000
O O17 0.611795 0.500000 0.177013
O O18 0.840400 0.000000 0.553557
O O19 0.233189 0.500000 0.838689
#
# Coordination Sequence:
#
# PCOD9146411 Si02
#       7
#     4   4   4   4   4   4   4
#     4   9  18  31  48  73 102 131 168 217 266 304
#     4   9  18  35  58  82 108 136 170 215 261 306
#     4  10  19  33  55  78 104 137 174 219 263 308
#     4  10  20  34  51  72 102 138 174 214 260 309
#     4  10  20  32  51  74  98 130 174 221 262 307
#     4  10  20  34  54  78 106 140 176 211 254 314
#     4   9  19  33  54  81 104 131 175 216 256 309
#
# _framework density 17.079205999999999
#
# number of rings (size 3 to 8) (size 9 to 14) (size 15 to 20)
#    0.000    2.429    1.429    0.857    2.000    2.286 
#    0.000    0.714    0.000    5.143    0.000    0.000 
#    0.000    0.000    0.000    0.000    0.000    0.000 
#
# Total GULP energy -155990.427793 kJ/mol
# GULP energy per Si atom -5571.086707 kJ/mol
# Density = 1.704033 g / cm^3
# Si number density = 17.079206 Si / 1000 Ang^3
#
#
#
# Elastic Constant Matrix: (Units=GPa)
#
#
# Indices 1 2 3 4 5 6 
#
# 1 129.1357 78.3621 43.7343 0.0000 -8.6268 0.0000
# 2 78.3621 84.7099 36.0687 0.0000 0.0481 0.0000
# 3 43.7343 36.0687 50.7355 0.0000 2.8236 0.0000
# 4 0.0000 0.0000 0.0000 16.7625 0.0000 -13.3007
# 5 -8.6268 0.0481 2.8236 0.0000 25.8349 0.0000
# 6 0.0000 0.0000 0.0000 -13.3007 0.0000 -67.6777
#
#
#
# Elastic Compliance Matrix: (Units=1/GPa)
#
#
# Indices 1 2 3 4 5 6 
#
# 1 0.019965 -0.015732 -0.006437 0.000000 0.007399 0.000000
# 2 -0.015732 0.029369 -0.007066 0.000000 -0.004536 0.000000
# 3 -0.006437 -0.007066 0.030587 0.000000 -0.005479 0.000000
# 4 0.000000 0.000000 0.000000 0.051609 0.000000 -0.010143
# 5 0.007399 -0.004536 -0.005479 0.000000 0.041786 0.000000
# 6 0.000000 0.000000 0.000000 -0.010143 0.000000 -0.012783
#
#
# Mechanical properties :
#
#
# Convention : Reuss Voigt Hill
#
# Bulk Modulus (GPa) = 46.61754 64.54569 55.58161
# Shear Modulus (GPa) = 22.10899 2.07834 12.09366
#
# Velocity S-wave (km/s) = 3.60182 1.10432 2.66389
# Velocity P-wave (km/s) = 6.68219 6.28491 6.48659
#
# Compressibility (1/GPa) = 0.02145115
#
# Stress axis : x y z
#
# Youngs Moduli (GPa) = 50.08866 34.04961 32.69343
#
# Poissons Ratio (x) = 0.53566 0.21046
# Poissons Ratio (y) = 0.78798 0.23100
# Poissons Ratio (z) = 0.32244 0.24058
#
# Static dielectric constant tensor:
#      x y z
#    x 1.555110 0.000000 -0.005270 
#    y 0.000000 1.589930 0.000000 
#    z -0.005270 0.000000 1.585080 
# 
# From -- ./inp_files/36902.got.cif
#   From: 2010.05.17/outbox.cif.g08.bks.cpg/sg10_19_cif.got.tgz:36902.got - 2010.06.03 11:33:40.
