data_PCOD9146758
_publ_section_title
;
Structure prediction by ZEFSAII (Michael W. Deem and Ramdas Pophale) SiO2 
 PCOD9146758
Probable space group: P 2/M
;
_chemical_formula_sum "Si O2"
_cell_formula_units_Z 30
_cell_length_a 11.083505
_cell_length_b 20.199524
_cell_length_c 12.988940
_cell_angle_alpha 90.000000
_cell_angle_beta 34.965491
_cell_angle_gamma 90.000000
_cell_volume 1666.515907
_symmetry_space_group_name_H-M "P 2/M"
_symmetry_group_IT_number 10
_symmetry_cell_setting 'monoclinic'
loop_
_space_group_symop_operation_xyz
x,y,z
-x,y,-z
-x,-y,-z
x,-y,z
loop_
_atom_site_type_symbol
_atom_site_label
_atom_site_fract_x
_atom_site_fract_y
_atom_site_fract_z
Si Si1 0.269552 0.698753 0.693858
Si Si2 0.121702 0.306874 0.315277
Si Si3 0.485797 0.776307 0.170407
Si Si4 0.500000 0.109368 0.000000
Si Si5 0.298642 0.425328 0.065953
Si Si6 0.806132 0.797278 0.432876
Si Si7 0.205645 0.326226 0.978646
Si Si8 0.024701 0.075114 0.361936
O O1 0.500000 0.671581 0.500000
O O2 0.249227 0.767384 0.641187
O O3 0.259431 0.694896 0.824517
O O4 0.043713 0.663906 0.830127
O O5 0.328202 0.270064 0.214433
O O6 0.159343 0.370013 0.218812
O O7 0.000000 0.331915 0.500000
O O8 0.977573 0.251803 0.363042
O O9 0.388636 0.789988 0.351052
O O10 0.702278 0.736327 0.024076
O O11 0.509045 0.843877 0.093482
O O12 0.274290 0.074319 0.163817
O O13 0.217157 0.500000 0.113329
O O14 0.500000 0.427892 0.000000
O O15 0.328913 0.391036 0.933179
O O16 0.903446 0.870716 0.377296
O O17 0.000000 0.095392 0.500000
O O18 0.942246 0.000000 0.408890
#
# Coordination Sequence:
#
# PCOD9146758 Si02
#       8
#     4   4   4   2   4   4   4   4
#     4  11  23  38  61  86 113 147 213 257 297 342
#     4  10  19  33  60  88 117 156 198 251 304 360
#     4  11  19  32  61  91 119 152 200 252 310 353
#     4  12  19  32  54  88 123 166 198 232 303 374
#     4  11  22  37  59  90 127 160 190 237 309 378
#     4  11  19  38  59  86 120 159 198 259 301 349
#     4  11  22  38  60  89 116 156 196 260 302 344
#     4  11  22  36  54  87 132 166 198 242 305 371
#
# _framework density 18.001628
#
# number of rings (size 3 to 8) (size 9 to 14) (size 15 to 20)
#    0.000    1.067    6.667    2.200    0.000    0.267 
#    0.000    1.333    0.000    1.200    0.000    2.800 
#    0.000    0.000    0.000    0.000    0.000    0.000 
#
# Total GULP energy -167060.182231 kJ/mol
# GULP energy per Si atom -5568.672741 kJ/mol
# Density = 1.796066 g / cm^3
# Si number density = 18.001628 Si / 1000 Ang^3
#
#
#
# Elastic Constant Matrix: (Units=GPa)
#
#
# Indices 1 2 3 4 5 6 
#
# 1 87.6499 34.4216 26.6606 0.0000 9.1804 0.0000
# 2 34.4216 103.3558 16.5973 0.0000 10.4783 0.0000
# 3 26.6606 16.5973 100.8063 0.0000 0.8790 0.0000
# 4 0.0000 0.0000 0.0000 45.1090 0.0000 7.8646
# 5 9.1804 10.4783 0.8790 0.0000 33.7344 0.0000
# 6 0.0000 0.0000 0.0000 7.8646 0.0000 16.6280
#
#
#
# Elastic Compliance Matrix: (Units=1/GPa)
#
#
# Indices 1 2 3 4 5 6 
#
# 1 0.014168 -0.003967 -0.003072 0.000000 -0.002543 0.000000
# 2 -0.003967 0.011372 -0.000802 0.000000 -0.002432 0.000000
# 3 -0.003072 -0.000802 0.010857 0.000000 0.000802 0.000000
# 4 0.000000 0.000000 0.000000 0.024161 0.000000 -0.011428
# 5 -0.002543 -0.002432 0.000802 0.000000 0.031070 0.000000
# 6 0.000000 0.000000 0.000000 -0.011428 0.000000 0.065545
#
#
# Mechanical properties :
#
#
# Convention : Reuss Voigt Hill
#
# Bulk Modulus (GPa) = 48.27324 49.68565 48.97945
# Shear Modulus (GPa) = 27.81500 33.36978 30.59239
#
# Velocity S-wave (km/s) = 3.93509 4.31014 4.12688
# Velocity P-wave (km/s) = 6.89353 7.24088 7.06934
#
# Compressibility (1/GPa) = 0.02071541
#
# Stress axis : x y z
#
# Youngs Moduli (GPa) = 70.58287 87.93610 92.10308
#
# Poissons Ratio (x) = 0.34887 0.28290
# Poissons Ratio (y) = 0.28003 0.07385
# Poissons Ratio (z) = 0.21680 0.07051
#
# Static dielectric constant tensor:
#      x y z
#    x 1.691250 0.000000 0.018130 
#    y 0.000000 1.597150 0.000000 
#    z 0.018130 0.000000 1.674720 
# 
# From -- ./inp_files/65454.got.cif
#   From: 2010.05.17/outbox.cif.g08.bks.cpg/sg10_33_cif.got.tgz:65454.got - 2010.06.03 11:33:40.
