data_PCOD9146645
_publ_section_title
;
Structure prediction by ZEFSAII (Michael W. Deem and Ramdas Pophale) SiO2 
 PCOD9146645
Probable space group: P 2/M
;
_chemical_formula_sum "Si O2"
_cell_formula_units_Z 28
_cell_length_a 15.406991
_cell_length_b 8.565920
_cell_length_c 11.850431
_cell_angle_alpha 90.000000
_cell_angle_beta 115.144095
_cell_angle_gamma 90.000000
_cell_volume 1415.763514
_symmetry_space_group_name_H-M "P 2/M"
_symmetry_group_IT_number 10
_symmetry_cell_setting 'monoclinic'
loop_
_space_group_symop_operation_xyz
x,y,z
-x,y,-z
-x,-y,-z
x,-y,z
loop_
_atom_site_type_symbol
_atom_site_label
_atom_site_fract_x
_atom_site_fract_y
_atom_site_fract_z
Si Si1 0.200378 0.312250 0.371650
Si Si2 0.413628 0.310944 0.534640
Si Si3 0.546922 0.815325 0.194453
Si Si4 0.886541 0.312853 0.435155
Si Si5 0.974131 0.811939 0.860019
Si Si6 0.637252 0.315875 0.017506
Si Si7 0.837961 0.185656 0.170524
O O1 0.196535 0.500000 0.364215
O O2 0.310977 0.263963 0.426329
O O3 0.160394 0.265350 0.472751
O O4 0.127730 0.247014 0.239475
O O5 0.500000 0.264133 0.500000
O O6 0.414556 0.500000 0.544906
O O7 0.425632 0.242560 0.666375
O O8 0.606599 0.730537 0.128232
O O9 0.561734 0.000000 0.192013
O O10 0.436626 0.772858 0.104894
O O11 0.874588 0.500000 0.414998
O O12 0.839865 0.228697 0.303160
O O13 0.000000 0.279071 0.500000
O O14 0.060616 0.761003 0.825599
O O15 0.972207 0.000000 0.857659
O O16 0.000000 0.759581 0.000000
O O17 0.624844 0.500000 0.995418
O O18 0.746942 0.266392 0.062942
O O19 0.829634 0.000000 0.151519
#
# Coordination Sequence:
#
# PCOD9146645 Si02
#       7
#     4   4   4   4   4   4   4
#     4  10  21  38  60  85 114 151 195 245 293 344
#     4  10  22  40  61  87 121 161 206 248 293 353
#     4  11  22  39  62  90 121 153 197 249 302 356
#     4  10  19  33  56  85 117 150 190 240 296 354
#     4  10  23  41  58  80 116 157 194 238 292 350
#     4  11  22  38  62  88 120 158 194 241 303 363
#     4  11  22  36  57  87 119 153 196 243 294 354
#
# _framework density 19.777314000000001
#
# number of rings (size 3 to 8) (size 9 to 14) (size 15 to 20)
#    0.000    1.571    1.429    4.714    0.000    4.857 
#    0.000    2.857    0.000    0.000    0.000    0.000 
#    0.000    0.000    0.000    0.000    0.000    0.000 
#
# Total GULP energy -156536.854151 kJ/mol
# GULP energy per Si atom -5590.601934 kJ/mol
# Density = 1.973230 g / cm^3
# Si number density = 19.777314 Si / 1000 Ang^3
#
#
#
# Elastic Constant Matrix: (Units=GPa)
#
#
# Indices 1 2 3 4 5 6 
#
# 1 115.9298 12.9609 52.4199 0.0000 26.5128 0.0000
# 2 12.9609 22.9044 7.0327 0.0000 2.2986 0.0000
# 3 52.4199 7.0327 122.4171 0.0000 14.3522 0.0000
# 4 0.0000 0.0000 0.0000 31.7264 0.0000 11.0986
# 5 26.5128 2.2986 14.3522 0.0000 25.4361 0.0000
# 6 0.0000 0.0000 0.0000 11.0986 0.0000 16.0489
#
#
#
# Elastic Compliance Matrix: (Units=1/GPa)
#
#
# Indices 1 2 3 4 5 6 
#
# 1 0.013764 -0.005335 -0.004243 0.000000 -0.011471 0.000000
# 2 -0.005335 0.046693 -0.000595 0.000000 0.001677 0.000000
# 3 -0.004243 -0.000595 0.010167 0.000000 -0.001261 0.000000
# 4 0.000000 0.000000 0.000000 0.041578 0.000000 -0.028753
# 5 -0.011471 0.001677 -0.001261 0.000000 0.051831 0.000000
# 6 0.000000 0.000000 0.000000 -0.028753 0.000000 0.082194
#
#
# Mechanical properties :
#
#
# Convention : Reuss Voigt Hill
#
# Bulk Modulus (GPa) = 19.88843 45.11979 32.50411
# Shear Modulus (GPa) = 17.64720 27.23145 22.43933
#
# Velocity S-wave (km/s) = 2.99037 3.71469 3.37204
# Velocity P-wave (km/s) = 4.69053 6.42355 5.62419
#
# Compressibility (1/GPa) = 0.05028050
#
# Stress axis : x y z
#
# Youngs Moduli (GPa) = 72.65319 21.41652 98.35266
#
# Poissons Ratio (x) = 0.11425 0.41727
# Poissons Ratio (y) = 0.38759 0.05848
# Poissons Ratio (z) = 0.30823 0.01273
#
# Static dielectric constant tensor:
#      x y z
#    x 1.706860 0.000000 0.005050 
#    y 0.000000 1.673350 0.000000 
#    z 0.005050 0.000000 1.663930 
# 
# From -- ./inp_files/49356.got.cif
#   From: 2010.05.17/outbox.cif.g08.bks.cpg/sg10_25_cif.got.tgz:49356.got - 2010.06.03 11:33:40.
