data_PCOD9146878
_publ_section_title
;
Structure prediction by ZEFSAII (Michael W. Deem and Ramdas Pophale) SiO2 
 PCOD9146878
Probable space group: P 2/M
;
_chemical_formula_sum "Si O2"
_cell_formula_units_Z 32
_cell_length_a 21.354080
_cell_length_b 7.869838
_cell_length_c 16.548358
_cell_angle_alpha 90.000000
_cell_angle_beta 151.328231
_cell_angle_gamma 90.000000
_cell_volume 1334.301233
_symmetry_space_group_name_H-M "P 2/M"
_symmetry_group_IT_number 10
_symmetry_cell_setting 'monoclinic'
loop_
_space_group_symop_operation_xyz
x,y,z
-x,y,-z
-x,-y,-z
x,-y,z
loop_
_atom_site_type_symbol
_atom_site_label
_atom_site_fract_x
_atom_site_fract_y
_atom_site_fract_z
Si Si1 0.634597 0.793080 0.693032
Si Si2 0.337389 0.309856 0.976053
Si Si3 0.507089 0.795344 0.310213
Si Si4 0.793722 0.802509 0.654981
Si Si5 0.645430 0.805567 0.174126
Si Si6 0.115482 0.802943 0.838865
Si Si7 0.839645 0.696265 0.526603
Si Si8 0.081457 0.793522 0.989926
O O1 0.500000 0.736238 0.500000
O O2 0.606458 0.748486 0.754686
O O3 0.637410 0.000000 0.690985
O O4 0.774845 0.736196 0.816697
O O5 0.353907 0.500000 0.965228
O O6 0.464001 0.258835 0.172205
O O7 0.304235 0.198899 0.860665
O O8 0.218741 0.298422 0.904244
O O9 0.647851 0.729362 0.500579
O O10 0.515767 0.000000 0.320464
O O11 0.806559 0.793907 0.571866
O O12 0.934457 0.733504 0.846177
O O13 0.789004 0.000000 0.675961
O O14 0.730025 0.708884 0.335003
O O15 0.636953 0.000000 0.193361
O O16 0.500000 0.736198 0.000000
O O17 0.097721 0.755426 0.912754
O O18 0.971438 0.776827 0.640678
O O19 0.156114 0.000000 0.883483
O O20 0.862315 0.500000 0.574163
O O21 0.075978 0.000000 0.992327
#
# Coordination Sequence:
#
# PCOD9146878 Si02
#       8
#     4   4   4   4   4   4   4   4
#     4   9  16  28  51  82 112 143 182 231 283 329
#     4  12  24  36  55  83 111 140 181 234 285 330
#     4  10  19  34  54  79 108 145 191 234 277 334
#     4   9  18  32  53  77 106 148 194 232 273 333
#     4  11  24  41  58  76 104 147 192 230 278 339
#     4  10  19  36  59  80 107 146 187 226 273 331
#     4  11  22  36  55  82 114 142 181 233 284 331
#     4   8  14  28  50  76 106 140 179 223 273 325
#
# _framework density 23.982589999999998
#
# number of rings (size 3 to 8) (size 9 to 14) (size 15 to 20)
#    0.000    2.000    1.250    4.500    0.000    5.000 
#    0.000    3.125    0.000    4.125    0.000    0.000 
#    0.000    3.250    0.000    0.000    0.000    0.000 
#
# Total GULP energy -178739.835738 kJ/mol
# GULP energy per Si atom -5585.619867 kJ/mol
# Density = 2.392800 g / cm^3
# Si number density = 23.982590 Si / 1000 Ang^3
#
#
#
# Elastic Constant Matrix: (Units=GPa)
#
#
# Indices 1 2 3 4 5 6 
#
# 1 80.4794 1.5362 38.1110 0.0000 16.7657 0.0000
# 2 1.5362 45.9495 -1.6760 0.0000 1.3368 0.0000
# 3 38.1110 -1.6760 168.2480 0.0000 19.8036 0.0000
# 4 0.0000 0.0000 0.0000 -46.8008 0.0000 21.5689
# 5 16.7657 1.3368 19.8036 0.0000 51.9890 0.0000
# 6 0.0000 0.0000 0.0000 21.5689 0.0000 -7.0297
#
#
#
# Elastic Compliance Matrix: (Units=1/GPa)
#
#
# Indices 1 2 3 4 5 6 
#
# 1 0.014544 -0.000487 -0.002878 0.000000 -0.003581 0.000000
# 2 -0.000487 0.021810 0.000393 0.000000 -0.000553 0.000000
# 3 -0.002878 0.000393 0.006796 0.000000 -0.001671 0.000000
# 4 0.000000 0.000000 0.000000 0.051604 0.000000 0.158334
# 5 -0.003581 -0.000553 -0.001671 0.000000 0.021040 0.000000
# 6 0.000000 0.000000 0.000000 0.158334 0.000000 0.343558
#
#
# Mechanical properties :
#
#
# Convention : Reuss Voigt Hill
#
# Bulk Modulus (GPa) = 26.87781 41.17994 34.02887
# Shear Modulus (GPa) = 10.46688 16.74542 13.60615
#
# Velocity S-wave (km/s) = 2.09137 2.64528 2.38446
# Velocity P-wave (km/s) = 4.13078 5.15151 4.66912
#
# Compressibility (1/GPa) = 0.03720542
#
# Stress axis : x y z
#
# Youngs Moduli (GPa) = 68.75851 45.85110 147.14485
#
# Poissons Ratio (x) = 0.02233 0.42344
# Poissons Ratio (y) = 0.03349 -0.05778
# Poissons Ratio (z) = 0.19787 -0.01801
#
# Static dielectric constant tensor:
#      x y z
#    x 1.950000 0.000000 -0.000530 
#    y 0.000000 1.854480 0.000000 
#    z -0.000530 0.000000 1.977460 
# 
# From -- ./inp_files/87026.got.cif
#   From: 2010.05.17/outbox.cif.g08.bks.cpg/sg10_44_cif.got.tgz:87026.got - 2010.06.03 11:33:40.
