data_PCOD9146001
_publ_section_title
;
Structure prediction by ZEFSAII (Michael W. Deem and Ramdas Pophale) SiO2 
 PCOD9146001
Probable space group: P 2/M
;
_chemical_formula_sum "Si O2"
_cell_formula_units_Z 24
_cell_length_a 9.378962
_cell_length_b 13.446676
_cell_length_c 15.908292
_cell_angle_alpha 90.000000
_cell_angle_beta 32.740390
_cell_angle_gamma 90.000000
_cell_volume 1085.067548
_symmetry_space_group_name_H-M "P 2/M"
_symmetry_group_IT_number 10
_symmetry_cell_setting 'monoclinic'
loop_
_space_group_symop_operation_xyz
x,y,z
-x,y,-z
-x,-y,-z
x,-y,z
loop_
_atom_site_type_symbol
_atom_site_label
_atom_site_fract_x
_atom_site_fract_y
_atom_site_fract_z
Si Si1 0.333440 0.109653 0.747709
Si Si2 0.047577 0.115143 0.569384
Si Si3 0.300587 0.680532 0.843385
Si Si4 0.317256 0.312141 0.017136
Si Si5 0.882182 0.115797 0.834255
Si Si6 0.289380 0.383098 0.670446
O O1 0.639449 0.114025 0.571996
O O2 0.287686 0.201191 0.832622
O O3 0.150614 0.119845 0.756352
O O4 0.283484 0.000000 0.809967
O O5 0.000000 0.160990 0.500000
O O6 0.925088 0.152981 0.717175
O O7 0.953967 0.000000 0.609609
O O8 0.407682 0.634986 0.704740
O O9 0.419425 0.657658 0.874694
O O10 0.000000 0.643489 0.000000
O O11 0.311578 0.191975 0.024221
O O12 0.008255 0.340175 0.182947
O O13 0.500000 0.352047 0.000000
O O14 0.802762 0.000000 0.873320
O O15 0.500000 0.340300 0.500000
O O16 0.262397 0.500000 0.668272
#
# Coordination Sequence:
#
# PCOD9146001 Si02
#       6
#     4   4   4   4   4   4
#     4  10  19  32  55  83 119 164 215 260 301 358
#     4   9  19  32  48  79 117 165 219 264 312 355
#     4  10  21  39  60  92 125 164 205 246 309 372
#     4  11  25  41  61  97 134 167 206 252 316 371
#     4  10  20  35  55  82 124 173 217 256 298 358
#     4  10  23  46  74  97 119 156 206 258 314 380
#
# _framework density 22.11844
#
# number of rings (size 3 to 8) (size 9 to 14) (size 15 to 20)
#    0.000    2.000    3.333    0.500    4.667    6.667 
#    0.000    0.833    0.000    2.000    0.000    0.000 
#    0.000    0.000    0.000    0.000    0.000    0.000 
#
# Total GULP energy -133936.195287 kJ/mol
# GULP energy per Si atom -5580.674804 kJ/mol
# Density = 2.206810 g / cm^3
# Si number density = 22.118440 Si / 1000 Ang^3
#
#
#
# Elastic Constant Matrix: (Units=GPa)
#
#
# Indices 1 2 3 4 5 6 
#
# 1 153.3076 0.2526 49.0120 0.0000 21.1294 0.0000
# 2 0.2526 35.9540 0.4627 0.0000 -6.9264 0.0000
# 3 49.0120 0.4627 94.9966 0.0000 19.3990 0.0000
# 4 0.0000 0.0000 0.0000 36.2533 0.0000 29.1913
# 5 21.1294 -6.9264 19.3990 0.0000 37.6602 0.0000
# 6 0.0000 0.0000 0.0000 29.1913 0.0000 37.8798
#
#
#
# Elastic Compliance Matrix: (Units=1/GPa)
#
#
# Indices 1 2 3 4 5 6 
#
# 1 0.008052 -0.000544 -0.003586 0.000000 -0.002771 0.000000
# 2 -0.000544 0.029032 -0.001132 0.000000 0.006228 0.000000
# 3 -0.003586 -0.001132 0.013426 0.000000 -0.005112 0.000000
# 4 0.000000 0.000000 0.000000 0.072687 0.000000 -0.056015
# 5 -0.002771 0.006228 -0.005112 0.000000 0.031887 0.000000
# 6 0.000000 0.000000 0.000000 -0.056015 0.000000 0.069566
#
#
# Mechanical properties :
#
#
# Convention : Reuss Voigt Hill
#
# Bulk Modulus (GPa) = 25.00953 42.63474 33.82213
# Shear Modulus (GPa) = 20.12048 37.99405 29.05726
#
# Velocity S-wave (km/s) = 3.01935 4.14908 3.62845
# Velocity P-wave (km/s) = 4.84633 6.50159 5.73400
#
# Compressibility (1/GPa) = 0.03998476
#
# Stress axis : x y z
#
# Youngs Moduli (GPa) = 124.19313 34.44532 74.48087
#
# Poissons Ratio (x) = 0.01874 0.26708
# Poissons Ratio (y) = 0.06758 0.08435
# Poissons Ratio (z) = 0.44534 0.03901
#
# Static dielectric constant tensor:
#      x y z
#    x 1.858930 0.000000 0.019390 
#    y 0.000000 1.840860 0.000000 
#    z 0.019390 0.000000 1.828330 
# 
# From -- ./inp_files/29274.got.cif
#   From: 2010.05.17/outbox.cif.g08.bks.cpg/sg10_15_cif.got.tgz:29274.got - 2010.06.03 11:33:40.
