data_PCOD9146437
_publ_section_title
;
Structure prediction by ZEFSAII (Michael W. Deem and Ramdas Pophale) SiO2 
 PCOD9146437
Probable space group: P 2/M
;
_chemical_formula_sum "Si O2"
_cell_formula_units_Z 28
_cell_length_a 9.141495
_cell_length_b 7.531406
_cell_length_c 29.722501
_cell_angle_alpha 90.000000
_cell_angle_beta 141.019451
_cell_angle_gamma 90.000000
_cell_volume 1287.266030
_symmetry_space_group_name_H-M "P 2/M"
_symmetry_group_IT_number 10
_symmetry_cell_setting 'monoclinic'
loop_
_space_group_symop_operation_xyz
x,y,z
-x,y,-z
-x,-y,-z
x,-y,z
loop_
_atom_site_type_symbol
_atom_site_label
_atom_site_fract_x
_atom_site_fract_y
_atom_site_fract_z
Si Si1 0.196229 0.717239 0.647047
Si Si2 0.022273 0.792143 0.782554
Si Si3 0.499710 0.706266 0.636595
Si Si4 0.755690 0.789893 0.072463
Si Si5 0.094877 0.714713 0.070913
Si Si6 0.331421 0.282644 0.499820
Si Si7 0.623077 0.715052 0.212530
O O1 0.201807 0.500000 0.649486
O O2 0.367637 0.780291 0.648556
O O3 0.279020 0.776029 0.716004
O O4 0.933147 0.769823 0.573077
O O5 0.126247 0.716768 0.853962
O O6 0.210494 0.770572 0.788272
O O7 0.775555 0.713103 0.709303
O O8 0.975386 0.000000 0.778199
O O9 0.428979 0.500000 0.618036
O O10 0.421126 0.781143 0.569772
O O11 0.925527 0.767698 0.070848
O O12 0.723607 0.000000 0.073283
O O13 0.500000 0.715948 0.000000
O O14 0.098251 0.500000 0.070847
O O15 0.358493 0.775680 0.142045
O O16 0.000000 0.776510 0.000000
O O17 0.500000 0.224598 0.500000
O O18 0.337257 0.500000 0.501279
O O19 0.621214 0.500000 0.212408
#
# Coordination Sequence:
#
# PCOD9146437 Si02
#       7
#     4   4   4   4   4   4   4
#     4   9  17  30  51  80 107 134 176 222 260 308
#     4  11  23  37  54  78 107 138 177 222 264 311
#     4  10  19  33  55  79 106 140 174 215 268 318
#     4  10  22  39  57  78 106 143 184 220 257 309
#     4  10  21  36  56  85 115 140 172 218 269 317
#     4   9  16  27  48  79 109 136 172 218 262 308
#     4  10  20  35  55  78 106 140 177 217 264 318
#
# _framework density 21.751525000000001
#
# number of rings (size 3 to 8) (size 9 to 14) (size 15 to 20)
#    0.000    2.143    0.000    3.429    0.000    7.429 
#    0.000    0.714    0.000    5.571    0.000    0.000 
#    0.000    0.000    0.000    0.000    0.000    0.000 
#
# Total GULP energy -156529.226882 kJ/mol
# GULP energy per Si atom -5590.329531 kJ/mol
# Density = 2.170202 g / cm^3
# Si number density = 21.751525 Si / 1000 Ang^3
#
#
#
# Elastic Constant Matrix: (Units=GPa)
#
#
# Indices 1 2 3 4 5 6 
#
# 1 162.9017 -23.1863 97.2197 0.0000 -8.5307 0.0000
# 2 -23.1863 50.9281 -7.6822 0.0000 -4.9079 0.0000
# 3 97.2197 -7.6822 218.2659 0.0000 -14.9325 0.0000
# 4 0.0000 0.0000 0.0000 -4.2264 0.0000 5.6434
# 5 -8.5307 -4.9079 -14.9325 0.0000 47.7527 0.0000
# 6 0.0000 0.0000 0.0000 5.6434 0.0000 39.8592
#
#
#
# Elastic Compliance Matrix: (Units=1/GPa)
#
#
# Indices 1 2 3 4 5 6 
#
# 1 0.008965 0.003581 -0.003814 0.000000 0.000777 0.000000
# 2 0.003581 0.021420 -0.000661 0.000000 0.002635 0.000000
# 3 -0.003814 -0.000661 0.006342 0.000000 0.001234 0.000000
# 4 0.000000 0.000000 0.000000 -0.198987 0.000000 0.028173
# 5 0.000777 0.002635 0.001234 0.000000 0.021737 0.000000
# 6 0.000000 0.000000 0.000000 0.028173 0.000000 0.021100
#
#
# Mechanical properties :
#
#
# Convention : Reuss Voigt Hill
#
# Bulk Modulus (GPa) = 28.62103 62.75534 45.68819
# Shear Modulus (GPa) = -47.17432 41.06008 -3.05712
#
# Velocity S-wave (km/s) = -4.66207 4.34947 -1.18681
# Velocity P-wave (km/s) = 3.97406 7.35782 4.37860
#
# Compressibility (1/GPa) = 0.03493934
#
# Stress axis : x y z
#
# Youngs Moduli (GPa) = 111.54040 46.68500 157.68905
#
# Poissons Ratio (x) = -0.16719 0.60145
# Poissons Ratio (y) = -0.39945 0.10423
# Poissons Ratio (z) = 0.42543 0.03086
#
# Static dielectric constant tensor:
#      x y z
#    x 1.721060 0.000000 -0.014210 
#    y 0.000000 1.837300 0.000000 
#    z -0.014210 0.000000 1.762890 
# 
# From -- ./inp_files/34259.got.cif
#   From: 2010.05.17/outbox.cif.g08.bks.cpg/sg10_18_cif.got.tgz:34259.got - 2010.06.03 11:33:40.
