data_PCOD9146263
_publ_section_title
;
Structure prediction by ZEFSAII (Michael W. Deem and Ramdas Pophale) SiO2 
 PCOD9146263
Probable space group: P 2/M
;
_chemical_formula_sum "Si O2"
_cell_formula_units_Z 30
_cell_length_a 14.387108
_cell_length_b 28.032448
_cell_length_c 12.185833
_cell_angle_alpha 90.000000
_cell_angle_beta 20.057203
_cell_angle_gamma 90.000000
_cell_volume 1685.508204
_symmetry_space_group_name_H-M "P 2/M"
_symmetry_group_IT_number 10
_symmetry_cell_setting 'monoclinic'
loop_
_space_group_symop_operation_xyz
x,y,z
-x,y,-z
-x,-y,-z
x,-y,z
loop_
_atom_site_type_symbol
_atom_site_label
_atom_site_fract_x
_atom_site_fract_y
_atom_site_fract_z
Si Si1 0.957607 0.805632 0.301561
Si Si2 0.030335 0.646055 0.194736
Si Si3 0.800407 0.000000 0.617117
Si Si4 0.200196 0.286643 0.380692
Si Si5 0.560947 0.795873 0.553012
Si Si6 0.198417 0.445107 0.883600
Si Si7 0.198844 0.103492 0.382522
Si Si8 0.413035 0.684036 0.476994
O O1 0.847589 0.756980 0.480494
O O2 0.811170 0.813725 0.347153
O O3 0.877402 0.851135 0.461743
O O4 0.279984 0.800766 0.930673
O O5 0.858590 0.663834 0.489466
O O6 0.848538 0.662617 0.291954
O O7 0.117152 0.592190 0.068757
O O8 0.313625 0.674315 0.893813
O O9 0.831608 0.948491 0.525482
O O10 0.000000 0.000000 0.500000
O O11 0.500000 0.000000 0.000000
O O12 0.000000 0.280904 0.500000
O O13 0.500000 0.284952 0.000000
O O14 0.500000 0.816231 0.500000
O O15 0.629648 0.740013 0.462388
O O16 0.500000 0.438926 0.500000
O O17 0.174812 0.500000 0.947878
O O18 0.000000 0.438589 0.000000
O O19 0.000000 0.103019 0.500000
O O20 0.500000 0.107985 0.000000
O O21 0.500000 0.664619 0.500000
#
# Coordination Sequence:
#
# PCOD9146263 Si02
#       8
#     4   4   2   4   4   4   4   4
#     4  12  21  37  54  77 108 148 178 219 272 324
#     4  12  21  36  55  78 106 146 173 208 268 315
#     4   8  16  30  50  76 109 134 177 232 276 316
#     4  12  24  37  51  74 108 143 182 221 250 303
#     4  11  22  36  52  77 109 140 177 224 265 319
#     4  10  21  37  58  87 114 134 166 217 273 327
#     4  10  19  33  53  81 109 145 181 225 274 327
#     4  11  20  33  53  79 105 134 175 213 256 320
#
# _framework density 17.798787000000001
#
# number of rings (size 3 to 8) (size 9 to 14) (size 15 to 20)
#    0.000    1.067    2.667    6.000    0.000    2.133 
#    0.000    0.000    0.000    0.800    0.000    2.800 
#    0.000    0.000    0.000    0.000    0.000    0.000 
#
# Total GULP energy -167390.261996 kJ/mol
# GULP energy per Si atom -5579.675400 kJ/mol
# Density = 1.775828 g / cm^3
# Si number density = 17.798787 Si / 1000 Ang^3
#
#
#
# Elastic Constant Matrix: (Units=GPa)
#
#
# Indices 1 2 3 4 5 6 
#
# 1 75.6736 18.5387 6.6797 0.0000 -15.8292 0.0000
# 2 18.5387 101.6732 9.8458 0.0000 10.6218 0.0000
# 3 6.6797 9.8458 70.5238 0.0000 -16.2655 0.0000
# 4 0.0000 0.0000 0.0000 20.9740 0.0000 -0.1663
# 5 -15.8292 10.6218 -16.2655 0.0000 36.1292 0.0000
# 6 0.0000 0.0000 0.0000 -0.1663 0.0000 16.4123
#
#
#
# Elastic Compliance Matrix: (Units=1/GPa)
#
#
# Indices 1 2 3 4 5 6 
#
# 1 0.015865 -0.003884 0.001011 0.000000 0.008548 0.000000
# 2 -0.003884 0.011459 -0.002680 0.000000 -0.006277 0.000000
# 3 0.001011 -0.002680 0.016450 0.000000 0.008636 0.000000
# 4 0.000000 0.000000 0.000000 0.047682 0.000000 0.000483
# 5 0.008548 -0.006277 0.008636 0.000000 0.037157 0.000000
# 6 0.000000 0.000000 0.000000 0.000483 0.000000 0.060935
#
#
# Mechanical properties :
#
#
# Convention : Reuss Voigt Hill
#
# Bulk Modulus (GPa) = 30.61004 35.33323 32.97163
# Shear Modulus (GPa) = 23.63607 28.89019 26.26313
#
# Velocity S-wave (km/s) = 3.64807 4.03321 3.84547
# Velocity P-wave (km/s) = 5.91437 6.44854 6.18722
#
# Compressibility (1/GPa) = 0.03266902
#
# Stress axis : x y z
#
# Youngs Moduli (GPa) = 63.03258 87.26948 60.79086
#
# Poissons Ratio (x) = 0.33892 -0.06146
# Poissons Ratio (y) = 0.24479 0.16289
# Poissons Ratio (z) = -0.06372 0.23384
#
# Static dielectric constant tensor:
#      x y z
#    x 1.622560 0.000000 0.008910 
#    y 0.000000 1.640940 0.000000 
#    z 0.008910 0.000000 1.630540 
# 
# From -- ./inp_files/52132.got.cif
#   From: 2010.05.17/outbox.cif.g08.bks.cpg/sg10_27_cif.got.tgz:52132.got - 2010.06.03 11:33:40.
