data_PCOD9146709
_publ_section_title
;
Structure prediction by ZEFSAII (Michael W. Deem and Ramdas Pophale) SiO2 
 PCOD9146709
Probable space group: P 2/M
;
_chemical_formula_sum "Si O2"
_cell_formula_units_Z 32
_cell_length_a 27.942752
_cell_length_b 7.734789
_cell_length_c 19.816986
_cell_angle_alpha 90.000000
_cell_angle_beta 160.046579
_cell_angle_gamma 90.000000
_cell_volume 1461.624028
_symmetry_space_group_name_H-M "P 2/M"
_symmetry_group_IT_number 10
_symmetry_cell_setting 'monoclinic'
loop_
_space_group_symop_operation_xyz
x,y,z
-x,y,-z
-x,-y,-z
x,-y,z
loop_
_atom_site_type_symbol
_atom_site_label
_atom_site_fract_x
_atom_site_fract_y
_atom_site_fract_z
Si Si1 0.833703 0.697457 0.852908
Si Si2 0.437418 0.207817 0.704731
Si Si3 0.177507 0.704599 0.017753
Si Si4 0.851553 0.198970 0.728377
Si Si5 0.042683 0.290691 0.630609
Si Si6 0.327696 0.202824 0.082556
Si Si7 0.896661 0.288988 0.573230
Si Si8 0.581914 0.291868 0.174424
O O1 0.786129 0.500000 0.780049
O O2 0.779092 0.772988 0.851298
O O3 0.003205 0.700933 0.085818
O O4 0.806891 0.796010 0.747961
O O5 0.278777 0.273563 0.485437
O O6 0.539335 0.275803 0.781451
O O7 0.488197 0.247341 0.847282
O O8 0.430077 0.000000 0.687836
O O9 0.158515 0.500000 0.003520
O O10 0.026761 0.773299 0.791561
O O11 0.285603 0.724958 0.099709
O O12 0.879037 0.000000 0.745922
O O13 0.047893 0.500000 0.636029
O O14 0.000000 0.229112 0.500000
O O15 0.934309 0.241862 0.546073
O O16 0.193575 0.228977 0.856301
O O17 0.349939 0.000000 0.121922
O O18 0.897661 0.500000 0.578040
O O19 0.742399 0.226893 0.387473
O O20 0.587346 0.500000 0.177040
O O21 0.500000 0.228077 0.000000
#
# Coordination Sequence:
#
# PCOD9146709 Si02
#       8
#     4   4   4   4   4   4   4   4
#     4  10  19  33  57  87 115 137 172 226 275 312
#     4  10  23  40  54  73 109 149 180 217 266 319
#     4   9  18  34  55  77 105 140 175 218 271 320
#     4  10  20  35  55  81 112 148 184 213 259 325
#     4   9  18  32  54  76 100 134 171 217 271 318
#     4  10  21  36  53  75 104 139 182 225 264 312
#     4   8  15  30  48  73 104 129 164 212 259 310
#     4  10  21  34  54  81 105 135 178 223 267 320
#
# _framework density 21.893457000000001
#
# number of rings (size 3 to 8) (size 9 to 14) (size 15 to 20)
#    0.000    2.500    0.000    3.375    1.750    4.500 
#    0.000    4.375    0.000    3.750    0.000    0.000 
#    0.000    0.000    0.000    0.000    0.000    0.000 
#
# Total GULP energy -178649.643246 kJ/mol
# GULP energy per Si atom -5582.801351 kJ/mol
# Density = 2.184363 g / cm^3
# Si number density = 21.893457 Si / 1000 Ang^3
#
#
#
# Elastic Constant Matrix: (Units=GPa)
#
#
# Indices 1 2 3 4 5 6 
#
# 1 98.2241 -5.4612 20.9383 0.0000 -18.2907 0.0000
# 2 -5.4612 39.0803 -5.2799 0.0000 0.3588 0.0000
# 3 20.9383 -5.2799 33.7655 0.0000 -0.0165 0.0000
# 4 0.0000 0.0000 0.0000 14.7428 0.0000 -4.9670
# 5 -18.2907 0.3588 -0.0165 0.0000 31.9076 0.0000
# 6 0.0000 0.0000 0.0000 -4.9670 0.0000 21.9329
#
#
#
# Elastic Compliance Matrix: (Units=1/GPa)
#
#
# Indices 1 2 3 4 5 6 
#
# 1 0.013393 0.000694 -0.008193 0.000000 0.007666 0.000000
# 2 0.000694 0.026179 0.003663 0.000000 0.000106 0.000000
# 3 -0.008193 0.003663 0.035267 0.000000 -0.004720 0.000000
# 4 0.000000 0.000000 0.000000 0.073432 0.000000 0.016630
# 5 0.007666 0.000106 -0.004720 0.000000 0.035731 0.000000
# 6 0.000000 0.000000 0.000000 0.016630 0.000000 0.049360
#
#
# Mechanical properties :
#
#
# Convention : Reuss Voigt Hill
#
# Bulk Modulus (GPa) = 14.88790 21.27381 18.08086
# Shear Modulus (GPa) = 18.98086 24.44152 21.71119
#
# Velocity S-wave (km/s) = 2.94762 3.34486 3.15250
# Velocity P-wave (km/s) = 4.28947 4.96543 4.63978
#
# Compressibility (1/GPa) = 0.06716865
#
# Stress axis : x y z
#
# Youngs Moduli (GPa) = 74.66403 38.19812 28.35500
#
# Poissons Ratio (x) = -0.02652 0.23231
# Poissons Ratio (y) = -0.05184 -0.10387
# Poissons Ratio (z) = 0.61172 -0.13992
#
# Static dielectric constant tensor:
#      x y z
#    x 1.832180 0.000000 -0.001210 
#    y 0.000000 1.793700 0.000000 
#    z -0.001210 0.000000 1.782540 
# 
# From -- ./inp_files/87221.got.cif
#   From: 2010.05.17/outbox.cif.g08.bks.cpg/sg10_44_cif.got.tgz:87221.got - 2010.06.03 11:33:40.
