data_PCOD9146636
_publ_section_title
;
Structure prediction by ZEFSAII (Michael W. Deem and Ramdas Pophale) SiO2 
 PCOD9146636
Probable space group: P 2/M
;
_chemical_formula_sum "Si O2"
_cell_formula_units_Z 28
_cell_length_a 28.058984
_cell_length_b 8.468402
_cell_length_c 9.885635
_cell_angle_alpha 90.000000
_cell_angle_beta 39.424556
_cell_angle_gamma 90.000000
_cell_volume 1491.742477
_symmetry_space_group_name_H-M "P 2/M"
_symmetry_group_IT_number 10
_symmetry_cell_setting 'monoclinic'
loop_
_space_group_symop_operation_xyz
x,y,z
-x,y,-z
-x,-y,-z
x,-y,z
loop_
_atom_site_type_symbol
_atom_site_label
_atom_site_fract_x
_atom_site_fract_y
_atom_site_fract_z
Si Si1 0.993290 0.811096 0.670427
Si Si2 0.296294 0.308972 0.182287
Si Si3 0.538597 0.815350 0.769039
Si Si4 0.126211 0.690900 0.568415
Si Si5 0.303771 0.189226 0.470039
Si Si6 0.860849 0.689110 0.147619
Si Si7 0.445937 0.686280 0.732277
O O1 0.064203 0.759450 0.605229
O O2 0.000000 0.754793 0.500000
O O3 0.989392 0.000000 0.676682
O O4 0.920096 0.747329 0.908142
O O5 0.297521 0.500000 0.180168
O O6 0.210696 0.261170 0.340551
O O7 0.314018 0.253195 0.295397
O O8 0.361845 0.249879 0.939498
O O9 0.624822 0.762939 0.596824
O O10 0.490825 0.711561 0.772106
O O11 0.536617 0.000000 0.730267
O O12 0.500000 0.808409 0.000000
O O13 0.121194 0.500000 0.575507
O O14 0.117036 0.738896 0.746702
O O15 0.222953 0.248821 0.695566
O O16 0.303919 0.000000 0.463821
O O17 0.859175 0.500000 0.151839
O O18 0.500000 0.757707 0.500000
O O19 0.437278 0.500000 0.722126
#
# Coordination Sequence:
#
# PCOD9146636 Si02
#       7
#     4   4   4   4   4   4   4
#     4  11  24  40  57  82 117 149 182 223 270 327
#     4   9  18  34  55  80 112 145 184 233 278 324
#     4  10  20  35  55  81 112 147 188 230 276 329
#     4   9  19  36  59  84 109 141 186 232 276 328
#     4  10  19  33  56  84 114 143 182 233 278 324
#     4  10  21  38  61  87 113 142 183 229 274 329
#     4  10  21  36  54  79 113 150 191 235 277 325
#
# _framework density 18.769995999999999
#
# number of rings (size 3 to 8) (size 9 to 14) (size 15 to 20)
#    0.000    2.143    1.429    2.571    0.000    7.429 
#    2.571    0.000    0.000    0.000    0.000    0.000 
#    0.000    0.000    0.000    0.000    0.000    0.000 
#
# Total GULP energy -156219.123084 kJ/mol
# GULP energy per Si atom -5579.254396 kJ/mol
# Density = 1.872727 g / cm^3
# Si number density = 18.769996 Si / 1000 Ang^3
#
#
#
# Elastic Constant Matrix: (Units=GPa)
#
#
# Indices 1 2 3 4 5 6 
#
# 1 57.9752 4.8740 50.5450 0.0000 -18.2503 0.0000
# 2 4.8740 10.1957 16.0866 0.0000 -5.4012 0.0000
# 3 50.5450 16.0866 164.8647 0.0000 -19.7994 0.0000
# 4 0.0000 0.0000 0.0000 12.4156 0.0000 10.0613
# 5 -18.2503 -5.4012 -19.7994 0.0000 23.0915 0.0000
# 6 0.0000 0.0000 0.0000 10.0613 0.0000 12.7056
#
#
#
# Elastic Compliance Matrix: (Units=1/GPa)
#
#
# Indices 1 2 3 4 5 6 
#
# 1 0.028761 0.007500 -0.007368 0.000000 0.018168 0.000000
# 2 0.007500 0.126256 -0.011550 0.000000 0.025557 0.000000
# 3 -0.007368 -0.011550 0.009395 0.000000 -0.000469 0.000000
# 4 0.000000 0.000000 0.000000 0.224805 0.000000 -0.178018
# 5 0.018168 0.025557 -0.000469 0.000000 0.063241 0.000000
# 6 0.000000 0.000000 0.000000 -0.178018 0.000000 0.219673
#
#
# Mechanical properties :
#
#
# Convention : Reuss Voigt Hill
#
# Bulk Modulus (GPa) = 7.06326 41.78299 24.42312
# Shear Modulus (GPa) = 6.73711 20.41121 13.57416
#
# Velocity S-wave (km/s) = 1.89660 3.30121 2.69213
# Velocity P-wave (km/s) = 2.92700 6.06955 4.76481
#
# Compressibility (1/GPa) = 0.14157775
#
# Stress axis : x y z
#
# Youngs Moduli (GPa) = 34.76964 7.92040 106.43968
#
# Poissons Ratio (x) = -0.05940 0.78420
# Poissons Ratio (y) = -0.26077 1.22934
# Poissons Ratio (z) = 0.25617 0.09148
#
# Static dielectric constant tensor:
#      x y z
#    x 1.626310 0.000000 -0.014040 
#    y 0.000000 1.644670 0.000000 
#    z -0.014040 0.000000 1.676120 
# 
# From -- ./inp_files/36940.got.cif
#   From: 2010.05.17/outbox.cif.g08.bks.cpg/sg10_19_cif.got.tgz:36940.got - 2010.06.03 11:33:40.
