data_PCOD9146494
_publ_section_title
;
Structure prediction by ZEFSAII (Michael W. Deem and Ramdas Pophale) SiO2 
 PCOD9146494
Probable space group: P 2/M
;
_chemical_formula_sum "Si O2"
_cell_formula_units_Z 28
_cell_length_a 27.431689
_cell_length_b 7.704923
_cell_length_c 7.898942
_cell_angle_alpha 90.000000
_cell_angle_beta 47.268903
_cell_angle_gamma 90.000000
_cell_volume 1226.334714
_symmetry_space_group_name_H-M "P 2/M"
_symmetry_group_IT_number 10
_symmetry_cell_setting 'monoclinic'
loop_
_space_group_symop_operation_xyz
x,y,z
-x,y,-z
-x,-y,-z
x,-y,z
loop_
_atom_site_type_symbol
_atom_site_label
_atom_site_fract_x
_atom_site_fract_y
_atom_site_fract_z
Si Si1 0.351429 0.704222 0.749671
Si Si2 0.788202 0.797303 0.474056
Si Si3 0.646876 0.302088 0.892281
Si Si4 0.071374 0.697587 0.295322
Si Si5 0.567077 0.198753 0.764455
Si Si6 0.213499 0.287698 0.921278
Si Si7 0.929653 0.210479 0.085850
O O1 0.341215 0.500000 0.805688
O O2 0.374535 0.774868 0.876600
O O3 0.402375 0.720550 0.475794
O O4 0.279973 0.773723 0.857556
O O5 0.783597 0.772586 0.280909
O O6 0.863031 0.741332 0.344402
O O7 0.780622 0.000000 0.531071
O O8 0.726785 0.700554 0.701244
O O9 0.623246 0.500000 0.928999
O O10 0.620558 0.205681 0.789224
O O11 0.068419 0.500000 0.369439
O O12 0.000000 0.783590 0.500000
O O13 0.143913 0.771766 0.169729
O O14 0.074487 0.699152 0.085053
O O15 0.552340 0.000000 0.754490
O O16 0.500000 0.277794 0.000000
O O17 0.212648 0.500000 0.920298
O O18 0.927069 0.000000 0.067982
O O19 0.000000 0.253851 0.000000
#
# Coordination Sequence:
#
# PCOD9146494 Si02
#       7
#     4   4   4   4   4   4   4
#     4  10  22  39  62  91 121 158 202 246 292 353
#     4  10  19  33  55  81 110 151 200 247 298 352
#     4  11  23  39  62  93 125 158 199 244 295 357
#     4   9  18  31  49  75 107 144 188 239 291 343
#     4  11  25  44  66  92 124 160 197 245 300 352
#     4   9  17  33  55  78 109 150 194 242 296 351
#     4   9  19  34  50  72 107 149 193 240 290 347
#
# _framework density 22.832267999999999
#
# number of rings (size 3 to 8) (size 9 to 14) (size 15 to 20)
#    0.000    2.143    1.429    1.286    0.000    5.143 
#    0.000    4.286    0.000    0.000    0.000    0.000 
#    0.000    0.000    0.000    0.000    0.000    0.000 
#
# Total GULP energy -156282.977232 kJ/mol
# GULP energy per Si atom -5581.534901 kJ/mol
# Density = 2.278030 g / cm^3
# Si number density = 22.832268 Si / 1000 Ang^3
#
#
#
# Elastic Constant Matrix: (Units=GPa)
#
#
# Indices 1 2 3 4 5 6 
#
# 1 22.9573 0.7164 23.9726 0.0000 2.3261 0.0000
# 2 0.7164 43.7330 -0.6096 0.0000 -2.8651 0.0000
# 3 23.9726 -0.6096 132.9792 0.0000 -7.2333 0.0000
# 4 0.0000 0.0000 0.0000 -2.1577 0.0000 10.8801
# 5 2.3261 -2.8651 -7.2333 0.0000 36.3722 0.0000
# 6 0.0000 0.0000 0.0000 10.8801 0.0000 9.5748
#
#
#
# Elastic Compliance Matrix: (Units=1/GPa)
#
#
# Indices 1 2 3 4 5 6 
#
# 1 0.054822 -0.001410 -0.010197 0.000000 -0.005645 0.000000
# 2 -0.001410 0.023026 0.000468 0.000000 0.001997 0.000000
# 3 -0.010197 0.000468 0.009501 0.000000 0.002578 0.000000
# 4 0.000000 0.000000 0.000000 -0.068866 0.000000 0.078254
# 5 -0.005645 0.001997 0.002578 0.000000 0.028525 0.000000
# 6 0.000000 0.000000 0.000000 0.078254 0.000000 0.015519
#
#
# Mechanical properties :
#
#
# Convention : Reuss Voigt Hill
#
# Bulk Modulus (GPa) = 15.36731 27.53648 21.45189
# Shear Modulus (GPa) = 46.95065 20.46388 33.70727
#
# Velocity S-wave (km/s) = 4.53960 2.99702 3.84643
# Velocity P-wave (km/s) = 5.84999 4.90538 5.39838
#
# Compressibility (1/GPa) = 0.06507321
#
# Stress axis : x y z
#
# Youngs Moduli (GPa) = 18.24072 43.42826 105.25740
#
# Poissons Ratio (x) = 0.06123 1.07326
# Poissons Ratio (y) = 0.02572 -0.04930
# Poissons Ratio (z) = 0.18599 -0.02034
#
# Static dielectric constant tensor:
#      x y z
#    x 1.873840 0.000000 -0.037790 
#    y 0.000000 1.851490 0.000000 
#    z -0.037790 0.000000 1.876970 
# 
# From -- ./inp_files/37899.got.cif
#   From: 2010.05.17/outbox.cif.g08.bks.cpg/sg10_19_cif.got.tgz:37899.got - 2010.06.03 11:33:40.
