data_PCOD9146115
_publ_section_title
;
Structure prediction by ZEFSAII (Michael W. Deem and Ramdas Pophale) SiO2 
 PCOD9146115
Probable space group: P 2/M
;
_chemical_formula_sum "Si O2"
_cell_formula_units_Z 32
_cell_length_a 15.505932
_cell_length_b 14.887323
_cell_length_c 21.891172
_cell_angle_alpha 90.000000
_cell_angle_beta 161.353551
_cell_angle_gamma 90.000000
_cell_volume 1615.710538
_symmetry_space_group_name_H-M "P 2/M"
_symmetry_group_IT_number 10
_symmetry_cell_setting 'monoclinic'
loop_
_space_group_symop_operation_xyz
x,y,z
-x,y,-z
-x,-y,-z
x,-y,z
loop_
_atom_site_type_symbol
_atom_site_label
_atom_site_fract_x
_atom_site_fract_y
_atom_site_fract_z
Si Si1 0.310171 0.167820 0.715680
Si Si2 0.667952 0.597526 0.890704
Si Si3 0.496249 0.289998 0.333748
Si Si4 0.535148 0.650731 0.123648
Si Si5 0.941977 0.606909 0.291054
Si Si6 0.753241 0.900160 0.200308
Si Si7 0.632316 0.892746 0.382186
Si Si8 0.283371 0.395123 0.302933
O O1 0.474683 0.248465 0.856449
O O2 0.294928 0.096237 0.759774
O O3 0.406919 0.128821 0.716294
O O4 0.000000 0.200541 0.500000
O O5 0.654991 0.500000 0.850690
O O6 0.590946 0.672431 0.790668
O O7 0.479114 0.597042 0.822865
O O8 0.975867 0.610859 0.119102
O O9 0.477890 0.182004 0.317851
O O10 0.318411 0.333114 0.267587
O O11 0.795137 0.332537 0.543339
O O12 0.797162 0.633482 0.257810
O O13 0.282012 0.625467 0.911254
O O14 0.004548 0.500000 0.333312
O O15 0.054532 0.866262 0.394582
O O16 0.762048 0.000000 0.179008
O O17 0.500000 0.850365 0.000000
O O18 0.593650 0.000000 0.366688
O O19 0.500000 0.370438 0.500000
O O20 0.333807 0.500000 0.320609
#
# Coordination Sequence:
#
# PCOD9146115 Si02
#       8
#     4   4   4   4   4   4   4   4
#     4  10  19  33  51  77 110 156 202 241 289 343
#     4  11  22  38  61  89 118 153 202 255 291 342
#     4  12  23  39  61  92 117 155 201 245 301 358
#     4  11  22  35  55  83 122 166 203 234 284 357
#     4  11  23  37  54  82 129 172 196 233 293 364
#     4   9  18  31  52  79 108 150 203 254 295 340
#     4  10  21  38  57  82 117 154 195 250 309 353
#     4  10  22  42  67  91 118 154 198 247 298 350
#
# _framework density 19.805527999999999
#
# number of rings (size 3 to 8) (size 9 to 14) (size 15 to 20)
#    0.000    1.500    1.250    5.625    3.500    3.500 
#    0.000    1.250    0.000    1.875    0.000    0.000 
#    0.000    0.000    0.000    0.000    0.000    0.000 
#
# Total GULP energy -178493.314458 kJ/mol
# GULP energy per Si atom -5577.916077 kJ/mol
# Density = 1.976045 g / cm^3
# Si number density = 19.805528 Si / 1000 Ang^3
#
#
#
# Elastic Constant Matrix: (Units=GPa)
#
#
# Indices 1 2 3 4 5 6 
#
# 1 69.1445 13.9083 -9.0838 0.0000 -6.4699 0.0000
# 2 13.9083 115.3546 1.6053 0.0000 -4.1797 0.0000
# 3 -9.0838 1.6053 28.0802 0.0000 -14.8358 0.0000
# 4 0.0000 0.0000 0.0000 11.2157 0.0000 -11.1032
# 5 -6.4699 -4.1797 -14.8358 0.0000 25.1454 0.0000
# 6 0.0000 0.0000 0.0000 -11.1032 0.0000 14.4346
#
#
#
# Elastic Compliance Matrix: (Units=1/GPa)
#
#
# Indices 1 2 3 4 5 6 
#
# 1 0.017374 -0.001858 0.011515 0.000000 0.010955 0.000000
# 2 -0.001858 0.008923 -0.000843 0.000000 0.000508 0.000000
# 3 0.011515 -0.000843 0.059390 0.000000 0.037863 0.000000
# 4 0.000000 0.000000 0.000000 0.373834 0.000000 0.287556
# 5 0.010955 0.000508 0.037863 0.000000 0.065011 0.000000
# 6 0.000000 0.000000 0.000000 0.287556 0.000000 0.290469
#
#
# Mechanical properties :
#
#
# Convention : Reuss Voigt Hill
#
# Bulk Modulus (GPa) = 9.67923 25.04876 17.36399
# Shear Modulus (GPa) = 6.01098 23.90244 14.95671
#
# Velocity S-wave (km/s) = 1.74402 3.47775 2.75103
# Velocity P-wave (km/s) = 2.99219 5.36667 4.34479
#
# Compressibility (1/GPa) = 0.10331403
#
# Stress axis : x y z
#
# Youngs Moduli (GPa) = 57.55714 112.06898 16.83799
#
# Poissons Ratio (x) = 0.20823 -0.19388
# Poissons Ratio (y) = 0.10695 0.01419
# Poissons Ratio (z) = -0.66275 0.09446
#
# Static dielectric constant tensor:
#      x y z
#    x 1.675330 0.000000 -0.001520 
#    y 0.000000 1.769240 0.000000 
#    z -0.001520 0.000000 1.736720 
# 
# From -- ./inp_files/70803.got.cif
#   From: 2010.05.17/outbox.cif.g08.bks.cpg/sg10_36_cif.got.tgz:70803.got - 2010.06.03 11:33:40.
