data_PCOD9146498
_publ_section_title
;
Structure prediction by ZEFSAII (Michael W. Deem and Ramdas Pophale) SiO2 
 PCOD9146498
Probable space group: P 2/M
;
_chemical_formula_sum "Si O2"
_cell_formula_units_Z 32
_cell_length_a 23.589239
_cell_length_b 7.735546
_cell_length_c 24.949184
_cell_angle_alpha 90.000000
_cell_angle_beta 19.789844
_cell_angle_gamma 90.000000
_cell_volume 1541.385196
_symmetry_space_group_name_H-M "P 2/M"
_symmetry_group_IT_number 10
_symmetry_cell_setting 'monoclinic'
loop_
_space_group_symop_operation_xyz
x,y,z
-x,y,-z
-x,-y,-z
x,-y,z
loop_
_atom_site_type_symbol
_atom_site_label
_atom_site_fract_x
_atom_site_fract_y
_atom_site_fract_z
Si Si1 0.472557 0.796665 0.160629
Si Si2 0.335559 0.195696 0.108748
Si Si3 0.498522 0.295733 0.440111
Si Si4 0.907830 0.788753 0.915870
Si Si5 0.742488 0.201536 0.439304
Si Si6 0.869758 0.790718 0.070983
Si Si7 0.828671 0.305134 0.644808
Si Si8 0.522985 0.787856 0.235423
O O1 0.301249 0.777243 0.280306
O O2 0.470370 0.729937 0.222672
O O3 0.509346 0.000000 0.132035
O O4 0.611625 0.727868 0.995310
O O5 0.229131 0.311508 0.242299
O O6 0.267811 0.000000 0.162511
O O7 0.500000 0.177411 0.000000
O O8 0.500000 0.229602 0.500000
O O9 0.463541 0.500000 0.472830
O O10 0.357820 0.213258 0.527526
O O11 0.681389 0.267042 0.251715
O O12 0.068855 0.727642 0.738113
O O13 0.910433 0.000000 0.911310
O O14 0.927645 0.736912 0.960371
O O15 0.717607 0.735975 0.070229
O O16 0.612204 0.273355 0.599890
O O17 0.765075 0.000000 0.433266
O O18 0.867330 0.000000 0.073840
O O19 0.000000 0.730134 0.000000
O O20 0.853142 0.500000 0.602885
O O21 0.000000 0.205649 0.500000
O O22 0.522500 0.000000 0.238860
#
# Coordination Sequence:
#
# PCOD9146498 Si02
#       8
#     4   4   4   4   4   4   4   4
#     4   9  18  33  53  78 106 136 171 214 262 313
#     4   8  15  29  49  73  99 128 163 205 252 300
#     4  11  23  36  51  76 111 145 178 222 276 330
#     4   9  17  31  54  83 108 133 173 224 270 316
#     4  10  19  35  60  82 105 141 180 222 271 317
#     4  10  19  33  55  82 108 136 179 230 273 322
#     4  10  20  33  50  75 107 140 174 215 258 304
#     4   9  17  33  55  82 113 138 174 225 268 316
#
# _framework density 20.760546999999999
#
# number of rings (size 3 to 8) (size 9 to 14) (size 15 to 20)
#    0.000    2.500    1.250    2.250    0.000    5.500 
#    2.250    1.250    0.000    0.000    0.000    0.000 
#    0.000    0.000    0.000    0.000    0.000    0.000 
#
# Total GULP energy -178225.977680 kJ/mol
# GULP energy per Si atom -5569.561803 kJ/mol
# Density = 2.071330 g / cm^3
# Si number density = 20.760547 Si / 1000 Ang^3
#
#
#
# Elastic Constant Matrix: (Units=GPa)
#
#
# Indices 1 2 3 4 5 6 
#
# 1 127.5948 -2.2388 78.3665 0.0000 25.1063 0.0000
# 2 -2.2388 30.4701 3.0734 0.0000 3.3985 0.0000
# 3 78.3665 3.0734 166.3531 0.0000 6.6968 0.0000
# 4 0.0000 0.0000 0.0000 6.2922 0.0000 10.7861
# 5 25.1063 3.3985 6.6968 0.0000 25.6099 0.0000
# 6 0.0000 0.0000 0.0000 10.7861 0.0000 18.4442
#
#
#
# Elastic Compliance Matrix: (Units=1/GPa)
#
#
# Indices 1 2 3 4 5 6 
#
# 1 0.014236 0.003097 -0.006251 0.000000 -0.012733 0.000000
# 2 0.003097 0.034018 -0.001802 0.000000 -0.007079 0.000000
# 3 -0.006251 -0.001802 0.008826 0.000000 0.004059 0.000000
# 4 0.000000 0.000000 0.000000-64.529631 0.000000 37.736906
# 5 -0.012733 -0.007079 0.004059 0.000000 0.051408 0.000000
# 6 0.000000 0.000000 0.000000 37.736906 0.000000-22.014312
#
#
# Mechanical properties :
#
#
# Convention : Reuss Voigt Hill
#
# Bulk Modulus (GPa) = 21.20144 53.64670 37.42407
# Shear Modulus (GPa) = -0.05786 26.41704 13.17959
#
# Velocity S-wave (km/s) = -0.16713 3.57103 2.52233
# Velocity P-wave (km/s) = 3.19332 6.54979 5.15253
#
# Compressibility (1/GPa) = 0.04716660
#
# Stress axis : x y z
#
# Youngs Moduli (GPa) = 70.24253 29.39632 113.30115
#
# Poissons Ratio (x) = -0.09103 0.70827
# Poissons Ratio (y) = -0.21752 0.20421
# Poissons Ratio (z) = 0.43910 0.05298
#
# Static dielectric constant tensor:
#      x y z
#    x 1.728070 0.000000 0.011960 
#    y 0.000000 1.747270 0.000000 
#    z 0.011960 0.000000 1.829590 
# 
# From -- ./inp_files/90615.got.cif
#   From: 2010.05.17/outbox.cif.g08.bks.cpg/sg10_46_cif.got.tgz:90615.got - 2010.06.03 11:33:40.
