data_PCOD9146315
_publ_section_title
;
Structure prediction by ZEFSAII (Michael W. Deem and Ramdas Pophale) SiO2 
 PCOD9146315
Probable space group: P 2/M
;
_chemical_formula_sum "Si O2"
_cell_formula_units_Z 32
_cell_length_a 15.348036
_cell_length_b 7.829898
_cell_length_c 24.405682
_cell_angle_alpha 90.000000
_cell_angle_beta 150.247516
_cell_angle_gamma 90.000000
_cell_volume 1455.472511
_symmetry_space_group_name_H-M "P 2/M"
_symmetry_group_IT_number 10
_symmetry_cell_setting 'monoclinic'
loop_
_space_group_symop_operation_xyz
x,y,z
-x,y,-z
-x,-y,-z
x,-y,z
loop_
_atom_site_type_symbol
_atom_site_label
_atom_site_fract_x
_atom_site_fract_y
_atom_site_fract_z
Si Si1 0.002153 0.694573 0.066395
Si Si2 0.366236 0.295323 0.383849
Si Si3 0.383821 0.705914 0.274452
Si Si4 0.997035 0.203682 0.230755
Si Si5 0.709493 0.296077 0.389656
Si Si6 0.288024 0.201599 0.010034
Si Si7 0.010506 0.793801 0.363007
Si Si8 0.678385 0.204619 0.248828
O O1 0.006196 0.500000 0.090796
O O2 0.190566 0.780906 0.176548
O O3 0.837134 0.778276 0.005232
O O4 0.000000 0.684424 0.000000
O O5 0.500000 0.219598 0.500000
O O6 0.353856 0.500000 0.383327
O O7 0.456873 0.267676 0.374785
O O8 0.170051 0.232866 0.288526
O O9 0.362105 0.500000 0.253083
O O10 0.516792 0.772045 0.302057
O O11 0.029495 0.269296 0.310530
O O12 0.972567 0.000000 0.221976
O O13 0.827165 0.270913 0.104206
O O14 0.700709 0.500000 0.383795
O O15 0.743813 0.239464 0.346467
O O16 0.844076 0.251013 0.511711
O O17 0.481989 0.272763 0.129018
O O18 0.310290 0.000000 0.011998
O O19 0.824384 0.732818 0.285961
O O20 0.009459 0.000000 0.360216
O O21 0.670683 0.000000 0.239477
#
# Coordination Sequence:
#
# PCOD9146315 Si02
#       8
#     4   4   4   4   4   4   4   4
#     4  10  19  33  54  78 108 147 187 226 273 334
#     4  10  19  33  54  78 108 147 187 226 273 334
#     4   9  18  32  50  77 109 143 178 213 272 337
#     4  10  21  37  57  84 116 149 191 239 283 332
#     4  11  22  38  61  88 116 145 189 244 288 339
#     4  10  21  37  57  84 116 149 191 239 283 332
#     4  10  22  40  60  82 113 153 192 235 292 349
#     4  10  22  40  60  82 113 153 192 235 292 349
#
# _framework density 21.985987000000002
#
# number of rings (size 3 to 8) (size 9 to 14) (size 15 to 20)
#    0.000    2.000    1.250    2.250    0.000    6.000 
#    0.000    5.000    0.000    0.000    0.000    3.500 
#    0.000    0.000    0.000    0.000    0.000    0.000 
#
# Total GULP energy -178443.679943 kJ/mol
# GULP energy per Si atom -5576.364998 kJ/mol
# Density = 2.193595 g / cm^3
# Si number density = 21.985987 Si / 1000 Ang^3
#
#
#
# Elastic Constant Matrix: (Units=GPa)
#
#
# Indices 1 2 3 4 5 6 
#
# 1 104.2617 -2.7821 13.0905 0.0000 -4.8876 0.0000
# 2 -2.7821 26.2757 -8.0933 0.0000 -4.0903 0.0000
# 3 13.0905 -8.0933 70.6439 0.0000 -8.0800 0.0000
# 4 0.0000 0.0000 0.0000 14.3834 0.0000 8.8212
# 5 -4.8876 -4.0903 -8.0800 0.0000 30.7074 0.0000
# 6 0.0000 0.0000 0.0000 8.8212 0.0000 0.9802
#
#
#
# Elastic Compliance Matrix: (Units=1/GPa)
#
#
# Indices 1 2 3 4 5 6 
#
# 1 0.009871 0.000747 -0.001601 0.000000 0.001249 0.000000
# 2 0.000747 0.040867 0.005340 0.000000 0.006968 0.000000
# 3 -0.001601 0.005340 0.015585 0.000000 0.004558 0.000000
# 4 0.000000 0.000000 0.000000 -0.015385 0.000000 0.138449
# 5 0.001249 0.006968 0.004558 0.000000 0.034892 0.000000
# 6 0.000000 0.000000 0.000000 0.138449 0.000000 -0.225748
#
#
# Mechanical properties :
#
#
# Convention : Reuss Voigt Hill
#
# Bulk Modulus (GPa) = 13.28106 22.84574 18.06340
# Shear Modulus (GPa) = -40.39004 22.47863 -8.95571
#
# Velocity S-wave (km/s) = -4.29077 3.20098 -2.02045
# Velocity P-wave (km/s) = 4.30044 4.90666 1.67056
#
# Compressibility (1/GPa) = 0.07529517
#
# Stress axis : x y z
#
# Youngs Moduli (GPa) = 101.30993 24.46990 64.16344
#
# Poissons Ratio (x) = -0.01827 0.10270
# Poissons Ratio (y) = -0.07563 -0.34266
# Poissons Ratio (z) = 0.16216 -0.13068
#
# Static dielectric constant tensor:
#      x y z
#    x 1.828280 0.000000 -0.062720 
#    y 0.000000 1.810860 0.000000 
#    z -0.062720 0.000000 1.985540 
# 
# From -- ./inp_files/71623.got.cif
#   From: 2010.05.17/outbox.cif.g08.bks.cpg/sg10_36_cif.got.tgz:71623.got - 2010.06.03 11:33:40.
