data_PCOD9146228
_publ_section_title
;
Structure prediction by ZEFSAII (Michael W. Deem and Ramdas Pophale) SiO2 
 PCOD9146228
Probable space group: P 2/M
;
_chemical_formula_sum "Si O2"
_cell_formula_units_Z 32
_cell_length_a 20.508205
_cell_length_b 7.498506
_cell_length_c 13.046028
_cell_angle_alpha 90.000000
_cell_angle_beta 45.647347
_cell_angle_gamma 90.000000
_cell_volume 1434.555917
_symmetry_space_group_name_H-M "P 2/M"
_symmetry_group_IT_number 10
_symmetry_cell_setting 'monoclinic'
loop_
_space_group_symop_operation_xyz
x,y,z
-x,y,-z
-x,-y,-z
x,-y,z
loop_
_atom_site_type_symbol
_atom_site_label
_atom_site_fract_x
_atom_site_fract_y
_atom_site_fract_z
Si Si1 0.895250 0.217584 0.127421
Si Si2 0.633467 0.708888 0.610286
Si Si3 0.095863 0.218898 0.445752
Si Si4 0.600824 0.215254 0.410790
Si Si5 0.464207 0.285164 0.928296
Si Si6 0.835868 0.206292 0.414483
Si Si7 0.747851 0.211694 0.879710
Si Si8 0.763840 0.218243 0.091274
O O1 0.856880 0.282797 0.278834
O O2 0.839437 0.277129 0.089450
O O3 0.887949 0.000000 0.135591
O O4 0.000000 0.265456 0.000000
O O5 0.638298 0.500000 0.628449
O O6 0.632538 0.733805 0.489228
O O7 0.538822 0.778254 0.762810
O O8 0.726941 0.788768 0.551131
O O9 0.111855 0.281770 0.544693
O O10 0.182181 0.279316 0.282820
O O11 0.000000 0.271468 0.500000
O O12 0.096450 0.000000 0.447600
O O13 0.500000 0.282223 0.500000
O O14 0.668785 0.273385 0.247201
O O15 0.599849 0.000000 0.410247
O O16 0.465741 0.500000 0.925407
O O17 0.500000 0.225113 0.000000
O O18 0.359343 0.235977 0.024662
O O19 0.864454 0.000000 0.376776
O O20 0.763257 0.000000 0.866217
O O21 0.771184 0.282274 0.967276
O O22 0.765487 0.000000 0.086733
#
# Coordination Sequence:
#
# PCOD9146228 Si02
#       8
#     4   4   4   4   4   4   4   4
#     4   9  17  28  49  79 104 136 180 219 257 310
#     4  11  22  35  54  79 107 140 178 223 271 316
#     4   9  19  33  53  85 116 139 170 224 281 317
#     4  10  19  33  53  77 106 140 177 216 261 315
#     4  10  22  39  56  75 104 143 182 219 264 318
#     4  10  19  34  56  80 109 143 180 221 267 321
#     4  10  20  34  55  82 110 140 177 221 266 313
#     4   9  17  30  48  76 109 138 172 212 256 310
#
# _framework density 22.306554999999999
#
# number of rings (size 3 to 8) (size 9 to 14) (size 15 to 20)
#    0.000    2.250    1.250    1.875    1.750    2.500 
#    0.000    0.625    0.000    1.875    0.000    0.000 
#    0.000    0.000    0.000    0.000    0.000    0.000 
#
# Total GULP energy -178783.830810 kJ/mol
# GULP energy per Si atom -5586.994713 kJ/mol
# Density = 2.225578 g / cm^3
# Si number density = 22.306555 Si / 1000 Ang^3
#
#
#
# Elastic Constant Matrix: (Units=GPa)
#
#
# Indices 1 2 3 4 5 6 
#
# 1 177.3700 -4.0911 63.4831 0.0000 9.1165 0.0000
# 2 -4.0911 58.1125 2.2290 0.0000 4.5806 0.0000
# 3 63.4831 2.2290 117.3310 0.0000 6.9134 0.0000
# 4 0.0000 0.0000 0.0000 -14.5786 0.0000 38.3602
# 5 9.1165 4.5806 6.9134 0.0000 40.8246 0.0000
# 6 0.0000 0.0000 0.0000 38.3602 0.0000 -28.2261
#
#
#
# Elastic Compliance Matrix: (Units=1/GPa)
#
#
# Indices 1 2 3 4 5 6 
#
# 1 0.007057 0.000722 -0.003772 0.000000 -0.001018 0.000000
# 2 0.000722 0.017441 -0.000603 0.000000 -0.002016 0.000000
# 3 -0.003772 -0.000603 0.010628 0.000000 -0.000890 0.000000
# 4 0.000000 0.000000 0.000000 0.026628 0.000000 0.036189
# 5 -0.001018 -0.002016 -0.000890 0.000000 0.025099 0.000000
# 6 0.000000 0.000000 0.000000 0.036189 0.000000 0.013753
#
#
# Mechanical properties :
#
#
# Convention : Reuss Voigt Hill
#
# Bulk Modulus (GPa) = 35.94679 52.89505 44.42092
# Shear Modulus (GPa) = 42.66731 19.01682 30.84206
#
# Velocity S-wave (km/s) = 4.37827 2.92296 3.72243
# Velocity P-wave (km/s) = 6.45824 5.92924 6.19938
#
# Compressibility (1/GPa) = 0.02781889
#
# Stress axis : x y z
#
# Youngs Moduli (GPa) = 141.70448 57.33663 94.09432
#
# Poissons Ratio (x) = -0.04138 0.35492
# Poissons Ratio (y) = -0.10227 0.05674
# Poissons Ratio (z) = 0.53450 0.03458
#
# Static dielectric constant tensor:
#      x y z
#    x 1.776740 0.000000 0.010610 
#    y 0.000000 1.842400 0.000000 
#    z 0.010610 0.000000 1.802610 
# 
# From -- ./inp_files/55238.got.cif
#   From: 2010.05.17/outbox.cif.g08.bks.cpg/sg10_28_cif.got.tgz:55238.got - 2010.06.03 11:33:40.
