data_PCOD9146751
_publ_section_title
;
Structure prediction by ZEFSAII (Michael W. Deem and Ramdas Pophale) SiO2 
 PCOD9146751
Probable space group: P 2/M
;
_chemical_formula_sum "Si O2"
_cell_formula_units_Z 32
_cell_length_a 14.664353
_cell_length_b 22.036684
_cell_length_c 8.906350
_cell_angle_alpha 90.000000
_cell_angle_beta 30.375485
_cell_angle_gamma 90.000000
_cell_volume 1455.363655
_symmetry_space_group_name_H-M "P 2/M"
_symmetry_group_IT_number 10
_symmetry_cell_setting 'monoclinic'
loop_
_space_group_symop_operation_xyz
x,y,z
-x,y,-z
-x,-y,-z
x,-y,z
loop_
_atom_site_type_symbol
_atom_site_label
_atom_site_fract_x
_atom_site_fract_y
_atom_site_fract_z
Si Si1 0.496503 0.433009 0.831671
Si Si2 0.182221 0.372415 0.319394
Si Si3 0.077990 0.929273 0.127401
Si Si4 0.280200 0.929405 0.515427
Si Si5 0.949914 0.571276 0.896952
Si Si6 0.539808 0.260603 0.110373
Si Si7 0.397792 0.857024 0.807022
Si Si8 0.658695 0.663621 0.389230
O O1 0.565716 0.500000 0.729957
O O2 0.601933 0.394065 0.566059
O O3 0.500000 0.412598 0.000000
O O4 0.287907 0.425695 0.081590
O O5 0.000000 0.353014 0.500000
O O6 0.121039 0.405809 0.558160
O O7 0.322782 0.316780 0.111588
O O8 0.872408 0.908140 0.386879
O O9 0.071925 0.000000 0.182516
O O10 0.178658 0.927982 0.821832
O O11 0.208471 0.891110 0.049545
O O12 0.463293 0.892401 0.280208
O O13 0.320744 0.000000 0.425839
O O14 0.900287 0.500000 0.928106
O O15 0.823488 0.632825 0.067058
O O16 0.000000 0.568713 0.000000
O O17 0.627224 0.209242 0.088704
O O18 0.359520 0.283737 0.457302
O O19 0.500000 0.237482 0.000000
O O20 0.500000 0.853417 0.500000
O O21 0.500000 0.680081 0.500000
#
# Coordination Sequence:
#
# PCOD9146751 Si02
#       8
#     4   4   4   4   4   4   4   4
#     4  10  20  36  58  83 115 154 185 220 289 381
#     4  11  23  39  58  80 112 151 192 238 300 364
#     4   8  14  27  52  89 132 164 195 254 317 368
#     4   8  14  27  52  90 131 164 198 251 320 369
#     4  11  22  36  59  90 116 139 182 247 308 365
#     4  11  24  44  60  76 112 168 209 244 301 378
#     4  10  19  33  59  89 121 160 219 264 300 357
#     4  11  22  37  60  83 112 145 192 249 304 355
#
# _framework density 21.987632000000001
#
# number of rings (size 3 to 8) (size 9 to 14) (size 15 to 20)
#    0.000    2.000    0.000    6.750    0.000    6.500 
#    2.250    0.000   11.000    1.500    0.000    1.750 
#    0.000    0.000    0.000    0.000    0.000    2.500 
#
# Total GULP energy -178242.222200 kJ/mol
# GULP energy per Si atom -5570.069444 kJ/mol
# Density = 2.193759 g / cm^3
# Si number density = 21.987632 Si / 1000 Ang^3
#
#
#
# Elastic Constant Matrix: (Units=GPa)
#
#
# Indices 1 2 3 4 5 6 
#
# 1 80.1685 46.7906 8.4841 0.0000 -5.9102 0.0000
# 2 46.7906 99.6446 12.5259 0.0000 -6.7182 0.0000
# 3 8.4841 12.5259 33.8497 0.0000 2.3267 0.0000
# 4 0.0000 0.0000 0.0000 -7.4372 0.0000 -9.3419
# 5 -5.9102 -6.7182 2.3267 0.0000 25.4995 0.0000
# 6 0.0000 0.0000 0.0000 -9.3419 0.0000 21.1126
#
#
#
# Elastic Compliance Matrix: (Units=1/GPa)
#
#
# Indices 1 2 3 4 5 6 
#
# 1 0.017355 -0.007805 -0.001607 0.000000 0.002113 0.000000
# 2 -0.007805 0.014293 -0.003489 0.000000 0.002275 0.000000
# 3 -0.001607 -0.003489 0.031523 0.000000 -0.004168 0.000000
# 4 0.000000 0.000000 0.000000 -0.086424 0.000000 -0.038241
# 5 0.002113 0.002275 -0.004168 0.000000 0.040686 0.000000
# 6 0.000000 0.000000 0.000000 -0.038241 0.000000 0.030444
#
#
# Mechanical properties :
#
#
# Convention : Reuss Voigt Hill
#
# Bulk Modulus (GPa) = 26.76052 38.80711 32.78381
# Shear Modulus (GPa) = 58.04932 17.55915 37.80424
#
# Velocity S-wave (km/s) = 5.14375 2.82900 4.15099
# Velocity P-wave (km/s) = 6.89019 5.32530 6.15766
#
# Compressibility (1/GPa) = 0.03736848
#
# Stress axis : x y z
#
# Youngs Moduli (GPa) = 57.62039 69.96588 31.72320
#
# Poissons Ratio (x) = 0.54609 0.05097
# Poissons Ratio (y) = 0.44973 0.11068
# Poissons Ratio (z) = 0.09259 0.24411
#
# Static dielectric constant tensor:
#      x y z
#    x 1.921740 0.000000 -0.014950 
#    y 0.000000 1.807400 0.000000 
#    z -0.014950 0.000000 1.863880 
# 
# From -- ./inp_files/30556.got.cif
#   From: 2010.05.17/outbox.cif.g08.bks.cpg/sg10_16_cif.got.tgz:30556.got - 2010.06.03 11:33:40.
