data_PCOD9146173
_publ_section_title
;
Structure prediction by ZEFSAII (Michael W. Deem and Ramdas Pophale) SiO2 
 PCOD9146173
Probable space group: P 2/M
;
_chemical_formula_sum "Si O2"
_cell_formula_units_Z 18
_cell_length_a 23.831321
_cell_length_b 8.474546
_cell_length_c 10.277170
_cell_angle_alpha 90.000000
_cell_angle_beta 160.416223
_cell_angle_gamma 90.000000
_cell_volume 695.700695
_symmetry_space_group_name_H-M "P 2/M"
_symmetry_group_IT_number 10
_symmetry_cell_setting 'monoclinic'
loop_
_space_group_symop_operation_xyz
x,y,z
-x,y,-z
-x,-y,-z
x,-y,z
loop_
_atom_site_type_symbol
_atom_site_label
_atom_site_fract_x
_atom_site_fract_y
_atom_site_fract_z
Si Si1 0.792977 0.500000 0.313464
Si Si2 0.591963 0.174233 0.841350
Si Si3 0.235378 0.168685 0.148994
Si Si4 0.867025 0.500000 0.071934
Si Si5 0.231708 0.500000 0.451960
Si Si6 0.181983 0.169714 0.329329
O O1 0.868158 0.500000 0.625253
O O2 0.937472 0.500000 0.524232
O O3 0.693722 0.335376 0.081128
O O4 0.500000 0.180547 0.500000
O O5 0.435641 0.172359 0.598532
O O6 0.677733 0.000000 0.035567
O O7 0.152694 0.167414 0.110481
O O8 0.193075 0.000000 0.991538
O O9 0.188888 0.336086 0.986736
O O10 0.801651 0.500000 0.777480
O O11 0.296643 0.320929 0.607364
O O12 0.253294 0.000000 0.522306
O O13 0.000000 0.186170 0.000000
#
# Coordination Sequence:
#
# PCOD9146173 Si02
#       6
#     2   4   4   2   2   4
#     4  12  23  36  62  93 120 154 198 246 295 354
#     4  10  23  44  64  82 113 158 205 252 298 344
#     4   9  18  36  61  84 113 157 200 240 292 350
#     4  10  20  35  58  90 126 156 187 236 296 357
#     4  10  19  33  52  81 119 154 183 220 282 351
#     4   9  16  28  50  79 110 145 184 225 273 335
#
# _framework density 25.873194000000002
#
# number of rings (size 3 to 8) (size 9 to 14) (size 15 to 20)
#    0.000    2.222    0.000    4.333    0.000    1.778 
#    0.000   11.111    0.000   16.000    0.000    0.000 
#    0.000    0.000    0.000    0.000    0.000    0.000 
#
# Total GULP energy -100278.299957 kJ/mol
# GULP energy per Si atom -5571.016664 kJ/mol
# Density = 2.581431 g / cm^3
# Si number density = 25.873194 Si / 1000 Ang^3
#
#
#
# Elastic Constant Matrix: (Units=GPa)
#
#
# Indices 1 2 3 4 5 6 
#
# 1 75.6132 13.6239 18.1167 0.0000 -1.0492 0.0000
# 2 13.6239 388.1977 73.2808 0.0000 5.5789 0.0000
# 3 18.1167 73.2808 54.2371 0.0000 -1.6363 0.0000
# 4 0.0000 0.0000 0.0000 -45.2494 0.0000 13.6549
# 5 -1.0492 5.5789 -1.6363 0.0000 51.5155 0.0000
# 6 0.0000 0.0000 0.0000 13.6549 0.0000 1.3309
#
#
#
# Elastic Compliance Matrix: (Units=1/GPa)
#
#
# Indices 1 2 3 4 5 6 
#
# 1 0.014461 0.000541 -0.005560 0.000000 0.000059 0.000000
# 2 0.000541 0.003492 -0.004915 0.000000 -0.000523 0.000000
# 3 -0.005560 -0.004915 0.026974 0.000000 0.001276 0.000000
# 4 0.000000 0.000000 0.000000 -0.005395 0.000000 0.055355
# 5 0.000059 -0.000523 0.001276 0.000000 0.019510 0.000000
# 6 0.000000 0.000000 0.000000 0.055355 0.000000 0.183435
#
#
# Mechanical properties :
#
#
# Convention : Reuss Voigt Hill
#
# Bulk Modulus (GPa) = 39.90453 80.89900 60.40177
# Shear Modulus (GPa) = 18.47085 29.05449 23.76267
#
# Velocity S-wave (km/s) = 2.67479 3.35469 3.03385
# Velocity P-wave (km/s) = 4.99959 6.80740 5.97229
#
# Compressibility (1/GPa) = 0.02505981
#
# Stress axis : x y z
#
# Youngs Moduli (GPa) = 69.15345 286.33749 37.07262
#
# Poissons Ratio (x) = -0.15495 0.20611
# Poissons Ratio (y) = -0.03742 0.18222
# Poissons Ratio (z) = 0.38447 1.40740
#
# Static dielectric constant tensor:
#      x y z
#    x 2.054950 0.000000 -0.017840 
#    y 0.000000 2.097900 0.000000 
#    z -0.017840 0.000000 2.017980 
# 
# From -- ./inp_files/57553.got.cif
#   From: 2010.05.17/outbox.cif.g08.bks.cpg/sg10_29_cif.got.tgz:57553.got - 2010.06.03 11:33:40.
