data_PCOD9146562
_publ_section_title
;
Structure prediction by ZEFSAII (Michael W. Deem and Ramdas Pophale) SiO2 
 PCOD9146562
Probable space group: P 2/M
;
_chemical_formula_sum "Si O2"
_cell_formula_units_Z 32
_cell_length_a 22.051590
_cell_length_b 7.420066
_cell_length_c 12.827979
_cell_angle_alpha 90.000000
_cell_angle_beta 137.705789
_cell_angle_gamma 90.000000
_cell_volume 1412.475192
_symmetry_space_group_name_H-M "P 2/M"
_symmetry_group_IT_number 10
_symmetry_cell_setting 'monoclinic'
loop_
_space_group_symop_operation_xyz
x,y,z
-x,y,-z
-x,-y,-z
x,-y,z
loop_
_atom_site_type_symbol
_atom_site_label
_atom_site_fract_x
_atom_site_fract_y
_atom_site_fract_z
Si Si1 0.599131 0.704997 0.626251
Si Si2 0.854411 0.785693 0.266922
Si Si3 0.789656 0.278605 0.809045
Si Si4 0.109907 0.292948 0.268394
Si Si5 0.590862 0.219109 0.061694
Si Si6 0.214096 0.218532 0.604745
Si Si7 0.661973 0.218456 0.934111
Si Si8 0.066767 0.715589 0.842670
O O1 0.500000 0.790690 0.500000
O O2 0.587823 0.500000 0.572063
O O3 0.686053 0.784150 0.677831
O O4 0.630975 0.703136 0.786258
O O5 0.850235 0.720158 0.380786
O O6 0.930304 0.754045 0.276918
O O7 0.847467 0.000000 0.267636
O O8 0.761755 0.721525 0.095078
O O9 0.786356 0.500000 0.804880
O O10 0.846241 0.217352 0.780597
O O11 0.843950 0.222336 0.981878
O O12 0.087667 0.500000 0.213147
O O13 0.181303 0.289126 0.452858
O O14 0.019534 0.212644 0.204154
O O15 0.684168 0.272778 0.235984
O O16 0.590641 0.000000 0.064616
O O17 0.500000 0.283473 0.000000
O O18 0.598452 0.268581 0.950136
O O19 0.211511 0.000000 0.595713
O O20 0.662716 0.000000 0.925878
O O21 0.064875 0.500000 0.847819
#
# Coordination Sequence:
#
# PCOD9146562 Si02
#       8
#     4   4   4   4   4   4   4   4
#     4  10  20  33  51  76 103 133 166 202 253 309
#     4   9  18  33  53  75 102 134 166 208 257 305
#     4   9  18  35  54  72 101 137 170 209 255 301
#     4  10  21  35  52  75 103 135 173 215 253 299
#     4   8  15  30  53  76  98 131 173 209 245 299
#     4   9  19  35  52  74 106 139 168 204 260 312
#     4   9  17  31  51  74  99 128 166 210 250 292
#     4  10  19  33  56  78  95 130 180 215 249 302
#
# _framework density 22.655265
#
# number of rings (size 3 to 8) (size 9 to 14) (size 15 to 20)
#    0.000    2.750    1.250    1.875    0.000    4.250 
#    0.000    5.625    0.000    2.250    0.000    0.000 
#    0.000    0.000    0.000    0.000    0.000    0.000 
#
# Total GULP energy -178596.733633 kJ/mol
# GULP energy per Si atom -5581.147926 kJ/mol
# Density = 2.260370 g / cm^3
# Si number density = 22.655265 Si / 1000 Ang^3
#
#
#
# Elastic Constant Matrix: (Units=GPa)
#
#
# Indices 1 2 3 4 5 6 
#
# 1 149.7323 -4.2632 5.5903 0.0000 1.6714 0.0000
# 2 -4.2632 74.1108 -9.5091 0.0000 3.2583 0.0000
# 3 5.5903 -9.5091 31.9526 0.0000 -2.4951 0.0000
# 4 0.0000 0.0000 0.0000 -3.3923 0.0000 25.8189
# 5 1.6714 3.2583 -2.4951 0.0000 39.9411 0.0000
# 6 0.0000 0.0000 0.0000 25.8189 0.0000 -66.7639
#
#
#
# Elastic Compliance Matrix: (Units=1/GPa)
#
#
# Indices 1 2 3 4 5 6 
#
# 1 0.006732 0.000259 -0.001130 0.000000 -0.000373 0.000000
# 2 0.000259 0.014070 0.004071 0.000000 -0.000904 0.000000
# 3 -0.001130 0.004071 0.032844 0.000000 0.001767 0.000000
# 4 0.000000 0.000000 0.000000 0.151690 0.000000 0.058662
# 5 -0.000373 -0.000904 0.001767 0.000000 0.025237 0.000000
# 6 0.000000 0.000000 0.000000 0.058662 0.000000 0.007707
#
#
# Mechanical properties :
#
#
# Convention : Reuss Voigt Hill
#
# Bulk Modulus (GPa) = 16.65374 26.60353 21.62864
# Shear Modulus (GPa) = 19.84948 11.55548 15.70248
#
# Velocity S-wave (km/s) = 2.96320 2.26090 2.63555
# Velocity P-wave (km/s) = 4.36741 4.31089 4.33924
#
# Compressibility (1/GPa) = 0.06004656
#
# Stress axis : x y z
#
# Youngs Moduli (GPa) = 148.53740 71.07148 30.44726
#
# Poissons Ratio (x) = -0.01839 0.03441
# Poissons Ratio (y) = -0.03843 -0.12396
# Poissons Ratio (z) = 0.16785 -0.28936
#
# Static dielectric constant tensor:
#      x y z
#    x 1.870460 0.000000 0.024840 
#    y 0.000000 1.907390 0.000000 
#    z 0.024840 0.000000 1.796730 
# 
# From -- ./inp_files/53519.got.cif
#   From: 2010.05.17/outbox.cif.g08.bks.cpg/sg10_27_cif.got.tgz:53519.got - 2010.06.03 11:33:40.
