data_PCOD9146947
_publ_section_title
;
Structure prediction by ZEFSAII (Michael W. Deem and Ramdas Pophale) SiO2 
 PCOD9146947
Probable space group: P 2/M
;
_chemical_formula_sum "Si O2"
_cell_formula_units_Z 32
_cell_length_a 11.700029
_cell_length_b 13.744314
_cell_length_c 10.451737
_cell_angle_alpha 90.000000
_cell_angle_beta 96.867716
_cell_angle_gamma 90.000000
_cell_volume 1668.672582
_symmetry_space_group_name_H-M "P 2/M"
_symmetry_group_IT_number 10
_symmetry_cell_setting 'monoclinic'
loop_
_space_group_symop_operation_xyz
x,y,z
-x,y,-z
-x,-y,-z
x,-y,z
loop_
_atom_site_type_symbol
_atom_site_label
_atom_site_fract_x
_atom_site_fract_y
_atom_site_fract_z
Si Si1 0.966751 0.110212 0.344603
Si Si2 0.623025 0.888185 0.587318
Si Si3 0.584706 0.388511 0.295224
Si Si4 0.891948 0.286148 0.675882
Si Si5 0.645100 0.711300 0.762582
Si Si6 0.062062 0.615708 0.880216
Si Si7 0.674471 0.612511 0.028288
Si Si8 0.223403 0.762010 0.583194
O O1 0.849728 0.174193 0.326398
O O2 0.000000 0.104800 0.500000
O O3 0.067180 0.174519 0.294783
O O4 0.954820 0.000000 0.295943
O O5 0.500000 0.884908 0.500000
O O6 0.621115 0.821057 0.713045
O O7 0.712483 0.838265 0.502006
O O8 0.652945 0.000000 0.616666
O O9 0.605529 0.500000 0.338343
O O10 0.457070 0.352456 0.314025
O O11 0.594402 0.386069 0.141822
O O12 0.681183 0.313404 0.356272
O O13 0.772807 0.312835 0.729219
O O14 0.865802 0.293649 0.521953
O O15 0.995168 0.347692 0.747581
O O16 0.644813 0.686436 0.911889
O O17 0.050981 0.500000 0.880949
O O18 0.197044 0.636379 0.905129
O O19 0.000000 0.655297 0.000000
O O20 0.675157 0.500000 0.978553
#
# Coordination Sequence:
#
# PCOD9146947 Si02
#       8
#     4   4   4   4   4   4   4   4
#     4   9  18  35  59  85 112 145 190 237 289 355
#     4  10  20  37  60  85 115 151 194 243 295 351
#     4  11  23  38  57  86 124 161 202 243 289 351
#     4  10  21  33  56  86 117 147 191 245 300 350
#     4  11  21  36  57  84 116 156 197 241 295 346
#     4  10  19  34  55  80 109 149 198 241 287 349
#     4  10  21  38  60  81 111 158 205 247 292 351
#     4  10  20  37  60  91 119 157 191 240 302 357
#
# _framework density 19.176919000000002
#
# number of rings (size 3 to 8) (size 9 to 14) (size 15 to 20)
#    0.000    1.875    2.500    1.875    0.000    5.000 
#    0.000    6.250    0.000   10.125    0.000    0.000 
#    0.000    0.000    0.000    0.000    0.000    0.000 
#
# Total GULP energy -178502.998131 kJ/mol
# GULP energy per Si atom -5578.218692 kJ/mol
# Density = 1.913327 g / cm^3
# Si number density = 19.176919 Si / 1000 Ang^3
#
#
#
# Elastic Constant Matrix: (Units=GPa)
#
#
# Indices 1 2 3 4 5 6 
#
# 1 117.8436 56.9281 20.9081 0.0000 1.6674 0.0000
# 2 56.9281 114.5762 37.0155 0.0000 13.2138 0.0000
# 3 20.9081 37.0155 46.5217 0.0000 13.5809 0.0000
# 4 0.0000 0.0000 0.0000 -12.2267 0.0000 12.8596
# 5 1.6674 13.2138 13.5809 0.0000 29.6196 0.0000
# 6 0.0000 0.0000 0.0000 12.8596 0.0000 24.9504
#
#
#
# Elastic Compliance Matrix: (Units=1/GPa)
#
#
# Indices 1 2 3 4 5 6 
#
# 1 0.011343 -0.005439 -0.001492 0.000000 0.002472 0.000000
# 2 -0.005439 0.014387 -0.008334 0.000000 -0.002291 0.000000
# 3 -0.001492 -0.008334 0.031965 0.000000 -0.010855 0.000000
# 4 0.000000 0.000000 0.000000 -0.053037 0.000000 0.027336
# 5 0.002472 -0.002291 -0.010855 0.000000 0.039621 0.000000
# 6 0.000000 0.000000 0.000000 0.027336 0.000000 0.025990
#
#
# Mechanical properties :
#
#
# Convention : Reuss Voigt Hill
#
# Bulk Modulus (GPa) = 36.81087 56.51610 46.66349
# Shear Modulus (GPa) = 45.51486 19.40798 32.46142
#
# Velocity S-wave (km/s) = 4.87706 3.18472 4.11875
# Velocity P-wave (km/s) = 7.13802 6.56187 6.85600
#
# Compressibility (1/GPa) = 0.02716589
#
# Stress axis : x y z
#
# Youngs Moduli (GPa) = 88.16005 69.50844 31.28377
#
# Poissons Ratio (x) = 0.37805 0.04667
# Poissons Ratio (y) = 0.47950 0.26071
# Poissons Ratio (z) = 0.13153 0.57927
#
# Static dielectric constant tensor:
#      x y z
#    x 1.719760 0.000000 -0.008590 
#    y 0.000000 1.665510 0.000000 
#    z -0.008590 0.000000 1.684890 
# 
# From -- ./inp_files/46706.got.cif
#   From: 2010.05.17/outbox.cif.g08.bks.cpg/sg10_24_cif.got.tgz:46706.got - 2010.06.03 11:33:40.
