data_PCOD9146423
_publ_section_title
;
Structure prediction by ZEFSAII (Michael W. Deem and Ramdas Pophale) SiO2 
 PCOD9146423
Probable space group: P 2/M
;
_chemical_formula_sum "Si O2"
_cell_formula_units_Z 32
_cell_length_a 21.569927
_cell_length_b 8.614597
_cell_length_c 27.137208
_cell_angle_alpha 90.000000
_cell_angle_beta 158.871398
_cell_angle_gamma 90.000000
_cell_volume 1817.644246
_symmetry_space_group_name_H-M "P 2/M"
_symmetry_group_IT_number 10
_symmetry_cell_setting 'monoclinic'
loop_
_space_group_symop_operation_xyz
x,y,z
-x,y,-z
-x,-y,-z
x,-y,z
loop_
_atom_site_type_symbol
_atom_site_label
_atom_site_fract_x
_atom_site_fract_y
_atom_site_fract_z
Si Si1 0.013741 0.687885 0.590758
Si Si2 0.929967 0.313667 0.100396
Si Si3 0.275894 0.311263 0.699438
Si Si4 0.670037 0.311848 0.991608
Si Si5 0.452504 0.187456 0.409157
Si Si6 0.046064 0.184634 0.724426
Si Si7 0.215178 0.685811 0.391474
Si Si8 0.062902 0.187197 0.099889
O O1 0.013696 0.500000 0.594344
O O2 0.837776 0.735467 0.432222
O O3 0.036320 0.757305 0.661304
O O4 0.168479 0.733106 0.668455
O O5 0.929271 0.500000 0.096046
O O6 0.766695 0.266924 0.012553
O O7 0.946871 0.243498 0.059077
O O8 0.096740 0.267922 0.256651
O O9 0.278635 0.500000 0.700838
O O10 0.472796 0.258398 0.846221
O O11 0.673171 0.500000 0.996571
O O12 0.787026 0.250003 0.122960
O O13 0.500000 0.235641 0.500000
O O14 0.594284 0.254271 0.477359
O O15 0.259137 0.238461 0.254249
O O16 0.459550 0.000000 0.412243
O O17 0.881011 0.245440 0.632546
O O18 0.050303 0.000000 0.729256
O O19 0.212376 0.500000 0.392825
O O20 0.061620 0.000000 0.099206
O O21 0.000000 0.241399 0.000000
#
# Coordination Sequence:
#
# PCOD9146423 Si02
#       8
#     4   4   4   4   4   4   4   4
#     4   9  17  34  58  82 107 141 180 220 264 313
#     4   9  18  32  52  75 102 132 169 219 265 304
#     4   8  16  33  59  82 105 140 182 221 262 315
#     4   9  18  35  56  80 106 137 178 222 266 316
#     4  10  19  33  55  79 102 135 174 212 257 313
#     4  11  22  35  52  78 112 145 175 218 269 317
#     4  10  20  35  56  80 103 133 177 225 264 307
#     4  10  21  36  52  72 104 141 172 207 255 312
#
# _framework density 17.605205000000002
#
# number of rings (size 3 to 8) (size 9 to 14) (size 15 to 20)
#    0.000    2.500    1.250    3.000    0.000    3.500 
#    2.250    5.000    0.000    0.000    0.000    0.000 
#    0.000    0.000    0.000    0.000    0.000    0.000 
#
# Total GULP energy -178489.794637 kJ/mol
# GULP energy per Si atom -5577.806082 kJ/mol
# Density = 1.756514 g / cm^3
# Si number density = 17.605205 Si / 1000 Ang^3
#
#
#
# Elastic Constant Matrix: (Units=GPa)
#
#
# Indices 1 2 3 4 5 6 
#
# 1 166.1951 32.7294 103.1352 0.0000 -10.9925 0.0000
# 2 32.7294 23.0554 29.2917 0.0000 -1.4342 0.0000
# 3 103.1352 29.2917 139.1798 0.0000 6.5948 0.0000
# 4 0.0000 0.0000 0.0000 8.1812 0.0000 -7.5139
# 5 -10.9925 -1.4342 6.5948 0.0000 26.2153 0.0000
# 6 0.0000 0.0000 0.0000 -7.5139 0.0000 -81.8417
#
#
#
# Elastic Compliance Matrix: (Units=1/GPa)
#
#
# Indices 1 2 3 4 5 6 
#
# 1 0.013364 -0.007490 -0.008676 0.000000 0.007377 0.000000
# 2 -0.007490 0.064499 -0.008140 0.000000 0.002436 0.000000
# 3 -0.008676 -0.008140 0.015708 0.000000 -0.008035 0.000000
# 4 0.000000 0.000000 0.000000 0.112727 0.000000 -0.010349
# 5 0.007377 0.002436 -0.008035 0.000000 0.043393 0.000000
# 6 0.000000 0.000000 0.000000 -0.010349 0.000000 -0.011269
#
#
# Mechanical properties :
#
#
# Convention : Reuss Voigt Hill
#
# Bulk Modulus (GPa) = 22.24209 73.19365 47.71787
# Shear Modulus (GPa) = 16.55510 1.39589 8.97549
#
# Velocity S-wave (km/s) = 3.06984 0.89141 2.26037
# Velocity P-wave (km/s) = 5.02260 6.53642 5.82886
#
# Compressibility (1/GPa) = 0.04495980
#
# Stress axis : x y z
#
# Youngs Moduli (GPa) = 74.82674 15.50403 63.66081
#
# Poissons Ratio (x) = 0.11612 0.55235
# Poissons Ratio (y) = 0.56042 0.51820
# Poissons Ratio (z) = 0.64923 0.12620
#
# Static dielectric constant tensor:
#      x y z
#    x 1.578820 0.000000 0.006530 
#    y 0.000000 1.594770 0.000000 
#    z 0.006530 0.000000 1.596790 
# 
# From -- ./inp_files/93747.got.cif
#   From: 2010.05.17/outbox.cif.g08.bks.cpg/sg10_47_cif.got.tgz:93747.got - 2010.06.03 11:33:40.
