data_PCOD9146306
_publ_section_title
;
Structure prediction by ZEFSAII (Michael W. Deem and Ramdas Pophale) SiO2 
 PCOD9146306
Probable space group: P 2/M
;
_chemical_formula_sum "Si O2"
_cell_formula_units_Z 28
_cell_length_a 19.918384
_cell_length_b 8.921993
_cell_length_c 15.724692
_cell_angle_alpha 90.000000
_cell_angle_beta 143.700022
_cell_angle_gamma 90.000000
_cell_volume 1654.357155
_symmetry_space_group_name_H-M "P 2/M"
_symmetry_group_IT_number 10
_symmetry_cell_setting 'monoclinic'
loop_
_space_group_symop_operation_xyz
x,y,z
-x,y,-z
-x,-y,-z
x,-y,z
loop_
_atom_site_type_symbol
_atom_site_label
_atom_site_fract_x
_atom_site_fract_y
_atom_site_fract_z
Si Si1 0.612670 0.680762 0.298988
Si Si2 0.653450 0.320728 0.986828
Si Si3 0.362739 0.172278 0.852547
Si Si4 0.008222 0.319592 0.907575
Si Si5 0.233252 0.821857 0.058539
Si Si6 0.632485 0.677764 0.654637
Si Si7 0.243011 0.682117 0.390961
O O1 0.619009 0.500000 0.299883
O O2 0.478755 0.718872 0.168407
O O3 0.661483 0.750506 0.262248
O O4 0.682630 0.731906 0.452899
O O5 0.662472 0.500000 0.993633
O O6 0.732934 0.247850 0.997336
O O7 0.679354 0.260521 0.107666
O O8 0.674882 0.000000 0.184406
O O9 0.500000 0.173808 0.000000
O O10 0.022041 0.500000 0.914833
O O11 0.888716 0.275307 0.743143
O O12 0.114500 0.240838 0.972761
O O13 0.000000 0.285532 0.000000
O O14 0.327001 0.766924 0.222111
O O15 0.230763 0.000000 0.050930
O O16 0.500000 0.693765 0.500000
O O17 0.655463 0.500000 0.692485
O O18 0.701817 0.727941 0.642239
O O19 0.246977 0.500000 0.395069
#
# Coordination Sequence:
#
# PCOD9146306 Si02
#       7
#     4   4   4   4   4   4   4
#     4   9  17  31  53  81 107 134 172 214 258 310
#     4  10  19  33  54  78 105 139 179 216 255 309
#     4   9  17  30  49  76 110 142 169 204 257 315
#     4  10  19  36  58  74  96 135 186 227 259 303
#     4  12  24  35  50  75 109 140 173 218 269 319
#     4  10  19  34  55  77 103 137 176 215 258 309
#     4   9  17  31  53  78 101 131 174 222 258 297
#
# _framework density 16.925004000000001
#
# number of rings (size 3 to 8) (size 9 to 14) (size 15 to 20)
#    0.000    2.143    1.429    3.000    0.000    5.143 
#    0.000    1.429    0.000    0.857    0.000    6.000 
#    0.000    0.000    0.000    0.000    0.000    0.000 
#
# Total GULP energy -156244.510023 kJ/mol
# GULP energy per Si atom -5580.161072 kJ/mol
# Density = 1.688648 g / cm^3
# Si number density = 16.925004 Si / 1000 Ang^3
#
#
#
# Elastic Constant Matrix: (Units=GPa)
#
#
# Indices 1 2 3 4 5 6 
#
# 1 135.8506 55.7556 26.0903 0.0000 -7.5926 0.0000
# 2 55.7556 57.0028 15.0012 0.0000 2.6484 0.0000
# 3 26.0903 15.0012 20.0363 0.0000 1.6689 0.0000
# 4 0.0000 0.0000 0.0000 5.7077 0.0000 4.4821
# 5 -7.5926 2.6484 1.6689 0.0000 22.8497 0.0000
# 6 0.0000 0.0000 0.0000 4.4821 0.0000 11.0676
#
#
#
# Elastic Compliance Matrix: (Units=1/GPa)
#
#
# Indices 1 2 3 4 5 6 
#
# 1 0.014706 -0.011854 -0.010863 0.000000 0.007054 0.000000
# 2 -0.011854 0.031443 -0.007520 0.000000 -0.007034 0.000000
# 3 -0.010863 -0.007520 0.070341 0.000000 -0.007876 0.000000
# 4 0.000000 0.000000 0.000000 0.256905 0.000000 -0.104041
# 5 0.007054 -0.007034 -0.007876 0.000000 0.047499 0.000000
# 6 0.000000 0.000000 0.000000 -0.104041 0.000000 0.132488
#
#
# Mechanical properties :
#
#
# Convention : Reuss Voigt Hill
#
# Bulk Modulus (GPa) = 17.85174 45.17600 31.51387
# Shear Modulus (GPa) = 7.90479 15.66117 11.78298
#
# Velocity S-wave (km/s) = 2.16347 3.04522 2.64140
# Velocity P-wave (km/s) = 4.10016 6.25414 5.28799
#
# Compressibility (1/GPa) = 0.05601696
#
# Stress axis : x y z
#
# Youngs Moduli (GPa) = 67.99736 31.80332 14.21649
#
# Poissons Ratio (x) = 0.37699 0.15443
# Poissons Ratio (y) = 0.80602 0.10691
# Poissons Ratio (z) = 0.73864 0.23917
#
# Static dielectric constant tensor:
#      x y z
#    x 1.554540 0.000000 0.001450 
#    y 0.000000 1.567690 0.000000 
#    z 0.001450 0.000000 1.563870 
# 
# From -- ./inp_files/57493.got.cif
#   From: 2010.05.17/outbox.cif.g08.bks.cpg/sg10_29_cif.got.tgz:57493.got - 2010.06.03 11:33:40.
