data_PCOD9146216
_publ_section_title
;
Structure prediction by ZEFSAII (Michael W. Deem and Ramdas Pophale) SiO2 
 PCOD9146216
Probable space group: P 2/M
;
_chemical_formula_sum "Si O2"
_cell_formula_units_Z 26
_cell_length_a 5.146843
_cell_length_b 17.288944
_cell_length_c 15.926385
_cell_angle_alpha 90.000000
_cell_angle_beta 108.911096
_cell_angle_gamma 90.000000
_cell_volume 1340.689212
_symmetry_space_group_name_H-M "P 2/M"
_symmetry_group_IT_number 10
_symmetry_cell_setting 'monoclinic'
loop_
_space_group_symop_operation_xyz
x,y,z
-x,y,-z
-x,-y,-z
x,-y,z
loop_
_atom_site_type_symbol
_atom_site_label
_atom_site_fract_x
_atom_site_fract_y
_atom_site_fract_z
Si Si1 0.807062 0.167391 0.612422
Si Si2 0.428845 0.319454 0.235763
Si Si3 0.574978 0.840461 0.267680
Si Si4 0.468401 0.000000 0.278075
Si Si5 0.693225 0.593032 0.944529
Si Si6 0.907593 0.000000 0.601270
Si Si7 0.048052 0.332593 0.353457
Si Si8 0.190005 0.500000 0.439619
O O1 0.096417 0.161038 0.692755
O O2 0.810152 0.086148 0.559753
O O3 0.835896 0.256757 0.583049
O O4 0.551273 0.165606 0.650141
O O5 0.458107 0.231962 0.206671
O O6 0.396164 0.376171 0.155109
O O7 0.717204 0.331564 0.315183
O O8 0.177843 0.323181 0.274274
O O9 0.472762 0.922495 0.226004
O O10 0.761129 0.000000 0.360049
O O11 0.222198 0.000000 0.318800
O O12 0.684864 0.500000 0.940553
O O13 0.500000 0.619140 0.000000
O O14 0.000000 0.617214 0.000000
O O15 0.135341 0.418213 0.389264
O O16 0.500000 0.500000 0.500000
O O17 0.000000 0.500000 0.500000
#
# Coordination Sequence:
#
# PCOD9146216 Si02
#       8
#     4   4   4   2   4   2   4   2
#     4   8  14  25  40  67  94 119 152 193 241 284
#     4  10  19  33  53  76  99 127 169 208 246 285
#     4   8  14  23  39  64  93 121 152 196 238 284
#     4   8  12  20  34  58  92 122 146 184 244 282
#     4  10  21  34  48  70 100 131 162 200 249 300
#     4   8  12  20  38  60  94 122 140 184 244 288
#     4  10  21  34  54  76  98 128 170 211 243 285
#     4  12  26  42  56  76 102 134 168 200 250 302
#
# _framework density 19.393011999999999
#
# number of rings (size 3 to 8) (size 9 to 14) (size 15 to 20)
#    0.000    2.769    0.000    1.846    2.154    0.000 
#    0.000    0.000    0.000    0.000    0.000    2.154 
#    0.000    0.000    0.000    0.000    0.000    0.000 
#
# Total GULP energy -144764.051907 kJ/mol
# GULP energy per Si atom -5567.848150 kJ/mol
# Density = 1.934887 g / cm^3
# Si number density = 19.393012 Si / 1000 Ang^3
#
#
#
# Elastic Constant Matrix: (Units=GPa)
#
#
# Indices 1 2 3 4 5 6 
#
# 1 108.3226 1.6321 12.6378 0.0000 -9.2963 0.0000
# 2 1.6321 146.2567 15.5142 0.0000 7.2048 0.0000
# 3 12.6378 15.5142 23.3312 0.0000 -3.4748 0.0000
# 4 0.0000 0.0000 0.0000 -406.9400 0.0000 15.4847
# 5 -9.2963 7.2048 -3.4748 0.0000 18.5932 0.0000
# 6 0.0000 0.0000 0.0000 15.4847 0.0000 1.9160
#
#
#
# Elastic Compliance Matrix: (Units=1/GPa)
#
#
# Indices 1 2 3 4 5 6 
#
# 1 0.010165 0.000223 -0.005051 0.000000 0.004052 0.000000
# 2 0.000223 0.007642 -0.005788 0.000000 -0.003932 0.000000
# 3 -0.005051 -0.005788 0.050818 0.000000 0.009215 0.000000
# 4 0.000000 0.000000 0.000000 -0.001879 0.000000 0.015189
# 5 0.004052 -0.003932 0.009215 0.000000 0.059055 0.000000
# 6 0.000000 0.000000 0.000000 0.015189 0.000000 0.399169
#
#
# Mechanical properties :
#
#
# Convention : Reuss Voigt Hill
#
# Bulk Modulus (GPa) = 21.09991 37.49764 29.29878
# Shear Modulus (GPa) = 8.89679 -60.74441 -25.92381
#
# Velocity S-wave (km/s) = 2.14420 -5.60275 -3.66014
# Velocity P-wave (km/s) = 4.12721 4.74097 1.64969
#
# Compressibility (1/GPa) = 0.04739356
#
# Stress axis : x y z
#
# Youngs Moduli (GPa) = 98.37322 130.84784 19.67799
#
# Poissons Ratio (x) = -0.02914 0.09939
# Poissons Ratio (y) = -0.02191 0.11390
# Poissons Ratio (z) = 0.49687 0.75736
#
# Static dielectric constant tensor:
#      x y z
#    x 1.672050 0.000000 -0.008110 
#    y 0.000000 1.932090 0.000000 
#    z -0.008110 0.000000 1.607870 
# 
# From -- ./inp_files/59264.got.cif
#   From: 2010.05.17/outbox.cif.g08.bks.cpg/sg10_30_cif.got.tgz:59264.got - 2010.06.03 11:33:40.
