data_PCOD9146100
_publ_section_title
;
Structure prediction by ZEFSAII (Michael W. Deem and Ramdas Pophale) SiO2 
 PCOD9146100
Probable space group: P 2/M
;
_chemical_formula_sum "Si O2"
_cell_formula_units_Z 28
_cell_length_a 24.252853
_cell_length_b 11.798105
_cell_length_c 17.910258
_cell_angle_alpha 90.000000
_cell_angle_beta 19.869335
_cell_angle_gamma 90.000000
_cell_volume 1741.797877
_symmetry_space_group_name_H-M "P 2/M"
_symmetry_group_IT_number 10
_symmetry_cell_setting 'monoclinic'
loop_
_space_group_symop_operation_xyz
x,y,z
-x,y,-z
-x,-y,-z
x,-y,z
loop_
_atom_site_type_symbol
_atom_site_label
_atom_site_fract_x
_atom_site_fract_y
_atom_site_fract_z
Si Si1 0.693925 0.363497 0.459600
Si Si2 0.511271 0.243972 0.821110
Si Si3 0.163518 0.241190 0.335078
Si Si4 0.996287 0.636877 0.176295
Si Si5 0.329323 0.638290 0.683527
Si Si6 0.236333 0.635697 0.395120
Si Si7 0.582597 0.000000 0.776907
Si Si8 0.235731 0.000000 0.304194
O O1 0.676346 0.500000 0.486335
O O2 0.560345 0.307021 0.682904
O O3 0.867264 0.334420 0.275856
O O4 0.685609 0.329497 0.384144
O O5 0.605557 0.306873 0.769084
O O6 0.578680 0.115729 0.735766
O O7 0.320797 0.243632 0.081234
O O8 0.202576 0.321800 0.355280
O O9 0.149853 0.114287 0.386564
O O10 0.000000 0.271683 0.500000
O O11 0.005046 0.500000 0.167094
O O12 0.913081 0.670389 0.360139
O O13 0.174488 0.678566 0.928270
O O14 0.500000 0.675619 0.500000
O O15 0.327297 0.500000 0.687757
O O16 0.254442 0.500000 0.374914
O O17 0.724088 0.000000 0.658887
O O18 0.412500 0.000000 0.039246
#
# Coordination Sequence:
#
# PCOD9146100 Si02
#       8
#     4   4   4   4   4   4   2   2
#     4   9  17  29  47  70  95 124 155 190 234 280
#     4  10  19  33  51  72  94 122 163 201 240 280
#     4  11  22  33  48  70  98 129 159 197 241 285
#     4   8  15  28  44  63  88 118 157 195 225 266
#     4   9  16  26  43  67  94 124 155 189 229 273
#     4  10  20  33  49  69  96 132 165 194 234 283
#     4   9  16  30  56  74  85 113 162 212 239 267
#     4   9  17  34  52  70  89 116 161 209 243 272
#
# _framework density 16.075344000000001
#
# number of rings (size 3 to 8) (size 9 to 14) (size 15 to 20)
#    0.000    2.571    1.429    2.357    0.000    4.857 
#    0.000    1.429    0.000    0.000    0.000    9.500 
#    0.000    0.000    0.000    0.000    0.000    0.000 
#
# Total GULP energy -156021.202936 kJ/mol
# GULP energy per Si atom -5572.185819 kJ/mol
# Density = 1.603876 g / cm^3
# Si number density = 16.075344 Si / 1000 Ang^3
#
#
#
# Elastic Constant Matrix: (Units=GPa)
#
#
# Indices 1 2 3 4 5 6 
#
# 1 22.6773 2.1007 27.0396 0.0000 -2.6619 0.0000
# 2 2.1007 52.6016 12.8481 0.0000 -2.4120 0.0000
# 3 27.0396 12.8481 102.9247 0.0000 -7.3948 0.0000
# 4 0.0000 0.0000 0.0000 9.0418 0.0000 -2.8011
# 5 -2.6619 -2.4120 -7.3948 0.0000 12.3455 0.0000
# 6 0.0000 0.0000 0.0000 -2.8011 0.0000 9.1643
#
#
#
# Elastic Compliance Matrix: (Units=1/GPa)
#
#
# Indices 1 2 3 4 5 6 
#
# 1 0.064545 0.001734 -0.016875 0.000000 0.004148 0.000000
# 2 0.001734 0.019728 -0.002732 0.000000 0.002592 0.000000
# 3 -0.016875 -0.002732 0.014829 0.000000 0.004710 0.000000
# 4 0.000000 0.000000 0.000000 0.122165 0.000000 0.037340
# 5 0.004148 0.002592 0.004710 0.000000 0.085223 0.000000
# 6 0.000000 0.000000 0.000000 0.037340 0.000000 0.120532
#
#
# Mechanical properties :
#
#
# Convention : Reuss Voigt Hill
#
# Bulk Modulus (GPa) = 15.78401 29.13116 22.45758
# Shear Modulus (GPa) = 10.33303 15.19134 12.76219
#
# Velocity S-wave (km/s) = 2.53808 3.07743 2.82068
# Velocity P-wave (km/s) = 4.29292 5.54873 4.96073
#
# Compressibility (1/GPa) = 0.06335526
#
# Stress axis : x y z
#
# Youngs Moduli (GPa) = 15.49313 50.69010 67.43724
#
# Poissons Ratio (x) = -0.08792 1.13802
# Poissons Ratio (y) = -0.02687 0.18424
# Poissons Ratio (z) = 0.26145 0.13849
#
# Static dielectric constant tensor:
#      x y z
#    x 1.525550 0.000000 0.000220 
#    y 0.000000 1.534960 0.000000 
#    z 0.000220 0.000000 1.545540 
# 
# From -- ./inp_files/35995.got.cif
#   From: 2010.05.17/outbox.cif.g08.bks.cpg/sg10_18_cif.got.tgz:35995.got - 2010.06.03 11:33:40.
