data_PCOD9146353
_publ_section_title
;
Structure prediction by ZEFSAII (Michael W. Deem and Ramdas Pophale) SiO2 
 PCOD9146353
Probable space group: P 2/M
;
_chemical_formula_sum "Si O2"
_cell_formula_units_Z 32
_cell_length_a 26.891651
_cell_length_b 16.172233
_cell_length_c 9.006918
_cell_angle_alpha 90.000000
_cell_angle_beta 28.846227
_cell_angle_gamma 90.000000
_cell_volume 1889.841830
_symmetry_space_group_name_H-M "P 2/M"
_symmetry_group_IT_number 10
_symmetry_cell_setting 'monoclinic'
loop_
_space_group_symop_operation_xyz
x,y,z
-x,y,-z
-x,-y,-z
x,-y,z
loop_
_atom_site_type_symbol
_atom_site_label
_atom_site_fract_x
_atom_site_fract_y
_atom_site_fract_z
Si Si1 0.098780 0.209864 0.334161
Si Si2 0.608204 0.407829 0.128746
Si Si3 0.206781 0.094294 0.815030
Si Si4 0.309928 0.734659 0.886470
Si Si5 0.410463 0.868967 0.122447
Si Si6 0.004107 0.092896 0.163478
Si Si7 0.380040 0.092031 0.860261
Si Si8 0.500533 0.690208 0.829535
O O1 0.000000 0.243346 0.500000
O O2 0.055865 0.162563 0.590019
O O3 0.151854 0.140744 0.091966
O O4 0.193999 0.267541 0.127890
O O5 0.500000 0.411543 0.500000
O O6 0.653255 0.500000 0.009397
O O7 0.674681 0.336428 0.031439
O O8 0.570605 0.373952 0.070608
O O9 0.310200 0.135530 0.487136
O O10 0.230883 0.000000 0.791569
O O11 0.122423 0.094789 0.905568
O O12 0.331211 0.826078 0.907063
O O13 0.393722 0.710604 0.538544
O O14 0.500000 0.903587 0.000000
O O15 0.380597 0.907397 0.040080
O O16 0.447739 0.779263 0.976644
O O17 0.964852 0.000000 0.302805
O O18 0.000000 0.104907 0.000000
O O19 0.500000 0.095817 0.500000
O O20 0.339682 0.000000 0.919286
O O21 0.500000 0.661043 0.000000
#
# Coordination Sequence:
#
# PCOD9146353 Si02
#       8
#     4   4   4   4   4   4   4   4
#     4  10  21  36  53  71  97 136 178 222 272 316
#     4   9  18  34  58  82 109 140 170 207 261 320
#     4  10  21  34  48  69  98 137 184 223 263 309
#     4  11  20  38  54  77 109 139 180 219 263 311
#     4  11  21  35  49  71 106 143 179 217 255 308
#     4   9  19  34  50  69  93 125 176 235 273 304
#     4  11  22  34  48  72 106 148 185 214 254 310
#     4  10  19  33  54  80 113 143 170 214 257 307
#
# _framework density 16.932635000000001
#
# number of rings (size 3 to 8) (size 9 to 14) (size 15 to 20)
#    0.000    1.875    2.500    2.625    1.750    3.750 
#    0.000    0.000    0.000    0.750    0.000    0.000 
#    0.000   14.500    0.000    0.000    0.000    0.250 
#
# Total GULP energy -178188.075615 kJ/mol
# GULP energy per Si atom -5568.377363 kJ/mol
# Density = 1.689410 g / cm^3
# Si number density = 16.932635 Si / 1000 Ang^3
#
#
#
# Elastic Constant Matrix: (Units=GPa)
#
#
# Indices 1 2 3 4 5 6 
#
# 1 99.2701 46.5220 29.9593 0.0000 4.4362 0.0000
# 2 46.5220 89.5190 17.6228 0.0000 -8.2692 0.0000
# 3 29.9593 17.6228 65.8464 0.0000 -12.0592 0.0000
# 4 0.0000 0.0000 0.0000 9.5967 0.0000 -3.2867
# 5 4.4362 -8.2692 -12.0592 0.0000 20.9134 0.0000
# 6 0.0000 0.0000 0.0000 -3.2867 0.0000 5.4130
#
#
#
# Elastic Compliance Matrix: (Units=1/GPa)
#
#
# Indices 1 2 3 4 5 6 
#
# 1 0.016652 -0.008217 -0.007401 0.000000 -0.011049 0.000000
# 2 -0.008217 0.016039 0.001036 0.000000 0.008683 0.000000
# 3 -0.007401 0.001036 0.020840 0.000000 0.013996 0.000000
# 4 0.000000 0.000000 0.000000 0.131561 0.000000 0.079882
# 5 -0.011049 0.008683 0.013996 0.000000 0.061664 0.000000
# 6 0.000000 0.000000 0.000000 0.079882 0.000000 0.233243
#
#
# Mechanical properties :
#
#
# Convention : Reuss Voigt Hill
#
# Bulk Modulus (GPa) = 41.03797 49.20486 45.12142
# Shear Modulus (GPa) = 9.66587 17.88674 13.77630
#
# Velocity S-wave (km/s) = 2.39182 3.25367 2.85545
# Velocity P-wave (km/s) = 5.64946 6.57552 6.13000
#
# Compressibility (1/GPa) = 0.02436768
#
# Stress axis : x y z
#
# Youngs Moduli (GPa) = 60.05374 62.34665 47.98474
#
# Poissons Ratio (x) = 0.51233 0.35511
# Poissons Ratio (y) = 0.49349 -0.04973
# Poissons Ratio (z) = 0.44443 -0.06461
#
# Static dielectric constant tensor:
#      x y z
#    x 1.518350 0.000000 -0.029910 
#    y 0.000000 1.586010 0.000000 
#    z -0.029910 0.000000 1.543380 
# 
# From -- ./inp_files/37687.got.cif
#   From: 2010.05.17/outbox.cif.g08.bks.cpg/sg10_19_cif.got.tgz:37687.got - 2010.06.03 11:33:40.
