data_PCOD9146676
_publ_section_title
;
Structure prediction by ZEFSAII (Michael W. Deem and Ramdas Pophale) SiO2 
 PCOD9146676
Probable space group: P 2/M
;
_chemical_formula_sum "Si O2"
_cell_formula_units_Z 32
_cell_length_a 9.175633
_cell_length_b 19.400034
_cell_length_c 11.739219
_cell_angle_alpha 90.000000
_cell_angle_beta 44.389061
_cell_angle_gamma 90.000000
_cell_volume 1461.780494
_symmetry_space_group_name_H-M "P 2/M"
_symmetry_group_IT_number 10
_symmetry_cell_setting 'monoclinic'
loop_
_space_group_symop_operation_xyz
x,y,z
-x,y,-z
-x,-y,-z
x,-y,z
loop_
_atom_site_type_symbol
_atom_site_label
_atom_site_fract_x
_atom_site_fract_y
_atom_site_fract_z
Si Si1 0.973642 0.077740 0.883189
Si Si2 0.909982 0.872578 0.675160
Si Si3 0.202451 0.688882 0.092311
Si Si4 0.593756 0.220579 0.198903
Si Si5 0.281048 0.691161 0.681435
Si Si6 0.751281 0.576930 0.123941
Si Si7 0.198460 0.283089 0.331120
Si Si8 0.504933 0.925420 0.805229
O O1 0.026532 0.111382 0.729685
O O2 0.066026 0.000000 0.834854
O O3 0.724685 0.071856 0.015479
O O4 0.000000 0.106414 0.000000
O O5 0.877829 0.790715 0.677543
O O6 0.683885 0.908221 0.795443
O O7 0.000000 0.895232 0.500000
O O8 0.282350 0.678474 0.174659
O O9 0.948789 0.687939 0.244710
O O10 0.291346 0.759416 0.984238
O O11 0.271884 0.627911 0.969763
O O12 0.743458 0.248603 0.211396
O O13 0.382729 0.265797 0.313977
O O14 0.514858 0.143183 0.259989
O O15 0.500000 0.707820 0.500000
O O16 0.320738 0.619311 0.725514
O O17 0.664433 0.500000 0.160705
O O18 0.000000 0.571452 0.000000
O O19 0.000000 0.316805 0.500000
O O20 0.548362 0.000000 0.726948
#
# Coordination Sequence:
#
# PCOD9146676 Si02
#       8
#     4   4   4   4   4   4   4   4
#     4  10  21  36  53  75 103 135 174 224 282 341
#     4  10  21  37  59  83 107 142 186 235 290 348
#     4  10  19  33  57  82 108 146 185 223 272 330
#     4  10  20  35  54  77 107 142 184 234 282 334
#     4  10  20  34  56  85 113 145 184 228 278 329
#     4   8  16  32  54  83 116 148 184 222 262 316
#     4  10  20  34  53  79 109 141 183 235 285 330
#     4  10  21  37  57  79 105 144 192 237 286 349
#
# _framework density 21.891110999999999
#
# number of rings (size 3 to 8) (size 9 to 14) (size 15 to 20)
#    0.000    2.250    0.000    3.750    0.000    6.250 
#    0.000    1.250    0.000   10.500    0.000    0.000 
#    0.000    0.000    0.000    0.000    0.000    0.000 
#
# Total GULP energy -178199.638283 kJ/mol
# GULP energy per Si atom -5568.738696 kJ/mol
# Density = 2.184129 g / cm^3
# Si number density = 21.891111 Si / 1000 Ang^3
#
#
#
# Elastic Constant Matrix: (Units=GPa)
#
#
# Indices 1 2 3 4 5 6 
#
# 1 85.0684 26.1418 25.2232 0.0000 17.8651 0.0000
# 2 26.1418 91.7064 -8.2377 0.0000 9.8340 0.0000
# 3 25.2232 -8.2377 81.6492 0.0000 3.5326 0.0000
# 4 0.0000 0.0000 0.0000 12.5796 0.0000 -3.3840
# 5 17.8651 9.8340 3.5326 0.0000 35.7821 0.0000
# 6 0.0000 0.0000 0.0000 -3.3840 0.0000 19.3896
#
#
#
# Elastic Compliance Matrix: (Units=1/GPa)
#
#
# Indices 1 2 3 4 5 6 
#
# 1 0.015900 -0.004318 -0.005077 0.000000 -0.006251 0.000000
# 2 -0.004318 0.012542 0.002667 0.000000 -0.001554 0.000000
# 3 -0.005077 0.002667 0.014067 0.000000 0.000413 0.000000
# 4 0.000000 0.000000 0.000000 0.083410 0.000000 0.014557
# 5 -0.006251 -0.001554 0.000413 0.000000 0.031454 0.000000
# 6 0.000000 0.000000 0.000000 0.014557 0.000000 0.054115
#
#
# Mechanical properties :
#
#
# Convention : Reuss Voigt Hill
#
# Bulk Modulus (GPa) = 34.42211 38.29762 36.35987
# Shear Modulus (GPa) = 21.31022 27.90335 24.60679
#
# Velocity S-wave (km/s) = 3.12342 3.57409 3.35633
# Velocity P-wave (km/s) = 5.36340 5.87918 5.62720
#
# Compressibility (1/GPa) = 0.02905110
#
# Stress axis : x y z
#
# Youngs Moduli (GPa) = 62.89148 79.73503 71.08760
#
# Poissons Ratio (x) = 0.34433 0.36093
# Poissons Ratio (y) = 0.27159 -0.18956
# Poissons Ratio (z) = 0.31931 -0.21262
#
# Static dielectric constant tensor:
#      x y z
#    x 1.819260 0.000000 0.017280 
#    y 0.000000 1.859660 0.000000 
#    z 0.017280 0.000000 1.861820 
# 
# From -- ./inp_files/43583.got.cif
#   From: 2010.05.17/outbox.cif.g08.bks.cpg/sg10_22_cif.got.tgz:43583.got - 2010.06.03 11:33:40.
