data_PCOD9146700
_publ_section_title
;
Structure prediction by ZEFSAII (Michael W. Deem and Ramdas Pophale) SiO2 
 PCOD9146700
Probable space group: P 2/M
;
_chemical_formula_sum "Si O2"
_cell_formula_units_Z 24
_cell_length_a 12.422673
_cell_length_b 8.931557
_cell_length_c 11.693849
_cell_angle_alpha 90.000000
_cell_angle_beta 111.132884
_cell_angle_gamma 90.000000
_cell_volume 1210.217592
_symmetry_space_group_name_H-M "P 2/M"
_symmetry_group_IT_number 10
_symmetry_cell_setting 'monoclinic'
loop_
_space_group_symop_operation_xyz
x,y,z
-x,y,-z
-x,-y,-z
x,-y,z
loop_
_atom_site_type_symbol
_atom_site_label
_atom_site_fract_x
_atom_site_fract_y
_atom_site_fract_z
Si Si1 0.177763 0.680080 0.305727
Si Si2 0.046448 0.680227 0.643883
Si Si3 0.475983 0.823404 0.809544
Si Si4 0.748346 0.821014 0.147468
Si Si5 0.384305 0.823364 0.520542
Si Si6 0.726416 0.679155 0.902601
O O1 0.181331 0.500000 0.308460
O O2 0.274087 0.739121 0.429953
O O3 0.211369 0.729133 0.190654
O O4 0.052208 0.724820 0.302884
O O5 0.061441 0.500000 0.653121
O O6 0.164684 0.758133 0.724561
O O7 0.000000 0.719131 0.500000
O O8 0.383645 0.779972 0.870659
O O9 0.408474 0.807195 0.663754
O O10 0.593190 0.731056 0.847623
O O11 0.505532 0.000000 0.835155
O O12 0.754184 0.000000 0.147152
O O13 0.778275 0.751760 0.036388
O O14 0.500000 0.770954 0.500000
O O15 0.370173 0.000000 0.489866
O O16 0.733443 0.500000 0.912883
#
# Coordination Sequence:
#
# PCOD9146700 Si02
#       6
#     4   4   4   4   4   4
#     4  10  22  38  58  87 119 152 191 239 288 336
#     4  10  22  42  65  87 115 150 190 237 288 343
#     4  10  21  38  58  85 120 153 190 239 290 339
#     4  11  24  40  60  85 116 154 195 239 286 339
#     4  10  19  33  57  86 116 150 187 231 285 343
#     4  11  23  38  58  85 118 154 194 238 286 342
#
# _framework density 19.831144999999999
#
# number of rings (size 3 to 8) (size 9 to 14) (size 15 to 20)
#    0.000    1.667    1.667    2.500    0.000    6.667 
#    0.000    3.333    0.000    0.000    0.000    0.000 
#    0.000    0.000    0.000    0.000    0.000    0.000 
#
# Total GULP energy -134145.632176 kJ/mol
# GULP energy per Si atom -5589.401341 kJ/mol
# Density = 1.978601 g / cm^3
# Si number density = 19.831145 Si / 1000 Ang^3
#
#
#
# Elastic Constant Matrix: (Units=GPa)
#
#
# Indices 1 2 3 4 5 6 
#
# 1 100.2220 30.9171 33.0015 0.0000 -7.8092 0.0000
# 2 30.9171 25.1270 27.8376 0.0000 -3.4663 0.0000
# 3 33.0015 27.8376 83.0588 0.0000 -5.5023 0.0000
# 4 0.0000 0.0000 0.0000 41.9652 0.0000 9.3291
# 5 -7.8092 -3.4663 -5.5023 0.0000 30.6660 0.0000
# 6 0.0000 0.0000 0.0000 9.3291 0.0000 24.1015
#
#
#
# Elastic Compliance Matrix: (Units=1/GPa)
#
#
# Indices 1 2 3 4 5 6 
#
# 1 0.016201 -0.020166 0.000449 0.000000 0.001927 0.000000
# 2 -0.020166 0.088755 -0.021667 0.000000 0.001009 0.000000
# 3 0.000449 -0.021667 0.019197 0.000000 0.001110 0.000000
# 4 0.000000 0.000000 0.000000 0.026073 0.000000 -0.010092
# 5 0.001927 0.001009 0.001110 0.000000 0.033413 0.000000
# 6 0.000000 0.000000 0.000000 -0.010092 0.000000 0.045398
#
#
# Mechanical properties :
#
#
# Convention : Reuss Voigt Hill
#
# Bulk Modulus (GPa) = 24.16390 43.54669 33.85530
# Shear Modulus (GPa) = 15.35634 27.12332 21.23983
#
# Velocity S-wave (km/s) = 2.78574 3.70227 3.27622
# Velocity P-wave (km/s) = 4.74957 6.34682 5.60538
#
# Compressibility (1/GPa) = 0.04138404
#
# Stress axis : x y z
#
# Youngs Moduli (GPa) = 61.72457 11.26703 52.09282
#
# Poissons Ratio (x) = 0.22721 -0.02341
# Poissons Ratio (y) = 1.24475 1.12870
# Poissons Ratio (z) = -0.02774 0.24412
#
# Static dielectric constant tensor:
#      x y z
#    x 1.697680 0.000000 -0.025160 
#    y 0.000000 1.661450 0.000000 
#    z -0.025160 0.000000 1.699440 
# 
# From -- ./inp_files/45322.got.cif
#   From: 2010.05.17/outbox.cif.g08.bks.cpg/sg10_23_cif.got.tgz:45322.got - 2010.06.03 11:33:40.
