data_PCOD9146814
_publ_section_title
;
Structure prediction by ZEFSAII (Michael W. Deem and Ramdas Pophale) SiO2 
 PCOD9146814
Probable space group: P 2/M
;
_chemical_formula_sum "Si O2"
_cell_formula_units_Z 30
_cell_length_a 11.317702
_cell_length_b 8.338301
_cell_length_c 25.927449
_cell_angle_alpha 90.000000
_cell_angle_beta 40.137678
_cell_angle_gamma 90.000000
_cell_volume 1577.261749
_symmetry_space_group_name_H-M "P 2/M"
_symmetry_group_IT_number 10
_symmetry_cell_setting 'monoclinic'
loop_
_space_group_symop_operation_xyz
x,y,z
-x,y,-z
-x,-y,-z
x,-y,z
loop_
_atom_site_type_symbol
_atom_site_label
_atom_site_fract_x
_atom_site_fract_y
_atom_site_fract_z
Si Si1 0.165157 0.689823 0.554667
Si Si2 0.323246 0.816381 0.400842
Si Si3 0.328869 0.678243 0.666579
Si Si4 0.592685 0.194315 0.844502
Si Si5 0.921335 0.194770 0.811119
Si Si6 0.328903 0.186245 0.016948
Si Si7 0.500000 0.257730 0.500000
Si Si8 0.747208 0.308979 0.689445
O O1 0.195508 0.500000 0.558080
O O2 0.207013 0.710714 0.480040
O O3 0.310750 0.801538 0.536426
O O4 0.956364 0.733507 0.635045
O O5 0.534266 0.790211 0.347067
O O6 0.295351 0.767529 0.351388
O O7 0.269086 0.000000 0.426400
O O8 0.336118 0.500000 0.686682
O O9 0.411268 0.669530 0.581366
O O10 0.122434 0.739869 0.733852
O O11 0.774044 0.242599 0.816551
O O12 0.614555 0.253695 0.779356
O O13 0.587409 0.000000 0.846881
O O14 0.415394 0.254782 0.935724
O O15 0.838971 0.253356 0.893685
O O16 0.925333 0.000000 0.810596
O O17 0.283516 0.000000 0.021600
O O18 0.500000 0.185973 0.000000
O O19 0.740566 0.500000 0.686231
#
# Coordination Sequence:
#
# PCOD9146814 Si02
#       8
#     4   4   4   4   4   4   2   4
#     4  10  20  35  54  75 103 138 171 204 250 306
#     4  11  23  38  54  72  96 131 177 223 261 298
#     4  11  21  35  54  75 103 138 173 209 256 309
#     4   9  17  30  51  79 108 138 171 209 251 296
#     4   9  17  31  52  79 108 137 172 209 249 302
#     4   7  12  26  48  73 104 139 169 201 247 301
#     4  10  19  34  53  74 103 138 169 198 241 302
#     4  11  22  35  52  75 104 138 174 212 257 306
#
# _framework density 19.020303999999999
#
# number of rings (size 3 to 8) (size 9 to 14) (size 15 to 20)
#    0.000    2.267    0.000    6.800    0.000    4.267 
#    0.000   10.333    0.000    3.200    0.000    5.600 
#    0.000    0.000    0.000    0.000    0.000    0.000 
#
# Total GULP energy -167094.109100 kJ/mol
# GULP energy per Si atom -5569.803637 kJ/mol
# Density = 1.897701 g / cm^3
# Si number density = 19.020304 Si / 1000 Ang^3
#
#
#
# Elastic Constant Matrix: (Units=GPa)
#
#
# Indices 1 2 3 4 5 6 
#
# 1 60.7880 12.3211 35.6198 0.0000 12.1495 0.0000
# 2 12.3211 31.6061 5.6208 0.0000 0.2474 0.0000
# 3 35.6198 5.6208 101.3129 0.0000 2.1334 0.0000
# 4 0.0000 0.0000 0.0000 10.3653 0.0000 -2.2019
# 5 12.1495 0.2474 2.1334 0.0000 28.7132 0.0000
# 6 0.0000 0.0000 0.0000 -2.2019 0.0000 16.8863
#
#
#
# Elastic Compliance Matrix: (Units=1/GPa)
#
#
# Indices 1 2 3 4 5 6 
#
# 1 0.024786 -0.008153 -0.008055 0.000000 -0.009819 0.000000
# 2 -0.008153 0.034637 0.000880 0.000000 0.003086 0.000000
# 3 -0.008055 0.000880 0.012602 0.000000 0.002464 0.000000
# 4 0.000000 0.000000 0.000000 0.099224 0.000000 0.012939
# 5 -0.009819 0.003086 0.002464 0.000000 0.038772 0.000000
# 6 0.000000 0.000000 0.000000 0.012939 0.000000 0.060907
#
#
# Mechanical properties :
#
#
# Convention : Reuss Voigt Hill
#
# Bulk Modulus (GPa) = 24.17327 33.42560 28.79944
# Shear Modulus (GPa) = 15.85422 20.53598 18.19510
#
# Velocity S-wave (km/s) = 2.89024 3.28942 3.09627
# Velocity P-wave (km/s) = 4.88618 5.66029 5.28742
#
# Compressibility (1/GPa) = 0.04136800
#
# Stress axis : x y z
#
# Youngs Moduli (GPa) = 40.34597 28.87077 79.35419
#
# Poissons Ratio (x) = 0.23538 0.63921
# Poissons Ratio (y) = 0.32894 -0.06981
# Poissons Ratio (z) = 0.32499 -0.02540
#
# Static dielectric constant tensor:
#      x y z
#    x 1.653020 0.000000 -0.000630 
#    y 0.000000 1.671780 0.000000 
#    z -0.000630 0.000000 1.674500 
# 
# From -- ./inp_files/88694.got.cif
#   From: 2010.05.17/outbox.cif.g08.bks.cpg/sg10_45_cif.got.tgz:88694.got - 2010.06.03 11:33:40.
