data_PCOD9146982
_publ_section_title
;
Structure prediction by ZEFSAII (Michael W. Deem and Ramdas Pophale) SiO2 
 PCOD9146982
Probable space group: P 2/M
;
_chemical_formula_sum "Si O2"
_cell_formula_units_Z 30
_cell_length_a 9.256305
_cell_length_b 18.765909
_cell_length_c 10.776839
_cell_angle_alpha 90.000000
_cell_angle_beta 134.073253
_cell_angle_gamma 90.000000
_cell_volume 1344.918179
_symmetry_space_group_name_H-M "P 2/M"
_symmetry_group_IT_number 10
_symmetry_cell_setting 'monoclinic'
loop_
_space_group_symop_operation_xyz
x,y,z
-x,y,-z
-x,-y,-z
x,-y,z
loop_
_atom_site_type_symbol
_atom_site_label
_atom_site_fract_x
_atom_site_fract_y
_atom_site_fract_z
Si Si1 0.172231 0.214978 0.809340
Si Si2 0.000000 0.311610 0.500000
Si Si3 0.325412 0.640899 0.990417
Si Si4 0.224671 0.081929 0.689480
Si Si5 0.437350 0.922221 0.318495
Si Si6 0.901912 0.419908 0.636778
Si Si7 0.769723 0.632942 0.804662
Si Si8 0.167716 0.211429 0.203349
O O1 0.288525 0.272532 0.965084
O O2 0.261880 0.140023 0.819224
O O3 0.137210 0.261063 0.665003
O O4 0.955747 0.200474 0.743467
O O5 0.867423 0.362228 0.509094
O O6 0.123413 0.603592 0.818729
O O7 0.500000 0.624066 0.000000
O O8 0.360556 0.616557 0.152307
O O9 0.380422 0.088918 0.668617
O O10 0.000000 0.093154 0.500000
O O11 0.235900 0.000000 0.741758
O O12 0.500000 0.925969 0.500000
O O13 0.295166 0.854655 0.233763
O O14 0.345568 0.000000 0.232441
O O15 0.900491 0.500000 0.589100
O O16 0.766818 0.413374 0.679312
O O17 0.723669 0.712782 0.729944
O O18 0.000000 0.630080 0.000000
O O19 0.000000 0.220202 0.000000
#
# Coordination Sequence:
#
# PCOD9146982 Si02
#       8
#     4   2   4   4   4   4   4   4
#     4  11  20  34  59  82 117 156 194 247 301 352
#     4  10  19  34  55  90 114 142 204 236 289 368
#     4  10  21  35  56  85 117 150 196 247 293 361
#     4  10  21  37  57  84 118 157 202 249 299 358
#     4  10  23  39  57  87 121 157 205 253 305 368
#     4  10  20  36  60  84 115 152 189 243 299 360
#     4   9  17  36  55  83 110 148 197 238 287 360
#     4  11  20  38  61  85 118 158 203 257 301 356
#
# _framework density 22.306190000000001
#
# number of rings (size 3 to 8) (size 9 to 14) (size 15 to 20)
#    0.000    1.867    6.000    1.000    1.867    4.533 
#    0.000    0.000    0.000    2.000    0.000    4.667 
#    0.000    0.000    0.000    0.000    0.000    0.000 
#
# Total GULP energy -167469.229143 kJ/mol
# GULP energy per Si atom -5582.307638 kJ/mol
# Density = 2.225542 g / cm^3
# Si number density = 22.306190 Si / 1000 Ang^3
#
#
#
# Elastic Constant Matrix: (Units=GPa)
#
#
# Indices 1 2 3 4 5 6 
#
# 1 139.9076 29.9459 15.7415 0.0000 -27.7577 0.0000
# 2 29.9459 108.7387 7.5078 0.0000 -7.8254 0.0000
# 3 15.7415 7.5078 23.3259 0.0000 -13.5681 0.0000
# 4 0.0000 0.0000 0.0000 5.5168 0.0000 -7.3108
# 5 -27.7577 -7.8254 -13.5681 0.0000 29.4807 0.0000
# 6 0.0000 0.0000 0.0000 -7.3108 0.0000 29.7708
#
#
#
# Elastic Compliance Matrix: (Units=1/GPa)
#
#
# Indices 1 2 3 4 5 6 
#
# 1 0.009198 -0.001904 -0.001162 0.000000 0.007620 0.000000
# 2 -0.001904 0.009849 -0.001922 0.000000 -0.000063 0.000000
# 3 -0.001162 -0.001922 0.059185 0.000000 0.025635 0.000000
# 4 0.000000 0.000000 0.000000 0.268709 0.000000 0.065987
# 5 0.007620 -0.000063 0.025635 0.000000 0.052876 0.000000
# 6 0.000000 0.000000 0.000000 0.065987 0.000000 0.049794
#
#
# Mechanical properties :
#
#
# Convention : Reuss Voigt Hill
#
# Bulk Modulus (GPa) = 14.65075 42.04030 28.34552
# Shear Modulus (GPa) = 10.36616 27.53879 18.95247
#
# Velocity S-wave (km/s) = 2.15808 3.51747 2.91804
# Velocity P-wave (km/s) = 3.57659 5.94850 4.90799
#
# Compressibility (1/GPa) = 0.06825588
#
# Stress axis : x y z
#
# Youngs Moduli (GPa) = 108.72276 101.53370 16.89624
#
# Poissons Ratio (x) = 0.19336 0.01963
# Poissons Ratio (y) = 0.20705 0.03247
# Poissons Ratio (z) = 0.12631 0.19510
#
# Static dielectric constant tensor:
#      x y z
#    x 1.868810 0.000000 0.014250 
#    y 0.000000 1.856220 0.000000 
#    z 0.014250 0.000000 1.849520 
# 
# From -- ./inp_files/43421.got.cif
#   From: 2010.05.17/outbox.cif.g08.bks.cpg/sg10_22_cif.got.tgz:43421.got - 2010.06.03 11:33:40.
