data_PCOD9146206
_publ_section_title
;
Structure prediction by ZEFSAII (Michael W. Deem and Ramdas Pophale) SiO2 
 PCOD9146206
Probable space group: P 2/M
;
_chemical_formula_sum "Si O2"
_cell_formula_units_Z 28
_cell_length_a 11.542850
_cell_length_b 7.544942
_cell_length_c 20.368949
_cell_angle_alpha 90.000000
_cell_angle_beta 48.343839
_cell_angle_gamma 90.000000
_cell_volume 1325.389754
_symmetry_space_group_name_H-M "P 2/M"
_symmetry_group_IT_number 10
_symmetry_cell_setting 'monoclinic'
loop_
_space_group_symop_operation_xyz
x,y,z
-x,y,-z
-x,-y,-z
x,-y,z
loop_
_atom_site_type_symbol
_atom_site_label
_atom_site_fract_x
_atom_site_fract_y
_atom_site_fract_z
Si Si1 0.167060 0.300465 0.950077
Si Si2 0.617681 0.712069 0.899378
Si Si3 0.780491 0.714588 0.285111
Si Si4 0.558285 0.283277 0.638213
Si Si5 0.506946 0.282331 0.799503
Si Si6 0.115570 0.797830 0.110069
Si Si7 0.322342 0.707335 0.540049
O O1 0.157596 0.500000 0.924873
O O2 0.178743 0.310223 0.024413
O O3 0.327302 0.222439 0.864499
O O4 0.000000 0.213842 0.000000
O O5 0.598999 0.500000 0.904270
O O6 0.579627 0.777975 0.840813
O O7 0.789194 0.751290 0.860760
O O8 0.500000 0.780178 0.000000
O O9 0.779575 0.500000 0.286912
O O10 0.618708 0.768689 0.312783
O O11 0.777363 0.780564 0.361987
O O12 0.933756 0.770653 0.189679
O O13 0.561617 0.500000 0.634566
O O14 0.590530 0.229592 0.700656
O O15 0.667104 0.219044 0.537602
O O16 0.503181 0.500000 0.802113
O O17 0.146379 0.000000 0.081517
O O18 0.500000 0.713145 0.500000
O O19 0.279802 0.500000 0.550110
#
# Coordination Sequence:
#
# PCOD9146206 Si02
#       7
#     4   4   4   4   4   4   4
#     4  10  19  33  53  75  99 128 160 193 239 296
#     4  10  19  35  54  68  89 123 171 214 243 285
#     4   9  16  29  50  74 101 131 160 191 237 296
#     4   8  13  24  47  80 105 119 149 197 248 293
#     4   9  16  27  47  73  96 121 154 200 245 285
#     4  12  24  34  47  69 100 132 166 206 244 284
#     4   7  11  21  42  73 103 125 148 189 240 290
#
# _framework density 21.125859999999999
#
# number of rings (size 3 to 8) (size 9 to 14) (size 15 to 20)
#    0.000    2.714    1.429    3.857    0.000    2.857 
#    0.000    0.000    0.000    5.571    0.000    6.000 
#    0.000    0.000    0.000    0.000    0.000    0.000 
#
# Total GULP energy -156154.053010 kJ/mol
# GULP energy per Si atom -5576.930465 kJ/mol
# Density = 2.107778 g / cm^3
# Si number density = 21.125860 Si / 1000 Ang^3
#
#
#
# Elastic Constant Matrix: (Units=GPa)
#
#
# Indices 1 2 3 4 5 6 
#
# 1 61.5110 2.1274 2.3161 0.0000 28.7209 0.0000
# 2 2.1274 56.7779 5.0389 0.0000 8.0916 0.0000
# 3 2.3161 5.0389 87.8418 0.0000 36.1576 0.0000
# 4 0.0000 0.0000 0.0000 -12.6132 0.0000 -32.1936
# 5 28.7209 8.0916 36.1576 0.0000 35.2163 0.0000
# 6 0.0000 0.0000 0.0000 -32.1936 0.0000 34.7949
#
#
#
# Elastic Compliance Matrix: (Units=1/GPa)
#
#
# Indices 1 2 3 4 5 6 
#
# 1 0.043818 0.004984 0.023797 0.000000 -0.061315 0.000000
# 2 0.004984 0.018846 0.003885 0.000000 -0.012384 0.000000
# 3 0.023797 0.003885 0.032717 0.000000 -0.053892 0.000000
# 4 0.000000 0.000000 0.000000 -0.023585 0.000000 -0.021822
# 5 -0.061315 -0.012384 -0.053892 0.000000 0.136580 0.000000
# 6 0.000000 0.000000 0.000000 -0.021822 0.000000 0.008550
#
#
# Mechanical properties :
#
#
# Convention : Reuss Voigt Hill
#
# Bulk Modulus (GPa) = 6.22221 25.01062 15.61641
# Shear Modulus (GPa) = 24.37077 24.58947 24.48012
#
# Velocity S-wave (km/s) = 3.40015 3.41537 3.40777
# Velocity P-wave (km/s) = 4.28560 5.23618 4.78456
#
# Compressibility (1/GPa) = 0.16071465
#
# Stress axis : x y z
#
# Youngs Moduli (GPa) = 22.82156 53.06210 30.56516
#
# Poissons Ratio (x) = -0.26448 -0.72737
# Poissons Ratio (y) = -0.11375 -0.11875
# Poissons Ratio (z) = -0.54309 -0.20615
#
# Static dielectric constant tensor:
#      x y z
#    x 1.768790 0.000000 0.048190 
#    y 0.000000 1.825870 0.000000 
#    z 0.048190 0.000000 1.770460 
# 
# From -- ./inp_files/83308.got.cif
#   From: 2010.05.17/outbox.cif.g08.bks.cpg/sg10_42_cif.got.tgz:83308.got - 2010.06.03 11:33:40.
