data_PCOD9146918
_publ_section_title
;
Structure prediction by ZEFSAII (Michael W. Deem and Ramdas Pophale) SiO2 
 PCOD9146918
Probable space group: P 2/M
;
_chemical_formula_sum "Si O2"
_cell_formula_units_Z 28
_cell_length_a 17.414140
_cell_length_b 8.510707
_cell_length_c 15.608664
_cell_angle_alpha 90.000000
_cell_angle_beta 45.489600
_cell_angle_gamma 90.000000
_cell_volume 1649.673416
_symmetry_space_group_name_H-M "P 2/M"
_symmetry_group_IT_number 10
_symmetry_cell_setting 'monoclinic'
loop_
_space_group_symop_operation_xyz
x,y,z
-x,y,-z
-x,-y,-z
x,-y,z
loop_
_atom_site_type_symbol
_atom_site_label
_atom_site_fract_x
_atom_site_fract_y
_atom_site_fract_z
Si Si1 0.898947 0.187902 0.386084
Si Si2 0.240082 0.811850 0.344659
Si Si3 0.132929 0.311503 0.257046
Si Si4 0.475705 0.690024 0.117387
Si Si5 0.912967 0.689702 0.189377
Si Si6 0.153341 0.308796 0.943254
Si Si7 0.302106 0.691642 0.977360
O O1 0.812962 0.241152 0.524494
O O2 0.874217 0.244086 0.309540
O O3 0.016095 0.251660 0.321155
O O4 0.902891 0.000000 0.384193
O O5 0.169087 0.749356 0.321179
O O6 0.361601 0.753997 0.236922
O O7 0.238361 0.000000 0.343595
O O8 0.131591 0.500000 0.259057
O O9 0.221891 0.261618 0.117087
O O10 0.470677 0.500000 0.122759
O O11 0.577078 0.742237 0.095476
O O12 0.500000 0.736095 0.000000
O O13 0.910191 0.500000 0.195422
O O14 0.849218 0.741204 0.153828
O O15 0.038180 0.734795 0.075143
O O16 0.154935 0.500000 0.941275
O O17 0.249511 0.254914 0.929245
O O18 0.302786 0.500000 0.976101
#
# Coordination Sequence:
#
# PCOD9146918 Si02
#       7
#     4   4   4   4   4   4   4
#     4  11  23  36  49  72 109 144 172 209 258 307
#     4  11  24  38  50  70 106 145 176 211 256 305
#     4  11  20  34  56  79 103 135 173 211 255 307
#     4  10  19  34  55  78 101 131 175 220 256 297
#     4   9  16  29  53  78 101 133 172 208 252 313
#     4   8  14  27  50  80 106 129 162 210 264 307
#     4   9  16  29  52  79 107 130 158 211 265 301
#
# _framework density 16.973056
#
# number of rings (size 3 to 8) (size 9 to 14) (size 15 to 20)
#    0.000    2.143    2.857    2.571    0.000    4.286 
#    0.000    1.429    0.000    0.857    0.000    6.000 
#    0.000    0.000    0.000    0.000    0.000    0.000 
#
# Total GULP energy -156216.752047 kJ/mol
# GULP energy per Si atom -5579.169716 kJ/mol
# Density = 1.693442 g / cm^3
# Si number density = 16.973056 Si / 1000 Ang^3
#
#
#
# Elastic Constant Matrix: (Units=GPa)
#
#
# Indices 1 2 3 4 5 6 
#
# 1 135.8879 21.6546 66.7896 0.0000 28.4814 0.0000
# 2 21.6546 17.5066 23.6789 0.0000 3.1189 0.0000
# 3 66.7896 23.6789 120.7885 0.0000 20.4412 0.0000
# 4 0.0000 0.0000 0.0000 27.6136 0.0000 3.7445
# 5 28.4814 3.1189 20.4412 0.0000 24.3601 0.0000
# 6 0.0000 0.0000 0.0000 3.7445 0.0000 5.2985
#
#
#
# Elastic Compliance Matrix: (Units=1/GPa)
#
#
# Indices 1 2 3 4 5 6 
#
# 1 0.012803 -0.009274 -0.003414 0.000000 -0.010917 0.000000
# 2 -0.009274 0.084679 -0.013371 0.000000 0.011222 0.000000
# 3 -0.003414 -0.013371 0.013779 0.000000 -0.005859 0.000000
# 4 0.000000 0.000000 0.000000 0.040052 0.000000 -0.028306
# 5 -0.010917 0.011222 -0.005859 0.000000 0.057295 0.000000
# 6 0.000000 0.000000 0.000000 -0.028306 0.000000 0.208738
#
#
# Mechanical properties :
#
#
# Convention : Reuss Voigt Hill
#
# Bulk Modulus (GPa) = 16.90812 55.38102 36.14457
# Shear Modulus (GPa) = 10.22121 22.25844 16.23983
#
# Velocity S-wave (km/s) = 2.45664 3.62525 3.09657
# Velocity P-wave (km/s) = 4.24619 7.08681 5.84179
#
# Compressibility (1/GPa) = 0.05914317
#
# Stress axis : x y z
#
# Youngs Moduli (GPa) = 78.10702 11.80934 72.57241
#
# Poissons Ratio (x) = 0.10952 0.24775
# Poissons Ratio (y) = 0.72438 0.97036
# Poissons Ratio (z) = 0.26664 0.15790
#
# Static dielectric constant tensor:
#      x y z
#    x 1.577100 0.000000 0.014940 
#    y 0.000000 1.580000 0.000000 
#    z 0.014940 0.000000 1.556440 
# 
# From -- ./inp_files/68560.got.cif
#   From: 2010.05.17/outbox.cif.g08.bks.cpg/sg10_35_cif.got.tgz:68560.got - 2010.06.03 11:33:40.
