data_PCOD9146444
_publ_section_title
;
Structure prediction by ZEFSAII (Michael W. Deem and Ramdas Pophale) SiO2 
 PCOD9146444
Probable space group: P 2/M
;
_chemical_formula_sum "Si O2"
_cell_formula_units_Z 28
_cell_length_a 11.984100
_cell_length_b 7.485111
_cell_length_c 15.590647
_cell_angle_alpha 90.000000
_cell_angle_beta 65.300150
_cell_angle_gamma 90.000000
_cell_volume 1270.565830
_symmetry_space_group_name_H-M "P 2/M"
_symmetry_group_IT_number 10
_symmetry_cell_setting 'monoclinic'
loop_
_space_group_symop_operation_xyz
x,y,z
-x,y,-z
-x,-y,-z
x,-y,z
loop_
_atom_site_type_symbol
_atom_site_label
_atom_site_fract_x
_atom_site_fract_y
_atom_site_fract_z
Si Si1 0.637474 0.781427 0.972953
Si Si2 0.522487 0.782151 0.358895
Si Si3 0.943459 0.218173 0.109890
Si Si4 0.018713 0.708577 0.589217
Si Si5 0.299549 0.215506 0.543777
Si Si6 0.874035 0.210265 0.803105
Si Si7 0.674931 0.782234 0.155687
O O1 0.739657 0.720619 0.871956
O O2 0.634219 0.000000 0.972579
O O3 0.500000 0.719748 0.000000
O O4 0.673869 0.726703 0.057437
O O5 0.628853 0.728580 0.392632
O O6 0.390641 0.725052 0.437779
O O7 0.562367 0.724362 0.251591
O O8 0.520622 0.000000 0.360305
O O9 0.802382 0.274083 0.157994
O O10 0.025395 0.283594 0.162250
O O11 0.943126 0.000000 0.111875
O O12 0.000000 0.269491 0.000000
O O13 0.993311 0.500000 0.591017
O O14 0.159057 0.730680 0.576063
O O15 0.000000 0.787570 0.500000
O O16 0.924176 0.774406 0.691371
O O17 0.298704 0.000000 0.545560
O O18 0.867851 0.000000 0.823692
O O19 0.673344 0.000000 0.155177
#
# Coordination Sequence:
#
# PCOD9146444 Si02
#       7
#     4   4   4   4   4   4   4
#     4   9  17  27  41  70 109 136 160 200 250 305
#     4   8  15  27  49  81 113 138 162 209 270 319
#     4   9  14  23  44  76 107 132 162 201 245 297
#     4  11  25  41  54  71 101 142 185 227 273 318
#     4   9  17  33  55  81 107 132 172 220 267 318
#     4  10  19  33  55  80 102 131 173 218 261 310
#     4   9  14  22  38  66 105 140 162 190 244 304
#
# _framework density 22.037426
#
# number of rings (size 3 to 8) (size 9 to 14) (size 15 to 20)
#    0.000    2.714    1.429    2.143    0.000    4.571 
#    0.000    4.286    0.000    0.857    0.000    1.000 
#    0.000    0.000    0.000    0.000    0.000    0.000 
#
# Total GULP energy -156286.737057 kJ/mol
# GULP energy per Si atom -5581.669181 kJ/mol
# Density = 2.198727 g / cm^3
# Si number density = 22.037426 Si / 1000 Ang^3
#
#
#
# Elastic Constant Matrix: (Units=GPa)
#
#
# Indices 1 2 3 4 5 6 
#
# 1 119.9386 -0.0700 72.0914 0.0000 -22.4388 0.0000
# 2 -0.0700 52.3697 -4.8186 0.0000 1.5515 0.0000
# 3 72.0914 -4.8186 175.1494 0.0000 -28.5989 0.0000
# 4 0.0000 0.0000 0.0000 -54.5148 0.0000 37.3905
# 5 -22.4388 1.5515 -28.5989 0.0000 30.5084 0.0000
# 6 0.0000 0.0000 0.0000 37.3905 0.0000 -17.0270
#
#
#
# Elastic Compliance Matrix: (Units=1/GPa)
#
#
# Indices 1 2 3 4 5 6 
#
# 1 0.011660 -0.000498 -0.004024 0.000000 0.004828 0.000000
# 2 -0.000498 0.019173 0.000606 0.000000 -0.000773 0.000000
# 3 -0.004024 0.000606 0.008140 0.000000 0.004640 0.000000
# 4 0.000000 0.000000 0.000000 0.036241 0.000000 0.079584
# 5 0.004828 -0.000773 0.004640 0.000000 0.040718 0.000000
# 6 0.000000 0.000000 0.000000 0.079584 0.000000 0.116032
#
#
# Mechanical properties :
#
#
# Convention : Reuss Voigt Hill
#
# Bulk Modulus (GPa) = 32.11227 53.54036 42.82631
# Shear Modulus (GPa) = 19.98590 10.47698 15.23144
#
# Velocity S-wave (km/s) = 3.01476 2.18277 2.63185
# Velocity P-wave (km/s) = 5.16930 5.54081 5.35828
#
# Compressibility (1/GPa) = 0.03114075
#
# Stress axis : x y z
#
# Youngs Moduli (GPa) = 85.76653 52.15668 122.84817
#
# Poissons Ratio (x) = 0.02596 0.49439
# Poissons Ratio (y) = 0.04269 -0.07446
# Poissons Ratio (z) = 0.34516 -0.03161
#
# Static dielectric constant tensor:
#      x y z
#    x 1.778960 0.000000 -0.004120 
#    y 0.000000 1.850300 0.000000 
#    z -0.004120 0.000000 1.813220 
# 
# From -- ./inp_files/63385.got.cif
#   From: 2010.05.17/outbox.cif.g08.bks.cpg/sg10_32_cif.got.tgz:63385.got - 2010.06.03 11:33:40.
