data_PCOD9146559
_publ_section_title
;
Structure prediction by ZEFSAII (Michael W. Deem and Ramdas Pophale) SiO2 
 PCOD9146559
Probable space group: P 2/M
;
_chemical_formula_sum "Si O2"
_cell_formula_units_Z 22
_cell_length_a 25.264009
_cell_length_b 11.773346
_cell_length_c 13.018318
_cell_angle_alpha 90.000000
_cell_angle_beta 20.657695
_cell_angle_gamma 90.000000
_cell_volume 1366.048109
_symmetry_space_group_name_H-M "P 2/M"
_symmetry_group_IT_number 10
_symmetry_cell_setting 'monoclinic'
loop_
_space_group_symop_operation_xyz
x,y,z
-x,y,-z
-x,-y,-z
x,-y,z
loop_
_atom_site_type_symbol
_atom_site_label
_atom_site_fract_x
_atom_site_fract_y
_atom_site_fract_z
Si Si1 0.922972 0.190651 0.531179
Si Si2 0.167835 0.631520 0.672382
Si Si3 0.593519 0.000000 0.578392
Si Si4 0.454741 0.225646 0.201553
Si Si5 0.745541 0.631362 0.724129
Si Si6 0.144240 0.000000 0.051991
Si Si7 0.700729 0.000000 0.010980
O O1 0.861645 0.298584 0.582394
O O2 0.783187 0.108869 0.811951
O O3 0.000000 0.219591 0.500000
O O4 0.038607 0.110924 0.257696
O O5 0.179346 0.500000 0.686179
O O6 0.298734 0.705864 0.484117
O O7 0.196118 0.632982 0.499019
O O8 0.000000 0.672482 0.000000
O O9 0.565098 0.110392 0.699574
O O10 0.757014 0.000000 0.229365
O O11 0.470833 0.000000 0.709879
O O12 0.500000 0.203639 0.000000
O O13 0.586345 0.303559 0.010098
O O14 0.729003 0.500000 0.785552
O O15 0.254689 0.000000 0.950489
#
# Coordination Sequence:
#
# PCOD9146559 Si02
#       7
#     4   4   2   4   4   2   2
#     4   9  18  35  54  77 106 133 167 216 255 303
#     4   9  19  35  54  74 102 136 171 212 255 301
#     4  12  20  32  54  79 102 139 164 218 260 298
#     4  10  21  35  51  76 108 135 176 207 250 306
#     4  10  19  33  56  77  99 138 176 208 251 303
#     4   9  21  32  53  79 102 131 179 206 257 307
#     4   9  17  36  54  73 100 140 170 210 254 311
#
# _framework density 16.104849999999999
#
# number of rings (size 3 to 8) (size 9 to 14) (size 15 to 20)
#    0.000    2.364    1.818    2.182    2.545    2.545 
#    0.000    0.455    0.000    0.000    0.000    2.545 
#    0.000    0.000    0.000    0.000    0.000    0.000 
#
# Total GULP energy -122649.897616 kJ/mol
# GULP energy per Si atom -5574.995346 kJ/mol
# Density = 1.606819 g / cm^3
# Si number density = 16.104850 Si / 1000 Ang^3
#
#
#
# Elastic Constant Matrix: (Units=GPa)
#
#
# Indices 1 2 3 4 5 6 
#
# 1 63.9276 67.0242 38.9971 0.0000 -19.2996 0.0000
# 2 67.0242 138.8559 62.8594 0.0000 -11.0242 0.0000
# 3 38.9971 62.8594 122.8679 0.0000 -14.9275 0.0000
# 4 0.0000 0.0000 0.0000 16.0456 0.0000 -4.9288
# 5 -19.2996 -11.0242 -14.9275 0.0000 20.8000 0.0000
# 6 0.0000 0.0000 0.0000 -4.9288 0.0000 20.4847
#
#
#
# Elastic Compliance Matrix: (Units=1/GPa)
#
#
# Indices 1 2 3 4 5 6 
#
# 1 0.046004 -0.019285 -0.000866 0.000000 0.031842 0.000000
# 2 -0.019285 0.017510 -0.004255 0.000000 -0.011667 0.000000
# 3 -0.000866 -0.004255 0.011195 0.000000 0.004976 0.000000
# 4 0.000000 0.000000 0.000000 0.067296 0.000000 0.016192
# 5 0.031842 -0.011667 0.004976 0.000000 0.075010 0.000000
# 6 0.000000 0.000000 0.000000 0.016192 0.000000 0.052713
#
#
# Mechanical properties :
#
#
# Convention : Reuss Voigt Hill
#
# Bulk Modulus (GPa) = 38.61526 73.71255 56.16390
# Shear Modulus (GPa) = 15.28247 21.91745 18.59996
#
# Velocity S-wave (km/s) = 3.08382 3.69307 3.40211
# Velocity P-wave (km/s) = 6.05883 8.00342 7.09804
#
# Compressibility (1/GPa) = 0.02589650
#
# Stress axis : x y z
#
# Youngs Moduli (GPa) = 21.73738 57.10894 89.32570
#
# Poissons Ratio (x) = 1.10137 0.07737
# Poissons Ratio (y) = 0.41921 0.38007
# Poissons Ratio (z) = 0.01883 0.24299
#
# Static dielectric constant tensor:
#      x y z
#    x 1.526540 0.000000 -0.003640 
#    y 0.000000 1.519440 0.000000 
#    z -0.003640 0.000000 1.529010 
# 
# From -- ./inp_files/23629.got.cif
#   From: 2010.05.17/outbox.cif.g08.bks.cpg/sg10_12_cif.got.tgz:23629.got - 2010.06.03 11:33:40.
