data_PCOD9146820
_publ_section_title
;
Structure prediction by ZEFSAII (Michael W. Deem and Ramdas Pophale) SiO2 
 PCOD9146820
Probable space group: P 2/M
;
_chemical_formula_sum "Si O2"
_cell_formula_units_Z 22
_cell_length_a 5.256342
_cell_length_b 7.981973
_cell_length_c 26.649168
_cell_angle_alpha 90.000000
_cell_angle_beta 59.594260
_cell_angle_gamma 90.000000
_cell_volume 964.312910
_symmetry_space_group_name_H-M "P 2/M"
_symmetry_group_IT_number 10
_symmetry_cell_setting 'monoclinic'
loop_
_space_group_symop_operation_xyz
x,y,z
-x,y,-z
-x,-y,-z
x,-y,z
loop_
_atom_site_type_symbol
_atom_site_label
_atom_site_fract_x
_atom_site_fract_y
_atom_site_fract_z
Si Si1 0.098361 0.202941 0.338200
Si Si2 0.789222 0.203577 0.267412
Si Si3 0.872825 0.204888 0.066247
Si Si4 0.642480 0.000000 0.540139
Si Si5 0.803305 0.794947 0.865267
Si Si6 0.217731 0.321404 0.430670
O O1 0.925715 0.261484 0.306445
O O2 0.034677 0.281973 0.398904
O O3 0.445924 0.244446 0.295965
O O4 0.073125 0.000000 0.345710
O O5 0.987084 0.260993 0.200993
O O6 0.806289 0.000000 0.266477
O O7 0.534628 0.257381 0.107075
O O8 0.068428 0.258254 0.093896
O O9 0.876025 0.000000 0.065537
O O10 0.000000 0.259868 0.000000
O O11 0.500000 0.000000 0.500000
O O12 0.572913 0.835241 0.578714
O O13 0.000000 0.000000 0.500000
O O14 0.805869 0.000000 0.864475
O O15 0.368700 0.500000 0.410874
O O16 0.000000 0.330966 0.500000
#
# Coordination Sequence:
#
# PCOD9146820 Si02
#       6
#     4   4   4   2   4   4
#     4  10  19  34  53  76 103 135 179 228 277 333
#     4   9  18  30  48  70  95 132 179 229 277 327
#     4   9  15  21  32  52  82 122 168 217 266 317
#     4  10  22  40  62  86 116 150 186 228 277 338
#     4   9  15  24  36  54  83 120 168 220 264 316
#     4  10  22  41  63  89 118 151 189 234 292 353
#
# _framework density 22.814171999999999
#
# number of rings (size 3 to 8) (size 9 to 14) (size 15 to 20)
#    0.000    2.545    0.909    1.636    0.000    9.818 
#    0.000    4.545    0.000    0.000    0.000    0.000 
#    0.000    0.000    0.000    0.000    0.000   63.636 
#
# Total GULP energy -123013.507407 kJ/mol
# GULP energy per Si atom -5591.523064 kJ/mol
# Density = 2.276225 g / cm^3
# Si number density = 22.814172 Si / 1000 Ang^3
#
#
#
# Elastic Constant Matrix: (Units=GPa)
#
#
# Indices 1 2 3 4 5 6 
#
# 1 83.2485 12.1855 -4.6048 0.0000 7.9987 0.0000
# 2 12.1855 81.0314 3.5898 0.0000 12.5597 0.0000
# 3 -4.6048 3.5898 95.8589 0.0000 1.7044 0.0000
# 4 0.0000 0.0000 0.0000 -16.7183 0.0000 -2.7299
# 5 7.9987 12.5597 1.7044 0.0000 42.4534 0.0000
# 6 0.0000 0.0000 0.0000 -2.7299 0.0000 1.1678
#
#
#
# Elastic Compliance Matrix: (Units=1/GPa)
#
#
# Indices 1 2 3 4 5 6 
#
# 1 0.012469 -0.001611 0.000693 0.000000 -0.001900 0.000000
# 2 -0.001611 0.013159 -0.000507 0.000000 -0.003569 0.000000
# 3 0.000693 -0.000507 0.010491 0.000000 -0.000402 0.000000
# 4 0.000000 0.000000 0.000000 -0.043290 0.000000 -0.101198
# 5 -0.001900 -0.003569 -0.000402 0.000000 0.024985 0.000000
# 6 0.000000 0.000000 0.000000 -0.101198 0.000000 0.619757
#
#
# Mechanical properties :
#
#
# Convention : Reuss Voigt Hill
#
# Bulk Modulus (GPa) = 30.05748 31.38663 30.72206
# Shear Modulus (GPa) = 7.67447 21.97847 14.82647
#
# Velocity S-wave (km/s) = 1.83608 3.10719 2.55204
# Velocity P-wave (km/s) = 4.20695 5.16335 4.70949
#
# Compressibility (1/GPa) = 0.03326959
#
# Stress axis : x y z
#
# Youngs Moduli (GPa) = 80.19885 75.99454 95.31606
#
# Poissons Ratio (x) = 0.12244 -0.06606
# Poissons Ratio (y) = 0.12922 0.04830
# Poissons Ratio (z) = -0.05559 0.03851
#
# Static dielectric constant tensor:
#      x y z
#    x 2.252540 0.000000 -0.268370 
#    y 0.000000 1.901890 0.000000 
#    z -0.268370 0.000000 1.961000 
# 
# From -- ./inp_files/87337.got.cif
#   From: 2010.05.17/outbox.cif.g08.bks.cpg/sg10_44_cif.got.tgz:87337.got - 2010.06.03 11:33:40.
