data_PCOD9146396
_publ_section_title
;
Structure prediction by ZEFSAII (Michael W. Deem and Ramdas Pophale) SiO2 
 PCOD9146396
Probable space group: P 2/M
;
_chemical_formula_sum "Si O2"
_cell_formula_units_Z 32
_cell_length_a 28.324916
_cell_length_b 9.856160
_cell_length_c 11.681148
_cell_angle_alpha 90.000000
_cell_angle_beta 148.665771
_cell_angle_gamma 90.000000
_cell_volume 1695.859491
_symmetry_space_group_name_H-M "P 2/M"
_symmetry_group_IT_number 10
_symmetry_cell_setting 'monoclinic'
loop_
_space_group_symop_operation_xyz
x,y,z
-x,y,-z
-x,-y,-z
x,-y,z
loop_
_atom_site_type_symbol
_atom_site_label
_atom_site_fract_x
_atom_site_fract_y
_atom_site_fract_z
Si Si1 0.334627 0.154472 0.905308
Si Si2 0.600478 0.148201 0.465250
Si Si3 0.867003 0.840440 0.424360
Si Si4 0.397711 0.744708 0.282843
Si Si5 0.808400 0.842000 0.877369
Si Si6 0.466471 0.658090 0.060588
Si Si7 0.975391 0.835994 0.074316
Si Si8 0.802994 0.344417 0.086903
O O1 0.227138 0.167945 0.700472
O O2 0.353496 0.000000 0.910666
O O3 0.381020 0.184023 0.125746
O O4 0.375166 0.260211 0.899654
O O5 0.604951 0.156752 0.612420
O O6 0.702156 0.161359 0.628165
O O7 0.540567 0.269316 0.293805
O O8 0.564468 0.000000 0.357476
O O9 0.852806 0.741621 0.288283
O O10 0.950647 0.798484 0.676973
O O11 0.979970 0.000000 0.076978
O O12 0.500000 0.683421 0.500000
O O13 0.306063 0.657723 0.112010
O O14 0.828409 0.000000 0.952383
O O15 0.875551 0.803565 0.914123
O O16 0.819676 0.738862 0.005385
O O17 0.456459 0.500000 0.067887
O O18 0.500000 0.671051 0.000000
O O19 0.122574 0.000000 0.588377
O O20 0.000000 0.781858 0.000000
O O21 0.832520 0.500000 0.141788
#
# Coordination Sequence:
#
# PCOD9146396 Si02
#       8
#     4   4   4   4   4   4   4   4
#     4  10  20  35  57  84 111 142 180 226 278 330
#     4  10  20  35  57  84 111 142 180 226 278 330
#     4   9  19  36  58  85 114 143 178 227 282 332
#     4  10  19  33  54  85 112 142 178 226 277 326
#     4   9  19  36  58  85 114 143 178 227 282 332
#     4  11  25  40  51  70 106 151 192 227 270 323
#     4   9  18  35  61  88 110 139 186 237 282 331
#     4  10  21  35  53  81 117 153 186 222 269 331
#
# _framework density 18.869488
#
# number of rings (size 3 to 8) (size 9 to 14) (size 15 to 20)
#    0.000    2.250    1.250    1.125    0.000   10.250 
#    0.000    5.625    0.000    1.500    0.000    0.000 
#    0.000    0.000    0.000    0.000    0.000    0.000 
#
# Total GULP energy -178431.975976 kJ/mol
# GULP energy per Si atom -5575.999249 kJ/mol
# Density = 1.882654 g / cm^3
# Si number density = 18.869488 Si / 1000 Ang^3
#
#
#
# Elastic Constant Matrix: (Units=GPa)
#
#
# Indices 1 2 3 4 5 6 
#
# 1 79.5749 32.1601 5.0398 0.0000 10.0428 0.0000
# 2 32.1601 106.3396 -8.9298 0.0000 -10.2958 0.0000
# 3 5.0398 -8.9298 18.2852 0.0000 8.9376 0.0000
# 4 0.0000 0.0000 0.0000 8.6106 0.0000 1.6348
# 5 10.0428 -10.2958 8.9376 0.0000 16.9255 0.0000
# 6 0.0000 0.0000 0.0000 1.6348 0.0000 15.6747
#
#
#
# Elastic Compliance Matrix: (Units=1/GPa)
#
#
# Indices 1 2 3 4 5 6 
#
# 1 0.016979 -0.006540 -0.001354 0.000000 -0.013338 0.000000
# 2 -0.006540 0.012602 0.003118 0.000000 0.009900 0.000000
# 3 -0.001354 0.003118 0.074492 0.000000 -0.036636 0.000000
# 4 0.000000 0.000000 0.000000 0.118483 0.000000 -0.012357
# 5 -0.013338 0.009900 -0.036636 0.000000 0.092364 0.000000
# 6 0.000000 0.000000 0.000000 -0.012357 0.000000 0.065086
#
#
# Mechanical properties :
#
#
# Convention : Reuss Voigt Hill
#
# Bulk Modulus (GPa) = 10.57971 28.97111 19.77541
# Shear Modulus (GPa) = 11.87463 19.97080 15.92272
#
# Velocity S-wave (km/s) = 2.51131 3.25678 2.90803
# Velocity P-wave (km/s) = 3.74538 5.43405 4.66673
#
# Compressibility (1/GPa) = 0.09452058
#
# Stress axis : x y z
#
# Youngs Moduli (GPa) = 58.89630 79.35208 13.42420
#
# Poissons Ratio (x) = 0.51896 0.01818
# Poissons Ratio (y) = 0.38518 -0.04186
# Poissons Ratio (z) = 0.07976 -0.24741
#
# Static dielectric constant tensor:
#      x y z
#    x 1.665310 0.000000 0.023160 
#    y 0.000000 1.629780 0.000000 
#    z 0.023160 0.000000 1.656810 
# 
# From -- ./inp_files/58247.got.cif
#   From: 2010.05.17/outbox.cif.g08.bks.cpg/sg10_30_cif.got.tgz:58247.got - 2010.06.03 11:33:40.
