data_PCOD9146480
_publ_section_title
;
Structure prediction by ZEFSAII (Michael W. Deem and Ramdas Pophale) SiO2 
 PCOD9146480
Probable space group: P 2/M
;
_chemical_formula_sum "Si O2"
_cell_formula_units_Z 32
_cell_length_a 22.482112
_cell_length_b 8.071443
_cell_length_c 12.506055
_cell_angle_alpha 90.000000
_cell_angle_beta 134.098739
_cell_angle_gamma 90.000000
_cell_volume 1629.741478
_symmetry_space_group_name_H-M "P 2/M"
_symmetry_group_IT_number 10
_symmetry_cell_setting 'monoclinic'
loop_
_space_group_symop_operation_xyz
x,y,z
-x,y,-z
-x,-y,-z
x,-y,z
loop_
_atom_site_type_symbol
_atom_site_label
_atom_site_fract_x
_atom_site_fract_y
_atom_site_fract_z
Si Si1 0.875347 0.199162 0.090321
Si Si2 0.779620 0.694850 0.360591
Si Si3 0.581190 0.800064 0.738325
Si Si4 0.729222 0.696637 0.066178
Si Si5 0.393491 0.202535 0.471088
Si Si6 0.095134 0.202797 0.110528
Si Si7 0.754055 0.198180 0.562475
Si Si8 0.031994 0.800108 0.420733
O O1 0.799625 0.243484 0.072130
O O2 0.961683 0.257610 0.250343
O O3 0.879483 0.000000 0.093146
O O4 0.868635 0.254014 0.959384
O O5 0.763361 0.500000 0.341916
O O6 0.745153 0.765353 0.205316
O O7 0.743635 0.766158 0.424951
O O8 0.878112 0.725577 0.484361
O O9 0.614903 0.746969 0.663519
O O10 0.485298 0.747324 0.624233
O O11 0.582394 0.000000 0.740686
O O12 0.640609 0.739507 0.905785
O O13 0.737657 0.500000 0.083089
O O14 0.320341 0.261962 0.456054
O O15 0.392377 0.000000 0.469906
O O16 0.157396 0.258901 0.281302
O O17 0.093026 0.000000 0.111023
O O18 0.000000 0.258025 0.000000
O O19 0.754957 0.000000 0.576461
O O20 0.000000 0.762781 0.500000
O O21 0.039758 0.000000 0.421108
#
# Coordination Sequence:
#
# PCOD9146480 Si02
#       8
#     4   4   4   4   4   4   4   4
#     4  10  19  33  56  81 105 135 174 220 271 321
#     4  11  24  38  51  71 107 151 185 217 264 315
#     4   9  17  34  61  86 109 133 167 216 271 327
#     4  11  23  36  50  75 109 141 176 218 265 315
#     4   8  16  33  59  89 110 132 169 218 272 320
#     4   9  17  30  51  80 109 135 166 211 265 313
#     4  10  19  34  56  78 105 140 181 221 258 310
#     4  10  19  33  55  81 103 132 181 228 263 310
#
# _framework density 19.635014999999999
#
# number of rings (size 3 to 8) (size 9 to 14) (size 15 to 20)
#    0.000    2.250    1.250    3.000    0.000    6.250 
#    0.000    5.000    0.000    5.250    0.000    0.000 
#    0.000    0.000    0.000    0.000    0.000    0.000 
#
# Total GULP energy -178642.673608 kJ/mol
# GULP energy per Si atom -5582.583550 kJ/mol
# Density = 1.959033 g / cm^3
# Si number density = 19.635015 Si / 1000 Ang^3
#
#
#
# Elastic Constant Matrix: (Units=GPa)
#
#
# Indices 1 2 3 4 5 6 
#
# 1 120.4403 7.0104 57.5777 0.0000 -6.4741 0.0000
# 2 7.0104 1.3282 4.3605 0.0000 -2.4961 0.0000
# 3 57.5777 4.3605 130.9840 0.0000 -10.1530 0.0000
# 4 0.0000 0.0000 0.0000 -9.3935 0.0000 1.2464
# 5 -6.4741 -2.4961 -10.1530 0.0000 25.7534 0.0000
# 6 0.0000 0.0000 0.0000 1.2464 0.0000 -56.3283
#
#
#
# Elastic Compliance Matrix: (Units=1/GPa)
#
#
# Indices 1 2 3 4 5 6 
#
# 1 0.014148 -0.069849 -0.004274 0.000000 -0.004898 0.000000
# 2 -0.069849 1.348317 -0.005585 0.000000 0.110920 0.000000
# 3 -0.004274 -0.005585 0.009876 0.000000 0.002278 0.000000
# 4 0.000000 0.000000 0.000000 -0.106770 0.000000 -0.002363
# 5 -0.004898 0.110920 0.002278 0.000000 0.049247 0.000000
# 6 0.000000 0.000000 0.000000 -0.002363 0.000000 -0.017805
#
#
# Mechanical properties :
#
#
# Convention : Reuss Voigt Hill
#
# Bulk Modulus (GPa) = 0.82445 43.40553 22.11499
# Shear Modulus (GPa) = 2.68711 4.25991 3.47351
#
# Velocity S-wave (km/s) = 1.17111 1.47454 1.33149
# Velocity P-wave (km/s) = 1.49982 5.00532 3.69477
#
# Compressibility (1/GPa) = 1.21292734
#
# Stress axis : x y z
#
# Youngs Moduli (GPa) = 70.68003 0.74167 101.25979
#
# Poissons Ratio (x) = 0.05180 0.43275
# Poissons Ratio (y) = 4.93690 0.56549
# Poissons Ratio (z) = 0.30206 0.00414
#
# Static dielectric constant tensor:
#      x y z
#    x 1.671160 0.000000 -0.010480 
#    y 0.000000 1.701220 0.000000 
#    z -0.010480 0.000000 1.695760 
# 
# From -- ./inp_files/55340.got.cif
#   From: 2010.05.17/outbox.cif.g08.bks.cpg/sg10_28_cif.got.tgz:55340.got - 2010.06.03 11:33:40.
