data_PCOD9146506
_publ_section_title
;
Structure prediction by ZEFSAII (Michael W. Deem and Ramdas Pophale) SiO2 
 PCOD9146506
Probable space group: P 2/M
;
_chemical_formula_sum "Si O2"
_cell_formula_units_Z 24
_cell_length_a 9.867178
_cell_length_b 11.833064
_cell_length_c 8.358939
_cell_angle_alpha 90.000000
_cell_angle_beta 80.199480
_cell_angle_gamma 90.000000
_cell_volume 961.737810
_symmetry_space_group_name_H-M "P 2/M"
_symmetry_group_IT_number 10
_symmetry_cell_setting 'monoclinic'
loop_
_space_group_symop_operation_xyz
x,y,z
-x,y,-z
-x,-y,-z
x,-y,z
loop_
_atom_site_type_symbol
_atom_site_label
_atom_site_fract_x
_atom_site_fract_y
_atom_site_fract_z
Si Si1 0.429106 0.121507 0.687396
Si Si2 0.728083 0.382386 0.032963
Si Si3 0.104744 0.127132 0.331110
Si Si4 0.450788 0.339025 0.243374
Si Si5 0.865061 0.772354 0.223348
Si Si6 0.198471 0.367762 0.462431
O O1 0.500000 0.120163 0.500000
O O2 0.517617 0.207187 0.772033
O O3 0.271297 0.158078 0.699633
O O4 0.432379 0.000000 0.761973
O O5 0.805857 0.500000 0.018594
O O6 0.603934 0.385066 0.187537
O O7 0.826299 0.282016 0.062290
O O8 0.645716 0.373787 0.884330
O O9 0.171763 0.251911 0.359034
O O10 0.000000 0.115388 0.500000
O O11 0.999772 0.152530 0.208179
O O12 0.173034 0.000000 0.303002
O O13 0.364710 0.369048 0.417704
O O14 0.867019 0.670068 0.355272
O O15 0.158130 0.500000 0.431333
#
# Coordination Sequence:
#
# PCOD9146506 Si02
#       6
#     4   4   4   4   4   4
#     4  10  19  33  55  82 110 142 181 228 276 328
#     4  10  20  35  56  77 114 152 177 219 284 345
#     4   9  20  37  57  80 110 148 186 229 283 333
#     4  10  20  36  53  82 111 148 184 221 277 333
#     4  10  20  35  55  84 109 143 186 230 279 329
#     4  11  21  34  57  85 113 140 188 241 275 324
#
# _framework density 24.954827000000002
#
# number of rings (size 3 to 8) (size 9 to 14) (size 15 to 20)
#    0.000    2.000    1.667    3.000    0.000    5.000 
#    0.000   10.833    0.000    3.000    0.000    0.000 
#    0.000    0.000    0.000    0.000    0.000    0.000 
#
# Total GULP energy -133717.550406 kJ/mol
# GULP energy per Si atom -5571.564600 kJ/mol
# Density = 2.489803 g / cm^3
# Si number density = 24.954827 Si / 1000 Ang^3
#
#
#
# Elastic Constant Matrix: (Units=GPa)
#
#
# Indices 1 2 3 4 5 6 
#
# 1 60.1103 42.8656 7.7644 0.0000 3.1137 0.0000
# 2 42.8656 234.2117 12.9073 0.0000 11.9991 0.0000
# 3 7.7644 12.9073 37.4533 0.0000 0.4237 0.0000
# 4 0.0000 0.0000 0.0000 494.0142 0.0000 880.9229
# 5 3.1137 11.9991 0.4237 0.0000 33.2733 0.0000
# 6 0.0000 0.0000 0.0000 880.9229 0.0000 1574.8783
#
#
#
# Elastic Compliance Matrix: (Units=1/GPa)
#
#
# Indices 1 2 3 4 5 6 
#
# 1 0.019439 -0.003371 -0.002862 0.000000 -0.000567 0.000000
# 2 -0.003371 0.005018 -0.001014 0.000000 -0.001481 0.000000
# 3 -0.002862 -0.001014 0.027639 0.000000 0.000281 0.000000
# 4 0.000000 0.000000 0.000000 0.792543 0.000000 -0.443316
# 5 -0.000567 -0.001481 0.000281 0.000000 0.030638 0.000000
# 6 0.000000 0.000000 0.000000 -0.443316 0.000000 0.248608
#
#
# Mechanical properties :
#
#
# Convention : Reuss Voigt Hill
#
# Bulk Modulus (GPa) = 26.59320 50.98332 38.78826
# Shear Modulus (GPa) = 4.34437 438.31571 221.33004
#
# Velocity S-wave (km/s) = 1.32086 13.26744 9.42787
# Velocity P-wave (km/s) = 3.60637 15.97418 11.57973
#
# Compressibility (1/GPa) = 0.03760360
#
# Stress axis : x y z
#
# Youngs Moduli (GPa) = 51.44296 199.26794 36.18024
#
# Poissons Ratio (x) = 0.67173 0.10354
# Poissons Ratio (y) = 0.17341 0.03668
# Poissons Ratio (z) = 0.14722 0.20203
#
# Static dielectric constant tensor:
#      x y z
#    x 2.006530 0.000000 0.039040 
#    y 0.000000 2.119670 0.000000 
#    z 0.039040 0.000000 2.052810 
# 
# From -- ./inp_files/24061.got.cif
#   From: 2010.05.17/outbox.cif.g08.bks.cpg/sg10_13_cif.got.tgz:24061.got - 2010.06.03 11:33:40.
