data_PCOD9146551
_publ_section_title
;
Structure prediction by ZEFSAII (Michael W. Deem and Ramdas Pophale) SiO2 
 PCOD9146551
Probable space group: P 2/M
;
_chemical_formula_sum "Si O2"
_cell_formula_units_Z 28
_cell_length_a 9.662837
_cell_length_b 16.992807
_cell_length_c 16.253598
_cell_angle_alpha 90.000000
_cell_angle_beta 35.382033
_cell_angle_gamma 90.000000
_cell_volume 1545.314956
_symmetry_space_group_name_H-M "P 2/M"
_symmetry_group_IT_number 10
_symmetry_cell_setting 'monoclinic'
loop_
_space_group_symop_operation_xyz
x,y,z
-x,y,-z
-x,-y,-z
x,-y,z
loop_
_atom_site_type_symbol
_atom_site_label
_atom_site_fract_x
_atom_site_fract_y
_atom_site_fract_z
Si Si1 0.993265 0.766281 0.700265
Si Si2 0.270633 0.910723 0.856277
Si Si3 0.454316 0.291822 0.391461
Si Si4 0.413022 0.768328 0.231359
Si Si5 0.880817 0.591183 0.143154
Si Si6 0.305802 0.133478 0.655505
Si Si7 0.695558 0.657916 0.965890
O O1 0.215905 0.710919 0.563247
O O2 0.086031 0.843598 0.703235
O O3 0.828559 0.785047 0.701713
O O4 0.831663 0.720651 0.843338
O O5 0.444067 0.848291 0.815808
O O6 0.290122 0.912274 0.747843
O O7 0.298943 0.000000 0.874171
O O8 0.000000 0.882603 0.000000
O O9 0.369678 0.271888 0.340326
O O10 0.646977 0.361928 0.288100
O O11 0.603046 0.218673 0.355986
O O12 0.567343 0.707446 0.100861
O O13 0.817817 0.500000 0.161244
O O14 0.101203 0.600918 0.098704
O O15 0.000000 0.622479 0.000000
O O16 0.500000 0.098498 0.500000
O O17 0.500000 0.619965 0.000000
#
# Coordination Sequence:
#
# PCOD9146551 Si02
#       7
#     4   4   4   4   4   4   4
#     4  10  19  33  55  86 107 135 188 234 278 317
#     4  10  21  35  54  82 113 148 186 229 280 329
#     4  10  19  34  57  80 108 140 186 233 268 321
#     4  10  20  34  58  79 110 147 187 229 275 328
#     4  11  22  36  57  84 113 150 187 224 279 338
#     4   9  18  32  56  78 105 140 183 230 271 326
#     4  10  20  34  55  83 109 147 184 232 277 327
#
# _framework density 18.119284
#
# number of rings (size 3 to 8) (size 9 to 14) (size 15 to 20)
#    0.000    2.000    2.857    1.286    2.000    0.571 
#    0.000    2.143    0.000   19.286    0.000    0.000 
#    0.000    0.000    0.000    0.000    0.000    0.000 
#
# Total GULP energy -155909.309575 kJ/mol
# GULP energy per Si atom -5568.189628 kJ/mol
# Density = 1.807804 g / cm^3
# Si number density = 18.119284 Si / 1000 Ang^3
#
#
#
# Elastic Constant Matrix: (Units=GPa)
#
#
# Indices 1 2 3 4 5 6 
#
# 1 103.6559 3.7584 9.6314 0.0000 -0.4334 0.0000
# 2 3.7584 28.4492 0.1035 0.0000 -5.7187 0.0000
# 3 9.6314 0.1035 57.2345 0.0000 8.2051 0.0000
# 4 0.0000 0.0000 0.0000 24.3556 0.0000 -7.1099
# 5 -0.4334 -5.7187 8.2051 0.0000 32.3612 0.0000
# 6 0.0000 0.0000 0.0000 -7.1099 0.0000 20.2976
#
#
#
# Elastic Compliance Matrix: (Units=1/GPa)
#
#
# Indices 1 2 3 4 5 6 
#
# 1 0.009852 -0.001225 -0.001705 0.000000 0.000348 0.000000
# 2 -0.001225 0.036656 -0.000816 0.000000 0.006668 0.000000
# 3 -0.001705 -0.000816 0.018455 0.000000 -0.004846 0.000000
# 4 0.000000 0.000000 0.000000 0.045735 0.000000 0.016020
# 5 0.000348 0.006668 -0.004846 0.000000 0.033313 0.000000
# 6 0.000000 0.000000 0.000000 0.016020 0.000000 0.054878
#
#
# Mechanical properties :
#
#
# Convention : Reuss Voigt Hill
#
# Bulk Modulus (GPa) = 17.40080 24.03627 20.71853
# Shear Modulus (GPa) = 22.16916 27.12597 24.64756
#
# Velocity S-wave (km/s) = 3.50167 3.87341 3.69222
# Velocity P-wave (km/s) = 5.09639 5.77051 5.44389
#
# Compressibility (1/GPa) = 0.05746864
#
# Stress axis : x y z
#
# Youngs Moduli (GPa) = 101.50575 27.28100 54.18524
#
# Poissons Ratio (x) = 0.03343 0.09241
# Poissons Ratio (y) = 0.12438 0.04422
# Poissons Ratio (z) = 0.17312 0.02226
#
# Static dielectric constant tensor:
#      x y z
#    x 1.689970 0.000000 0.018640 
#    y 0.000000 1.618890 0.000000 
#    z 0.018640 0.000000 1.652160 
# 
# From -- ./inp_files/30120.got.cif
#   From: 2010.05.17/outbox.cif.g08.bks.cpg/sg10_16_cif.got.tgz:30120.got - 2010.06.03 11:33:40.
