data_PCOD9146891
_publ_section_title
;
Structure prediction by ZEFSAII (Michael W. Deem and Ramdas Pophale) SiO2 
 PCOD9146891
Probable space group: P 2/M
;
_chemical_formula_sum "Si O2"
_cell_formula_units_Z 32
_cell_length_a 18.494912
_cell_length_b 9.796102
_cell_length_c 20.144175
_cell_angle_alpha 90.000000
_cell_angle_beta 23.580676
_cell_angle_gamma 90.000000
_cell_volume 1460.018700
_symmetry_space_group_name_H-M "P 2/M"
_symmetry_group_IT_number 10
_symmetry_cell_setting 'monoclinic'
loop_
_space_group_symop_operation_xyz
x,y,z
-x,y,-z
-x,-y,-z
x,-y,z
loop_
_atom_site_type_symbol
_atom_site_label
_atom_site_fract_x
_atom_site_fract_y
_atom_site_fract_z
Si Si1 0.969509 0.163001 0.718370
Si Si2 0.139467 0.341368 0.943261
Si Si3 0.328532 0.352070 0.986377
Si Si4 0.513273 0.843497 0.382069
Si Si5 0.190223 0.845949 0.407846
Si Si6 0.357901 0.650928 0.174954
Si Si7 0.887268 0.836203 0.253580
Si Si8 0.534247 0.856287 0.213606
O O1 0.068869 0.214403 0.568779
O O2 0.063564 0.189996 0.710278
O O3 0.782729 0.241729 0.879387
O O4 0.952445 0.000000 0.726766
O O5 0.180099 0.500000 0.929175
O O6 0.316668 0.258794 0.766728
O O7 0.000000 0.350110 0.000000
O O8 0.025674 0.251061 0.092638
O O9 0.240065 0.500000 0.057360
O O10 0.517192 0.367812 0.865253
O O11 0.358720 0.281474 0.890291
O O12 0.327609 0.803518 0.575922
O O13 0.455110 0.854242 0.353303
O O14 0.565559 0.000000 0.357904
O O15 0.212397 0.758119 0.322813
O O16 0.381540 0.859986 0.286158
O O17 0.135144 0.000000 0.438797
O O18 0.289732 0.500000 0.211803
O O19 0.500000 0.698830 0.000000
O O20 0.906776 0.000000 0.225351
O O21 0.641711 0.000000 0.117356
#
# Coordination Sequence:
#
# PCOD9146891 Si02
#       8
#     4   4   4   4   4   4   4   4
#     4  10  19  34  54  81 114 140 166 213 280 338
#     4  11  26  44  58  80 119 161 197 236 286 342
#     4  10  20  31  48  76 106 139 180 223 269 325
#     4  10  20  37  63  90 114 146 192 241 288 340
#     4   9  17  31  53  78 105 134 167 212 265 322
#     4   9  19  36  53  70  99 141 186 226 264 312
#     4  10  21  39  64  91 117 149 192 239 288 347
#     4   9  16  31  53  78 106 135 168 214 274 329
#
# _framework density 21.917527
#
# number of rings (size 3 to 8) (size 9 to 14) (size 15 to 20)
#    0.000    2.250    1.250    1.500    0.000    7.250 
#    0.000    3.125    0.000    3.750    0.000    0.000 
#    0.000    0.000    0.000    0.000    0.000    0.000 
#
# Total GULP energy -178330.467416 kJ/mol
# GULP energy per Si atom -5572.827107 kJ/mol
# Density = 2.186764 g / cm^3
# Si number density = 21.917527 Si / 1000 Ang^3
#
#
#
# Elastic Constant Matrix: (Units=GPa)
#
#
# Indices 1 2 3 4 5 6 
#
# 1 47.9258 26.4497 15.0598 0.0000 -2.5134 0.0000
# 2 26.4497 59.8048 46.2700 0.0000 -1.5379 0.0000
# 3 15.0598 46.2700 101.6668 0.0000 1.4875 0.0000
# 4 0.0000 0.0000 0.0000 40.4479 0.0000 -3.3117
# 5 -2.5134 -1.5379 1.4875 0.0000 35.1103 0.0000
# 6 0.0000 0.0000 0.0000 -3.3117 0.0000 18.2226
#
#
#
# Elastic Compliance Matrix: (Units=1/GPa)
#
#
# Indices 1 2 3 4 5 6 
#
# 1 0.028003 -0.014089 0.002245 0.000000 0.001292 0.000000
# 2 -0.014089 0.032990 -0.012942 0.000000 0.000985 0.000000
# 3 0.002245 -0.012942 0.015409 0.000000 -0.001059 0.000000
# 4 0.000000 0.000000 0.000000 0.025097 0.000000 0.004561
# 5 0.001292 0.000985 -0.001059 0.000000 0.028662 0.000000
# 6 0.000000 0.000000 0.000000 0.004561 0.000000 0.055706
#
#
# Mechanical properties :
#
#
# Convention : Reuss Voigt Hill
#
# Bulk Modulus (GPa) = 37.26953 42.77294 40.02123
# Shear Modulus (GPa) = 20.45979 26.86402 23.66190
#
# Velocity S-wave (km/s) = 3.05862 3.50478 3.28927
# Velocity P-wave (km/s) = 5.43276 5.99464 5.72060
#
# Compressibility (1/GPa) = 0.02683157
#
# Stress axis : x y z
#
# Youngs Moduli (GPa) = 35.71007 30.31208 64.89711
#
# Poissons Ratio (x) = 0.42705 -0.14569
# Poissons Ratio (y) = 0.50310 0.83988
# Poissons Ratio (z) = -0.08017 0.39229
#
# Static dielectric constant tensor:
#      x y z
#    x 1.862580 0.000000 -0.018860 
#    y 0.000000 1.863590 0.000000 
#    z -0.018860 0.000000 1.827200 
# 
# From -- ./inp_files/90560.got.cif
#   From: 2010.05.17/outbox.cif.g08.bks.cpg/sg10_46_cif.got.tgz:90560.got - 2010.06.03 11:33:40.
