data_PCOD9146690
_publ_section_title
;
Structure prediction by ZEFSAII (Michael W. Deem and Ramdas Pophale) SiO2 
 PCOD9146690
Probable space group: P 2/M
;
_chemical_formula_sum "Si O2"
_cell_formula_units_Z 28
_cell_length_a 31.567338
_cell_length_b 7.732820
_cell_length_c 10.322242
_cell_angle_alpha 90.000000
_cell_angle_beta 143.934046
_cell_angle_gamma 90.000000
_cell_volume 1483.391670
_symmetry_space_group_name_H-M "P 2/M"
_symmetry_group_IT_number 10
_symmetry_cell_setting 'monoclinic'
loop_
_space_group_symop_operation_xyz
x,y,z
-x,y,-z
-x,-y,-z
x,-y,z
loop_
_atom_site_type_symbol
_atom_site_label
_atom_site_fract_x
_atom_site_fract_y
_atom_site_fract_z
Si Si1 0.820534 0.701995 0.151339
Si Si2 0.931259 0.000000 0.736825
Si Si3 0.332762 0.200975 0.800882
Si Si4 0.934875 0.000000 0.438759
Si Si5 0.332820 0.711349 0.310171
Si Si6 0.818033 0.695359 0.451516
Si Si7 0.421642 0.298092 0.773399
Si Si8 0.581600 0.290299 0.732631
O O1 0.836855 0.500000 0.164757
O O2 0.886306 0.830443 0.294379
O O3 0.800307 0.712873 0.254269
O O4 0.750798 0.759436 0.898074
O O5 0.879612 0.165383 0.632553
O O6 0.953101 0.000000 0.637992
O O7 0.000000 0.000000 0.000000
O O8 0.255455 0.275315 0.651510
O O9 0.370208 0.286999 0.770208
O O10 0.322978 0.000000 0.747384
O O11 0.386355 0.221646 0.054910
O O12 0.000000 0.000000 0.500000
O O13 0.333036 0.500000 0.311911
O O14 0.379776 0.775815 0.546344
O O15 0.369264 0.764887 0.266059
O O16 0.843808 0.500000 0.536865
O O17 0.434587 0.500000 0.773016
O O18 0.500000 0.221418 0.000000
O O19 0.500000 0.239111 0.500000
O O20 0.583485 0.500000 0.745653
#
# Coordination Sequence:
#
# PCOD9146690 Si02
#       8
#     4   2   4   2   4   4   4   4
#     4   9  18  35  61  88 116 150 192 239 284 343
#     4  10  22  42  64  92 125 148 188 238 287 360
#     4  12  23  36  55  83 120 159 203 248 295 355
#     4  10  22  40  62  90 117 152 182 222 291 354
#     4   9  17  33  56  82 110 145 195 245 291 344
#     4  10  19  37  64  89 118 158 196 239 296 351
#     4  10  21  38  57  78 112 159 203 250 307 357
#     4  10  19  33  57  85 110 144 197 255 299 345
#
# _framework density 18.875661999999998
#
# number of rings (size 3 to 8) (size 9 to 14) (size 15 to 20)
#    0.000    2.000    2.143    2.143    0.000    3.429 
#    3.857    0.000    0.000    0.000    0.000    0.000 
#    0.000    0.000    0.000    0.000    0.000    0.000 
#
# Total GULP energy -156333.429252 kJ/mol
# GULP energy per Si atom -5583.336759 kJ/mol
# Density = 1.883270 g / cm^3
# Si number density = 18.875662 Si / 1000 Ang^3
#
#
#
# Elastic Constant Matrix: (Units=GPa)
#
#
# Indices 1 2 3 4 5 6 
#
# 1 38.6764 -0.1872 2.6763 0.0000 22.9245 0.0000
# 2 -0.1872 69.9584 34.1835 0.0000 16.4926 0.0000
# 3 2.6763 34.1835 108.8580 0.0000 11.4257 0.0000
# 4 0.0000 0.0000 0.0000 66.5400 0.0000 36.3712
# 5 22.9245 16.4926 11.4257 0.0000 27.7976 0.0000
# 6 0.0000 0.0000 0.0000 36.3712 0.0000 65.7064
#
#
#
# Elastic Compliance Matrix: (Units=1/GPa)
#
#
# Indices 1 2 3 4 5 6 
#
# 1 0.060209 0.013657 0.000306 0.000000 -0.057883 0.000000
# 2 0.013657 0.021979 -0.004898 0.000000 -0.022290 0.000000
# 3 0.000306 -0.004898 0.010909 0.000000 -0.001831 0.000000
# 4 0.000000 0.000000 0.000000 0.021548 0.000000 -0.011928
# 5 -0.057883 -0.022290 -0.001831 0.000000 0.097688 0.000000
# 6 0.000000 0.000000 0.000000 -0.011928 0.000000 0.021822
#
#
# Mechanical properties :
#
#
# Convention : Reuss Voigt Hill
#
# Bulk Modulus (GPa) = 8.99050 32.31535 20.65292
# Shear Modulus (GPa) = 19.75505 44.06348 31.90926
#
# Velocity S-wave (km/s) = 3.23861 4.83681 4.11603
# Velocity P-wave (km/s) = 4.33107 6.95344 5.79260
#
# Compressibility (1/GPa) = 0.11122852
#
# Stress axis : x y z
#
# Youngs Moduli (GPa) = 16.60873 45.49819 91.66782
#
# Poissons Ratio (x) = -0.62138 -0.02810
# Poissons Ratio (y) = -0.22683 0.44899
# Poissons Ratio (z) = -0.00509 0.22285
#
# Static dielectric constant tensor:
#      x y z
#    x 1.600630 0.000000 -0.024560 
#    y 0.000000 1.705860 0.000000 
#    z -0.024560 0.000000 1.622850 
# 
# From -- ./inp_files/37410.got.cif
#   From: 2010.05.17/outbox.cif.g08.bks.cpg/sg10_19_cif.got.tgz:37410.got - 2010.06.03 11:33:40.
