data_PCOD9146040
_publ_section_title
;
Structure prediction by ZEFSAII (Michael W. Deem and Ramdas Pophale) SiO2 
 PCOD9146040
Probable space group: P 2/M
;
_chemical_formula_sum "Si O2"
_cell_formula_units_Z 30
_cell_length_a 9.269508
_cell_length_b 14.023926
_cell_length_c 12.218748
_cell_angle_alpha 90.000000
_cell_angle_beta 65.403924
_cell_angle_gamma 90.000000
_cell_volume 1444.253053
_symmetry_space_group_name_H-M "P 2/M"
_symmetry_group_IT_number 10
_symmetry_cell_setting 'monoclinic'
loop_
_space_group_symop_operation_xyz
x,y,z
-x,y,-z
-x,-y,-z
x,-y,z
loop_
_atom_site_type_symbol
_atom_site_label
_atom_site_fract_x
_atom_site_fract_y
_atom_site_fract_z
Si Si1 0.547960 0.886927 0.166536
Si Si2 0.792295 0.211466 0.756622
Si Si3 0.400004 0.387953 0.138895
Si Si4 0.338822 0.105827 0.621009
Si Si5 0.744710 0.694055 0.430413
Si Si6 0.529278 0.611397 0.333553
Si Si7 0.000000 0.728570 0.500000
Si Si8 0.128609 0.884944 0.052711
O O1 0.380614 0.837437 0.198610
O O2 0.609722 0.873090 0.270873
O O3 0.524030 0.000000 0.158389
O O4 0.694216 0.857545 0.043374
O O5 0.751054 0.320416 0.800303
O O6 0.880120 0.210497 0.612442
O O7 0.890813 0.162617 0.822897
O O8 0.359364 0.500000 0.148067
O O9 0.508879 0.372026 0.211956
O O10 0.500000 0.363638 0.000000
O O11 0.500000 0.101726 0.500000
O O12 0.244024 0.194378 0.602313
O O13 0.263591 0.000000 0.641638
O O14 0.694935 0.639744 0.336317
O O15 0.602114 0.673252 0.560841
O O16 0.901340 0.666479 0.445066
O O17 0.497219 0.500000 0.365125
O O18 0.122252 0.000000 0.064519
O O19 0.000000 0.858385 0.000000
#
# Coordination Sequence:
#
# PCOD9146040 Si02
#       8
#     4   4   4   4   4   4   2   4
#     4  10  21  39  66  95 122 165 221 265 317 387
#     4  12  23  43  62  94 128 175 215 265 324 386
#     4  10  21  40  68  99 125 155 210 270 321 386
#     4  10  19  32  56  87 120 162 206 257 316 368
#     4  11  20  39  57  86 125 162 210 266 305 384
#     4  10  20  39  68  93 116 159 211 260 324 384
#     4  12  28  40  60  94 134 174 218 266 330 378
#     4  10  23  43  67  97 130 167 217 273 325 384
#
# _framework density 20.771984
#
# number of rings (size 3 to 8) (size 9 to 14) (size 15 to 20)
#    0.000    1.467    2.667    4.000    1.867    1.067 
#    0.000    6.000    0.000    0.400    0.000    0.000 
#    0.000    0.000    0.000    0.000    0.000    0.000 
#
# Total GULP energy -167627.505081 kJ/mol
# GULP energy per Si atom -5587.583503 kJ/mol
# Density = 2.072471 g / cm^3
# Si number density = 20.771984 Si / 1000 Ang^3
#
#
#
# Elastic Constant Matrix: (Units=GPa)
#
#
# Indices 1 2 3 4 5 6 
#
# 1 106.4859 38.9283 36.4911 0.0000 10.4542 0.0000
# 2 38.9283 80.7495 39.0782 0.0000 11.6736 0.0000
# 3 36.4911 39.0782 135.5248 0.0000 9.8235 0.0000
# 4 0.0000 0.0000 0.0000 23.3895 0.0000 12.6680
# 5 10.4542 11.6736 9.8235 0.0000 34.4449 0.0000
# 6 0.0000 0.0000 0.0000 12.6680 0.0000 15.8151
#
#
#
# Elastic Compliance Matrix: (Units=1/GPa)
#
#
# Indices 1 2 3 4 5 6 
#
# 1 0.011833 -0.004644 -0.001737 0.000000 -0.001522 0.000000
# 2 -0.004644 0.016712 -0.003329 0.000000 -0.003305 0.000000
# 3 -0.001737 -0.003329 0.008870 0.000000 -0.000874 0.000000
# 4 0.000000 0.000000 0.000000 0.075515 0.000000 -0.060488
# 5 -0.001522 -0.003305 -0.000874 0.000000 0.030863 0.000000
# 6 0.000000 0.000000 0.000000 -0.060488 0.000000 0.111682
#
#
# Mechanical properties :
#
#
# Convention : Reuss Voigt Hill
#
# Bulk Modulus (GPa) = 55.57037 61.30616 58.43827
# Shear Modulus (GPa) = 17.80038 28.61407 23.20723
#
# Velocity S-wave (km/s) = 2.93053 3.71554 3.34614
# Velocity P-wave (km/s) = 6.18557 6.92711 6.56682
#
# Compressibility (1/GPa) = 0.01799520
#
# Stress axis : x y z
#
# Youngs Moduli (GPa) = 84.50739 59.83891 112.74524
#
# Poissons Ratio (x) = 0.27790 0.19581
# Poissons Ratio (y) = 0.39246 0.37530
# Poissons Ratio (z) = 0.14677 0.19919
#
# Static dielectric constant tensor:
#      x y z
#    x 1.760470 0.000000 0.004320 
#    y 0.000000 1.763990 0.000000 
#    z 0.004320 0.000000 1.760550 
# 
# From -- ./inp_files/42926.got.cif
#   From: 2010.05.17/outbox.cif.g08.bks.cpg/sg10_22_cif.got.tgz:42926.got - 2010.06.03 11:33:40.
