data_PCOD9146282
_publ_section_title
;
Structure prediction by ZEFSAII (Michael W. Deem and Ramdas Pophale) SiO2 
 PCOD9146282
Probable space group: P 2/M
;
_chemical_formula_sum "Si O2"
_cell_formula_units_Z 28
_cell_length_a 14.715717
_cell_length_b 7.537078
_cell_length_c 18.090082
_cell_angle_alpha 90.000000
_cell_angle_beta 42.368691
_cell_angle_gamma 90.000000
_cell_volume 1352.133680
_symmetry_space_group_name_H-M "P 2/M"
_symmetry_group_IT_number 10
_symmetry_cell_setting 'monoclinic'
loop_
_space_group_symop_operation_xyz
x,y,z
-x,y,-z
-x,-y,-z
x,-y,z
loop_
_atom_site_type_symbol
_atom_site_label
_atom_site_fract_x
_atom_site_fract_y
_atom_site_fract_z
Si Si1 0.142102 0.707369 0.386480
Si Si2 0.251293 0.214875 0.554253
Si Si3 0.398644 0.705267 0.318316
Si Si4 0.301483 0.794292 0.846208
Si Si5 0.939462 0.214249 0.724214
Si Si6 0.220118 0.216060 0.737017
Si Si7 0.907595 0.216321 0.907691
O O1 0.140699 0.500000 0.409535
O O2 0.275374 0.783747 0.344502
O O3 0.139008 0.720316 0.300154
O O4 0.000000 0.786168 0.500000
O O5 0.351971 0.281002 0.431464
O O6 0.275985 0.274810 0.623713
O O7 0.097541 0.267565 0.625883
O O8 0.256411 0.000000 0.549826
O O9 0.414845 0.500000 0.288196
O O10 0.544650 0.788498 0.220925
O O11 0.288320 0.719004 0.771230
O O12 0.260452 0.000000 0.863525
O O13 0.199244 0.717526 0.968223
O O14 0.884342 0.273333 0.836994
O O15 0.937517 0.000000 0.723785
O O16 0.061498 0.262452 0.835176
O O17 0.228964 0.000000 0.729119
O O18 0.902623 0.000000 0.909517
#
# Coordination Sequence:
#
# PCOD9146282 Si02
#       7
#     4   4   4   4   4   4   4
#     4  10  20  35  53  72  96 131 172 207 248 303
#     4   9  17  31  51  77 104 128 162 206 251 297
#     4  11  23  36  49  69 103 137 168 208 252 299
#     4  10  19  33  54  76 102 137 171 202 241 293
#     4   9  17  30  53  82 104 122 157 212 258 291
#     4   8  15  29  53  81 103 128 166 208 245 289
#     4   8  15  30  53  81 106 128 162 207 249 290
#
# _framework density 20.708012
#
# number of rings (size 3 to 8) (size 9 to 14) (size 15 to 20)
#    0.000    2.714    1.429    2.571    0.000    3.714 
#    0.000    5.000    0.000    7.714    0.000    0.000 
#    0.000    0.000    0.000    0.000    0.000    0.000 
#
# Total GULP energy -156232.779953 kJ/mol
# GULP energy per Si atom -5579.742141 kJ/mol
# Density = 2.066088 g / cm^3
# Si number density = 20.708012 Si / 1000 Ang^3
#
#
#
# Elastic Constant Matrix: (Units=GPa)
#
#
# Indices 1 2 3 4 5 6 
#
# 1 101.6291 -4.9170 17.7570 0.0000 10.9498 0.0000
# 2 -4.9170 45.0814 -5.2935 0.0000 1.4916 0.0000
# 3 17.7570 -5.2935 21.1330 0.0000 5.2535 0.0000
# 4 0.0000 0.0000 0.0000 -22.4883 0.0000 22.5996
# 5 10.9498 1.4916 5.2535 0.0000 17.7154 0.0000
# 6 0.0000 0.0000 0.0000 22.5996 0.0000 22.2930
#
#
#
# Elastic Compliance Matrix: (Units=1/GPa)
#
#
# Indices 1 2 3 4 5 6 
#
# 1 0.011898 0.000436 -0.008691 0.000000 -0.004813 0.000000
# 2 0.000436 0.023124 0.006452 0.000000 -0.004130 0.000000
# 3 -0.008691 0.006452 0.059418 0.000000 -0.012792 0.000000
# 4 0.000000 0.000000 0.000000 -0.022027 0.000000 0.022330
# 5 -0.004813 -0.004130 -0.012792 0.000000 0.063564 0.000000
# 6 0.000000 0.000000 0.000000 0.022330 0.000000 0.022220
#
#
# Mechanical properties :
#
#
# Convention : Reuss Voigt Hill
#
# Bulk Modulus (GPa) = 11.00900 20.32625 15.66763
# Shear Modulus (GPa) = 26.03065 14.19048 20.11056
#
# Velocity S-wave (km/s) = 3.54931 2.62060 3.11971
# Velocity P-wave (km/s) = 4.70369 4.35817 4.53422
#
# Compressibility (1/GPa) = 0.09083478
#
# Stress axis : x y z
#
# Youngs Moduli (GPa) = 84.04765 43.24512 16.82986
#
# Poissons Ratio (x) = -0.01887 0.14627
# Poissons Ratio (y) = -0.03668 -0.10859
# Poissons Ratio (z) = 0.73049 -0.27903
#
# Static dielectric constant tensor:
#      x y z
#    x 1.740210 0.000000 0.021520 
#    y 0.000000 1.799550 0.000000 
#    z 0.021520 0.000000 1.720130 
# 
# From -- ./inp_files/68573.got.cif
#   From: 2010.05.17/outbox.cif.g08.bks.cpg/sg10_35_cif.got.tgz:68573.got - 2010.06.03 11:33:40.
