data_PCOD9146706
_publ_section_title
;
Structure prediction by ZEFSAII (Michael W. Deem and Ramdas Pophale) SiO2 
 PCOD9146706
Probable space group: P 2/M
;
_chemical_formula_sum "Si O2"
_cell_formula_units_Z 28
_cell_length_a 16.691529
_cell_length_b 7.530617
_cell_length_c 19.658502
_cell_angle_alpha 90.000000
_cell_angle_beta 143.826374
_cell_angle_gamma 90.000000
_cell_volume 1458.483219
_symmetry_space_group_name_H-M "P 2/M"
_symmetry_group_IT_number 10
_symmetry_cell_setting 'monoclinic'
loop_
_space_group_symop_operation_xyz
x,y,z
-x,y,-z
-x,-y,-z
x,-y,z
loop_
_atom_site_type_symbol
_atom_site_label
_atom_site_fract_x
_atom_site_fract_y
_atom_site_fract_z
Si Si1 0.360315 0.215576 0.940594
Si Si2 0.190592 0.000000 0.195563
Si Si3 0.833675 0.211003 0.451692
Si Si4 0.135519 0.782918 0.680183
Si Si5 0.552167 0.287970 0.327275
Si Si6 0.585055 0.712589 0.626703
Si Si7 0.121325 0.000000 0.987595
Si Si8 0.312859 0.705168 0.063939
O O1 0.235068 0.275554 0.807878
O O2 0.359310 0.000000 0.943165
O O3 0.500000 0.268883 0.000000
O O4 0.347658 0.282325 0.008476
O O5 0.278740 0.171677 0.276852
O O6 0.041097 0.000000 0.125262
O O7 0.168347 0.000000 0.098738
O O8 0.815185 0.275089 0.361222
O O9 0.703693 0.242529 0.408755
O O10 0.978918 0.275958 0.578880
O O11 0.849229 0.000000 0.456437
O O12 0.138832 0.000000 0.683877
O O13 0.545898 0.500000 0.322904
O O14 0.504289 0.230789 0.369043
O O15 0.441803 0.227017 0.196111
O O16 0.500000 0.745011 0.500000
O O17 0.612162 0.500000 0.649662
O O18 0.186713 0.171047 0.996357
O O19 0.286654 0.500000 0.064274
#
# Coordination Sequence:
#
# PCOD9146706 Si02
#       8
#     4   2   4   4   4   4   2   4
#     4  10  19  33  57  86 119 162 205 249 296 346
#     4  11  23  42  70  94 119 158 208 249 308 388
#     4   9  17  31  56  79 108 153 191 238 294 346
#     4   8  16  32  49  80 117 147 195 242 288 345
#     4  10  21  36  56  83 111 145 193 240 291 353
#     4  10  22  42  64  92 128 156 194 254 306 366
#     4  11  24  42  65  94 122 158 206 256 306 371
#     4  11  23  40  60  86 124 161 202 254 300 358
#
# _framework density 19.198028000000001
#
# number of rings (size 3 to 8) (size 9 to 14) (size 15 to 20)
#    0.000    2.143    2.143    1.929    2.000    2.000 
#    2.571    4.286    0.000    0.000    0.000    0.000 
#    0.000    0.000    0.000    0.000    0.000    0.000 
#
# Total GULP energy -156329.291987 kJ/mol
# GULP energy per Si atom -5583.189000 kJ/mol
# Density = 1.915433 g / cm^3
# Si number density = 19.198028 Si / 1000 Ang^3
#
#
#
# Elastic Constant Matrix: (Units=GPa)
#
#
# Indices 1 2 3 4 5 6 
#
# 1 152.5356 37.8277 99.9752 0.0000 12.2741 0.0000
# 2 37.8277 76.2099 33.7190 0.0000 7.7978 0.0000
# 3 99.9752 33.7190 154.0681 0.0000 -3.4932 0.0000
# 4 0.0000 0.0000 0.0000 63.2003 0.0000 20.7262
# 5 12.2741 7.7978 -3.4932 0.0000 33.8734 0.0000
# 6 0.0000 0.0000 0.0000 20.7262 0.0000 22.8139
#
#
#
# Elastic Compliance Matrix: (Units=1/GPa)
#
#
# Indices 1 2 3 4 5 6 
#
# 1 0.012634 -0.002324 -0.007800 0.000000 -0.004847 0.000000
# 2 -0.002324 0.015429 -0.001934 0.000000 -0.002909 0.000000
# 3 -0.007800 -0.001934 0.012078 0.000000 0.004517 0.000000
# 4 0.000000 0.000000 0.000000 0.022537 0.000000 -0.020475
# 5 -0.004847 -0.002909 0.004517 0.000000 0.032414 0.000000
# 6 0.000000 0.000000 0.000000 -0.020475 0.000000 0.062434
#
#
# Mechanical properties :
#
#
# Convention : Reuss Voigt Hill
#
# Bulk Modulus (GPa) = 62.40615 80.65084 71.52849
# Shear Modulus (GPa) = 26.74014 38.06363 32.40189
#
# Velocity S-wave (km/s) = 3.73615 4.45757 4.11271
# Velocity P-wave (km/s) = 7.15464 8.28217 7.73897
#
# Compressibility (1/GPa) = 0.01602406
#
# Stress axis : x y z
#
# Youngs Moduli (GPa) = 79.14885 64.81352 82.79726
#
# Poissons Ratio (x) = 0.15064 0.64580
# Poissons Ratio (y) = 0.18396 0.16017
# Poissons Ratio (z) = 0.61734 0.12538
#
# Static dielectric constant tensor:
#      x y z
#    x 1.647160 0.000000 -0.000920 
#    y 0.000000 1.710810 0.000000 
#    z -0.000920 0.000000 1.656700 
# 
# From -- ./inp_files/77821.got.cif
#   From: 2010.05.17/outbox.cif.g08.bks.cpg/sg10_39_cif.got.tgz:77821.got - 2010.06.03 11:33:40.
