data_PCOD9146798
_publ_section_title
;
Structure prediction by ZEFSAII (Michael W. Deem and Ramdas Pophale) SiO2 
 PCOD9146798
Probable space group: P 2/M
;
_chemical_formula_sum "Si O2"
_cell_formula_units_Z 32
_cell_length_a 12.062499
_cell_length_b 17.895538
_cell_length_c 16.586348
_cell_angle_alpha 90.000000
_cell_angle_beta 28.066599
_cell_angle_gamma 90.000000
_cell_volume 1684.574402
_symmetry_space_group_name_H-M "P 2/M"
_symmetry_group_IT_number 10
_symmetry_cell_setting 'monoclinic'
loop_
_space_group_symop_operation_xyz
x,y,z
-x,y,-z
-x,-y,-z
x,-y,z
loop_
_atom_site_type_symbol
_atom_site_label
_atom_site_fract_x
_atom_site_fract_y
_atom_site_fract_z
Si Si1 0.811274 0.084994 0.047521
Si Si2 0.027545 0.657175 0.707270
Si Si3 0.498154 0.836344 0.368243
Si Si4 0.257487 0.698449 0.842760
Si Si5 0.698793 0.416527 0.042021
Si Si6 0.113505 0.182030 0.736905
Si Si7 0.829561 0.414395 0.686428
Si Si8 0.516733 0.417261 0.394375
O O1 0.578021 0.106568 0.247723
O O2 0.804236 0.000000 0.021994
O O3 0.000000 0.087977 0.000000
O O4 0.895696 0.139759 0.920724
O O5 0.878359 0.649815 0.720878
O O6 0.052956 0.735466 0.740052
O O7 0.279958 0.624123 0.520145
O O8 0.900069 0.599539 0.848371
O O9 0.533620 0.757341 0.300623
O O10 0.689065 0.823282 0.318557
O O11 0.253147 0.852992 0.570269
O O12 0.287376 0.648923 0.901984
O O13 0.271601 0.637120 0.763381
O O14 0.000000 0.735480 0.000000
O O15 0.731972 0.500000 0.053974
O O16 0.441479 0.412848 0.166843
O O17 0.874830 0.500000 0.688890
O O18 0.000000 0.404943 0.500000
O O19 0.500000 0.422249 0.500000
O O20 0.535167 0.500000 0.348343
#
# Coordination Sequence:
#
# PCOD9146798 Si02
#       8
#     4   4   4   4   4   4   4   4
#     4   9  18  33  53  81 115 150 185 219 262 331
#     4  12  21  36  55  73 102 139 180 231 281 338
#     4  10  19  34  52  77 112 151 183 220 277 333
#     4  12  22  34  52  73 106 143 184 230 279 335
#     4  11  23  36  53  75 100 139 187 238 291 334
#     4  10  20  33  54  80 110 146 185 224 272 331
#     4  10  22  39  55  73 100 137 184 237 292 339
#     4  11  22  33  47  70 100 137 181 227 272 320
#
# _framework density 18.995895999999998
#
# number of rings (size 3 to 8) (size 9 to 14) (size 15 to 20)
#    0.000    1.375    1.250    6.750    0.000    4.500 
#    0.000    2.500    0.000    0.000    0.000    0.000 
#    0.000    8.500    0.000    0.375    0.000    0.625 
#
# Total GULP energy -178339.947529 kJ/mol
# GULP energy per Si atom -5573.123360 kJ/mol
# Density = 1.895266 g / cm^3
# Si number density = 18.995896 Si / 1000 Ang^3
#
#
#
# Elastic Constant Matrix: (Units=GPa)
#
#
# Indices 1 2 3 4 5 6 
#
# 1 39.0248 15.8063 11.6558 0.0000 8.4463 0.0000
# 2 15.8063 81.2373 25.2706 0.0000 11.9766 0.0000
# 3 11.6558 25.2706 100.3605 0.0000 17.1681 0.0000
# 4 0.0000 0.0000 0.0000 60.6418 0.0000 34.6889
# 5 8.4463 11.9766 17.1681 0.0000 26.0459 0.0000
# 6 0.0000 0.0000 0.0000 34.6889 0.0000 36.6803
#
#
#
# Elastic Compliance Matrix: (Units=1/GPa)
#
#
# Indices 1 2 3 4 5 6 
#
# 1 0.029174 -0.004329 -0.001150 0.000000 -0.006712 0.000000
# 2 -0.004329 0.014466 -0.002527 0.000000 -0.003582 0.000000
# 3 -0.001150 -0.002527 0.011802 0.000000 -0.006244 0.000000
# 4 0.000000 0.000000 0.000000 0.035924 0.000000 -0.033974
# 5 -0.006712 -0.003582 -0.006244 0.000000 0.046334 0.000000
# 6 0.000000 0.000000 0.000000 -0.033974 0.000000 0.059392
#
#
# Mechanical properties :
#
#
# Convention : Reuss Voigt Hill
#
# Bulk Modulus (GPa) = 25.36110 36.23199 30.79655
# Shear Modulus (GPa) = 22.09955 35.86624 28.98289
#
# Velocity S-wave (km/s) = 3.41454 4.34995 3.91032
# Velocity P-wave (km/s) = 5.37822 6.65916 6.05267
#
# Compressibility (1/GPa) = 0.03943046
#
# Stress axis : x y z
#
# Youngs Moduli (GPa) = 34.27660 69.12693 84.73046
#
# Poissons Ratio (x) = 0.29926 0.09744
# Poissons Ratio (y) = 0.14839 0.21411
# Poissons Ratio (z) = 0.03942 0.17468
#
# Static dielectric constant tensor:
#      x y z
#    x 1.684290 0.000000 -0.002330 
#    y 0.000000 1.705520 0.000000 
#    z -0.002330 0.000000 1.755840 
# 
# From -- ./inp_files/65401.got.cif
#   From: 2010.05.17/outbox.cif.g08.bks.cpg/sg10_33_cif.got.tgz:65401.got - 2010.06.03 11:33:40.
