data_PCOD9146509
_publ_section_title
;
Structure prediction by ZEFSAII (Michael W. Deem and Ramdas Pophale) SiO2 
 PCOD9146509
Probable space group: P 2/M
;
_chemical_formula_sum "Si O2"
_cell_formula_units_Z 24
_cell_length_a 12.670167
_cell_length_b 7.691414
_cell_length_c 11.911850
_cell_angle_alpha 90.000000
_cell_angle_beta 68.130108
_cell_angle_gamma 90.000000
_cell_volume 1077.285349
_symmetry_space_group_name_H-M "P 2/M"
_symmetry_group_IT_number 10
_symmetry_cell_setting 'monoclinic'
loop_
_space_group_symop_operation_xyz
x,y,z
-x,y,-z
-x,-y,-z
x,-y,z
loop_
_atom_site_type_symbol
_atom_site_label
_atom_site_fract_x
_atom_site_fract_y
_atom_site_fract_z
Si Si1 0.970410 0.796652 0.698818
Si Si2 0.228535 0.790172 0.604107
Si Si3 0.111355 0.710833 0.026671
Si Si4 0.462599 0.709443 0.137727
Si Si5 0.329258 0.292667 0.800815
Si Si6 0.762472 0.791536 0.647040
O O1 0.885147 0.722530 0.639056
O O2 0.097516 0.725275 0.665436
O O3 0.986870 0.000000 0.664840
O O4 0.904160 0.780136 0.842310
O O5 0.302796 0.738299 0.681279
O O6 0.269429 0.730564 0.465222
O O7 0.227377 0.000000 0.606778
O O8 0.114210 0.500000 0.031861
O O9 0.223346 0.773005 0.917436
O O10 0.000000 0.760722 0.000000
O O11 0.468232 0.500000 0.131844
O O12 0.552680 0.774057 0.195095
O O13 0.335687 0.753056 0.225348
O O14 0.500000 0.773221 0.000000
O O15 0.330163 0.500000 0.815618
O O16 0.773142 0.000000 0.636989
#
# Coordination Sequence:
#
# PCOD9146509 Si02
#       6
#     4   4   4   4   4   4
#     4  10  20  35  57  83 113 148 186 229 276 328
#     4  10  21  37  57  82 114 149 184 226 278 332
#     4  10  19  33  55  82 112 144 180 226 277 327
#     4  10  22  41  62  82 109 146 186 228 277 332
#     4  10  21  37  57  83 114 146 183 229 278 329
#     4  10  22  39  58  82 112 148 189 230 273 324
#
# _framework density 22.278220999999998
#
# number of rings (size 3 to 8) (size 9 to 14) (size 15 to 20)
#    0.000    2.000    1.667    1.500    0.000    7.333 
#    0.000    3.333    0.000    3.000    0.000    0.000 
#    0.000    0.000    0.000    0.000    0.000    0.000 
#
# Total GULP energy -134094.268599 kJ/mol
# GULP energy per Si atom -5587.261192 kJ/mol
# Density = 2.222752 g / cm^3
# Si number density = 22.278221 Si / 1000 Ang^3
#
#
#
# Elastic Constant Matrix: (Units=GPa)
#
#
# Indices 1 2 3 4 5 6 
#
# 1 125.1659 4.9638 30.0274 0.0000 19.5711 0.0000
# 2 4.9638 34.8971 -6.8174 0.0000 1.2618 0.0000
# 3 30.0274 -6.8174 103.4781 0.0000 16.7289 0.0000
# 4 0.0000 0.0000 0.0000 21.0751 0.0000 1.1679
# 5 19.5711 1.2618 16.7289 0.0000 29.6742 0.0000
# 6 0.0000 0.0000 0.0000 1.1679 0.0000 13.4745
#
#
#
# Elastic Compliance Matrix: (Units=1/GPa)
#
#
# Indices 1 2 3 4 5 6 
#
# 1 0.009303 -0.001536 -0.002002 0.000000 -0.004942 0.000000
# 2 -0.001536 0.029459 0.002668 0.000000 -0.001744 0.000000
# 3 -0.002002 0.002668 0.011251 0.000000 -0.005136 0.000000
# 4 0.000000 0.000000 0.000000 0.047678 0.000000 -0.004132
# 5 -0.004942 -0.001744 -0.005136 0.000000 0.039928 0.000000
# 6 0.000000 0.000000 0.000000 -0.004132 0.000000 0.074573
#
#
# Mechanical properties :
#
#
# Convention : Reuss Voigt Hill
#
# Bulk Modulus (GPa) = 20.71494 35.54317 28.12906
# Shear Modulus (GPa) = 21.73710 28.53592 25.13651
#
# Velocity S-wave (km/s) = 3.12703 3.58283 3.36266
# Velocity P-wave (km/s) = 4.72823 5.75365 5.26596
#
# Compressibility (1/GPa) = 0.04827434
#
# Stress axis : x y z
#
# Youngs Moduli (GPa) = 107.48897 33.94605 88.88187
#
# Poissons Ratio (x) = 0.05213 0.17793
# Poissons Ratio (y) = 0.16507 -0.23717
# Poissons Ratio (z) = 0.21518 -0.09058
#
# Static dielectric constant tensor:
#      x y z
#    x 1.821830 0.000000 0.012720 
#    y 0.000000 1.837710 0.000000 
#    z 0.012720 0.000000 1.798690 
# 
# From -- ./inp_files/45019.got.cif
#   From: 2010.05.17/outbox.cif.g08.bks.cpg/sg10_23_cif.got.tgz:45019.got - 2010.06.03 11:33:40.
