data_PCOD9146138
_publ_section_title
;
Structure prediction by ZEFSAII (Michael W. Deem and Ramdas Pophale) SiO2 
 PCOD9146138
Probable space group: P 2/M
;
_chemical_formula_sum "Si O2"
_cell_formula_units_Z 32
_cell_length_a 28.113220
_cell_length_b 8.678122
_cell_length_c 15.929099
_cell_angle_alpha 90.000000
_cell_angle_beta 28.100876
_cell_angle_gamma 90.000000
_cell_volume 1830.508928
_symmetry_space_group_name_H-M "P 2/M"
_symmetry_group_IT_number 10
_symmetry_cell_setting 'monoclinic'
loop_
_space_group_symop_operation_xyz
x,y,z
-x,y,-z
-x,-y,-z
x,-y,z
loop_
_atom_site_type_symbol
_atom_site_label
_atom_site_fract_x
_atom_site_fract_y
_atom_site_fract_z
Si Si1 0.772102 0.815373 0.308681
Si Si2 0.684260 0.815121 0.690960
Si Si3 0.147470 0.185071 0.311253
Si Si4 0.579049 0.316976 0.692062
Si Si5 0.880472 0.315893 0.302678
Si Si6 0.045403 0.316355 0.304611
Si Si7 0.633396 0.185017 0.961420
Si Si8 0.915982 0.815871 0.936319
O O1 0.661550 0.748073 0.498639
O O2 0.844208 0.744993 0.268544
O O3 0.769991 0.000000 0.322768
O O4 0.819741 0.779415 0.144337
O O5 0.609974 0.757066 0.733627
O O6 0.791993 0.738200 0.503575
O O7 0.645962 0.776722 0.843255
O O8 0.694531 0.000000 0.668937
O O9 0.112888 0.248680 0.275029
O O10 0.261752 0.226341 0.156799
O O11 0.067339 0.252315 0.502576
O O12 0.138503 0.000000 0.325945
O O13 0.589223 0.500000 0.681877
O O14 0.465300 0.267556 0.849763
O O15 0.887536 0.500000 0.290766
O O16 0.985220 0.242595 0.168213
O O17 0.043569 0.500000 0.312876
O O18 0.084010 0.261815 0.154450
O O19 0.620071 0.000000 0.988384
O O20 0.922133 0.000000 0.916886
#
# Coordination Sequence:
#
# PCOD9146138 Si02
#       8
#     4   4   4   4   4   4   4   4
#     4  10  21  37  55  73 101 141 182 220 256 306
#     4  10  19  33  52  74 106 144 180 215 252 305
#     4  10  20  37  59  81 109 142 175 211 254 313
#     4  11  22  34  51  75 106 140 174 218 266 308
#     4  11  21  32  50  78 111 141 172 216 265 311
#     4  11  22  36  56  83 113 139 167 212 266 314
#     4  10  21  35  54  77 101 137 180 217 255 304
#     4  11  22  36  55  77 102 139 182 217 257 311
#
# _framework density 17.481476000000001
#
# number of rings (size 3 to 8) (size 9 to 14) (size 15 to 20)
#    0.000    1.500    0.000    8.625    0.000    8.000 
#    0.000    0.000    0.000    0.750    0.000    5.250 
#    0.000    0.000    0.000    0.000    0.000    0.000 
#
# Total GULP energy -178866.657681 kJ/mol
# GULP energy per Si atom -5589.583053 kJ/mol
# Density = 1.744169 g / cm^3
# Si number density = 17.481476 Si / 1000 Ang^3
#
#
#
# Elastic Constant Matrix: (Units=GPa)
#
#
# Indices 1 2 3 4 5 6 
#
# 1 66.0777 38.3908 74.0649 0.0000 -2.6636 0.0000
# 2 38.3908 87.1513 48.2369 0.0000 -0.7638 0.0000
# 3 74.0649 48.2369 118.2654 0.0000 -1.2896 0.0000
# 4 0.0000 0.0000 0.0000 54.0640 0.0000 -344.6883
# 5 -2.6636 -0.7638 -1.2896 0.0000 28.3203 0.0000
# 6 0.0000 0.0000 0.0000 -344.6883 0.0000 644.2888
#
#
#
# Elastic Compliance Matrix: (Units=1/GPa)
#
#
# Indices 1 2 3 4 5 6 
#
# 1 0.053811 -0.006513 -0.031005 0.000000 0.003474 0.000000
# 2 -0.006513 0.015609 -0.002291 0.000000 -0.000296 0.000000
# 3 -0.031005 -0.002291 0.028789 0.000000 -0.001667 0.000000
# 4 0.000000 0.000000 0.000000 -0.007672 0.000000 -0.004105
# 5 0.003474 -0.000296 -0.001667 0.000000 0.035553 0.000000
# 6 0.000000 0.000000 0.000000 -0.004105 0.000000 -0.000644
#
#
# Mechanical properties :
#
#
# Convention : Reuss Voigt Hill
#
# Bulk Modulus (GPa) = 53.79027 65.87552 59.83289
# Shear Modulus (GPa) = 23.66753 152.72139 88.19446
#
# Velocity S-wave (km/s) = 3.68348 9.35690 7.11054
# Velocity P-wave (km/s) = 6.99481 12.42981 10.08532
#
# Compressibility (1/GPa) = 0.01859072
#
# Stress axis : x y z
#
# Youngs Moduli (GPa) = 18.58371 64.06748 34.73534
#
# Poissons Ratio (x) = 0.41725 1.07698
# Poissons Ratio (y) = 0.12103 0.07957
# Poissons Ratio (z) = 0.57619 0.14677
#
# Static dielectric constant tensor:
#      x y z
#    x 1.576460 0.000000 -0.000540 
#    y 0.000000 1.581030 0.000000 
#    z -0.000540 0.000000 1.596870 
# 
# From -- ./inp_files/72186.got.cif
#   From: 2010.05.17/outbox.cif.g08.bks.cpg/sg10_37_cif.got.tgz:72186.got - 2010.06.03 11:33:40.
