data_PCOD9146269
_publ_section_title
;
Structure prediction by ZEFSAII (Michael W. Deem and Ramdas Pophale) SiO2 
 PCOD9146269
Probable space group: P 2/M
;
_chemical_formula_sum "Si O2"
_cell_formula_units_Z 32
_cell_length_a 21.197259
_cell_length_b 13.709562
_cell_length_c 14.291440
_cell_angle_alpha 90.000000
_cell_angle_beta 155.839919
_cell_angle_gamma 90.000000
_cell_volume 1699.838644
_symmetry_space_group_name_H-M "P 2/M"
_symmetry_group_IT_number 10
_symmetry_cell_setting 'monoclinic'
loop_
_space_group_symop_operation_xyz
x,y,z
-x,y,-z
-x,-y,-z
x,-y,z
loop_
_atom_site_type_symbol
_atom_site_label
_atom_site_fract_x
_atom_site_fract_y
_atom_site_fract_z
Si Si1 0.518747 0.883477 0.415697
Si Si2 0.255064 0.888998 0.594347
Si Si3 0.286451 0.677923 0.695052
Si Si4 0.837034 0.106072 0.329350
Si Si5 0.500109 0.391553 0.844501
Si Si6 0.035242 0.614895 0.659136
Si Si7 0.678496 0.752096 0.977192
Si Si8 0.165424 0.883166 0.258205
O O1 0.500000 0.863307 0.500000
O O2 0.379864 0.831585 0.173978
O O3 0.683216 0.850265 0.594371
O O4 0.509154 0.000000 0.388916
O O5 0.338423 0.788432 0.737346
O O6 0.140724 0.892173 0.528929
O O7 0.189425 0.870733 0.402326
O O8 0.326913 0.000000 0.689561
O O9 0.334967 0.617660 0.669218
O O10 0.108723 0.662928 0.481344
O O11 0.381056 0.633786 0.910265
O O12 0.000000 0.112597 0.500000
O O13 0.765449 0.000000 0.211147
O O14 0.735710 0.190780 0.147625
O O15 0.532351 0.500000 0.855244
O O16 0.535118 0.314470 0.812479
O O17 0.052994 0.500000 0.707650
O O18 0.000000 0.618080 0.500000
O O19 0.186329 0.681363 0.875365
O O20 0.160514 0.000000 0.236358
O O21 0.000000 0.843501 0.000000
#
# Coordination Sequence:
#
# PCOD9146269 Si02
#       8
#     4   4   4   4   4   4   4   4
#     4  10  23  42  61  87 120 156 200 249 302 364
#     4  10  19  33  53  84 120 153 193 238 286 349
#     4  11  20  35  52  78 114 157 194 234 285 348
#     4  10  20  33  49  78 120 161 192 226 283 356
#     4  11  22  35  54  79 112 151 195 243 292 343
#     4  11  21  35  55  80 114 154 201 246 287 342
#     4  12  21  36  58  85 115 152 193 241 299 355
#     4   9  19  37  60  83 111 154 203 244 286 342
#
# _framework density 18.825316000000001
#
# number of rings (size 3 to 8) (size 9 to 14) (size 15 to 20)
#    0.000    1.500    2.500    4.125    0.000    2.000 
#    0.000    7.500    0.000    1.500    0.000    0.000 
#    0.000    9.500    0.000    0.000    0.000    0.000 
#
# Total GULP energy -178324.578592 kJ/mol
# GULP energy per Si atom -5572.643081 kJ/mol
# Density = 1.878247 g / cm^3
# Si number density = 18.825316 Si / 1000 Ang^3
#
#
#
# Elastic Constant Matrix: (Units=GPa)
#
#
# Indices 1 2 3 4 5 6 
#
# 1 113.7746 39.4116 55.2802 0.0000 6.9053 0.0000
# 2 39.4116 95.4529 25.7962 0.0000 -3.3527 0.0000
# 3 55.2802 25.7962 70.2662 0.0000 4.3028 0.0000
# 4 0.0000 0.0000 0.0000 21.7618 0.0000 8.4317
# 5 6.9053 -3.3527 4.3028 0.0000 24.2344 0.0000
# 6 0.0000 0.0000 0.0000 8.4317 0.0000 7.4167
#
#
#
# Elastic Compliance Matrix: (Units=1/GPa)
#
#
# Indices 1 2 3 4 5 6 
#
# 1 0.015353 -0.003585 -0.010579 0.000000 -0.002992 0.000000
# 2 -0.003585 0.012606 -0.001999 0.000000 0.003120 0.000000
# 3 -0.010579 -0.001999 0.023375 0.000000 -0.001412 0.000000
# 4 0.000000 0.000000 0.000000 0.082127 0.000000 -0.093367
# 5 -0.002992 0.003120 -0.001412 0.000000 0.042799 0.000000
# 6 0.000000 0.000000 0.000000 -0.093367 0.000000 0.240976
#
#
# Mechanical properties :
#
#
# Convention : Reuss Voigt Hill
#
# Bulk Modulus (GPa) = 52.60891 57.82998 55.21944
# Shear Modulus (GPa) = 10.96735 21.28296 16.12515
#
# Velocity S-wave (km/s) = 2.41630 3.36601 2.92989
# Velocity P-wave (km/s) = 5.98257 6.77441 6.39077
#
# Compressibility (1/GPa) = 0.01900819
#
# Stress axis : x y z
#
# Youngs Moduli (GPa) = 65.13391 79.32487 42.78129
#
# Poissons Ratio (x) = 0.28439 0.45259
# Poissons Ratio (y) = 0.23352 0.08550
# Poissons Ratio (z) = 0.68906 0.15854
#
# Static dielectric constant tensor:
#      x y z
#    x 1.683190 0.000000 0.036290 
#    y 0.000000 1.718260 0.000000 
#    z 0.036290 0.000000 1.633860 
# 
# From -- ./inp_files/54039.got.cif
#   From: 2010.05.17/outbox.cif.g08.bks.cpg/sg10_28_cif.got.tgz:54039.got - 2010.06.03 11:33:40.
