data_PCOD9146827
_publ_section_title
;
Structure prediction by ZEFSAII (Michael W. Deem and Ramdas Pophale) SiO2 
 PCOD9146827
Probable space group: P 2/M
;
_chemical_formula_sum "Si O2"
_cell_formula_units_Z 28
_cell_length_a 8.272898
_cell_length_b 16.737390
_cell_length_c 21.439476
_cell_angle_alpha 90.000000
_cell_angle_beta 27.611026
_cell_angle_gamma 90.000000
_cell_volume 1375.871845
_symmetry_space_group_name_H-M "P 2/M"
_symmetry_group_IT_number 10
_symmetry_cell_setting 'monoclinic'
loop_
_space_group_symop_operation_xyz
x,y,z
-x,y,-z
-x,-y,-z
x,-y,z
loop_
_atom_site_type_symbol
_atom_site_label
_atom_site_fract_x
_atom_site_fract_y
_atom_site_fract_z
Si Si1 0.459836 0.000000 0.230516
Si Si2 0.502028 0.409914 0.573737
Si Si3 0.306445 0.243608 0.443502
Si Si4 0.905158 0.591974 0.874423
Si Si5 0.191323 0.000000 0.024690
Si Si6 0.454467 0.172769 0.947586
Si Si7 0.227837 0.741815 0.825342
Si Si8 0.831481 0.173440 0.694547
O O1 0.255407 0.916266 0.299964
O O2 0.773193 0.000000 0.173024
O O3 0.666984 0.000000 0.094548
O O4 0.500000 0.399355 0.500000
O O5 0.632728 0.500000 0.542283
O O6 0.707703 0.337507 0.535056
O O7 0.119699 0.403886 0.735966
O O8 0.652854 0.228103 0.284831
O O9 0.000000 0.222863 0.500000
O O10 0.209103 0.197450 0.539535
O O11 0.923250 0.500000 0.890062
O O12 0.102223 0.651359 0.854881
O O13 0.500000 0.610765 0.000000
O O14 0.343632 0.081890 0.996865
O O15 0.763908 0.177291 0.791693
O O16 0.500000 0.210768 0.000000
O O17 0.110780 0.212119 0.035653
O O18 0.550840 0.764406 0.759527
#
# Coordination Sequence:
#
# PCOD9146827 Si02
#       8
#     2   4   4   4   2   4   4   4
#     4   9  16  32  58  76 100 142 177 211 266 314
#     4   9  18  33  54  77 103 140 178 212 258 314
#     4   9  20  35  51  76 109 136 175 220 260 309
#     4   9  18  33  53  78 109 142 176 217 263 313
#     4   9  17  32  53  79 104 132 172 221 263 311
#     4  11  21  33  54  81 105 135 176 219 265 315
#     4  10  19  34  53  78 108 137 178 215 263 316
#     4  10  20  36  55  77 107 141 177 219 263 317
#
# _framework density 20.350732000000001
#
# number of rings (size 3 to 8) (size 9 to 14) (size 15 to 20)
#    0.000    2.429    1.429    1.071    0.000    3.714 
#    0.000    6.071    0.000    1.714    0.000    4.500 
#    0.000    0.000    0.000    0.000    0.000    0.000 
#
# Total GULP energy -155917.359838 kJ/mol
# GULP energy per Si atom -5568.477137 kJ/mol
# Density = 2.030441 g / cm^3
# Si number density = 20.350732 Si / 1000 Ang^3
#
#
#
# Elastic Constant Matrix: (Units=GPa)
#
#
# Indices 1 2 3 4 5 6 
#
# 1 48.2350 13.8033 6.5700 0.0000 12.9519 0.0000
# 2 13.8033 104.1592 31.7109 0.0000 6.3358 0.0000
# 3 6.5700 31.7109 85.5830 0.0000 11.4813 0.0000
# 4 0.0000 0.0000 0.0000 14.5042 0.0000 1.6991
# 5 12.9519 6.3358 11.4813 0.0000 18.6276 0.0000
# 6 0.0000 0.0000 0.0000 1.6991 0.0000 71.6507
#
#
#
# Elastic Compliance Matrix: (Units=1/GPa)
#
#
# Indices 1 2 3 4 5 6 
#
# 1 0.026219 -0.002816 0.001469 0.000000 -0.018178 0.000000
# 2 -0.002816 0.011154 -0.004001 0.000000 0.000631 0.000000
# 3 0.001469 -0.004001 0.014181 0.000000 -0.008402 0.000000
# 4 0.000000 0.000000 0.000000 0.069137 0.000000 -0.001639
# 5 -0.018178 0.000631 -0.008402 0.000000 0.071287 0.000000
# 6 0.000000 0.000000 0.000000 -0.001639 0.000000 0.013995
#
#
# Mechanical properties :
#
#
# Convention : Reuss Voigt Hill
#
# Bulk Modulus (GPa) = 24.47513 38.01618 31.24565
# Shear Modulus (GPa) = 21.71189 33.34937 27.53063
#
# Velocity S-wave (km/s) = 3.26986 4.05252 3.68204
# Velocity P-wave (km/s) = 5.12921 6.37324 5.78476
#
# Compressibility (1/GPa) = 0.04085781
#
# Stress axis : x y z
#
# Youngs Moduli (GPa) = 38.14081 89.65658 70.51488
#
# Poissons Ratio (x) = 0.25249 -0.10361
# Poissons Ratio (y) = 0.10741 0.28214
# Poissons Ratio (z) = -0.05604 0.35873
#
# Static dielectric constant tensor:
#      x y z
#    x 1.756290 0.000000 0.022140 
#    y 0.000000 1.775810 0.000000 
#    z 0.022140 0.000000 1.744760 
# 
# From -- ./inp_files/83009.got.cif
#   From: 2010.05.17/outbox.cif.g08.bks.cpg/sg10_42_cif.got.tgz:83009.got - 2010.06.03 11:33:40.
