data_PCOD9146213
_publ_section_title
;
Structure prediction by ZEFSAII (Michael W. Deem and Ramdas Pophale) SiO2 
 PCOD9146213
Probable space group: P 2/M
;
_chemical_formula_sum "Si O2"
_cell_formula_units_Z 32
_cell_length_a 21.820877
_cell_length_b 7.548127
_cell_length_c 17.179270
_cell_angle_alpha 90.000000
_cell_angle_beta 27.569349
_cell_angle_gamma 90.000000
_cell_volume 1309.573842
_symmetry_space_group_name_H-M "P 2/M"
_symmetry_group_IT_number 10
_symmetry_cell_setting 'monoclinic'
loop_
_space_group_symop_operation_xyz
x,y,z
-x,y,-z
-x,-y,-z
x,-y,z
loop_
_atom_site_type_symbol
_atom_site_label
_atom_site_fract_x
_atom_site_fract_y
_atom_site_fract_z
Si Si1 0.653826 0.204787 0.500308
Si Si2 0.920572 0.283321 0.482179
Si Si3 0.342524 0.204552 0.672706
Si Si4 0.210584 0.297604 0.150114
Si Si5 0.198952 0.795068 0.983916
Si Si6 0.490897 0.207064 0.192566
Si Si7 0.635522 0.296068 0.818572
Si Si8 0.092927 0.713078 0.684738
O O1 0.684712 0.285869 0.381406
O O2 0.538417 0.276304 0.687110
O O3 0.784665 0.213503 0.405172
O O4 0.616528 0.000000 0.525609
O O5 0.922094 0.500000 0.486513
O O6 0.780275 0.222575 0.675739
O O7 0.904989 0.237177 0.408613
O O8 0.068396 0.221624 0.338645
O O9 0.500000 0.201626 0.500000
O O10 0.285993 0.282529 0.816159
O O11 0.291459 0.000000 0.730464
O O12 0.211385 0.500000 0.175158
O O13 0.203848 0.292875 0.063227
O O14 0.356005 0.224240 0.004284
O O15 0.238042 0.000000 0.954339
O O16 0.047397 0.782230 0.126916
O O17 0.392287 0.297641 0.242675
O O18 0.457224 0.000000 0.230240
O O19 0.635067 0.500000 0.846231
O O20 0.500000 0.206803 0.000000
O O21 0.095479 0.500000 0.686159
#
# Coordination Sequence:
#
# PCOD9146213 Si02
#       8
#     4   4   4   4   4   4   4   4
#     4  10  20  34  54  78 103 139 187 230 275 326
#     4   8  16  33  55  80 108 141 182 221 266 324
#     4   9  18  33  51  71 101 140 181 228 279 330
#     4  10  20  35  57  82 112 150 187 228 275 330
#     4  10  19  33  54  78 107 141 184 233 277 325
#     4  11  22  36  57  86 115 143 185 235 278 329
#     4  10  20  37  62  87 112 145 183 225 277 336
#     4  10  19  33  53  76 107 142 178 225 275 330
#
# _framework density 24.43543
#
# number of rings (size 3 to 8) (size 9 to 14) (size 15 to 20)
#    0.000    2.250    1.250    3.000    0.000    3.250 
#    0.000    5.000    0.000    6.375    0.000    0.000 
#    0.000    0.000    0.000    0.000    0.000    0.000 
#
# Total GULP energy -178731.354317 kJ/mol
# GULP energy per Si atom -5585.354822 kJ/mol
# Density = 2.437981 g / cm^3
# Si number density = 24.435430 Si / 1000 Ang^3
#
#
#
# Elastic Constant Matrix: (Units=GPa)
#
#
# Indices 1 2 3 4 5 6 
#
# 1 115.5778 3.6091 48.0674 0.0000 -11.4380 0.0000
# 2 3.6091 70.4397 -0.1274 0.0000 2.1115 0.0000
# 3 48.0674 -0.1274 189.4344 0.0000 -11.7698 0.0000
# 4 0.0000 0.0000 0.0000 20.3988 0.0000 3.2935
# 5 -11.4380 2.1115 -11.7698 0.0000 45.5933 0.0000
# 6 0.0000 0.0000 0.0000 3.2935 0.0000 29.0150
#
#
#
# Elastic Compliance Matrix: (Units=1/GPa)
#
#
# Indices 1 2 3 4 5 6 
#
# 1 0.009847 -0.000565 -0.002382 0.000000 0.001882 0.000000
# 2 -0.000565 0.014249 0.000105 0.000000 -0.000775 0.000000
# 3 -0.002382 0.000105 0.005941 0.000000 0.000931 0.000000
# 4 0.000000 0.000000 0.000000 0.049938 0.000000 -0.005668
# 5 0.001882 -0.000775 0.000931 0.000000 0.022681 0.000000
# 6 0.000000 0.000000 0.000000 -0.005668 0.000000 0.035108
#
#
# Mechanical properties :
#
#
# Convention : Reuss Voigt Hill
#
# Bulk Modulus (GPa) = 41.06418 53.17223 47.11820
# Shear Modulus (GPa) = 32.98890 40.59496 36.79193
#
# Velocity S-wave (km/s) = 3.67828 4.08035 3.88452
# Velocity P-wave (km/s) = 5.90604 6.63374 6.28044
#
# Compressibility (1/GPa) = 0.02435213
#
# Stress axis : x y z
#
# Youngs Moduli (GPa) = 101.55719 70.18083 168.31581
#
# Poissons Ratio (x) = 0.03967 0.40093
# Poissons Ratio (y) = 0.05740 -0.01765
# Poissons Ratio (z) = 0.24191 -0.00736
#
# Static dielectric constant tensor:
#      x y z
#    x 1.967190 0.000000 0.059410 
#    y 0.000000 1.911020 0.000000 
#    z 0.059410 0.000000 1.988330 
# 
# From -- ./inp_files/86770.got.cif
#   From: 2010.05.17/outbox.cif.g08.bks.cpg/sg10_44_cif.got.tgz:86770.got - 2010.06.03 11:33:40.
