data_PCOD9146357
_publ_section_title
;
Structure prediction by ZEFSAII (Michael W. Deem and Ramdas Pophale) SiO2 
 PCOD9146357
Probable space group: P 2/M
;
_chemical_formula_sum "Si O2"
_cell_formula_units_Z 32
_cell_length_a 22.940214
_cell_length_b 7.706824
_cell_length_c 14.917812
_cell_angle_alpha 90.000000
_cell_angle_beta 31.266170
_cell_angle_gamma 90.000000
_cell_volume 1368.855281
_symmetry_space_group_name_H-M "P 2/M"
_symmetry_group_IT_number 10
_symmetry_cell_setting 'monoclinic'
loop_
_space_group_symop_operation_xyz
x,y,z
-x,y,-z
-x,-y,-z
x,-y,z
loop_
_atom_site_type_symbol
_atom_site_label
_atom_site_fract_x
_atom_site_fract_y
_atom_site_fract_z
Si Si1 0.705902 0.299394 0.378103
Si Si2 0.862548 0.203200 0.017717
Si Si3 0.470756 0.198817 0.633971
Si Si4 0.326294 0.210351 0.984275
Si Si5 0.605835 0.706035 0.915772
Si Si6 0.089333 0.208465 0.248436
Si Si7 0.892880 0.710467 0.271589
Si Si8 0.153963 0.707656 0.463335
O O1 0.682430 0.500000 0.430586
O O2 0.764549 0.288369 0.203739
O O3 0.588674 0.201294 0.531200
O O4 0.798072 0.231164 0.327008
O O5 0.836341 0.000000 0.045658
O O6 0.884734 0.269656 0.887823
O O7 0.980983 0.228072 0.912637
O O8 0.500000 0.283185 0.500000
O O9 0.377392 0.273184 0.822842
O O10 0.435374 0.000000 0.661611
O O11 0.328447 0.000000 0.979986
O O12 0.401082 0.268897 0.968935
O O13 0.196653 0.269162 0.164171
O O14 0.608991 0.500000 0.893282
O O15 0.728201 0.778476 0.727582
O O16 0.500000 0.777770 0.000000
O O17 0.961079 0.253684 0.438465
O O18 0.092799 0.000000 0.243431
O O19 0.895255 0.500000 0.265655
O O20 0.863653 0.768354 0.411027
O O21 0.161924 0.500000 0.455775
#
# Coordination Sequence:
#
# PCOD9146357 Si02
#       8
#     4   4   4   4   4   4   4   4
#     4  11  22  33  52  80 112 150 193 242 292 346
#     4  10  19  33  54  80 113 153 194 236 287 348
#     4  10  22  41  61  82 113 153 194 240 293 349
#     4  10  22  40  62  88 117 152 195 244 297 347
#     4  10  23  41  63  87 118 158 197 239 290 349
#     4   9  19  37  60  85 114 151 191 237 294 350
#     4   9  19  34  52  77 112 149 189 239 290 342
#     4   9  19  37  59  84 113 151 193 236 288 343
#
# _framework density 23.377198
#
# number of rings (size 3 to 8) (size 9 to 14) (size 15 to 20)
#    0.000    2.250    0.000    1.875    1.750    7.500 
#    0.000    3.750    0.000    0.000    0.000    0.000 
#    0.000    0.000    0.000    0.000    0.000    0.000 
#
# Total GULP energy -178817.605736 kJ/mol
# GULP energy per Si atom -5588.050179 kJ/mol
# Density = 2.332399 g / cm^3
# Si number density = 23.377198 Si / 1000 Ang^3
#
#
#
# Elastic Constant Matrix: (Units=GPa)
#
#
# Indices 1 2 3 4 5 6 
#
# 1 128.3320 -0.7744 49.9683 0.0000 -27.5736 0.0000
# 2 -0.7744 42.0225 1.3049 0.0000 -6.2281 0.0000
# 3 49.9683 1.3049 134.5718 0.0000 -20.1949 0.0000
# 4 0.0000 0.0000 0.0000 17.0698 0.0000 -3.1050
# 5 -27.5736 -6.2281 -20.1949 0.0000 34.4583 0.0000
# 6 0.0000 0.0000 0.0000 -3.1050 0.0000 19.5410
#
#
#
# Elastic Compliance Matrix: (Units=1/GPa)
#
#
# Indices 1 2 3 4 5 6 
#
# 1 0.010383 0.001299 -0.002835 0.000000 0.006881 0.000000
# 2 0.001299 0.024641 0.000113 0.000000 0.005560 0.000000
# 3 -0.002835 0.000113 0.008931 0.000000 0.002986 0.000000
# 4 0.000000 0.000000 0.000000 0.060327 0.000000 0.009586
# 5 0.006881 0.005560 0.002986 0.000000 0.037282 0.000000
# 6 0.000000 0.000000 0.000000 0.009586 0.000000 0.052697
#
#
# Mechanical properties :
#
#
# Convention : Reuss Voigt Hill
#
# Bulk Modulus (GPa) = 24.32576 45.10266 34.71421
# Shear Modulus (GPa) = 23.71814 31.17566 27.44690
#
# Velocity S-wave (km/s) = 3.18871 3.65580 3.43021
# Velocity P-wave (km/s) = 4.89750 6.09550 5.52904
#
# Compressibility (1/GPa) = 0.04110868
#
# Stress axis : x y z
#
# Youngs Moduli (GPa) = 96.31508 40.58240 111.97386
#
# Poissons Ratio (x) = -0.05273 0.31746
# Poissons Ratio (y) = -0.12514 -0.01265
# Poissons Ratio (z) = 0.27306 -0.00458
#
# Static dielectric constant tensor:
#      x y z
#    x 1.898910 0.000000 0.010760 
#    y 0.000000 1.863530 0.000000 
#    z 0.010760 0.000000 1.881720 
# 
# From -- ./inp_files/71442.got.cif
#   From: 2010.05.17/outbox.cif.g08.bks.cpg/sg10_36_cif.got.tgz:71442.got - 2010.06.03 11:33:40.
