data_PCOD9146623
_publ_section_title
;
Structure prediction by ZEFSAII (Michael W. Deem and Ramdas Pophale) SiO2 
 PCOD9146623
Probable space group: P 2/M
;
_chemical_formula_sum "Si O2"
_cell_formula_units_Z 28
_cell_length_a 12.133521
_cell_length_b 8.691382
_cell_length_c 15.651775
_cell_angle_alpha 90.000000
_cell_angle_beta 62.979223
_cell_angle_gamma 90.000000
_cell_volume 1470.414867
_symmetry_space_group_name_H-M "P 2/M"
_symmetry_group_IT_number 10
_symmetry_cell_setting 'monoclinic'
loop_
_space_group_symop_operation_xyz
x,y,z
-x,y,-z
-x,-y,-z
x,-y,z
loop_
_atom_site_type_symbol
_atom_site_label
_atom_site_fract_x
_atom_site_fract_y
_atom_site_fract_z
Si Si1 0.569386 0.316697 0.290293
Si Si2 0.506695 0.818011 0.128931
Si Si3 0.312050 0.318411 0.073047
Si Si4 0.786764 0.816491 0.320142
Si Si5 0.119811 0.318497 0.397478
Si Si6 0.320112 0.315709 0.467866
Si Si7 0.927422 0.182572 0.769909
O O1 0.566888 0.500000 0.277779
O O2 0.535464 0.234050 0.214281
O O3 0.700123 0.263786 0.281125
O O4 0.462221 0.279836 0.397109
O O5 0.388827 0.730281 0.130604
O O6 0.485487 0.000000 0.131150
O O7 0.620719 0.770313 0.027633
O O8 0.324282 0.500000 0.055343
O O9 0.171425 0.269178 0.136700
O O10 0.734974 0.768753 0.431115
O O11 0.930628 0.771156 0.263859
O O12 0.778720 0.000000 0.313423
O O13 0.127689 0.500000 0.372040
O O14 0.238607 0.278357 0.412818
O O15 0.104159 0.223210 0.317087
O O16 0.000000 0.298272 0.500000
O O17 0.308770 0.500000 0.486235
O O18 0.915662 0.000000 0.786913
#
# Coordination Sequence:
#
# PCOD9146623 Si02
#       7
#     4   4   4   4   4   4   4
#     4  11  23  39  60  85 116 156 201 245 290 347
#     4  11  22  40  65  93 123 151 187 239 294 346
#     4  11  22  39  65  93 121 153 191 236 289 352
#     4  11  24  39  56  81 117 158 200 247 294 347
#     4  10  19  33  56  83 114 151 191 238 293 352
#     4  10  21  37  57  83 114 152 197 244 293 348
#     4  11  23  38  57  85 120 157 197 244 300 351
#
# _framework density 19.042242999999999
#
# number of rings (size 3 to 8) (size 9 to 14) (size 15 to 20)
#    0.000    1.286    1.429    6.000    0.000    6.571 
#    0.000    0.714    0.000    4.286    0.000    0.000 
#    0.000    0.000    0.000    0.000    0.000    0.000 
#
# Total GULP energy -156609.118136 kJ/mol
# GULP energy per Si atom -5593.182791 kJ/mol
# Density = 1.899890 g / cm^3
# Si number density = 19.042243 Si / 1000 Ang^3
#
#
#
# Elastic Constant Matrix: (Units=GPa)
#
#
# Indices 1 2 3 4 5 6 
#
# 1 62.3282 12.7354 29.4436 0.0000 -16.5851 0.0000
# 2 12.7354 43.4529 10.6920 0.0000 -6.8017 0.0000
# 3 29.4436 10.6920 45.6027 0.0000 -13.0002 0.0000
# 4 0.0000 0.0000 0.0000 33.8515 0.0000 1.9925
# 5 -16.5851 -6.8017 -13.0002 0.0000 21.7045 0.0000
# 6 0.0000 0.0000 0.0000 1.9925 0.0000 31.5225
#
#
#
# Elastic Compliance Matrix: (Units=1/GPa)
#
#
# Indices 1 2 3 4 5 6 
#
# 1 0.025532 -0.002621 -0.012714 0.000000 0.011073 0.000000
# 2 -0.002621 0.025168 -0.003052 0.000000 0.004056 0.000000
# 3 -0.012714 -0.003052 0.033537 0.000000 0.009416 0.000000
# 4 0.000000 0.000000 0.000000 0.029651 0.000000 -0.001874
# 5 0.011073 0.004056 0.009416 0.000000 0.061446 0.000000
# 6 0.000000 0.000000 0.000000 -0.001874 0.000000 0.031842
#
#
# Mechanical properties :
#
#
# Convention : Reuss Voigt Hill
#
# Bulk Modulus (GPa) = 21.06921 28.56953 24.81937
# Shear Modulus (GPa) = 19.24776 23.98321 21.61549
#
# Velocity S-wave (km/s) = 3.18275 3.55276 3.37283
# Velocity P-wave (km/s) = 4.95933 5.64493 5.31320
#
# Compressibility (1/GPa) = 0.04746262
#
# Stress axis : x y z
#
# Youngs Moduli (GPa) = 39.16631 39.73365 29.81781
#
# Poissons Ratio (x) = 0.10416 0.37909
# Poissons Ratio (y) = 0.10267 0.09101
# Poissons Ratio (z) = 0.49794 0.12127
#
# Static dielectric constant tensor:
#      x y z
#    x 1.655090 0.000000 -0.014880 
#    y 0.000000 1.643340 0.000000 
#    z -0.014880 0.000000 1.643890 
# 
# From -- ./inp_files/63646.got.cif
#   From: 2010.05.17/outbox.cif.g08.bks.cpg/sg10_32_cif.got.tgz:63646.got - 2010.06.03 11:33:40.
