data_PCOD9146540
_publ_section_title
;
Structure prediction by ZEFSAII (Michael W. Deem and Ramdas Pophale) SiO2 
 PCOD9146540
Probable space group: P 2/M
;
_chemical_formula_sum "Si O2"
_cell_formula_units_Z 32
_cell_length_a 26.593954
_cell_length_b 7.844229
_cell_length_c 21.551547
_cell_angle_alpha 90.000000
_cell_angle_beta 160.125048
_cell_angle_gamma 90.000000
_cell_volume 1528.446509
_symmetry_space_group_name_H-M "P 2/M"
_symmetry_group_IT_number 10
_symmetry_cell_setting 'monoclinic'
loop_
_space_group_symop_operation_xyz
x,y,z
-x,y,-z
-x,-y,-z
x,-y,z
loop_
_atom_site_type_symbol
_atom_site_label
_atom_site_fract_x
_atom_site_fract_y
_atom_site_fract_z
Si Si1 0.352818 0.201913 0.519021
Si Si2 0.886643 0.305310 0.418411
Si Si3 0.596094 0.192154 0.020606
Si Si4 0.627515 0.302322 0.918822
Si Si5 0.785576 0.706861 0.980750
Si Si6 0.502441 0.202329 0.572064
Si Si7 0.884461 0.706052 0.665139
Si Si8 0.741758 0.293347 0.371061
O O1 0.470744 0.290703 0.701420
O O2 0.383716 0.265749 0.485179
O O3 0.193223 0.232726 0.362578
O O4 0.385521 0.000000 0.558826
O O5 0.939650 0.500000 0.489748
O O6 0.856137 0.230411 0.451183
O O7 0.000000 0.225931 0.500000
O O8 0.723285 0.304575 0.199015
O O9 0.618558 0.204675 0.972656
O O10 0.427129 0.242213 0.838044
O O11 0.621446 0.000000 0.071604
O O12 0.658541 0.500000 0.969660
O O13 0.743533 0.238992 0.001957
O O14 0.780230 0.500000 0.975070
O O15 0.947434 0.762518 0.148424
O O16 0.659506 0.769183 0.787689
O O17 0.500000 0.276316 0.500000
O O18 0.476225 0.000000 0.535813
O O19 0.882672 0.500000 0.663046
O O20 0.790854 0.763825 0.496380
O O21 0.746309 0.500000 0.375362
#
# Coordination Sequence:
#
# PCOD9146540 Si02
#       8
#     4   4   4   4   4   4   4   4
#     4  10  19  33  55  84 113 142 183 226 268 322
#     4  10  23  41  62  83 106 142 189 234 280 335
#     4  12  24  37  56  82 113 146 184 229 280 334
#     4  10  19  34  57  81 107 142 184 229 275 326
#     4   9  20  35  56  85 114 144 184 231 277 322
#     4   9  19  37  59  82 113 152 189 224 267 323
#     4  10  20  35  56  83 115 147 180 226 281 331
#     4  10  21  38  60  82 107 146 189 228 275 335
#
# _framework density 20.93629
#
# number of rings (size 3 to 8) (size 9 to 14) (size 15 to 20)
#    0.000    2.000    1.250    2.250    1.750    4.000 
#    0.000    0.625    0.000    3.750    0.000    0.000 
#    0.000    0.000    0.000    0.000    0.000    0.000 
#
# Total GULP energy -178696.488378 kJ/mol
# GULP energy per Si atom -5584.265262 kJ/mol
# Density = 2.088864 g / cm^3
# Si number density = 20.936290 Si / 1000 Ang^3
#
#
#
# Elastic Constant Matrix: (Units=GPa)
#
#
# Indices 1 2 3 4 5 6 
#
# 1 174.8309 5.6567 50.5047 0.0000 20.1465 0.0000
# 2 5.6567 34.4422 -6.9684 0.0000 -1.6535 0.0000
# 3 50.5047 -6.9684 40.8383 0.0000 22.3255 0.0000
# 4 0.0000 0.0000 0.0000 28.0497 0.0000 3.4579
# 5 20.1465 -1.6535 22.3255 0.0000 37.6813 0.0000
# 6 0.0000 0.0000 0.0000 3.4579 0.0000 12.9332
#
#
#
# Elastic Compliance Matrix: (Units=1/GPa)
#
#
# Indices 1 2 3 4 5 6 
#
# 1 0.009665 -0.004356 -0.014445 0.000000 0.003200 0.000000
# 2 -0.004356 0.032202 0.013070 0.000000 -0.004001 0.000000
# 3 -0.014445 0.013070 0.059231 0.000000 -0.026796 0.000000
# 4 0.000000 0.000000 0.000000 0.036866 0.000000 -0.009857
# 5 0.003200 -0.004001 -0.026796 0.000000 0.040528 0.000000
# 6 0.000000 0.000000 0.000000 -0.009857 0.000000 0.079956
#
#
# Mechanical properties :
#
#
# Convention : Reuss Voigt Hill
#
# Bulk Modulus (GPa) = 11.15660 38.72195 24.93927
# Shear Modulus (GPa) = 16.67839 29.12740 22.90290
#
# Velocity S-wave (km/s) = 2.82552 3.73398 3.31105
# Velocity P-wave (km/s) = 3.99814 6.09306 5.15318
#
# Compressibility (1/GPa) = 0.08963305
#
# Stress axis : x y z
#
# Youngs Moduli (GPa) = 103.46649 31.05420 16.88318
#
# Poissons Ratio (x) = 0.13528 0.24388
# Poissons Ratio (y) = 0.45073 -0.22066
# Poissons Ratio (z) = 1.49462 -0.40587
#
# Static dielectric constant tensor:
#      x y z
#    x 1.790120 0.000000 0.012280 
#    y 0.000000 1.786900 0.000000 
#    z 0.012280 0.000000 1.706720 
# 
# From -- ./inp_files/87007.got.cif
#   From: 2010.05.17/outbox.cif.g08.bks.cpg/sg10_44_cif.got.tgz:87007.got - 2010.06.03 11:33:40.
