data_PCOD9146629
_publ_section_title
;
Structure prediction by ZEFSAII (Michael W. Deem and Ramdas Pophale) SiO2 
 PCOD9146629
Probable space group: P 2/M
;
_chemical_formula_sum "Si O2"
_cell_formula_units_Z 24
_cell_length_a 14.411845
_cell_length_b 8.890072
_cell_length_c 15.272830
_cell_angle_alpha 90.000000
_cell_angle_beta 39.370386
_cell_angle_gamma 90.000000
_cell_volume 1241.253073
_symmetry_space_group_name_H-M "P 2/M"
_symmetry_group_IT_number 10
_symmetry_cell_setting 'monoclinic'
loop_
_space_group_symop_operation_xyz
x,y,z
-x,y,-z
-x,-y,-z
x,-y,z
loop_
_atom_site_type_symbol
_atom_site_label
_atom_site_fract_x
_atom_site_fract_y
_atom_site_fract_z
Si Si1 0.133773 0.680741 0.294073
Si Si2 0.182617 0.821346 0.436019
Si Si3 0.694989 0.820500 0.193568
Si Si4 0.632024 0.821189 0.527738
Si Si5 0.141528 0.320798 0.771495
Si Si6 0.180453 0.680717 0.063166
O O1 0.127140 0.500000 0.305581
O O2 0.216595 0.748957 0.317177
O O3 0.197281 0.721085 0.152790
O O4 0.968968 0.745835 0.421412
O O5 0.303395 0.797537 0.422170
O O6 0.159938 0.000000 0.442694
O O7 0.537557 0.777479 0.348549
O O8 0.820508 0.752043 0.163233
O O9 0.704121 0.000000 0.186838
O O10 0.712025 0.758903 0.083293
O O11 0.733453 0.733109 0.386511
O O12 0.642366 0.000000 0.500058
O O13 0.143416 0.500000 0.779003
O O14 0.984212 0.276967 0.847017
O O15 0.193512 0.500000 0.046130
#
# Coordination Sequence:
#
# PCOD9146629 Si02
#       6
#     4   4   4   4   4   4
#     4  10  19  34  56  83 113 142 179 229 277 324
#     4  10  19  33  56  84 111 142 182 227 274 326
#     4  11  24  39  56  81 114 151 187 229 279 330
#     4  10  22  39  57  82 116 148 185 230 276 329
#     4  11  22  38  60  84 110 146 190 233 277 328
#     4  10  22  39  57  82 114 147 185 229 277 331
#
# _framework density 19.335298000000002
#
# number of rings (size 3 to 8) (size 9 to 14) (size 15 to 20)
#    0.000    1.667    1.667    4.000    0.000    8.667 
#    0.000    0.833    0.000    5.000    0.000    0.000 
#    0.000    0.000    0.000    0.000    0.000    0.000 
#
# Total GULP energy -134119.335042 kJ/mol
# GULP energy per Si atom -5588.305627 kJ/mol
# Density = 1.929129 g / cm^3
# Si number density = 19.335298 Si / 1000 Ang^3
#
#
#
# Elastic Constant Matrix: (Units=GPa)
#
#
# Indices 1 2 3 4 5 6 
#
# 1 46.4735 12.4443 -5.3583 0.0000 17.6788 0.0000
# 2 12.4443 38.4989 16.8260 0.0000 8.8849 0.0000
# 3 -5.3583 16.8260 66.4144 0.0000 14.8745 0.0000
# 4 0.0000 0.0000 0.0000 37.5743 0.0000 18.1376
# 5 17.6788 8.8849 14.8745 0.0000 32.9197 0.0000
# 6 0.0000 0.0000 0.0000 18.1376 0.0000 46.8083
#
#
#
# Elastic Compliance Matrix: (Units=1/GPa)
#
#
# Indices 1 2 3 4 5 6 
#
# 1 0.032609 -0.010303 0.009502 0.000000 -0.019025 0.000000
# 2 -0.010303 0.033239 -0.009437 0.000000 0.000826 0.000000
# 3 0.009502 -0.009437 0.020902 0.000000 -0.012000 0.000000
# 4 0.000000 0.000000 0.000000 0.032737 0.000000 -0.012685
# 5 -0.019025 0.000826 -0.012000 0.000000 0.045793 0.000000
# 6 0.000000 0.000000 0.000000 -0.012685 0.000000 0.026279
#
#
# Mechanical properties :
#
#
# Convention : Reuss Voigt Hill
#
# Bulk Modulus (GPa) = 15.08884 22.13453 18.61169
# Shear Modulus (GPa) = 21.35588 31.95878 26.65733
#
# Velocity S-wave (km/s) = 3.32701 4.06996 3.71710
# Velocity P-wave (km/s) = 4.75178 5.79299 5.29802
#
# Compressibility (1/GPa) = 0.06627413
#
# Stress axis : x y z
#
# Youngs Moduli (GPa) = 30.66621 30.08510 47.84192
#
# Poissons Ratio (x) = 0.30996 -0.45459
# Poissons Ratio (y) = 0.31595 0.45150
# Poissons Ratio (z) = -0.29139 0.28392
#
# Static dielectric constant tensor:
#      x y z
#    x 1.681510 0.000000 0.016920 
#    y 0.000000 1.643860 0.000000 
#    z 0.016920 0.000000 1.666690 
# 
# From -- ./inp_files/66316.got.cif
#   From: 2010.05.17/outbox.cif.g08.bks.cpg/sg10_34_cif.got.tgz:66316.got - 2010.06.03 11:33:40.
