data_PCOD9146834
_publ_section_title
;
Structure prediction by ZEFSAII (Michael W. Deem and Ramdas Pophale) SiO2 
 PCOD9146834
Probable space group: P 2/M
;
_chemical_formula_sum "Si O2"
_cell_formula_units_Z 32
_cell_length_a 14.116925
_cell_length_b 14.559595
_cell_length_c 13.519466
_cell_angle_alpha 90.000000
_cell_angle_beta 30.580446
_cell_angle_gamma 90.000000
_cell_volume 1413.680734
_symmetry_space_group_name_H-M "P 2/M"
_symmetry_group_IT_number 10
_symmetry_cell_setting 'monoclinic'
loop_
_space_group_symop_operation_xyz
x,y,z
-x,y,-z
-x,-y,-z
x,-y,z
loop_
_atom_site_type_symbol
_atom_site_label
_atom_site_fract_x
_atom_site_fract_y
_atom_site_fract_z
Si Si1 0.728770 0.893656 0.097082
Si Si2 0.723754 0.800355 0.688382
Si Si3 0.710121 0.203506 0.917256
Si Si4 0.197832 0.396729 0.088096
Si Si5 0.139816 0.600566 0.469061
Si Si6 0.215101 0.398990 0.836984
Si Si7 0.727239 0.894022 0.488158
Si Si8 0.713656 0.795480 0.306139
O O1 0.500710 0.887969 0.302006
O O2 0.797836 0.840720 0.132147
O O3 0.779265 0.000000 0.055900
O O4 0.793409 0.846788 0.937461
O O5 0.801575 0.814563 0.728783
O O6 0.741927 0.692537 0.645511
O O7 0.798515 0.858382 0.529561
O O8 0.505671 0.824361 0.892588
O O9 0.711349 0.312546 0.936207
O O10 0.265523 0.500000 0.051265
O O11 0.985187 0.394487 0.319152
O O12 0.222534 0.382428 0.948642
O O13 0.234218 0.500000 0.382703
O O14 0.000000 0.601848 0.500000
O O15 0.298151 0.500000 0.742851
O O16 0.289794 0.313144 0.708769
O O17 0.000000 0.403366 0.000000
O O18 0.792290 0.830037 0.339282
O O19 0.774073 0.000000 0.427683
O O20 0.500000 0.828343 0.500000
#
# Coordination Sequence:
#
# PCOD9146834 Si02
#       8
#     4   4   4   4   4   4   4   4
#     4   9  17  32  55  81 106 136 179 227 273 324
#     4  10  21  33  54  81 112 143 180 226 269 314
#     4  10  19  34  53  83 111 139 179 226 274 317
#     4  10  20  36  56  75 106 147 182 220 268 324
#     4  10  20  35  54  77 103 141 186 219 259 320
#     4  10  22  38  55  80 112 147 181 216 269 331
#     4   9  19  34  53  80 111 142 177 222 275 324
#     4  10  19  34  59  83 107 138 181 227 273 318
#
# _framework density 22.635947000000002
#
# number of rings (size 3 to 8) (size 9 to 14) (size 15 to 20)
#    0.000    2.250    2.500    0.375    1.750    2.750 
#    0.000    3.750    0.000    4.125    0.000    0.000 
#    0.000    0.000    0.000    0.000    0.000    0.000 
#
# Total GULP energy -178675.038552 kJ/mol
# GULP energy per Si atom -5583.594955 kJ/mol
# Density = 2.258443 g / cm^3
# Si number density = 22.635947 Si / 1000 Ang^3
#
#
#
# Elastic Constant Matrix: (Units=GPa)
#
#
# Indices 1 2 3 4 5 6 
#
# 1 80.0609 41.4433 46.2847 0.0000 37.1218 0.0000
# 2 41.4433 120.6085 55.5716 0.0000 52.5482 0.0000
# 3 46.2847 55.5716 105.2486 0.0000 36.7425 0.0000
# 4 0.0000 0.0000 0.0000 52.0903 0.0000 -6.6971
# 5 37.1218 52.5482 36.7425 0.0000 48.1590 0.0000
# 6 0.0000 0.0000 0.0000 -6.6971 0.0000 32.7387
#
#
#
# Elastic Compliance Matrix: (Units=1/GPa)
#
#
# Indices 1 2 3 4 5 6 
#
# 1 0.021209 0.000939 -0.005122 0.000000 -0.013465 0.000000
# 2 0.000939 0.016662 -0.003559 0.000000 -0.016189 0.000000
# 3 -0.005122 -0.003559 0.014856 0.000000 -0.003503 0.000000
# 4 0.000000 0.000000 0.000000 0.019716 0.000000 0.004033
# 5 -0.013465 -0.016189 -0.003503 0.000000 0.051480 0.000000
# 6 0.000000 0.000000 0.000000 0.004033 0.000000 0.031370
#
#
# Mechanical properties :
#
#
# Convention : Reuss Voigt Hill
#
# Bulk Modulus (GPa) = 26.85133 65.83525 46.34329
# Shear Modulus (GPa) = 27.29400 37.43881 32.36641
#
# Velocity S-wave (km/s) = 3.47620 4.07130 3.78546
# Velocity P-wave (km/s) = 5.29150 7.15878 6.29476
#
# Compressibility (1/GPa) = 0.03724211
#
# Stress axis : x y z
#
# Youngs Moduli (GPa) = 47.15009 60.01748 67.31438
#
# Poissons Ratio (x) = -0.05634 0.34479
# Poissons Ratio (y) = -0.04426 0.23956
# Poissons Ratio (z) = 0.24151 0.21359
#
# Static dielectric constant tensor:
#      x y z
#    x 1.854650 0.000000 -0.023210 
#    y 0.000000 1.810080 0.000000 
#    z -0.023210 0.000000 1.895850 
# 
# From -- ./inp_files/29558.got.cif
#   From: 2010.05.17/outbox.cif.g08.bks.cpg/sg10_15_cif.got.tgz:29558.got - 2010.06.03 11:33:40.
