data_PCOD9146601
_publ_section_title
;
Structure prediction by ZEFSAII (Michael W. Deem and Ramdas Pophale) SiO2 
 PCOD9146601
Probable space group: P 2/M
;
_chemical_formula_sum "Si O2"
_cell_formula_units_Z 20
_cell_length_a 11.619369
_cell_length_b 10.619831
_cell_length_c 7.265358
_cell_angle_alpha 90.000000
_cell_angle_beta 99.888410
_cell_angle_gamma 90.000000
_cell_volume 883.195652
_symmetry_space_group_name_H-M "P 2/M"
_symmetry_group_IT_number 10
_symmetry_cell_setting 'monoclinic'
loop_
_space_group_symop_operation_xyz
x,y,z
-x,y,-z
-x,-y,-z
x,-y,z
loop_
_atom_site_type_symbol
_atom_site_label
_atom_site_fract_x
_atom_site_fract_y
_atom_site_fract_z
Si Si1 0.830389 0.000000 0.301578
Si Si2 0.786126 0.248123 0.775155
Si Si3 0.460135 0.144878 0.198957
Si Si4 0.090201 0.500000 0.247182
Si Si5 0.088124 0.000000 0.245962
Si Si6 0.826778 0.500000 0.298474
Si Si7 0.704339 0.247745 0.331579
O O1 0.756361 0.875134 0.246367
O O2 0.864023 0.000000 0.528783
O O3 0.950171 0.000000 0.226035
O O4 0.659278 0.222283 0.824127
O O5 0.855291 0.376064 0.831195
O O6 0.864136 0.125900 0.832500
O O7 0.760661 0.250596 0.549093
O O8 0.567234 0.220659 0.319368
O O9 0.445054 0.000000 0.266693
O O10 0.500000 0.134782 0.000000
O O11 0.133762 0.500000 0.473897
O O12 0.949588 0.500000 0.223121
O O13 0.747835 0.375653 0.248349
#
# Coordination Sequence:
#
# PCOD9146601 Si02
#       7
#     2   4   4   2   2   2   4
#     4   9  16  27  49  80 106 133 174 219 260 309
#     4  10  19  33  56  82 109 141 178 219 265 321
#     4  11  23  38  55  76 108 144 183 232 276 313
#     4   9  18  33  55  86 118 141 168 217 274 321
#     4   9  16  27  49  80 106 133 174 219 260 309
#     4   9  18  33  55  86 118 141 168 217 274 321
#     4  10  19  33  56  82 109 141 178 219 265 321
#
# _framework density 22.645038
#
# number of rings (size 3 to 8) (size 9 to 14) (size 15 to 20)
#    0.000    2.200    2.000    1.800    0.000    6.400 
#    0.000    5.000    0.000    7.200    0.000    0.000 
#    0.000    0.000    0.000    0.000    0.000    0.000 
#
# Total GULP energy -111850.984857 kJ/mol
# GULP energy per Si atom -5592.549243 kJ/mol
# Density = 2.259350 g / cm^3
# Si number density = 22.645038 Si / 1000 Ang^3
#
#
#
# Elastic Constant Matrix: (Units=GPa)
#
#
# Indices 1 2 3 4 5 6 
#
# 1 196.5085 126.8925 15.3152 0.0000 -31.4936 0.0000
# 2 126.8925 235.3174 32.1358 0.0000 -20.5809 0.0000
# 3 15.3152 32.1358 38.3179 0.0000 10.6034 0.0000
# 4 0.0000 0.0000 0.0000 8.0295 0.0000 4.7881
# 5 -31.4936 -20.5809 10.6034 0.0000 31.1347 0.0000
# 6 0.0000 0.0000 0.0000 4.7881 0.0000 52.8258
#
#
#
# Elastic Compliance Matrix: (Units=1/GPa)
#
#
# Indices 1 2 3 4 5 6 
#
# 1 0.008930 -0.003858 -0.002349 0.000000 0.007283 0.000000
# 2 -0.003858 0.007298 -0.005337 0.000000 0.002740 0.000000
# 3 -0.002349 -0.005337 0.036595 0.000000 -0.018368 0.000000
# 4 0.000000 0.000000 0.000000 0.131658 0.000000 -0.011933
# 5 0.007283 0.002740 -0.018368 0.000000 0.047552 0.000000
# 6 0.000000 0.000000 0.000000 -0.011933 0.000000 0.020012
#
#
# Mechanical properties :
#
#
# Convention : Reuss Voigt Hill
#
# Bulk Modulus (GPa) = 33.63001 90.98120 62.30560
# Shear Modulus (GPa) = 17.54104 38.11801 27.82953
#
# Velocity S-wave (km/s) = 2.78620 4.10723 3.50944
# Velocity P-wave (km/s) = 5.02332 7.92192 6.63289
#
# Compressibility (1/GPa) = 0.02973535
#
# Stress axis : x y z
#
# Youngs Moduli (GPa) = 111.97876 137.01830 27.32589
#
# Poissons Ratio (x) = 0.52858 0.06420
# Poissons Ratio (y) = 0.43198 0.14584
# Poissons Ratio (z) = 0.26309 0.73128
#
# Static dielectric constant tensor:
#      x y z
#    x 1.812090 0.000000 0.033580 
#    y 0.000000 1.811350 0.000000 
#    z 0.033580 0.000000 1.917930 
# 
# From -- ./inp_files/22322.got.cif
#   From: 2010.05.17/outbox.cif.g08.bks.cpg/sg10_12_cif.got.tgz:22322.got - 2010.06.03 11:33:40.
