data_PCOD9146832
_publ_section_title
;
Structure prediction by ZEFSAII (Michael W. Deem and Ramdas Pophale) SiO2 
 PCOD9146832
Probable space group: P 2/M
;
_chemical_formula_sum "Si O2"
_cell_formula_units_Z 32
_cell_length_a 5.258951
_cell_length_b 25.688882
_cell_length_c 12.702640
_cell_angle_alpha 90.000000
_cell_angle_beta 77.749658
_cell_angle_gamma 90.000000
_cell_volume 1677.007628
_symmetry_space_group_name_H-M "P 2/M"
_symmetry_group_IT_number 10
_symmetry_cell_setting 'monoclinic'
loop_
_space_group_symop_operation_xyz
x,y,z
-x,y,-z
-x,-y,-z
x,-y,z
loop_
_atom_site_type_symbol
_atom_site_label
_atom_site_fract_x
_atom_site_fract_y
_atom_site_fract_z
Si Si1 0.304020 0.440054 0.898052
Si Si2 0.289398 0.869201 0.935724
Si Si3 0.006144 0.283409 0.221992
Si Si4 0.181148 0.939596 0.380991
Si Si5 0.786416 0.777658 0.427602
Si Si6 0.278329 0.114612 0.692414
Si Si7 0.451984 0.249582 0.891368
Si Si8 0.176670 0.603184 0.137376
O O1 0.298204 0.500000 0.932914
O O2 0.579940 0.423460 0.829923
O O3 0.084895 0.429545 0.832519
O O4 0.245796 0.404170 0.006154
O O5 0.320818 0.886651 0.813455
O O6 0.335262 0.806973 0.926009
O O7 0.500000 0.890298 0.000000
O O8 0.000000 0.879928 0.000000
O O9 0.259442 0.246151 0.183614
O O10 0.122865 0.339902 0.186120
O O11 0.891598 0.269420 0.345976
O O12 0.766327 0.275763 0.161909
O O13 0.454603 0.910551 0.374800
O O14 0.000000 0.936392 0.500000
O O15 0.990345 0.914765 0.310939
O O16 0.236435 0.000000 0.353616
O O17 0.500000 0.767495 0.500000
O O18 0.755482 0.827701 0.353274
O O19 0.000000 0.788673 0.500000
O O20 0.500000 0.276832 0.000000
#
# Coordination Sequence:
#
# PCOD9146832 Si02
#       8
#     4   4   4   4   4   4   4   4
#     4  10  19  34  53  80 119 157 198 246 291 352
#     4  11  23  40  59  89 121 162 201 241 289 341
#     4  12  24  38  54  86 123 157 208 246 293 361
#     4  11  24  42  66  98 126 150 193 262 330 370
#     4  12  26  42  62  86 120 162 208 255 300 353
#     4  12  23  41  68  92 120 162 205 243 300 382
#     4  11  23  35  56  81 121 161 194 243 285 337
#     4  10  20  31  49  77 110 157 192 231 290 349
#
# _framework density 19.081606000000001
#
# number of rings (size 3 to 8) (size 9 to 14) (size 15 to 20)
#    0.000    0.875    1.250    8.625    7.000    1.000 
#    0.000    0.000    0.000    7.500    0.000    0.000 
#    0.000   17.000    0.000    0.000    0.000    0.000 
#
# Total GULP energy -178600.039702 kJ/mol
# GULP energy per Si atom -5581.251241 kJ/mol
# Density = 1.903818 g / cm^3
# Si number density = 19.081606 Si / 1000 Ang^3
#
#
#
# Elastic Constant Matrix: (Units=GPa)
#
#
# Indices 1 2 3 4 5 6 
#
# 1 171.8638 16.8899 34.9702 0.0000 -4.6463 0.0000
# 2 16.8899 68.7989 20.3595 0.0000 -1.1047 0.0000
# 3 34.9702 20.3595 78.2180 0.0000 0.1377 0.0000
# 4 0.0000 0.0000 0.0000 11.5802 0.0000 -2.3225
# 5 -4.6463 -1.1047 0.1377 0.0000 35.6765 0.0000
# 6 0.0000 0.0000 0.0000 -2.3225 0.0000 13.5345
#
#
#
# Elastic Compliance Matrix: (Units=1/GPa)
#
#
# Indices 1 2 3 4 5 6 
#
# 1 0.006465 -0.000778 -0.002689 0.000000 0.000828 0.000000
# 2 -0.000778 0.015851 -0.003779 0.000000 0.000404 0.000000
# 3 -0.002689 -0.003779 0.014972 0.000000 -0.000525 0.000000
# 4 0.000000 0.000000 0.000000 0.089432 0.000000 0.015347
# 5 0.000828 0.000404 -0.000525 0.000000 0.028152 0.000000
# 6 0.000000 0.000000 0.000000 0.015347 0.000000 0.076518
#
#
# Mechanical properties :
#
#
# Convention : Reuss Voigt Hill
#
# Bulk Modulus (GPa) = 43.86878 51.47998 47.67438
# Shear Modulus (GPa) = 19.72544 28.60233 24.16388
#
# Velocity S-wave (km/s) = 3.21867 3.87582 3.56243
# Velocity P-wave (km/s) = 6.07068 6.86052 6.47765
#
# Compressibility (1/GPa) = 0.02279525
#
# Stress axis : x y z
#
# Youngs Moduli (GPa) = 154.68884 63.08819 66.79322
#
# Poissons Ratio (x) = 0.04908 0.17962
# Poissons Ratio (y) = 0.12034 0.25239
# Poissons Ratio (z) = 0.41599 0.23839
#
# Static dielectric constant tensor:
#      x y z
#    x 1.691250 0.000000 0.021560 
#    y 0.000000 1.679910 0.000000 
#    z 0.021560 0.000000 1.678850 
# 
# From -- ./inp_files/40002.got.cif
#   From: 2010.05.17/outbox.cif.g08.bks.cpg/sg10_21_cif.got.tgz:40002.got - 2010.06.03 11:33:40.
