data_PCOD9146477
_publ_section_title
;
Structure prediction by ZEFSAII (Michael W. Deem and Ramdas Pophale) SiO2 
 PCOD9146477
Probable space group: P 2/M
;
_chemical_formula_sum "Si O2"
_cell_formula_units_Z 24
_cell_length_a 15.411018
_cell_length_b 19.301858
_cell_length_c 13.636668
_cell_angle_alpha 90.000000
_cell_angle_beta 160.490190
_cell_angle_gamma 90.000000
_cell_volume 1354.702376
_symmetry_space_group_name_H-M "P 2/M"
_symmetry_group_IT_number 10
_symmetry_cell_setting 'monoclinic'
loop_
_space_group_symop_operation_xyz
x,y,z
-x,y,-z
-x,-y,-z
x,-y,z
loop_
_atom_site_type_symbol
_atom_site_label
_atom_site_fract_x
_atom_site_fract_y
_atom_site_fract_z
Si Si1 0.781922 0.000000 0.851714
Si Si2 0.849738 0.293526 0.025864
Si Si3 0.616391 0.577537 0.264884
Si Si4 0.915799 0.339890 0.309622
Si Si5 0.000000 0.366104 0.000000
Si Si6 0.221082 0.848670 0.150729
Si Si7 0.456869 0.576894 0.590302
O O1 0.500000 0.000000 0.500000
O O2 0.810603 0.075173 0.932146
O O3 0.000000 0.000000 0.000000
O O4 0.027193 0.316614 0.123295
O O5 0.776868 0.215525 0.921215
O O6 0.637530 0.355318 0.788683
O O7 0.941851 0.297984 0.235781
O O8 0.532256 0.500000 0.150199
O O9 0.683394 0.577611 0.452295
O O10 0.871964 0.599272 0.478654
O O11 0.374937 0.629496 0.992980
O O12 0.000000 0.303353 0.500000
O O13 0.750085 0.414065 0.717308
O O14 0.500000 0.847384 0.500000
O O15 0.000000 0.841425 0.000000
O O16 0.582927 0.500000 0.721311
#
# Coordination Sequence:
#
# PCOD9146477 Si02
#       7
#     2   4   4   4   2   4   4
#     4   8  16  30  50  80 109 138 167 198 248 307
#     4  11  23  35  52  75 103 138 179 215 264 311
#     4  10  21  38  56  74  95 126 172 226 278 316
#     4  11  23  38  54  73  98 129 173 222 267 314
#     4  12  19  34  52  69  98 136 178 211 262 308
#     4  10  19  33  55  80 111 140 168 207 253 311
#     4  10  22  35  49  71 102 138 178 220 260 310
#
# _framework density 17.716069000000001
#
# number of rings (size 3 to 8) (size 9 to 14) (size 15 to 20)
#    0.000    1.667    2.500    2.750    0.000    4.667 
#    0.000    0.000    0.000    0.000    0.000    0.583 
#    0.000    0.000    0.000   19.667    0.000    0.000 
#
# Total GULP energy -133672.358436 kJ/mol
# GULP energy per Si atom -5569.681601 kJ/mol
# Density = 1.767575 g / cm^3
# Si number density = 17.716069 Si / 1000 Ang^3
#
#
#
# Elastic Constant Matrix: (Units=GPa)
#
#
# Indices 1 2 3 4 5 6 
#
# 1 68.5839 27.5710 31.3584 0.0000 -19.4345 0.0000
# 2 27.5710 140.4602 21.3649 0.0000 -17.2620 0.0000
# 3 31.3584 21.3649 71.7811 0.0000 -7.3797 0.0000
# 4 0.0000 0.0000 0.0000 17.2558 0.0000 8.1067
# 5 -19.4345 -17.2620 -7.3797 0.0000 42.9515 0.0000
# 6 0.0000 0.0000 0.0000 8.1067 0.0000 12.5242
#
#
#
# Elastic Compliance Matrix: (Units=1/GPa)
#
#
# Indices 1 2 3 4 5 6 
#
# 1 0.021074 -0.002038 -0.007842 0.000000 0.007369 0.000000
# 2 -0.002038 0.007966 -0.001269 0.000000 0.002061 0.000000
# 3 -0.007842 -0.001269 0.017629 0.000000 -0.001029 0.000000
# 4 0.000000 0.000000 0.000000 0.083275 0.000000 -0.053902
# 5 0.007369 0.002061 -0.001029 0.000000 0.027268 0.000000
# 6 0.000000 0.000000 0.000000 -0.053902 0.000000 0.114736
#
#
# Mechanical properties :
#
#
# Convention : Reuss Voigt Hill
#
# Bulk Modulus (GPa) = 41.03285 49.04599 45.03942
# Shear Modulus (GPa) = 16.53614 27.91503 22.22558
#
# Velocity S-wave (km/s) = 3.05847 3.97380 3.54580
# Velocity P-wave (km/s) = 5.97361 6.98565 6.49936
#
# Compressibility (1/GPa) = 0.02437072
#
# Stress axis : x y z
#
# Youngs Moduli (GPa) = 47.45236 125.53657 56.72491
#
# Poissons Ratio (x) = 0.25586 0.44484
# Poissons Ratio (y) = 0.09671 0.07196
# Poissons Ratio (z) = 0.37213 0.15926
#
# Static dielectric constant tensor:
#      x y z
#    x 1.727690 0.000000 0.023470 
#    y 0.000000 1.632460 0.000000 
#    z 0.023470 0.000000 1.645080 
# 
# From -- ./inp_files/69360.got.cif
#   From: 2010.05.17/outbox.cif.g08.bks.cpg/sg10_35_cif.got.tgz:69360.got - 2010.06.03 11:33:40.
