data_PCOD9146576
_publ_section_title
;
Structure prediction by ZEFSAII (Michael W. Deem and Ramdas Pophale) SiO2 
 PCOD9146576
Probable space group: P 2/M
;
_chemical_formula_sum "Si O2"
_cell_formula_units_Z 32
_cell_length_a 31.201824
_cell_length_b 7.442307
_cell_length_c 13.108429
_cell_angle_alpha 90.000000
_cell_angle_beta 152.252014
_cell_angle_gamma 90.000000
_cell_volume 1417.214896
_symmetry_space_group_name_H-M "P 2/M"
_symmetry_group_IT_number 10
_symmetry_cell_setting 'monoclinic'
loop_
_space_group_symop_operation_xyz
x,y,z
-x,y,-z
-x,-y,-z
x,-y,z
loop_
_atom_site_type_symbol
_atom_site_label
_atom_site_fract_x
_atom_site_fract_y
_atom_site_fract_z
Si Si1 0.332264 0.712378 0.410493
Si Si2 0.245231 0.284291 0.860141
Si Si3 0.273443 0.293161 0.694495
Si Si4 0.129595 0.783864 0.028357
Si Si5 0.031843 0.215064 0.456500
Si Si6 0.105518 0.217402 0.206808
Si Si7 0.403786 0.279921 0.347810
Si Si8 0.606284 0.280868 0.238977
O O1 0.351257 0.500000 0.454644
O O2 0.222937 0.736578 0.166179
O O3 0.387709 0.782284 0.429890
O O4 0.358466 0.785651 0.577072
O O5 0.253438 0.500000 0.873874
O O6 0.272024 0.213508 0.804345
O O7 0.138804 0.247842 0.660456
O O8 0.317112 0.221512 0.096671
O O9 0.304098 0.500000 0.770398
O O10 0.170974 0.288868 0.432791
O O11 0.335563 0.213410 0.735140
O O12 0.136456 0.719984 0.159694
O O13 0.124246 0.000000 0.022645
O O14 0.038345 0.718133 0.778431
O O15 0.000000 0.283962 0.500000
O O16 0.020188 0.000000 0.433710
O O17 0.111035 0.000000 0.222410
O O18 0.000000 0.268190 0.000000
O O19 0.500000 0.224595 0.500000
O O20 0.403765 0.500000 0.349235
O O21 0.615115 0.500000 0.258447
O O22 0.500000 0.237266 0.000000
#
# Coordination Sequence:
#
# PCOD9146576 Si02
#       8
#     4   4   4   4   4   4   4   4
#     4  10  19  33  56  81 105 138 178 218 260 310
#     4  10  21  35  53  80 111 141 173 218 269 309
#     4  10  20  34  52  78 110 139 173 217 261 308
#     4  10  20  34  53  77 106 138 172 216 266 311
#     4  10  21  37  57  79 104 141 183 218 259 314
#     4  10  20  34  52  74 103 141 178 212 257 312
#     4   9  19  34  54  81 109 138 175 218 264 313
#     4   9  18  31  51  79 106 136 175 218 262 308
#
# _framework density 22.579498000000001
#
# number of rings (size 3 to 8) (size 9 to 14) (size 15 to 20)
#    0.000    2.250    1.250    1.500    1.750    2.500 
#    0.000    0.000    0.000    3.000    0.000    0.000 
#    0.000    0.000    0.000    0.000    0.000    0.000 
#
# Total GULP energy -178841.933150 kJ/mol
# GULP energy per Si atom -5588.810411 kJ/mol
# Density = 2.252811 g / cm^3
# Si number density = 22.579498 Si / 1000 Ang^3
#
#
#
# Elastic Constant Matrix: (Units=GPa)
#
#
# Indices 1 2 3 4 5 6 
#
# 1 178.4080 4.3140 64.1883 0.0000 -0.7349 0.0000
# 2 4.3140 69.4541 -6.6692 0.0000 -8.5152 0.0000
# 3 64.1883 -6.6692 112.1246 0.0000 1.0693 0.0000
# 4 0.0000 0.0000 0.0000 115.4268 0.0000 -24.2152
# 5 -0.7349 -8.5152 1.0693 0.0000 40.1856 0.0000
# 6 0.0000 0.0000 0.0000 -24.2152 0.0000 23.7116
#
#
#
# Elastic Compliance Matrix: (Units=1/GPa)
#
#
# Indices 1 2 3 4 5 6 
#
# 1 0.007107 -0.000829 -0.004119 0.000000 0.000064 0.000000
# 2 -0.000829 0.014960 0.001335 0.000000 0.003119 0.000000
# 3 -0.004119 0.001335 0.011357 0.000000 -0.000095 0.000000
# 4 0.000000 0.000000 0.000000 0.011026 0.000000 0.011260
# 5 0.000064 0.003119 -0.000095 0.000000 0.025549 0.000000
# 6 0.000000 0.000000 0.000000 0.011260 0.000000 0.053672
#
#
# Mechanical properties :
#
#
# Convention : Reuss Voigt Hill
#
# Bulk Modulus (GPa) = 38.17077 53.73923 45.95500
# Shear Modulus (GPa) = 35.80890 55.74173 45.77531
#
# Velocity S-wave (km/s) = 3.98666 4.97398 4.50743
# Velocity P-wave (km/s) = 6.17520 7.53916 6.89101
#
# Compressibility (1/GPa) = 0.02619805
#
# Stress axis : x y z
#
# Youngs Moduli (GPa) = 140.70119 66.84451 88.05336
#
# Poissons Ratio (x) = 0.05542 0.36266
# Poissons Ratio (y) = 0.11666 -0.11753
# Poissons Ratio (z) = 0.57950 -0.08922
#
# Static dielectric constant tensor:
#      x y z
#    x 1.822790 0.000000 -0.020200 
#    y 0.000000 1.864370 0.000000 
#    z -0.020200 0.000000 1.785720 
# 
# From -- ./inp_files/58215.got.cif
#   From: 2010.05.17/outbox.cif.g08.bks.cpg/sg10_30_cif.got.tgz:58215.got - 2010.06.03 11:33:40.
