data_PCOD9146319
_publ_section_title
;
Structure prediction by ZEFSAII (Michael W. Deem and Ramdas Pophale) SiO2 
 PCOD9146319
Probable space group: P 2/M
;
_chemical_formula_sum "Si O2"
_cell_formula_units_Z 32
_cell_length_a 31.789070
_cell_length_b 8.536792
_cell_length_c 12.317293
_cell_angle_alpha 90.000000
_cell_angle_beta 29.671176
_cell_angle_gamma 90.000000
_cell_volume 1654.672169
_symmetry_space_group_name_H-M "P 2/M"
_symmetry_group_IT_number 10
_symmetry_cell_setting 'monoclinic'
loop_
_space_group_symop_operation_xyz
x,y,z
-x,y,-z
-x,-y,-z
x,-y,z
loop_
_atom_site_type_symbol
_atom_site_label
_atom_site_fract_x
_atom_site_fract_y
_atom_site_fract_z
Si Si1 0.400155 0.689005 0.220798
Si Si2 0.216130 0.687687 0.233023
Si Si3 0.526280 0.811551 0.563406
Si Si4 0.750444 0.813637 0.311343
Si Si5 0.630970 0.688243 0.952258
Si Si6 0.277442 0.189302 0.866488
Si Si7 0.931658 0.816281 0.295280
Si Si8 0.888330 0.682978 0.165780
O O1 0.392736 0.500000 0.247645
O O2 0.344543 0.769071 0.438170
O O3 0.363165 0.738127 0.186152
O O4 0.500000 0.727840 0.000000
O O5 0.210969 0.500000 0.252720
O O6 0.293447 0.743202 0.138242
O O7 0.129842 0.762004 0.471294
O O8 0.236555 0.736866 0.064692
O O9 0.500000 0.766849 0.500000
O O10 0.623466 0.763617 0.362189
O O11 0.521547 0.000000 0.582441
O O12 0.458946 0.740406 0.797179
O O13 0.763888 0.767688 0.155879
O O14 0.814744 0.729556 0.248386
O O15 0.761561 0.000000 0.295021
O O16 0.633469 0.500000 0.946388
O O17 0.274890 0.000000 0.882959
O O18 0.885227 0.777928 0.285283
O O19 0.950103 0.000000 0.260185
O O20 0.020245 0.723299 0.091211
O O21 0.883160 0.500000 0.204237
#
# Coordination Sequence:
#
# PCOD9146319 Si02
#       8
#     4   4   4   4   4   4   4   4
#     4  10  21  37  56  81 116 155 195 243 297 352
#     4  11  22  36  56  85 118 153 195 241 293 347
#     4  10  19  33  54  78 109 150 196 240 287 340
#     4  11  23  39  60  85 116 156 201 244 296 354
#     4  10  21  34  52  80 112 147 190 240 290 344
#     4  10  22  39  56  80 115 155 199 248 294 346
#     4  11  22  39  65  94 123 151 187 235 290 346
#     4  11  22  40  65  92 122 153 190 235 288 350
#
# _framework density 19.339179000000001
#
# number of rings (size 3 to 8) (size 9 to 14) (size 15 to 20)
#    0.000    1.500    1.250    5.250    0.000    4.000 
#    0.000    0.625    0.000    3.750    0.000    0.000 
#    0.000    0.000    0.000    0.000    0.000    0.000 
#
# Total GULP energy -178904.371920 kJ/mol
# GULP energy per Si atom -5590.761623 kJ/mol
# Density = 1.929516 g / cm^3
# Si number density = 19.339179 Si / 1000 Ang^3
#
#
#
# Elastic Constant Matrix: (Units=GPa)
#
#
# Indices 1 2 3 4 5 6 
#
# 1 65.5483 3.5228 18.7664 0.0000 7.1240 0.0000
# 2 3.5228 19.8316 -1.6835 0.0000 2.3533 0.0000
# 3 18.7664 -1.6835 76.1334 0.0000 16.6380 0.0000
# 4 0.0000 0.0000 0.0000 35.5230 0.0000 0.8335
# 5 7.1240 2.3533 16.6380 0.0000 31.2518 0.0000
# 6 0.0000 0.0000 0.0000 0.8335 0.0000 23.4137
#
#
#
# Elastic Compliance Matrix: (Units=1/GPa)
#
#
# Indices 1 2 3 4 5 6 
#
# 1 0.016691 -0.003111 -0.003851 0.000000 -0.001520 0.000000
# 2 -0.003111 0.051793 0.002953 0.000000 -0.004763 0.000000
# 3 -0.003851 0.002953 0.015850 0.000000 -0.007783 0.000000
# 4 0.000000 0.000000 0.000000 0.028174 0.000000 -0.001003
# 5 -0.001520 -0.004763 -0.007783 0.000000 0.036847 0.000000
# 6 0.000000 0.000000 0.000000 -0.001003 0.000000 0.042746
#
#
# Mechanical properties :
#
#
# Convention : Reuss Voigt Hill
#
# Bulk Modulus (GPa) = 13.10337 22.52496 17.81417
# Shear Modulus (GPa) = 22.16725 27.43154 24.79940
#
# Velocity S-wave (km/s) = 3.38928 3.77031 3.58486
# Velocity P-wave (km/s) = 4.70176 5.53410 5.13482
#
# Compressibility (1/GPa) = 0.07631624
#
# Stress axis : x y z
#
# Youngs Moduli (GPa) = 59.91315 19.30753 63.09077
#
# Poissons Ratio (x) = 0.06007 0.24294
# Poissons Ratio (y) = 0.18641 -0.18631
# Poissons Ratio (z) = 0.23071 -0.05702
#
# Static dielectric constant tensor:
#      x y z
#    x 1.679330 0.000000 -0.007850 
#    y 0.000000 1.655590 0.000000 
#    z -0.007850 0.000000 1.651630 
# 
# From -- ./inp_files/58202.got.cif
#   From: 2010.05.17/outbox.cif.g08.bks.cpg/sg10_30_cif.got.tgz:58202.got - 2010.06.03 11:33:40.
