data_PCOD9146520
_publ_section_title
;
Structure prediction by ZEFSAII (Michael W. Deem and Ramdas Pophale) SiO2 
 PCOD9146520
Probable space group: P 2/M
;
_chemical_formula_sum "Si O2"
_cell_formula_units_Z 32
_cell_length_a 20.975258
_cell_length_b 9.048796
_cell_length_c 25.719734
_cell_angle_alpha 90.000000
_cell_angle_beta 22.462163
_cell_angle_gamma 90.000000
_cell_volume 1865.138984
_symmetry_space_group_name_H-M "P 2/M"
_symmetry_group_IT_number 10
_symmetry_cell_setting 'monoclinic'
loop_
_space_group_symop_operation_xyz
x,y,z
-x,y,-z
-x,-y,-z
x,-y,z
loop_
_atom_site_type_symbol
_atom_site_label
_atom_site_fract_x
_atom_site_fract_y
_atom_site_fract_z
Si Si1 0.409041 0.176112 0.418748
Si Si2 0.003612 0.176071 0.835112
Si Si3 0.155673 0.822294 0.418783
Si Si4 0.502263 0.675885 0.156308
Si Si5 0.350023 0.676238 0.573796
Si Si6 0.146360 0.323768 0.155048
Si Si7 0.348503 0.823720 0.853703
Si Si8 0.915435 0.823722 0.408252
O O1 0.392810 0.263701 0.484245
O O2 0.570716 0.214918 0.262342
O O3 0.249090 0.204846 0.502495
O O4 0.411634 0.000000 0.427770
O O5 0.177065 0.247765 0.720891
O O6 0.949611 0.245863 0.820555
O O7 0.022350 0.000000 0.814840
O O8 0.847978 0.204739 0.990877
O O9 0.328301 0.748361 0.271790
O O10 0.118732 0.781360 0.506534
O O11 0.000000 0.781198 0.500000
O O12 0.175159 0.000000 0.402278
O O13 0.485262 0.500000 0.172741
O O14 0.556836 0.740420 0.171223
O O15 0.658019 0.709191 0.000945
O O16 0.500000 0.711705 0.500000
O O17 0.327966 0.500000 0.588845
O O18 0.123198 0.500000 0.168840
O O19 0.067406 0.261449 0.267042
O O20 0.376062 0.000000 0.840520
O O21 0.946571 0.000000 0.383164
#
# Coordination Sequence:
#
# PCOD9146520 Si02
#       8
#     4   4   4   4   4   4   4   4
#     4  10  19  34  57  83 108 136 177 226 266 312
#     4  10  19  33  56  82 107 140 177 220 271 315
#     4  10  21  38  58  79 108 145 181 221 270 321
#     4  10  20  33  52  80 111 143 179 218 266 319
#     4  11  24  39  54  76 110 148 181 217 264 320
#     4  10  20  33  52  80 111 142 177 220 267 316
#     4   9  18  34  56  82 110 137 174 224 271 314
#     4  10  19  33  55  83 108 136 180 225 265 313
#
# _framework density 17.156898999999999
#
# number of rings (size 3 to 8) (size 9 to 14) (size 15 to 20)
#    0.000    2.000    2.500    1.500    0.000    4.250 
#    0.000    1.250    0.000    7.500    0.000    0.000 
#    0.000    0.000    0.000    0.000    0.000    0.000 
#
# Total GULP energy -178609.138242 kJ/mol
# GULP energy per Si atom -5581.535570 kJ/mol
# Density = 1.711785 g / cm^3
# Si number density = 17.156899 Si / 1000 Ang^3
#
#
#
# Elastic Constant Matrix: (Units=GPa)
#
#
# Indices 1 2 3 4 5 6 
#
# 1 82.8905 43.4085 62.0422 0.0000 -9.0342 0.0000
# 2 43.4085 48.3298 65.9905 0.0000 -7.2207 0.0000
# 3 62.0422 65.9905 155.9264 0.0000 -9.3325 0.0000
# 4 0.0000 0.0000 0.0000 17.9007 0.0000 -24.6768
# 5 -9.0342 -7.2207 -9.3325 0.0000 26.9084 0.0000
# 6 0.0000 0.0000 0.0000 -24.6768 0.0000 -19.6949
#
#
#
# Elastic Compliance Matrix: (Units=1/GPa)
#
#
# Indices 1 2 3 4 5 6 
#
# 1 0.022973 -0.018946 -0.000986 0.000000 0.002287 0.000000
# 2 -0.018946 0.065636 -0.019981 0.000000 0.004322 0.000000
# 3 -0.000986 -0.019981 0.015237 0.000000 -0.000408 0.000000
# 4 0.000000 0.000000 0.000000 0.020484 0.000000 -0.025665
# 5 0.002287 0.004322 -0.000408 0.000000 0.038949 0.000000
# 6 0.000000 0.000000 0.000000 -0.025665 0.000000 -0.018617
#
#
# Mechanical properties :
#
#
# Convention : Reuss Voigt Hill
#
# Bulk Modulus (GPa) = 41.63038 70.00322 55.81680
# Shear Modulus (GPa) = 21.50588 12.73653 17.12121
#
# Velocity S-wave (km/s) = 3.54430 2.72758 3.16241
# Velocity P-wave (km/s) = 6.40832 7.12811 6.77778
#
# Compressibility (1/GPa) = 0.02402092
#
# Stress axis : x y z
#
# Youngs Moduli (GPa) = 43.52960 15.23545 65.62837
#
# Poissons Ratio (x) = 0.28865 0.06468
# Poissons Ratio (y) = 0.82472 1.31133
# Poissons Ratio (z) = 0.04290 0.30442
#
# Static dielectric constant tensor:
#      x y z
#    x 1.548460 0.000000 0.006550 
#    y 0.000000 1.571420 0.000000 
#    z 0.006550 0.000000 1.598900 
# 
# From -- ./inp_files/93580.got.cif
#   From: 2010.05.17/outbox.cif.g08.bks.cpg/sg10_47_cif.got.tgz:93580.got - 2010.06.03 11:33:40.
