data_PCOD9146591
_publ_section_title
;
Structure prediction by ZEFSAII (Michael W. Deem and Ramdas Pophale) SiO2 
 PCOD9146591
Probable space group: P 2/M
;
_chemical_formula_sum "Si O2"
_cell_formula_units_Z 24
_cell_length_a 12.693531
_cell_length_b 7.625539
_cell_length_c 11.782044
_cell_angle_alpha 90.000000
_cell_angle_beta 87.111504
_cell_angle_gamma 90.000000
_cell_volume 1138.994195
_symmetry_space_group_name_H-M "P 2/M"
_symmetry_group_IT_number 10
_symmetry_cell_setting 'monoclinic'
loop_
_space_group_symop_operation_xyz
x,y,z
-x,y,-z
-x,-y,-z
x,-y,z
loop_
_atom_site_type_symbol
_atom_site_label
_atom_site_fract_x
_atom_site_fract_y
_atom_site_fract_z
Si Si1 0.448125 0.301841 0.614223
Si Si2 0.378684 0.289074 0.008729
Si Si3 0.266963 0.715498 0.786074
Si Si4 0.849332 0.287934 0.594645
Si Si5 0.925922 0.286571 0.340983
Si Si6 0.640685 0.198908 0.738882
O O1 0.500000 0.216868 0.500000
O O2 0.416215 0.500000 0.580764
O O3 0.347256 0.224892 0.682684
O O4 0.541474 0.309758 0.701267
O O5 0.382419 0.500000 0.000754
O O6 0.331501 0.242339 0.133290
O O7 0.500000 0.225053 0.000000
O O8 0.311982 0.225751 0.904535
O O9 0.270208 0.500000 0.786003
O O10 0.149490 0.769377 0.757112
O O11 0.845412 0.500000 0.596585
O O12 0.872038 0.235323 0.463594
O O13 0.740779 0.223451 0.652711
O O14 0.952503 0.230146 0.660261
O O15 0.927986 0.500000 0.340598
O O16 0.603777 0.000000 0.734871
#
# Coordination Sequence:
#
# PCOD9146591 Si02
#       6
#     4   4   4   4   4   4
#     4  10  19  33  56  82 107 135 170 217 269 318
#     4  10  19  35  56  75 100 138 183 225 265 311
#     4   9  16  29  52  81 105 127 168 222 271 314
#     4   9  17  33  57  81 107 136 173 216 265 319
#     4   8  15  30  56  86 106 128 168 223 272 313
#     4  12  24  35  50  75 111 146 180 215 258 318
#
# _framework density 21.071224000000001
#
# number of rings (size 3 to 8) (size 9 to 14) (size 15 to 20)
#    0.000    2.333    1.667    3.500    0.000    3.333 
#    0.000    2.500    0.000    8.000    0.000    0.000 
#    0.000    0.000    0.000    0.000    0.000    0.000 
#
# Total GULP energy -133987.648829 kJ/mol
# GULP energy per Si atom -5582.818701 kJ/mol
# Density = 2.102326 g / cm^3
# Si number density = 21.071224 Si / 1000 Ang^3
#
#
#
# Elastic Constant Matrix: (Units=GPa)
#
#
# Indices 1 2 3 4 5 6 
#
# 1 73.3295 -1.6258 -7.2777 0.0000 22.8445 0.0000
# 2 -1.6258 49.7664 -0.3193 0.0000 5.6177 0.0000
# 3 -7.2777 -0.3193 44.6814 0.0000 22.7467 0.0000
# 4 0.0000 0.0000 0.0000 43.3151 0.0000 -29.2639
# 5 22.8445 5.6177 22.7467 0.0000 37.0818 0.0000
# 6 0.0000 0.0000 0.0000 -29.2639 0.0000 -11.7693
#
#
#
# Elastic Compliance Matrix: (Units=1/GPa)
#
#
# Indices 1 2 3 4 5 6 
#
# 1 0.023105 0.003670 0.016458 0.000000 -0.024886 0.000000
# 2 0.003670 0.021221 0.005143 0.000000 -0.008630 0.000000
# 3 0.016458 0.005143 0.044578 0.000000 -0.038263 0.000000
# 4 0.000000 0.000000 0.000000 0.008615 0.000000 -0.021421
# 5 -0.024886 -0.008630 -0.038263 0.000000 0.067077 0.000000
# 6 0.000000 0.000000 0.000000 -0.021421 0.000000 -0.031706
#
#
# Mechanical properties :
#
#
# Convention : Reuss Voigt Hill
#
# Bulk Modulus (GPa) = 7.17129 16.59239 11.88184
# Shear Modulus (GPa) = 38.81108 25.52555 32.16831
#
# Velocity S-wave (km/s) = 4.29639 3.48428 3.91147
# Velocity P-wave (km/s) = 5.29365 4.90699 5.10398
#
# Compressibility (1/GPa) = 0.13944485
#
# Stress axis : x y z
#
# Youngs Moduli (GPa) = 43.28147 47.12327 22.43283
#
# Poissons Ratio (x) = -0.17292 -0.36921
# Poissons Ratio (y) = -0.15882 -0.11537
# Poissons Ratio (z) = -0.71235 -0.24235
#
# Static dielectric constant tensor:
#      x y z
#    x 1.733290 0.000000 0.028330 
#    y 0.000000 1.829930 0.000000 
#    z 0.028330 0.000000 1.755270 
# 
# From -- ./inp_files/45124.got.cif
#   From: 2010.05.17/outbox.cif.g08.bks.cpg/sg10_23_cif.got.tgz:45124.got - 2010.06.03 11:33:40.
