data_PCOD9146544
_publ_section_title
;
Structure prediction by ZEFSAII (Michael W. Deem and Ramdas Pophale) SiO2 
 PCOD9146544
Probable space group: P 2/M
;
_chemical_formula_sum "Si O2"
_cell_formula_units_Z 32
_cell_length_a 20.152239
_cell_length_b 13.043306
_cell_length_c 16.298781
_cell_angle_alpha 90.000000
_cell_angle_beta 20.954634
_cell_angle_gamma 90.000000
_cell_volume 1532.139839
_symmetry_space_group_name_H-M "P 2/M"
_symmetry_group_IT_number 10
_symmetry_cell_setting 'monoclinic'
loop_
_space_group_symop_operation_xyz
x,y,z
-x,y,-z
-x,-y,-z
x,-y,z
loop_
_atom_site_type_symbol
_atom_site_label
_atom_site_fract_x
_atom_site_fract_y
_atom_site_fract_z
Si Si1 0.494042 0.620063 0.813750
Si Si2 0.011170 0.611686 0.139780
Si Si3 0.563188 0.612665 0.312338
Si Si4 0.893481 0.885904 0.879964
Si Si5 0.892309 0.829319 0.208054
Si Si6 0.154812 0.290321 0.522418
Si Si7 0.491427 0.166122 0.416471
Si Si8 0.788872 0.615884 0.714306
O O1 0.555617 0.500000 0.755278
O O2 0.424085 0.623515 0.801278
O O3 0.656271 0.702687 0.642090
O O4 0.338393 0.641904 0.061304
O O5 0.949160 0.500000 0.181578
O O6 0.920347 0.708063 0.198716
O O7 0.961892 0.623682 0.293437
O O8 0.233182 0.618089 0.882571
O O9 0.483319 0.500000 0.421617
O O10 0.454791 0.711798 0.466376
O O11 0.005135 0.885029 0.836465
O O12 0.017805 0.806856 0.683937
O O13 0.885127 0.000000 0.854616
O O14 0.685644 0.850534 0.145067
O O15 0.684265 0.867945 0.433411
O O16 0.000000 0.847066 0.000000
O O17 0.219270 0.315577 0.356860
O O18 0.500000 0.124970 0.500000
O O19 0.738435 0.500000 0.747052
O O20 0.000000 0.616382 0.500000
#
# Coordination Sequence:
#
# PCOD9146544 Si02
#       8
#     4   4   4   4   4   4   4   4
#     4  10  20  33  58  96 130 166 208 244 289 360
#     4  10  19  33  55  84 123 166 195 229 288 361
#     4  10  19  34  57  87 126 166 201 236 290 364
#     4  11  26  46  65  90 116 153 209 269 323 370
#     4  11  22  41  63  89 119 152 196 252 313 371
#     4  11  20  37  58  84 123 163 199 254 307 358
#     4  12  23  42  65  89 123 157 204 257 315 372
#     4  10  20  33  56  93 131 167 206 243 288 357
#
# _framework density 20.885822000000001
#
# number of rings (size 3 to 8) (size 9 to 14) (size 15 to 20)
#    0.000    1.375    3.750    3.750    0.000    6.000 
#    0.000    0.000    0.000    1.875    0.000    0.000 
#    0.000    0.000    0.000    0.000    0.000    0.000 
#
# Total GULP energy -178633.462204 kJ/mol
# GULP energy per Si atom -5582.295694 kJ/mol
# Density = 2.083828 g / cm^3
# Si number density = 20.885822 Si / 1000 Ang^3
#
#
#
# Elastic Constant Matrix: (Units=GPa)
#
#
# Indices 1 2 3 4 5 6 
#
# 1 85.3070 1.8199 30.2923 0.0000 0.5380 0.0000
# 2 1.8199 86.5813 25.5349 0.0000 -2.7119 0.0000
# 3 30.2923 25.5349 104.9999 0.0000 -12.2098 0.0000
# 4 0.0000 0.0000 0.0000 -6.0577 0.0000 13.0142
# 5 0.5380 -2.7119 -12.2098 0.0000 44.1519 0.0000
# 6 0.0000 0.0000 0.0000 13.0142 0.0000 -14.2037
#
#
#
# Elastic Compliance Matrix: (Units=1/GPa)
#
#
# Indices 1 2 3 4 5 6 
#
# 1 0.013193 0.000915 -0.004175 0.000000 -0.001259 0.000000
# 2 0.000915 0.012506 -0.003324 0.000000 -0.000162 0.000000
# 3 -0.004175 -0.003324 0.011902 0.000000 0.003138 0.000000
# 4 0.000000 0.000000 0.000000 0.170458 0.000000 0.156182
# 5 -0.001259 -0.000162 0.003138 0.000000 0.023522 0.000000
# 6 0.000000 0.000000 0.000000 0.156182 0.000000 0.072698
#
#
# Mechanical properties :
#
#
# Convention : Reuss Voigt Hill
#
# Bulk Modulus (GPa) = 40.93037 43.57582 42.25309
# Shear Modulus (GPa) = 15.35666 19.39417 17.37541
#
# Velocity S-wave (km/s) = 2.71452 3.05057 2.88744
# Velocity P-wave (km/s) = 5.42813 5.77209 5.60275
#
# Compressibility (1/GPa) = 0.02443174
#
# Stress axis : x y z
#
# Youngs Moduli (GPa) = 75.79563 79.96252 84.02232
#
# Poissons Ratio (x) = -0.07313 0.35080
# Poissons Ratio (y) = -0.06932 0.27929
# Poissons Ratio (z) = 0.31645 0.26580
#
# Static dielectric constant tensor:
#      x y z
#    x 1.772640 0.000000 -0.011490 
#    y 0.000000 1.798030 0.000000 
#    z -0.011490 0.000000 1.770060 
# 
# From -- ./inp_files/79690.got.cif
#   From: 2010.05.17/outbox.cif.g08.bks.cpg/sg10_40_cif.got.tgz:79690.got - 2010.06.03 11:33:40.
