data_PCOD9146603
_publ_section_title
;
Structure prediction by ZEFSAII (Michael W. Deem and Ramdas Pophale) SiO2 
 PCOD9146603
Probable space group: P 2/M
;
_chemical_formula_sum "Si O2"
_cell_formula_units_Z 28
_cell_length_a 8.593275
_cell_length_b 19.572406
_cell_length_c 15.316850
_cell_angle_alpha 90.000000
_cell_angle_beta 153.862419
_cell_angle_gamma 90.000000
_cell_volume 1134.869708
_symmetry_space_group_name_H-M "P 2/M"
_symmetry_group_IT_number 10
_symmetry_cell_setting 'monoclinic'
loop_
_space_group_symop_operation_xyz
x,y,z
-x,y,-z
-x,-y,-z
x,-y,z
loop_
_atom_site_type_symbol
_atom_site_label
_atom_site_fract_x
_atom_site_fract_y
_atom_site_fract_z
Si Si1 0.219218 0.577205 0.242142
Si Si2 0.067677 0.075511 0.762899
Si Si3 0.182887 0.788874 0.454521
Si Si4 0.817216 0.074116 0.998837
Si Si5 0.456263 0.369887 0.182884
Si Si6 0.531306 0.781398 0.801365
Si Si7 0.895600 0.343520 0.239842
O O1 0.348011 0.500000 0.315649
O O2 0.117104 0.608694 0.285417
O O3 0.461157 0.615884 0.290213
O O4 0.833480 0.579584 0.001919
O O5 0.900413 0.137906 0.628418
O O6 0.998385 0.000000 0.691897
O O7 0.500000 0.083601 0.000000
O O8 0.925206 0.076338 0.789452
O O9 0.852834 0.774148 0.350959
O O10 0.127069 0.726011 0.361233
O O11 0.511439 0.789822 0.686413
O O12 0.649552 0.148779 0.906011
O O13 0.619614 0.000000 0.908231
O O14 0.000000 0.068270 0.000000
O O15 0.306901 0.292172 0.096743
O O16 0.790109 0.371935 0.284136
O O17 0.500000 0.330549 0.000000
#
# Coordination Sequence:
#
# PCOD9146603 Si02
#       7
#     4   4   4   4   4   4   4
#     4  10  20  34  58  88 110 142 191 237 284 343
#     4  10  19  33  56  82 109 146 192 239 283 323
#     4  10  20  35  56  84 116 146 194 238 280 344
#     4  10  22  37  54  80 115 152 192 238 287 340
#     4   9  19  33  52  82 115 145 182 236 286 334
#     4  10  21  35  56  83 114 155 188 232 292 338
#     4   9  19  33  55  83 114 149 185 239 284 338
#
# _framework density 24.672436000000001
#
# number of rings (size 3 to 8) (size 9 to 14) (size 15 to 20)
#    0.000    2.286    1.429    1.286    6.000    3.714 
#    0.000    4.286    0.000    5.143    0.000   15.000 
#    0.000    0.000    0.000    0.000    0.000    0.000 
#
# Total GULP energy -155893.726061 kJ/mol
# GULP energy per Si atom -5567.633074 kJ/mol
# Density = 2.461628 g / cm^3
# Si number density = 24.672436 Si / 1000 Ang^3
#
#
#
# Elastic Constant Matrix: (Units=GPa)
#
#
# Indices 1 2 3 4 5 6 
#
# 1 165.8962 44.6275 25.2117 0.0000 -30.2668 0.0000
# 2 44.6275 184.0078 36.0905 0.0000 -26.8722 0.0000
# 3 25.2117 36.0905 42.8685 0.0000 4.3893 0.0000
# 4 0.0000 0.0000 0.0000 4.3258 0.0000 -12.1515
# 5 -30.2668 -26.8722 4.3893 0.0000 28.5328 0.0000
# 6 0.0000 0.0000 0.0000 -12.1515 0.0000 21.9041
#
#
#
# Elastic Compliance Matrix: (Units=1/GPa)
#
#
# Indices 1 2 3 4 5 6 
#
# 1 0.008978 0.000921 -0.007234 0.000000 0.011505 0.000000
# 2 0.000921 0.008404 -0.008664 0.000000 0.010225 0.000000
# 3 -0.007234 -0.008664 0.037081 0.000000 -0.021537 0.000000
# 4 0.000000 0.000000 0.000000 -0.414028 0.000000 -0.229686
# 5 0.011505 0.010225 -0.021537 0.000000 0.060194 0.000000
# 6 0.000000 0.000000 0.000000 -0.229686 0.000000 -0.081766
#
#
# Mechanical properties :
#
#
# Convention : Reuss Voigt Hill
#
# Bulk Modulus (GPa) = 40.79963 67.18134 53.99049
# Shear Modulus (GPa) = -14.57656 30.07540 7.74942
#
# Velocity S-wave (km/s) = -2.43328 3.49519 1.77419
# Velocity P-wave (km/s) = 2.94584 6.60128 5.11150
#
# Compressibility (1/GPa) = 0.02451002
#
# Stress axis : x y z
#
# Youngs Moduli (GPa) = 111.37977 118.99795 26.96833
#
# Poissons Ratio (x) = -0.10965 0.19509
# Poissons Ratio (y) = -0.10263 0.23364
# Poissons Ratio (z) = 0.80572 1.03095
#
# Static dielectric constant tensor:
#      x y z
#    x 2.058540 0.000000 0.048460 
#    y 0.000000 1.999360 0.000000 
#    z 0.048460 0.000000 1.853830 
# 
# From -- ./inp_files/62363.got.cif
#   From: 2010.05.17/outbox.cif.g08.bks.cpg/sg10_32_cif.got.tgz:62363.got - 2010.06.03 11:33:40.
