data_PCOD9146048
_publ_section_title
;
Structure prediction by ZEFSAII (Michael W. Deem and Ramdas Pophale) SiO2 
 PCOD9146048
Probable space group: P 2/M
;
_chemical_formula_sum "Si O2"
_cell_formula_units_Z 32
_cell_length_a 22.944200
_cell_length_b 13.569888
_cell_length_c 9.474773
_cell_angle_alpha 90.000000
_cell_angle_beta 142.498128
_cell_angle_gamma 90.000000
_cell_volume 1795.906060
_symmetry_space_group_name_H-M "P 2/M"
_symmetry_group_IT_number 10
_symmetry_cell_setting 'monoclinic'
loop_
_space_group_symop_operation_xyz
x,y,z
-x,y,-z
-x,-y,-z
x,-y,z
loop_
_atom_site_type_symbol
_atom_site_label
_atom_site_fract_x
_atom_site_fract_y
_atom_site_fract_z
Si Si1 0.229336 0.384208 0.940384
Si Si2 0.464220 0.385856 0.771140
Si Si3 0.303250 0.882996 0.161901
Si Si4 0.951261 0.613192 0.561009
Si Si5 0.082869 0.115585 0.758150
Si Si6 0.731259 0.283355 0.689799
Si Si7 0.934524 0.247912 0.009122
Si Si8 0.417638 0.279588 0.226963
O O1 0.212523 0.500000 0.922971
O O2 0.224286 0.336056 0.085208
O O3 0.334619 0.358859 0.091021
O O4 0.153611 0.345936 0.679681
O O5 0.470572 0.500000 0.729172
O O6 0.355899 0.346547 0.539698
O O7 0.531802 0.307422 0.820886
O O8 0.500000 0.387917 0.000000
O O9 0.309317 0.819479 0.320180
O O10 0.368587 0.825412 0.173041
O O11 0.324103 0.000000 0.215409
O O12 0.190564 0.871689 0.907393
O O13 0.942669 0.500000 0.590993
O O14 0.000000 0.613399 0.500000
O O15 0.011310 0.669825 0.793242
O O16 0.074832 0.159032 0.898194
O O17 0.000000 0.159370 0.500000
O O18 0.066659 0.000000 0.737215
O O19 0.822913 0.272864 0.763895
O O20 0.000000 0.227899 0.000000
O O21 0.500000 0.293997 0.500000
#
# Coordination Sequence:
#
# PCOD9146048 Si02
#       8
#     4   4   4   4   4   4   4   4
#     4  10  19  32  57  83 108 141 190 246 285 325
#     4  11  24  41  59  81 117 157 192 236 286 339
#     4   9  19  36  60  90 116 143 186 238 290 336
#     4  10  20  34  53  78 109 151 192 230 280 339
#     4   9  19  37  63  88 113 148 191 234 281 339
#     4  10  20  37  57  84 110 154 195 230 289 344
#     4  11  23  35  55  85 119 154 183 232 289 346
#     4  11  21  35  57  89 106 143 192 242 280 329
#
# _framework density 17.818304999999999
#
# number of rings (size 3 to 8) (size 9 to 14) (size 15 to 20)
#    0.000    1.875    3.750    1.125    3.500    2.750 
#    0.000    1.250    0.000    1.500    0.000    0.000 
#    0.000    0.000    0.000    0.000    0.000    0.000 
#
# Total GULP energy -178226.222645 kJ/mol
# GULP energy per Si atom -5569.569458 kJ/mol
# Density = 1.777775 g / cm^3
# Si number density = 17.818305 Si / 1000 Ang^3
#
#
#
# Elastic Constant Matrix: (Units=GPa)
#
#
# Indices 1 2 3 4 5 6 
#
# 1 101.4252 24.4820 36.6070 0.0000 20.3140 0.0000
# 2 24.4820 100.4220 38.0253 0.0000 7.0192 0.0000
# 3 36.6070 38.0253 84.4803 0.0000 15.8677 0.0000
# 4 0.0000 0.0000 0.0000 -6.6318 0.0000 28.1039
# 5 20.3140 7.0192 15.8677 0.0000 24.1831 0.0000
# 6 0.0000 0.0000 0.0000 28.1039 0.0000 4.3877
#
#
#
# Elastic Compliance Matrix: (Units=1/GPa)
#
#
# Indices 1 2 3 4 5 6 
#
# 1 0.013113 -0.001272 -0.003547 0.000000 -0.008318 0.000000
# 2 -0.001272 0.012127 -0.005072 0.000000 0.000877 0.000000
# 3 -0.003547 -0.005072 0.016904 0.000000 -0.006640 0.000000
# 4 0.000000 0.000000 0.000000 -0.005358 0.000000 0.034318
# 5 -0.008318 0.000877 -0.006640 0.000000 0.052441 0.000000
# 6 0.000000 0.000000 0.000000 0.034318 0.000000 0.008098
#
#
# Mechanical properties :
#
#
# Convention : Reuss Voigt Hill
#
# Bulk Modulus (GPa) = 44.71905 53.83957 49.27931
# Shear Modulus (GPa) = 40.14059 16.86867 28.50463
#
# Velocity S-wave (km/s) = 4.75149 3.08019 4.00401
# Velocity P-wave (km/s) = 7.43330 6.55222 7.00662
#
# Compressibility (1/GPa) = 0.02236183
#
# Stress axis : x y z
#
# Youngs Moduli (GPa) = 76.26127 82.45776 59.15697
#
# Poissons Ratio (x) = 0.10491 0.20983
# Poissons Ratio (y) = 0.09703 0.30005
# Poissons Ratio (z) = 0.27050 0.41823
#
# Static dielectric constant tensor:
#      x y z
#    x 1.632580 0.000000 0.041790 
#    y 0.000000 1.638070 0.000000 
#    z 0.041790 0.000000 1.629750 
# 
# From -- ./inp_files/35140.got.cif
#   From: 2010.05.17/outbox.cif.g08.bks.cpg/sg10_18_cif.got.tgz:35140.got - 2010.06.03 11:33:40.
