data_PCOD9146418
_publ_section_title
;
Structure prediction by ZEFSAII (Michael W. Deem and Ramdas Pophale) SiO2 
 PCOD9146418
Probable space group: P 2/M
;
_chemical_formula_sum "Si O2"
_cell_formula_units_Z 32
_cell_length_a 16.160940
_cell_length_b 7.544150
_cell_length_c 21.737763
_cell_angle_alpha 90.000000
_cell_angle_beta 26.696918
_cell_angle_gamma 90.000000
_cell_volume 1190.693857
_symmetry_space_group_name_H-M "P 2/M"
_symmetry_group_IT_number 10
_symmetry_cell_setting 'monoclinic'
loop_
_space_group_symop_operation_xyz
x,y,z
-x,y,-z
-x,-y,-z
x,-y,z
loop_
_atom_site_type_symbol
_atom_site_label
_atom_site_fract_x
_atom_site_fract_y
_atom_site_fract_z
Si Si1 0.962760 0.295140 0.442199
Si Si2 0.031430 0.796264 0.064695
Si Si3 0.376102 0.707482 0.261872
Si Si4 0.288640 0.217733 0.646753
Si Si5 0.261332 0.786342 0.531826
Si Si6 0.741590 0.711228 0.965695
Si Si7 0.392390 0.215520 0.768590
Si Si8 0.702650 0.791112 0.857404
O O1 0.963368 0.500000 0.456632
O O2 0.823127 0.213600 0.586036
O O3 0.857333 0.271493 0.447358
O O4 0.172212 0.251303 0.284828
O O5 0.140455 0.795307 0.057946
O O6 0.835932 0.716837 0.214290
O O7 0.996648 0.000000 0.070215
O O8 0.182174 0.721714 0.916944
O O9 0.353080 0.500000 0.262134
O O10 0.493486 0.720483 0.247649
O O11 0.529639 0.781767 0.113226
O O12 0.500000 0.270113 0.500000
O O13 0.204303 0.274673 0.637088
O O14 0.286836 0.000000 0.651311
O O15 0.474362 0.736531 0.376030
O O16 0.253491 0.000000 0.537471
O O17 0.741797 0.500000 0.976219
O O18 0.801581 0.745894 0.856261
O O19 0.385625 0.000000 0.775120
O O20 0.685369 0.000000 0.867596
O O21 0.500000 0.707319 0.000000
#
# Coordination Sequence:
#
# PCOD9146418 Si02
#       8
#     4   4   4   4   4   4   4   4
#     4  10  19  33  55  79 101 126 160 201 245 293
#     4   9  16  28  47  69  94 123 157 197 240 287
#     4   8  16  30  49  76 103 124 151 194 245 292
#     4   9  17  28  42  62  90 125 162 199 240 284
#     4   9  16  28  47  69  94 123 157 197 240 287
#     4  10  19  33  55  79 101 126 160 201 245 293
#     4   8  14  24  41  67  93 118 151 193 239 284
#     4  11  24  39  52  70 100 135 168 201 238 282
#
# _framework density 26.875088000000002
#
# number of rings (size 3 to 8) (size 9 to 14) (size 15 to 20)
#    0.000    2.750    0.000    1.875    0.000    3.000 
#    0.000    1.250    0.000    9.000    0.000    0.000 
#    0.000   10.000    0.000    0.000    0.000    0.000 
#
# Total GULP energy -178841.812663 kJ/mol
# GULP energy per Si atom -5588.806646 kJ/mol
# Density = 2.681392 g / cm^3
# Si number density = 26.875088 Si / 1000 Ang^3
#
#
#
# Elastic Constant Matrix: (Units=GPa)
#
#
# Indices 1 2 3 4 5 6 
#
# 1 91.4722 -0.6069 62.5721 0.0000 18.2242 0.0000
# 2 -0.6069 85.0706 10.8967 0.0000 4.8673 0.0000
# 3 62.5721 10.8967 216.2357 0.0000 6.9057 0.0000
# 4 0.0000 0.0000 0.0000 6.7748 0.0000 3.0012
# 5 18.2242 4.8673 6.9057 0.0000 59.9203 0.0000
# 6 0.0000 0.0000 0.0000 3.0012 0.0000 -1.4578
#
#
#
# Elastic Compliance Matrix: (Units=1/GPa)
#
#
# Indices 1 2 3 4 5 6 
#
# 1 0.014565 0.000863 -0.004130 0.000000 -0.004024 0.000000
# 2 0.000863 0.011931 -0.000815 0.000000 -0.001138 0.000000
# 3 -0.004130 -0.000815 0.005840 0.000000 0.000649 0.000000
# 4 0.000000 0.000000 0.000000 0.077199 0.000000 0.158934
# 5 -0.004024 -0.001138 0.000649 0.000000 0.017930 0.000000
# 6 0.000000 0.000000 0.000000 0.158934 0.000000 -0.358778
#
#
# Mechanical properties :
#
#
# Convention : Reuss Voigt Hill
#
# Bulk Modulus (GPa) = 41.36882 59.83359 50.60120
# Shear Modulus (GPa) = -23.24573 34.37525 5.56476
#
# Velocity S-wave (km/s) = -2.94420 3.58030 1.44052
# Velocity P-wave (km/s) = 1.96689 6.27720 4.65145
#
# Compressibility (1/GPa) = 0.02417279
#
# Stress axis : x y z
#
# Youngs Moduli (GPa) = 68.65997 83.81852 171.23677
#
# Poissons Ratio (x) = -0.07234 0.70713
# Poissons Ratio (y) = -0.05926 0.13949
# Poissons Ratio (z) = 0.28353 0.06828
#
# Static dielectric constant tensor:
#      x y z
#    x 2.142040 0.000000 -0.065200 
#    y 0.000000 1.998640 0.000000 
#    z -0.065200 0.000000 2.212130 
# 
# From -- ./inp_files/93612.got.cif
#   From: 2010.05.17/outbox.cif.g08.bks.cpg/sg10_47_cif.got.tgz:93612.got - 2010.06.03 11:33:40.
