data_PCOD9146953
_publ_section_title
;
Structure prediction by ZEFSAII (Michael W. Deem and Ramdas Pophale) SiO2 
 PCOD9146953
Probable space group: P 2/M
;
_chemical_formula_sum "Si O2"
_cell_formula_units_Z 20
_cell_length_a 9.871424
_cell_length_b 7.873486
_cell_length_c 16.063192
_cell_angle_alpha 90.000000
_cell_angle_beta 124.375848
_cell_angle_gamma 90.000000
_cell_volume 1030.428119
_symmetry_space_group_name_H-M "P 2/M"
_symmetry_group_IT_number 10
_symmetry_cell_setting 'monoclinic'
loop_
_space_group_symop_operation_xyz
x,y,z
-x,y,-z
-x,-y,-z
x,-y,z
loop_
_atom_site_type_symbol
_atom_site_label
_atom_site_fract_x
_atom_site_fract_y
_atom_site_fract_z
Si Si1 0.530617 0.700707 0.738069
Si Si2 0.975488 0.184675 0.291071
Si Si3 0.161377 0.308103 0.599778
Si Si4 0.337714 0.301099 0.400299
Si Si5 0.725229 0.000000 0.883388
Si Si6 0.048332 0.000000 0.879676
O O1 0.525329 0.500000 0.761861
O O2 0.344656 0.760694 0.653599
O O3 0.632414 0.708654 0.687731
O O4 0.616641 0.831743 0.830304
O O5 0.877604 0.310927 0.315235
O O6 0.168720 0.215256 0.366199
O O7 0.931422 0.000000 0.311677
O O8 0.941530 0.159839 0.180920
O O9 0.172177 0.500000 0.569153
O O10 0.000000 0.229857 0.500000
O O11 0.500000 0.230182 0.500000
O O12 0.324285 0.500000 0.419106
O O13 0.875014 0.000000 0.867995
O O14 0.810692 0.000000 0.002913
#
# Coordination Sequence:
#
# PCOD9146953 Si02
#       6
#     4   4   4   4   2   2
#     4  10  21  37  59  88 113 152 200 232 290 349
#     4  10  20  36  53  85 111 145 195 230 285 345
#     4  10  21  38  57  82 122 160 187 226 283 349
#     4  10  19  34  55  80 115 151 187 237 287 341
#     4  11  20  43  64  81 121 147 189 263 296 337
#     4   9  22  39  60  85 111 149 191 245 312 337
#
# _framework density 19.409410000000001
#
# number of rings (size 3 to 8) (size 9 to 14) (size 15 to 20)
#    0.600    1.400    2.000    1.800    1.400    4.000 
#    3.600    6.000    0.000    2.400    0.000    0.000 
#    0.000    0.000    0.000    0.000    0.000    0.000 
#
# Total GULP energy -111400.201236 kJ/mol
# GULP energy per Si atom -5570.010062 kJ/mol
# Density = 1.936523 g / cm^3
# Si number density = 19.409410 Si / 1000 Ang^3
#
#
#
# Elastic Constant Matrix: (Units=GPa)
#
#
# Indices 1 2 3 4 5 6 
#
# 1 63.7256 2.5402 2.6690 0.0000 3.7738 0.0000
# 2 2.5402 62.9887 33.3806 0.0000 5.3533 0.0000
# 3 2.6690 33.3806 92.1724 0.0000 5.8753 0.0000
# 4 0.0000 0.0000 0.0000 17.5399 0.0000 -0.8825
# 5 3.7738 5.3533 5.8753 0.0000 30.6779 0.0000
# 6 0.0000 0.0000 0.0000 -0.8825 0.0000 21.7304
#
#
#
# Elastic Compliance Matrix: (Units=1/GPa)
#
#
# Indices 1 2 3 4 5 6 
#
# 1 0.015825 -0.000373 -0.000206 0.000000 -0.001842 0.000000
# 2 -0.000373 0.019789 -0.007024 0.000000 -0.002062 0.000000
# 3 -0.000206 -0.007024 0.013484 0.000000 -0.001331 0.000000
# 4 0.000000 0.000000 0.000000 0.057129 0.000000 0.002320
# 5 -0.001842 -0.002062 -0.001331 0.000000 0.033438 0.000000
# 6 0.000000 0.000000 0.000000 0.002320 0.000000 0.046113
#
#
# Mechanical properties :
#
#
# Convention : Reuss Voigt Hill
#
# Bulk Modulus (GPa) = 29.50548 32.89626 31.20087
# Shear Modulus (GPa) = 23.55374 26.00944 24.78159
#
# Velocity S-wave (km/s) = 3.48734 3.66463 3.57709
# Velocity P-wave (km/s) = 5.60803 5.90690 5.75940
#
# Compressibility (1/GPa) = 0.03389201
#
# Stress axis : x y z
#
# Youngs Moduli (GPa) = 63.19175 50.53402 74.16228
#
# Poissons Ratio (x) = 0.01882 0.01527
# Poissons Ratio (y) = 0.02354 0.52094
# Poissons Ratio (z) = 0.01301 0.35497
#
# Static dielectric constant tensor:
#      x y z
#    x 1.665140 0.000000 -0.007220 
#    y 0.000000 1.728560 0.000000 
#    z -0.007220 0.000000 1.674280 
# 
# From -- ./inp_files/60119.got.cif
#   From: 2010.05.17/outbox.cif.g08.bks.cpg/sg10_31_cif.got.tgz:60119.got - 2010.06.03 11:33:40.
