data_PCOD9146780
_publ_section_title
;
Structure prediction by ZEFSAII (Michael W. Deem and Ramdas Pophale) SiO2 
 PCOD9146780
Probable space group: P 2/M
;
_chemical_formula_sum "Si O2"
_cell_formula_units_Z 32
_cell_length_a 32.475135
_cell_length_b 9.200683
_cell_length_c 20.927857
_cell_angle_alpha 90.000000
_cell_angle_beta 18.392418
_cell_angle_gamma 90.000000
_cell_volume 1973.001701
_symmetry_space_group_name_H-M "P 2/M"
_symmetry_group_IT_number 10
_symmetry_cell_setting 'monoclinic'
loop_
_space_group_symop_operation_xyz
x,y,z
-x,y,-z
-x,-y,-z
x,-y,z
loop_
_atom_site_type_symbol
_atom_site_label
_atom_site_fract_x
_atom_site_fract_y
_atom_site_fract_z
Si Si1 0.119476 0.330917 0.046900
Si Si2 0.532702 0.332693 0.757258
Si Si3 0.124643 0.827717 0.633529
Si Si4 0.502010 0.826733 0.673543
Si Si5 0.610697 0.324646 0.283469
Si Si6 0.426674 0.174376 0.173510
Si Si7 0.771509 0.669501 0.256254
Si Si8 0.150498 0.334911 0.724027
O O1 0.093034 0.500000 0.099325
O O2 0.245686 0.286371 0.901959
O O3 0.165308 0.319550 0.905769
O O4 0.986590 0.241545 0.246792
O O5 0.489384 0.500000 0.821031
O O6 0.474480 0.244557 0.783235
O O7 0.513118 0.255371 0.854023
O O8 0.690406 0.333604 0.515318
O O9 0.272748 0.787237 0.396249
O O10 0.106036 0.770405 0.733471
O O11 0.113466 0.000000 0.649025
O O12 0.419252 0.756624 0.738172
O O13 0.650107 0.777182 0.439598
O O14 0.490583 0.000000 0.692510
O O15 0.500000 0.289376 0.500000
O O16 0.604111 0.500000 0.284303
O O17 0.434219 0.000000 0.172612
O O18 0.500000 0.209925 0.000000
O O19 0.726814 0.500000 0.329387
O O20 0.867318 0.698691 0.174739
O O21 0.105321 0.500000 0.776959
#
# Coordination Sequence:
#
# PCOD9146780 Si02
#       8
#     4   4   4   4   4   4   4   4
#     4  10  20  33  49  65  89 127 168 207 245 286
#     4   9  17  30  49  73 100 129 163 200 239 288
#     4  10  20  32  46  67  98 127 155 196 241 290
#     4  11  20  29  46  71 100 129 162 209 255 290
#     4  10  19  34  52  67  89 127 175 216 248 287
#     4   9  18  34  55  78 104 132 159 191 240 298
#     4   9  17  31  47  64  87 125 171 207 240 282
#     4   8  15  28  46  63  86 122 164 200 230 275
#
# _framework density 16.218941999999998
#
# number of rings (size 3 to 8) (size 9 to 14) (size 15 to 20)
#    0.000    2.500    1.250    2.625    0.000    5.500 
#    0.000    2.500    0.000    0.000    0.000    0.875 
#    0.000    7.000    0.000    0.000    0.000    0.000 
#
# Total GULP energy -178450.194660 kJ/mol
# GULP energy per Si atom -5576.568583 kJ/mol
# Density = 1.618203 g / cm^3
# Si number density = 16.218942 Si / 1000 Ang^3
#
#
#
# Elastic Constant Matrix: (Units=GPa)
#
#
# Indices 1 2 3 4 5 6 
#
# 1 135.5948 70.5359 58.6469 0.0000 -13.4888 0.0000
# 2 70.5359 74.3384 44.6784 0.0000 -8.8907 0.0000
# 3 58.6469 44.6784 60.1361 0.0000 -11.3683 0.0000
# 4 0.0000 0.0000 0.0000 19.3622 0.0000 -2.1404
# 5 -13.4888 -8.8907 -11.3683 0.0000 29.3460 0.0000
# 6 0.0000 0.0000 0.0000 -2.1404 0.0000 24.7604
#
#
#
# Elastic Compliance Matrix: (Units=1/GPa)
#
#
# Indices 1 2 3 4 5 6 
#
# 1 0.016511 -0.010807 -0.007831 0.000000 0.001282 0.000000
# 2 -0.010807 0.031382 -0.012860 0.000000 -0.000441 0.000000
# 3 -0.007831 -0.012860 0.034964 0.000000 0.006049 0.000000
# 4 0.000000 0.000000 0.000000 0.052145 0.000000 0.004508
# 5 0.001282 -0.000441 0.006049 0.000000 0.036875 0.000000
# 6 0.000000 0.000000 0.000000 0.004508 0.000000 0.040777
#
#
# Mechanical properties :
#
#
# Convention : Reuss Voigt Hill
#
# Bulk Modulus (GPa) = 50.34771 68.64350 59.49561
# Shear Modulus (GPa) = 17.71359 21.10759 19.41059
#
# Velocity S-wave (km/s) = 3.30836 3.61143 3.46321
# Velocity P-wave (km/s) = 6.76044 7.73336 7.26321
#
# Compressibility (1/GPa) = 0.01986188
#
# Stress axis : x y z
#
# Youngs Moduli (GPa) = 60.56570 31.86543 28.60105
#
# Poissons Ratio (x) = 0.34436 0.22397
# Poissons Ratio (y) = 0.65451 0.36780
# Poissons Ratio (z) = 0.47429 0.40978
#
# Static dielectric constant tensor:
#      x y z
#    x 1.548470 0.000000 -0.012620 
#    y 0.000000 1.541660 0.000000 
#    z -0.012620 0.000000 1.568940 
# 
# From -- ./inp_files/66155.got.cif
#   From: 2010.05.17/outbox.cif.g08.bks.cpg/sg10_34_cif.got.tgz:66155.got - 2010.06.03 11:33:40.
