data_PCOD9146090
_publ_section_title
;
Structure prediction by ZEFSAII (Michael W. Deem and Ramdas Pophale) SiO2 
 PCOD9146090
Probable space group: P 2/M
;
_chemical_formula_sum "Si O2"
_cell_formula_units_Z 24
_cell_length_a 10.092052
_cell_length_b 12.967075
_cell_length_c 12.821462
_cell_angle_alpha 90.000000
_cell_angle_beta 64.820671
_cell_angle_gamma 90.000000
_cell_volume 1518.442405
_symmetry_space_group_name_H-M "P 2/M"
_symmetry_group_IT_number 10
_symmetry_cell_setting 'monoclinic'
loop_
_space_group_symop_operation_xyz
x,y,z
-x,y,-z
-x,-y,-z
x,-y,z
loop_
_atom_site_type_symbol
_atom_site_label
_atom_site_fract_x
_atom_site_fract_y
_atom_site_fract_z
Si Si1 0.659264 0.625245 0.987411
Si Si2 0.821950 0.285041 0.368650
Si Si3 0.312995 0.380468 0.784178
Si Si4 0.865591 0.621528 0.728490
Si Si5 0.645375 0.118032 0.522960
Si Si6 0.640916 0.673938 0.621202
O O1 0.652427 0.500000 0.991900
O O2 0.691541 0.657318 0.094849
O O3 0.500000 0.660712 0.000000
O O4 0.783460 0.652521 0.862579
O O5 0.781876 0.315498 0.265054
O O6 0.777618 0.167991 0.411665
O O7 0.713936 0.347752 0.483952
O O8 0.987423 0.314390 0.337746
O O9 0.265700 0.500000 0.796606
O O10 0.482176 0.373124 0.691647
O O11 0.902635 0.500000 0.721898
O O12 0.750788 0.638121 0.673705
O O13 0.500000 0.124667 0.500000
O O14 0.626487 0.201001 0.622027
O O15 0.668558 0.000000 0.545135
#
# Coordination Sequence:
#
# PCOD9146090 Si02
#       6
#     4   4   4   4   4   4
#     4   9  18  32  49  68  94 144 188 200 231 285
#     4  10  21  33  46  81 104 128 174 200 265 307
#     4  11  19  31  50  72 106 137 172 212 233 291
#     4  11  21  33  49  72 112 146 166 202 245 298
#     4   9  18  36  55  75 101 129 168 215 259 309
#     4  10  19  33  50  78  99 133 177 195 254 312
#
# _framework density 15.805669999999999
#
# number of rings (size 3 to 8) (size 9 to 14) (size 15 to 20)
#    1.000    1.000    3.333    2.000    0.000    4.667 
#    0.000    4.167    0.000    0.000    0.000    7.000 
#    0.000    0.000    0.000    0.000    0.000    0.000 
#
# Total GULP energy -133631.438796 kJ/mol
# GULP energy per Si atom -5567.976617 kJ/mol
# Density = 1.576970 g / cm^3
# Si number density = 15.805670 Si / 1000 Ang^3
#
#
#
# Elastic Constant Matrix: (Units=GPa)
#
#
# Indices 1 2 3 4 5 6 
#
# 1 34.0724 -3.2758 -15.3734 0.0000 -4.4833 0.0000
# 2 -3.2758 49.5650 0.8024 0.0000 -9.6736 0.0000
# 3 -15.3734 0.8024 53.3119 0.0000 9.2673 0.0000
# 4 0.0000 0.0000 0.0000 -9.6041 0.0000 -1.3745
# 5 -4.4833 -9.6736 9.2673 0.0000 24.2541 0.0000
# 6 0.0000 0.0000 0.0000 -1.3745 0.0000 11.7518
#
#
#
# Elastic Compliance Matrix: (Units=1/GPa)
#
#
# Indices 1 2 3 4 5 6 
#
# 1 0.034281 0.002898 0.009147 0.000000 0.003997 0.000000
# 2 0.002898 0.022320 -0.001222 0.000000 0.009905 0.000000
# 3 0.009147 -0.001222 0.022713 0.000000 -0.007475 0.000000
# 4 0.000000 0.000000 0.000000 -0.102408 0.000000 -0.011978
# 5 0.003997 0.009905 -0.007475 0.000000 0.048776 0.000000
# 6 0.000000 0.000000 0.000000 -0.011978 0.000000 0.083692
#
#
# Mechanical properties :
#
#
# Convention : Reuss Voigt Hill
#
# Bulk Modulus (GPa) = 9.90499 11.25064 10.57782
# Shear Modulus (GPa) = 41.19242 15.60010 28.39626
#
# Velocity S-wave (km/s) = 5.11061 3.14505 4.24321
# Velocity P-wave (km/s) = 6.41131 4.50800 5.54197
#
# Compressibility (1/GPa) = 0.10095917
#
# Stress axis : x y z
#
# Youngs Moduli (GPa) = 29.17077 44.80300 44.02759
#
# Poissons Ratio (x) = -0.12983 -0.40272
# Poissons Ratio (y) = -0.08453 0.05380
# Poissons Ratio (z) = -0.26682 0.05475
#
# Static dielectric constant tensor:
#      x y z
#    x 1.518540 0.000000 -0.001510 
#    y 0.000000 1.520230 0.000000 
#    z -0.001510 0.000000 1.538480 
# 
# From -- ./inp_files/42408.got.cif
#   From: 2010.05.17/outbox.cif.g08.bks.cpg/sg10_22_cif.got.tgz:42408.got - 2010.06.03 11:33:40.
