data_PCOD9146116
_publ_section_title
;
Structure prediction by ZEFSAII (Michael W. Deem and Ramdas Pophale) SiO2 
 PCOD9146116
Probable space group: P 2/M
;
_chemical_formula_sum "Si O2"
_cell_formula_units_Z 22
_cell_length_a 9.381887
_cell_length_b 28.584906
_cell_length_c 7.998077
_cell_angle_alpha 90.000000
_cell_angle_beta 32.921854
_cell_angle_gamma 90.000000
_cell_volume 1165.756458
_symmetry_space_group_name_H-M "P 2/M"
_symmetry_group_IT_number 10
_symmetry_cell_setting 'monoclinic'
loop_
_space_group_symop_operation_xyz
x,y,z
-x,y,-z
-x,-y,-z
x,-y,z
loop_
_atom_site_type_symbol
_atom_site_label
_atom_site_fract_x
_atom_site_fract_y
_atom_site_fract_z
Si Si1 0.617688 0.554910 0.699221
Si Si2 0.754231 0.200895 0.867800
Si Si3 0.245365 0.000000 0.131777
Si Si4 0.754539 0.696982 0.866897
Si Si5 0.877281 0.396020 0.938343
Si Si6 0.245313 0.100520 0.131764
O O1 0.673173 0.500000 0.623221
O O2 0.885768 0.583110 0.406987
O O3 0.500000 0.562766 0.000000
O O4 0.379715 0.571401 0.815397
O O5 0.750696 0.251637 0.957539
O O6 0.758662 0.150766 0.957104
O O7 0.000000 0.200971 0.500000
O O8 0.500000 0.200692 0.000000
O O9 0.241936 0.949743 0.042543
O O10 0.000000 0.000000 0.500000
O O11 0.500000 0.000000 0.000000
O O12 0.784981 0.654202 0.962167
O O13 0.000000 0.695949 0.500000
O O14 0.500000 0.691713 0.000000
O O15 0.000000 0.392774 0.000000
O O16 0.000000 0.100517 0.500000
O O17 0.500000 0.100530 0.000000
#
# Coordination Sequence:
#
# PCOD9146116 Si02
#       6
#     4   4   2   4   4   4
#     4  11  24  42  62  81 103 134 168 198 234 288
#     4   8  14  23  37  56  76 104 145 188 222 263
#     4   8  12  16  24  38  62  96 127 164 215 268
#     4  10  19  33  52  70  93 127 164 198 235 283
#     4  12  24  37  56  82 109 133 161 203 249 289
#     4   8  12  18  27  43  67  95 132 173 216 264
#
# _framework density 18.871867000000002
#
# number of rings (size 3 to 8) (size 9 to 14) (size 15 to 20)
#    0.000    2.364    0.000    4.364    0.000    3.636 
#    0.000    0.000    0.000    0.000    0.000    0.000 
#    0.000    0.000    0.000    0.818    0.000    1.818 
#
# Total GULP energy -122503.914586 kJ/mol
# GULP energy per Si atom -5568.359754 kJ/mol
# Density = 1.882891 g / cm^3
# Si number density = 18.871867 Si / 1000 Ang^3
#
#
#
# Elastic Constant Matrix: (Units=GPa)
#
#
# Indices 1 2 3 4 5 6 
#
# 1 50.4770 33.9591 15.2408 0.0000 -11.9629 0.0000
# 2 33.9591 194.4117 20.9780 0.0000 4.7435 0.0000
# 3 15.2408 20.9780 98.9564 0.0000 -36.1484 0.0000
# 4 0.0000 0.0000 0.0000 20.2511 0.0000 -13.6614
# 5 -11.9629 4.7435 -36.1484 0.0000 25.4100 0.0000
# 6 0.0000 0.0000 0.0000 -13.6614 0.0000 3.1621
#
#
#
# Elastic Compliance Matrix: (Units=1/GPa)
#
#
# Indices 1 2 3 4 5 6 
#
# 1 0.027054 -0.005679 0.004324 0.000000 0.019949 0.000000
# 2 -0.005679 0.006831 -0.004197 0.000000 -0.009919 0.000000
# 3 0.004324 -0.004197 0.023648 0.000000 0.036462 0.000000
# 4 0.000000 0.000000 0.000000 -0.025793 0.000000 -0.111433
# 5 0.019949 -0.009919 0.036462 0.000000 0.102469 0.000000
# 6 0.000000 0.000000 0.000000 -0.111433 0.000000 -0.165183
#
#
# Mechanical properties :
#
#
# Convention : Reuss Voigt Hill
#
# Bulk Modulus (GPa) = 21.53780 53.80011 37.66895
# Shear Modulus (GPa) = -1137.66320 28.00912 -554.82704
#
# Velocity S-wave (km/s) = -24.57935 3.85668 -17.16494
# Velocity P-wave (km/s) = 28.17957 6.95715 19.30915
#
# Compressibility (1/GPa) = 0.04643001
#
# Stress axis : x y z
#
# Youngs Moduli (GPa) = 36.96347 146.40045 42.28610
#
# Poissons Ratio (x) = 0.83141 -0.18286
# Poissons Ratio (y) = 0.20992 0.17747
# Poissons Ratio (z) = -0.15985 0.61441
#
# Static dielectric constant tensor:
#      x y z
#    x 1.467460 0.000000 0.193370 
#    y 0.000000 1.785320 0.000000 
#    z 0.193370 0.000000 1.325700 
# 
# From -- ./inp_files/20879.got.cif
#   From: 2010.05.17/outbox.cif.g08.bks.cpg/sg10_11_cif.got.tgz:20879.got - 2010.06.03 11:33:40.
