data_PCOD9146573
_publ_section_title
;
Structure prediction by ZEFSAII (Michael W. Deem and Ramdas Pophale) SiO2 
 PCOD9146573
Probable space group: P 2/M
;
_chemical_formula_sum "Si O2"
_cell_formula_units_Z 32
_cell_length_a 16.140488
_cell_length_b 9.092807
_cell_length_c 21.465716
_cell_angle_alpha 90.000000
_cell_angle_beta 26.285035
_cell_angle_gamma 90.000000
_cell_volume 1395.095496
_symmetry_space_group_name_H-M "P 2/M"
_symmetry_group_IT_number 10
_symmetry_cell_setting 'monoclinic'
loop_
_space_group_symop_operation_xyz
x,y,z
-x,y,-z
-x,-y,-z
x,-y,z
loop_
_atom_site_type_symbol
_atom_site_label
_atom_site_fract_x
_atom_site_fract_y
_atom_site_fract_z
Si Si1 0.964245 0.327202 0.428833
Si Si2 0.034891 0.670287 0.066023
Si Si3 0.403054 0.673569 0.263021
Si Si4 0.290251 0.174634 0.650019
Si Si5 0.257489 0.827672 0.531329
Si Si6 0.742356 0.667554 0.952833
Si Si7 0.367056 0.171495 0.783925
Si Si8 0.713491 0.826003 0.851133
O O1 0.003013 0.500000 0.403201
O O2 0.817742 0.295816 0.583529
O O3 0.843724 0.279086 0.448901
O O4 0.157000 0.242701 0.289228
O O5 0.001103 0.500000 0.076274
O O6 0.146663 0.681283 0.057038
O O7 0.842789 0.753714 0.209290
O O8 0.177680 0.736807 0.919302
O O9 0.425515 0.500000 0.266723
O O10 0.505601 0.779215 0.243020
O O11 0.524589 0.688652 0.119037
O O12 0.500000 0.233765 0.500000
O O13 0.204777 0.195174 0.638406
O O14 0.301406 0.000000 0.654786
O O15 0.482955 0.807408 0.372393
O O16 0.220663 0.000000 0.539414
O O17 0.768545 0.500000 0.912239
O O18 0.795604 0.779678 0.863081
O O19 0.318996 0.000000 0.819668
O O20 0.712554 0.000000 0.844349
O O21 0.500000 0.772386 0.000000
#
# Coordination Sequence:
#
# PCOD9146573 Si02
#       8
#     4   4   4   4   4   4   4   4
#     4  10  19  33  56  81 103 131 166 206 254 304
#     4  10  20  34  53  78 105 132 166 208 253 302
#     4   8  16  31  51  78 106 127 157 205 254 299
#     4  10  21  36  52  72 101 137 175 213 253 298
#     4   9  18  33  54  79 104 131 167 210 253 299
#     4   9  18  34  56  79 101 128 165 207 250 299
#     4   9  16  28  50  78 103 129 163 204 251 299
#     4  11  24  38  50  70 103 139 173 209 248 293
#
# _framework density 22.937498000000001
#
# number of rings (size 3 to 8) (size 9 to 14) (size 15 to 20)
#    0.000    2.500    0.000    3.000    0.000    7.250 
#    0.000    1.250    0.000    7.500    0.000    0.000 
#    0.000    0.000    0.000    0.000    0.000    0.000 
#
# Total GULP energy -178791.052753 kJ/mol
# GULP energy per Si atom -5587.220399 kJ/mol
# Density = 2.288529 g / cm^3
# Si number density = 22.937498 Si / 1000 Ang^3
#
#
#
# Elastic Constant Matrix: (Units=GPa)
#
#
# Indices 1 2 3 4 5 6 
#
# 1 51.4606 9.2605 16.8648 0.0000 3.4455 0.0000
# 2 9.2605 51.1776 61.7311 0.0000 10.4113 0.0000
# 3 16.8648 61.7311 174.1046 0.0000 0.5372 0.0000
# 4 0.0000 0.0000 0.0000 83.7673 0.0000 47.3063
# 5 3.4455 10.4113 0.5372 0.0000 43.0786 0.0000
# 6 0.0000 0.0000 0.0000 47.3063 0.0000 58.6355
#
#
#
# Elastic Compliance Matrix: (Units=1/GPa)
#
#
# Indices 1 2 3 4 5 6 
#
# 1 0.020271 -0.001868 -0.001298 0.000000 -0.001154 0.000000
# 2 -0.001868 0.037395 -0.013051 0.000000 -0.008726 0.000000
# 3 -0.001298 -0.013051 0.010487 0.000000 0.003127 0.000000
# 4 0.000000 0.000000 0.000000 0.021929 0.000000 -0.017692
# 5 -0.001154 -0.008726 0.003127 0.000000 0.025375 0.000000
# 6 0.000000 0.000000 0.000000 -0.017692 0.000000 0.031328
#
#
# Mechanical properties :
#
#
# Convention : Reuss Voigt Hill
#
# Bulk Modulus (GPa) = 27.99561 50.27283 39.13422
# Shear Modulus (GPa) = 26.16063 49.68872 37.92467
#
# Velocity S-wave (km/s) = 3.38082 4.65937 4.07060
# Velocity P-wave (km/s) = 5.24133 7.13520 6.26030
#
# Compressibility (1/GPa) = 0.03571988
#
# Stress axis : x y z
#
# Youngs Moduli (GPa) = 49.33148 26.74125 95.35442
#
# Poissons Ratio (x) = 0.04995 0.12374
# Poissons Ratio (y) = 0.09215 1.24449
# Poissons Ratio (z) = 0.06402 0.34900
#
# Static dielectric constant tensor:
#      x y z
#    x 1.898130 0.000000 -0.036640 
#    y 0.000000 1.767810 0.000000 
#    z -0.036640 0.000000 1.893060 
# 
# From -- ./inp_files/93611.got.cif
#   From: 2010.05.17/outbox.cif.g08.bks.cpg/sg10_47_cif.got.tgz:93611.got - 2010.06.03 11:33:40.
