data_PCOD9146857
_publ_section_title
;
Structure prediction by ZEFSAII (Michael W. Deem and Ramdas Pophale) SiO2 
 PCOD9146857
Probable space group: P 2/M
;
_chemical_formula_sum "Si O2"
_cell_formula_units_Z 28
_cell_length_a 9.744491
_cell_length_b 7.890292
_cell_length_c 26.733524
_cell_angle_alpha 90.000000
_cell_angle_beta 40.061784
_cell_angle_gamma 90.000000
_cell_volume 1322.919589
_symmetry_space_group_name_H-M "P 2/M"
_symmetry_group_IT_number 10
_symmetry_cell_setting 'monoclinic'
loop_
_space_group_symop_operation_xyz
x,y,z
-x,y,-z
-x,-y,-z
x,-y,z
loop_
_atom_site_type_symbol
_atom_site_label
_atom_site_fract_x
_atom_site_fract_y
_atom_site_fract_z
Si Si1 0.581741 0.696309 0.425226
Si Si2 0.915054 0.294779 0.254212
Si Si3 0.780518 0.295669 0.085033
Si Si4 0.812918 0.303455 0.663419
Si Si5 0.649780 0.707188 0.232362
Si Si6 0.838736 0.804499 0.502349
Si Si7 0.677522 0.197919 0.809784
O O1 0.500000 0.775337 0.500000
O O2 0.636525 0.500000 0.421129
O O3 0.781789 0.769497 0.339588
O O4 0.379358 0.704909 0.444596
O O5 0.905241 0.500000 0.257331
O O6 0.793920 0.236720 0.238209
O O7 0.158825 0.241563 0.191997
O O8 0.790264 0.500000 0.083743
O O9 0.742050 0.237709 0.152916
O O10 0.567839 0.247520 0.114162
O O11 0.000000 0.232321 0.000000
O O12 0.847524 0.500000 0.641168
O O13 0.597691 0.239173 0.696218
O O14 0.760457 0.291322 0.736646
O O15 0.021278 0.207338 0.587199
O O16 0.645258 0.500000 0.233408
O O17 0.000000 0.739753 0.500000
O O18 0.787350 0.000000 0.527701
O O19 0.687041 0.000000 0.796375
#
# Coordination Sequence:
#
# PCOD9146857 Si02
#       7
#     4   4   4   4   4   4   4
#     4  10  21  35  52  74 100 138 186 230 272 317
#     4  10  19  34  54  76 105 139 179 223 264 314
#     4   9  18  36  61  85 108 137 176 218 259 310
#     4  10  19  35  57  77 100 136 185 230 267 315
#     4   8  16  31  54  81 103 131 175 224 268 307
#     4  11  23  35  49  75 109 141 176 223 279 330
#     4  11  22  35  54  81 111 141 172 209 262 322
#
# _framework density 21.165309000000001
#
# number of rings (size 3 to 8) (size 9 to 14) (size 15 to 20)
#    0.000    2.143    0.000    4.714    0.000    4.571 
#    0.000    4.286    0.000    4.286    0.000    0.000 
#    0.000    0.000    0.000    0.000    0.000    0.000 
#
# Total GULP energy -156422.487059 kJ/mol
# GULP energy per Si atom -5586.517395 kJ/mol
# Density = 2.111714 g / cm^3
# Si number density = 21.165309 Si / 1000 Ang^3
#
#
#
# Elastic Constant Matrix: (Units=GPa)
#
#
# Indices 1 2 3 4 5 6 
#
# 1 108.4808 -3.9933 29.2222 0.0000 -24.9881 0.0000
# 2 -3.9933 35.7806 4.5337 0.0000 3.9602 0.0000
# 3 29.2222 4.5337 97.9955 0.0000 -26.2236 0.0000
# 4 0.0000 0.0000 0.0000 -17.6274 0.0000 40.7488
# 5 -24.9881 3.9602 -26.2236 0.0000 27.1062 0.0000
# 6 0.0000 0.0000 0.0000 40.7488 0.0000 -51.6555
#
#
#
# Elastic Compliance Matrix: (Units=1/GPa)
#
#
# Indices 1 2 3 4 5 6 
#
# 1 0.011755 0.000317 -0.000854 0.000000 0.009964 0.000000
# 2 0.000317 0.029215 -0.003387 0.000000 -0.007253 0.000000
# 3 -0.000854 -0.003387 0.014219 0.000000 0.013464 0.000000
# 4 0.000000 0.000000 0.000000 0.068883 0.000000 0.054338
# 5 0.009964 -0.007253 0.013464 0.000000 0.060163 0.000000
# 6 0.000000 0.000000 0.000000 0.054338 0.000000 0.023506
#
#
# Mechanical properties :
#
#
# Convention : Reuss Voigt Hill
#
# Bulk Modulus (GPa) = 21.12272 33.53136 27.32704
# Shear Modulus (GPa) = 21.61061 5.73094 13.67077
#
# Velocity S-wave (km/s) = 3.19884 1.64730 2.54422
# Velocity P-wave (km/s) = 4.86261 4.41533 4.64435
#
# Compressibility (1/GPa) = 0.04734239
#
# Stress axis : x y z
#
# Youngs Moduli (GPa) = 85.06952 34.22857 70.33012
#
# Poissons Ratio (x) = -0.01086 0.06003
# Poissons Ratio (y) = -0.02699 0.23821
# Poissons Ratio (z) = 0.07261 0.11593
#
# Static dielectric constant tensor:
#      x y z
#    x 1.794370 0.000000 0.015390 
#    y 0.000000 1.749000 0.000000 
#    z 0.015390 0.000000 1.748350 
# 
# From -- ./inp_files/36909.got.cif
#   From: 2010.05.17/outbox.cif.g08.bks.cpg/sg10_19_cif.got.tgz:36909.got - 2010.06.03 11:33:40.
