data_PCOD9146055
_publ_section_title
;
Structure prediction by ZEFSAII (Michael W. Deem and Ramdas Pophale) SiO2 
 PCOD9146055
Probable space group: P 2/M
;
_chemical_formula_sum "Si O2"
_cell_formula_units_Z 28
_cell_length_a 18.408928
_cell_length_b 11.369359
_cell_length_c 22.675495
_cell_angle_alpha 90.000000
_cell_angle_beta 16.806029
_cell_angle_gamma 90.000000
_cell_volume 1372.202519
_symmetry_space_group_name_H-M "P 2/M"
_symmetry_group_IT_number 10
_symmetry_cell_setting 'monoclinic'
loop_
_space_group_symop_operation_xyz
x,y,z
-x,y,-z
-x,-y,-z
x,-y,z
loop_
_atom_site_type_symbol
_atom_site_label
_atom_site_fract_x
_atom_site_fract_y
_atom_site_fract_z
Si Si1 0.278455 0.831294 0.298886
Si Si2 0.065608 0.633697 0.141099
Si Si3 0.635560 0.360408 0.207426
Si Si4 0.477656 0.634469 0.581643
Si Si5 0.821207 0.872822 0.876020
Si Si6 0.183014 0.220556 0.499394
Si Si7 0.244648 0.635218 0.235918
O O1 0.303801 0.843026 0.349202
O O2 0.272725 0.700029 0.276507
O O3 0.000000 0.877439 0.500000
O O4 0.537787 0.877734 0.070839
O O5 0.156773 0.500000 0.087896
O O6 0.161769 0.748716 0.101452
O O7 0.765826 0.631056 0.379602
O O8 0.143636 0.650328 0.012056
O O9 0.581129 0.500000 0.254140
O O10 0.676368 0.317620 0.242867
O O11 0.397308 0.293776 0.365393
O O12 0.500000 0.692847 0.500000
O O13 0.384260 0.500000 0.643947
O O14 0.030120 0.859676 0.663198
O O15 0.862264 0.000000 0.875036
O O16 0.975290 0.304472 0.630675
O O17 0.189540 0.500000 0.287305
O O18 0.500000 0.647291 0.000000
#
# Coordination Sequence:
#
# PCOD9146055 Si02
#       7
#     4   4   4   4   4   4   4
#     4  10  23  40  57  81 113 151 197 249 303 352
#     4  10  21  38  61  91 121 156 198 244 295 350
#     4  10  19  32  57  89 120 155 195 238 291 348
#     4   9  18  33  56  90 129 159 189 235 292 352
#     4  12  25  41  61  88 119 157 202 251 299 353
#     4  11  21  37  56  82 114 151 200 242 293 353
#     4  10  20  34  56  83 115 152 194 247 303 351
#
# _framework density 20.405151
#
# number of rings (size 3 to 8) (size 9 to 14) (size 15 to 20)
#    0.000    1.714    4.286    0.429    0.000    5.714 
#    0.000    7.857    0.000    0.429    0.000    1.000 
#    0.000    0.000    0.000    0.000    0.000    0.000 
#
# Total GULP energy -156007.898221 kJ/mol
# GULP energy per Si atom -5571.710651 kJ/mol
# Density = 2.035871 g / cm^3
# Si number density = 20.405151 Si / 1000 Ang^3
#
#
#
# Elastic Constant Matrix: (Units=GPa)
#
#
# Indices 1 2 3 4 5 6 
#
# 1 65.6530 20.0143 -1.0476 0.0000 26.4130 0.0000
# 2 20.0143 109.0095 10.4377 0.0000 8.9633 0.0000
# 3 -1.0476 10.4377 77.3988 0.0000 15.9715 0.0000
# 4 0.0000 0.0000 0.0000 -217.5211 0.0000 -19.7570
# 5 26.4130 8.9633 15.9715 0.0000 33.5829 0.0000
# 6 0.0000 0.0000 0.0000 -19.7570 0.0000 -7.6333
#
#
#
# Elastic Compliance Matrix: (Units=1/GPa)
#
#
# Indices 1 2 3 4 5 6 
#
# 1 0.024793 -0.003312 0.005127 0.000000 -0.021054 0.000000
# 2 -0.003312 0.009870 -0.001519 0.000000 0.000693 0.000000
# 3 0.005127 -0.001519 0.015460 0.000000 -0.010979 0.000000
# 4 0.000000 0.000000 0.000000 -0.006010 0.000000 0.015556
# 5 -0.021054 0.000693 -0.010979 0.000000 0.051373 0.000000
# 6 0.000000 0.000000 0.000000 0.015556 0.000000 -0.171267
#
#
# Mechanical properties :
#
#
# Convention : Reuss Voigt Hill
#
# Bulk Modulus (GPa) = 19.71769 34.54115 27.12942
# Shear Modulus (GPa) = -84.07885 -23.47052 -53.77468
#
# Velocity S-wave (km/s) = -6.42605 -3.39518 -5.13913
# Velocity P-wave (km/s) = 6.73608 1.26285 4.67868
#
# Compressibility (1/GPa) = 0.05071587
#
# Stress axis : x y z
#
# Youngs Moduli (GPa) = 40.33319 101.31677 64.68326
#
# Poissons Ratio (x) = 0.33554 -0.33162
# Poissons Ratio (y) = 0.13358 0.09824
# Poissons Ratio (z) = -0.20678 0.15388
#
# Static dielectric constant tensor:
#      x y z
#    x 1.758600 0.000000 0.038410 
#    y 0.000000 1.742090 0.000000 
#    z 0.038410 0.000000 1.762140 
# 
# From -- ./inp_files/85814.got.cif
#   From: 2010.05.17/outbox.cif.g08.bks.cpg/sg10_43_cif.got.tgz:85814.got - 2010.06.03 11:33:40.
