data_PCOD9146663
_publ_section_title
;
Structure prediction by ZEFSAII (Michael W. Deem and Ramdas Pophale) SiO2 
 PCOD9146663
Probable space group: P 2/M
;
_chemical_formula_sum "Si O2"
_cell_formula_units_Z 32
_cell_length_a 15.456109
_cell_length_b 8.611685
_cell_length_c 24.747985
_cell_angle_alpha 90.000000
_cell_angle_beta 150.418330
_cell_angle_gamma 90.000000
_cell_volume 1626.145203
_symmetry_space_group_name_H-M "P 2/M"
_symmetry_group_IT_number 10
_symmetry_cell_setting 'monoclinic'
loop_
_space_group_symop_operation_xyz
x,y,z
-x,y,-z
-x,-y,-z
x,-y,z
loop_
_atom_site_type_symbol
_atom_site_label
_atom_site_fract_x
_atom_site_fract_y
_atom_site_fract_z
Si Si1 0.549969 0.685134 0.653994
Si Si2 0.724635 0.810636 0.970653
Si Si3 0.500252 0.813988 0.252629
Si Si4 0.457573 0.188084 0.918885
Si Si5 0.168562 0.671273 0.627940
Si Si6 0.249792 0.188715 0.413452
Si Si7 0.939943 0.816197 0.321440
Si Si8 0.116925 0.188169 0.220847
O O1 0.540559 0.500000 0.647821
O O2 0.500675 0.743094 0.687626
O O3 0.425136 0.750452 0.537951
O O4 0.744640 0.744735 0.746328
O O5 0.658306 0.764958 0.874445
O O6 0.577300 0.758120 0.934148
O O7 0.724211 0.000000 0.970212
O O8 0.918023 0.763841 0.096843
O O9 0.677467 0.766064 0.317370
O O10 0.494018 0.000000 0.254717
O O11 0.252615 0.215833 0.804428
O O12 0.482771 0.000000 0.933260
O O13 0.500000 0.254776 0.000000
O O14 0.238867 0.500000 0.680481
O O15 0.080115 0.753878 0.630200
O O16 0.000000 0.653146 0.500000
O O17 0.189827 0.234171 0.320195
O O18 0.094600 0.245678 0.368597
O O19 0.261338 0.000000 0.419247
O O20 0.966654 0.000000 0.337448
O O21 0.119903 0.000000 0.221141
#
# Coordination Sequence:
#
# PCOD9146663 Si02
#       8
#     4   4   4   4   4   4   4   4
#     4  12  26  42  60  85 119 161 205 252 310 366
#     4   9  18  34  59  91 122 154 194 246 303 354
#     4  11  22  40  64  89 119 156 203 254 301 356
#     4   9  15  27  52  87 121 148 182 231 284 340
#     4  11  23  37  54  81 119 161 198 238 289 348
#     4  10  21  38  63  94 123 154 199 254 304 356
#     4  10  19  33  56  88 118 150 191 234 285 344
#     4  10  21  40  65  92 120 153 199 254 309 362
#
# _framework density 19.678439999999998
#
# number of rings (size 3 to 8) (size 9 to 14) (size 15 to 20)
#    0.000    1.750    1.250    3.750    0.000    9.000 
#    0.000    3.750    0.000    0.375    0.000    0.000 
#    0.000    0.000    0.000    0.000    0.000    0.000 
#
# Total GULP energy -178363.581006 kJ/mol
# GULP energy per Si atom -5573.861906 kJ/mol
# Density = 1.963365 g / cm^3
# Si number density = 19.678440 Si / 1000 Ang^3
#
#
#
# Elastic Constant Matrix: (Units=GPa)
#
#
# Indices 1 2 3 4 5 6 
#
# 1 86.0122 15.4968 20.9450 0.0000 -0.6844 0.0000
# 2 15.4968 34.3870 10.7132 0.0000 -8.7533 0.0000
# 3 20.9450 10.7132 115.4989 0.0000 4.0820 0.0000
# 4 0.0000 0.0000 0.0000 -1.0992 0.0000 -0.7473
# 5 -0.6844 -8.7533 4.0820 0.0000 43.4346 0.0000
# 6 0.0000 0.0000 0.0000 -0.7473 0.0000 32.1717
#
#
#
# Elastic Compliance Matrix: (Units=1/GPa)
#
#
# Indices 1 2 3 4 5 6 
#
# 1 0.013057 -0.005500 -0.001832 0.000000 -0.000730 0.000000
# 2 -0.005500 0.034096 -0.002413 0.000000 0.007011 0.000000
# 3 -0.001832 -0.002413 0.009263 0.000000 -0.001386 0.000000
# 4 0.000000 0.000000 0.000000 -0.895570 0.000000 -0.020804
# 5 -0.000730 0.007011 -0.001386 0.000000 0.024555 0.000000
# 6 0.000000 0.000000 0.000000 -0.020804 0.000000 0.030600
#
#
# Mechanical properties :
#
#
# Convention : Reuss Voigt Hill
#
# Bulk Modulus (GPa) = 27.08042 36.68979 31.88511
# Shear Modulus (GPa) = -6.64716 27.48428 10.41856
#
# Velocity S-wave (km/s) = -1.83990 3.74126 2.30345
# Velocity P-wave (km/s) = 3.04593 6.11129 4.82833
#
# Compressibility (1/GPa) = 0.03692704
#
# Stress axis : x y z
#
# Youngs Moduli (GPa) = 76.58483 29.32911 107.95520
#
# Poissons Ratio (x) = 0.16130 0.19777
# Poissons Ratio (y) = 0.42119 0.26050
# Poissons Ratio (z) = 0.14030 0.07077
#
# Static dielectric constant tensor:
#      x y z
#    x 1.673860 0.000000 0.003050 
#    y 0.000000 1.695700 0.000000 
#    z 0.003050 0.000000 1.652340 
# 
# From -- ./inp_files/71587.got.cif
#   From: 2010.05.17/outbox.cif.g08.bks.cpg/sg10_36_cif.got.tgz:71587.got - 2010.06.03 11:33:40.
