data_PCOD9146673
_publ_section_title
;
Structure prediction by ZEFSAII (Michael W. Deem and Ramdas Pophale) SiO2 
 PCOD9146673
Probable space group: P 2/M
;
_chemical_formula_sum "Si O2"
_cell_formula_units_Z 20
_cell_length_a 9.911779
_cell_length_b 7.426866
_cell_length_c 20.764455
_cell_angle_alpha 90.000000
_cell_angle_beta 34.575933
_cell_angle_gamma 90.000000
_cell_volume 867.445149
_symmetry_space_group_name_H-M "P 2/M"
_symmetry_group_IT_number 10
_symmetry_cell_setting 'monoclinic'
loop_
_space_group_symop_operation_xyz
x,y,z
-x,y,-z
-x,-y,-z
x,-y,z
loop_
_atom_site_type_symbol
_atom_site_label
_atom_site_fract_x
_atom_site_fract_y
_atom_site_fract_z
Si Si1 0.381950 0.294881 0.352536
Si Si2 0.774850 0.719805 0.722133
Si Si3 0.901110 0.208817 0.106629
Si Si4 0.698500 0.279895 0.472141
Si Si5 0.386651 0.717772 0.977342
O O1 0.293476 0.500000 0.392573
O O2 0.253044 0.216040 0.340454
O O3 0.660669 0.297380 0.225432
O O4 0.349933 0.216149 0.435930
O O5 0.764904 0.500000 0.724338
O O6 0.555254 0.778730 0.852437
O O7 0.030231 0.769635 0.650452
O O8 0.841309 0.000000 0.119363
O O9 0.000000 0.283759 0.000000
O O10 0.117815 0.222975 0.071116
O O11 0.500000 0.217617 0.500000
O O12 0.687002 0.500000 0.476570
O O13 0.385392 0.500000 0.977700
O O14 0.500000 0.777008 0.000000
#
# Coordination Sequence:
#
# PCOD9146673 Si02
#       5
#     4   4   4   4   4
#     4  10  19  33  57  81 108 144 183 226 272 324
#     4   9  17  31  50  79 112 140 174 220 273 327
#     4  11  23  38  56  80 113 148 187 228 275 330
#     4   9  18  30  50  82 113 139 174 225 280 327
#     4  10  21  35  57  86 114 142 181 230 278 328
#
# _framework density 23.056214000000001
#
# number of rings (size 3 to 8) (size 9 to 14) (size 15 to 20)
#    0.000    2.200    2.000    1.200    2.800    3.600 
#    0.000    0.000    0.000    4.200    0.000    0.000 
#    0.000    0.000    0.000    0.000    0.000    0.000 
#
# Total GULP energy -111811.459449 kJ/mol
# GULP energy per Si atom -5590.572972 kJ/mol
# Density = 2.300374 g / cm^3
# Si number density = 23.056214 Si / 1000 Ang^3
#
#
#
# Elastic Constant Matrix: (Units=GPa)
#
#
# Indices 1 2 3 4 5 6 
#
# 1 151.2293 -1.9114 26.5870 0.0000 -22.6269 0.0000
# 2 -1.9114 77.7414 -0.8547 0.0000 4.2940 0.0000
# 3 26.5870 -0.8547 75.4435 0.0000 -20.5870 0.0000
# 4 0.0000 0.0000 0.0000 35.4714 0.0000 -22.5784
# 5 -22.6269 4.2940 -20.5870 0.0000 45.1396 0.0000
# 6 0.0000 0.0000 0.0000 -22.5784 0.0000 7.4020
#
#
#
# Elastic Compliance Matrix: (Units=1/GPa)
#
#
# Indices 1 2 3 4 5 6 
#
# 1 0.007359 0.000003 -0.001812 0.000000 0.002862 0.000000
# 2 0.000003 0.012934 -0.000217 0.000000 -0.001328 0.000000
# 3 -0.001812 -0.000217 0.015589 0.000000 0.006222 0.000000
# 4 0.000000 0.000000 0.000000 -0.029941 0.000000 -0.091328
# 5 0.002862 -0.001328 0.006222 0.000000 0.026552 0.000000
# 6 0.000000 0.000000 0.000000 -0.091328 0.000000 -0.143479
#
#
# Mechanical properties :
#
#
# Convention : Reuss Voigt Hill
#
# Bulk Modulus (GPa) = 31.41707 39.11736 35.26721
# Shear Modulus (GPa) = -51.90888 36.30882 -7.80003
#
# Velocity S-wave (km/s) = -4.75005 3.97267 -1.84130
# Velocity P-wave (km/s) = 4.05315 6.16813 3.28768
#
# Compressibility (1/GPa) = 0.03182983
#
# Stress axis : x y z
#
# Youngs Moduli (GPa) = 135.88094 77.31451 64.14758
#
# Poissons Ratio (x) = -0.00023 0.11627
# Poissons Ratio (y) = -0.00040 0.01391
# Poissons Ratio (z) = 0.24628 0.01677
#
# Static dielectric constant tensor:
#      x y z
#    x 1.832840 0.000000 0.016680 
#    y 0.000000 1.899190 0.000000 
#    z 0.016680 0.000000 1.814820 
# 
# From -- ./inp_files/22140.got.cif
#   From: 2010.05.17/outbox.cif.g08.bks.cpg/sg10_12_cif.got.tgz:22140.got - 2010.06.03 11:33:40.
