data_PCOD9146137
_publ_section_title
;
Structure prediction by ZEFSAII (Michael W. Deem and Ramdas Pophale) SiO2 
 PCOD9146137
Probable space group: P 2/M
;
_chemical_formula_sum "Si O2"
_cell_formula_units_Z 32
_cell_length_a 15.875256
_cell_length_b 14.437165
_cell_length_c 12.003914
_cell_angle_alpha 90.000000
_cell_angle_beta 26.963262
_cell_angle_gamma 90.000000
_cell_volume 1247.456291
_symmetry_space_group_name_H-M "P 2/M"
_symmetry_group_IT_number 10
_symmetry_cell_setting 'monoclinic'
loop_
_space_group_symop_operation_xyz
x,y,z
-x,y,-z
-x,-y,-z
x,-y,z
loop_
_atom_site_type_symbol
_atom_site_label
_atom_site_fract_x
_atom_site_fract_y
_atom_site_fract_z
Si Si1 0.304582 0.402167 0.169378
Si Si2 0.846062 0.704031 0.080331
Si Si3 0.191054 0.789869 0.241357
Si Si4 0.780215 0.898612 0.218894
Si Si5 0.682441 0.102643 0.708367
Si Si6 0.414752 0.394241 0.453744
Si Si7 0.496781 0.190790 0.725396
Si Si8 0.906004 0.599002 0.355755
O O1 0.274561 0.500000 0.140890
O O2 0.315090 0.303519 0.099117
O O3 0.160894 0.399163 0.440380
O O4 0.500000 0.409846 0.000000
O O5 0.769980 0.807027 0.157185
O O6 0.700307 0.628974 0.297588
O O7 0.000000 0.705832 0.000000
O O8 0.950070 0.676700 0.846440
O O9 0.180729 0.860228 0.359289
O O10 0.000000 0.741871 0.500000
O O11 0.296137 0.838988 0.014153
O O12 0.616024 0.875227 0.501250
O O13 0.747120 0.000000 0.209605
O O14 0.000000 0.899975 0.000000
O O15 0.636549 0.177814 0.668346
O O16 0.727639 0.000000 0.610451
O O17 0.500000 0.095952 0.000000
O O18 0.490721 0.500000 0.367561
O O19 0.512304 0.294672 0.314981
O O20 0.268023 0.395825 0.523247
O O21 0.997092 0.500000 0.224130
#
# Coordination Sequence:
#
# PCOD9146137 Si02
#       8
#     4   4   4   4   4   4   4   4
#     4  10  20  34  53  76 104 141 183 224 265 311
#     4   8  14  23  37  63  99 129 157 198 251 305
#     4  11  23  36  51  75 107 140 178 220 266 320
#     4   9  17  28  45  74 106 132 162 207 267 324
#     4   9  18  34  55  75  95 125 169 219 266 311
#     4   9  15  23  40  68  99 130 164 203 250 302
#     4  10  19  33  52  74 104 139 174 217 265 310
#     4   9  15  24  41  65  95 129 163 203 249 297
#
# _framework density 25.652201000000002
#
# number of rings (size 3 to 8) (size 9 to 14) (size 15 to 20)
#    0.000    2.625    0.000    4.125    0.000    4.000 
#    0.000    0.000    0.000    0.375    0.000    7.875 
#    0.000   15.000    0.000    0.000    0.000    2.625 
#
# Total GULP energy -178261.148290 kJ/mol
# GULP energy per Si atom -5570.660884 kJ/mol
# Density = 2.559382 g / cm^3
# Si number density = 25.652201 Si / 1000 Ang^3
#
#
#
# Elastic Constant Matrix: (Units=GPa)
#
#
# Indices 1 2 3 4 5 6 
#
# 1 46.8690 23.1057 11.8482 0.0000 4.1003 0.0000
# 2 23.1057 168.4154 36.3341 0.0000 8.1339 0.0000
# 3 11.8482 36.3341 119.7420 0.0000 17.0673 0.0000
# 4 0.0000 0.0000 0.0000 11.5671 0.0000 0.4308
# 5 4.1003 8.1339 17.0673 0.0000 30.2640 0.0000
# 6 0.0000 0.0000 0.0000 0.4308 0.0000 38.3515
#
#
#
# Elastic Compliance Matrix: (Units=1/GPa)
#
#
# Indices 1 2 3 4 5 6 
#
# 1 0.023187 -0.002842 -0.001189 0.000000 -0.001707 0.000000
# 2 -0.002842 0.006715 -0.001690 0.000000 -0.000467 0.000000
# 3 -0.001189 -0.001690 0.009671 0.000000 -0.004839 0.000000
# 4 0.000000 0.000000 0.000000 0.086488 0.000000 -0.000971
# 5 -0.001707 -0.000467 -0.004839 0.000000 0.036128 0.000000
# 6 0.000000 0.000000 0.000000 -0.000971 0.000000 0.026086
#
#
# Mechanical properties :
#
#
# Convention : Reuss Voigt Hill
#
# Bulk Modulus (GPa) = 35.54658 53.06692 44.30675
# Shear Modulus (GPa) = 23.91273 33.61908 28.76590
#
# Velocity S-wave (km/s) = 3.05649 3.62411 3.35234
# Velocity P-wave (km/s) = 5.13258 6.18419 5.68276
#
# Compressibility (1/GPa) = 0.02813211
#
# Stress axis : x y z
#
# Youngs Moduli (GPa) = 43.12745 148.92634 103.39840
#
# Poissons Ratio (x) = 0.42329 0.12289
# Poissons Ratio (y) = 0.12258 0.17472
# Poissons Ratio (z) = 0.05126 0.25165
#
# Static dielectric constant tensor:
#      x y z
#    x 1.831270 0.000000 0.233420 
#    y 0.000000 2.024410 0.000000 
#    z 0.233420 0.000000 1.679930 
# 
# From -- ./inp_files/70752.got.cif
#   From: 2010.05.17/outbox.cif.g08.bks.cpg/sg10_36_cif.got.tgz:70752.got - 2010.06.03 11:33:40.
