data_PCOD9146923
_publ_section_title
;
Structure prediction by ZEFSAII (Michael W. Deem and Ramdas Pophale) SiO2 
 PCOD9146923
Probable space group: P 2/M
;
_chemical_formula_sum "Si O2"
_cell_formula_units_Z 28
_cell_length_a 29.668885
_cell_length_b 8.923257
_cell_length_c 10.216872
_cell_angle_alpha 90.000000
_cell_angle_beta 34.666604
_cell_angle_gamma 90.000000
_cell_volume 1538.517135
_symmetry_space_group_name_H-M "P 2/M"
_symmetry_group_IT_number 10
_symmetry_cell_setting 'monoclinic'
loop_
_space_group_symop_operation_xyz
x,y,z
-x,y,-z
-x,-y,-z
x,-y,z
loop_
_atom_site_type_symbol
_atom_site_label
_atom_site_fract_x
_atom_site_fract_y
_atom_site_fract_z
Si Si1 0.180696 0.319464 0.175684
Si Si2 0.992412 0.672248 0.359509
Si Si3 0.415609 0.678359 0.424321
Si Si4 0.344433 0.177958 0.853409
Si Si5 0.702872 0.679907 0.530231
Si Si6 0.596075 0.678890 0.028085
Si Si7 0.846173 0.822336 0.046793
O O1 0.184485 0.500000 0.157916
O O2 0.098327 0.279984 0.445297
O O3 0.257845 0.254043 0.059852
O O4 0.176494 0.254233 0.038274
O O5 0.003195 0.500000 0.290872
O O6 0.000000 0.672819 0.500000
O O7 0.063928 0.772330 0.137229
O O8 0.406050 0.500000 0.472740
O O9 0.386804 0.766715 0.620110
O O10 0.360770 0.715279 0.431806
O O11 0.508498 0.706209 0.179667
O O12 0.337133 0.000000 0.870712
O O13 0.392089 0.234792 0.865395
O O14 0.715371 0.500000 0.498258
O O15 0.662919 0.720382 0.763168
O O16 0.783843 0.762183 0.301199
O O17 0.602037 0.500000 0.038386
O O18 0.841070 0.000000 0.044947
#
# Coordination Sequence:
#
# PCOD9146923 Si02
#       7
#     4   4   4   4   4   4   4
#     4  10  19  34  55  78 106 143 186 229 268 315
#     4   8  16  30  50  76 106 140 179 223 269 315
#     4  10  20  37  61  83 106 140 187 237 275 320
#     4  12  24  36  54  82 115 149 181 223 281 334
#     4  10  20  36  59  82 109 145 187 232 272 320
#     4  10  22  39  58  81 107 145 192 231 273 323
#     4  11  20  30  50  82 116 145 175 217 274 330
#
# _framework density 18.199341
#
# number of rings (size 3 to 8) (size 9 to 14) (size 15 to 20)
#    0.000    1.857    1.429    4.714    0.000    7.714 
#    0.000    0.000    0.000    3.429    0.000    6.000 
#    0.000    0.000    0.000    0.000    0.000    0.000 
#
# Total GULP energy -156344.434492 kJ/mol
# GULP energy per Si atom -5583.729803 kJ/mol
# Density = 1.815792 g / cm^3
# Si number density = 18.199341 Si / 1000 Ang^3
#
#
#
# Elastic Constant Matrix: (Units=GPa)
#
#
# Indices 1 2 3 4 5 6 
#
# 1 6.6542 4.7803 4.9580 0.0000 0.2137 0.0000
# 2 4.7803 49.3713 29.6686 0.0000 -2.5731 0.0000
# 3 4.9580 29.6686 58.2309 0.0000 -15.1612 0.0000
# 4 0.0000 0.0000 0.0000 -22.1179 0.0000 -15.4283
# 5 0.2137 -2.5731 -15.1612 0.0000 29.9149 0.0000
# 6 0.0000 0.0000 0.0000 -15.4283 0.0000 2.0542
#
#
#
# Elastic Compliance Matrix: (Units=1/GPa)
#
#
# Indices 1 2 3 4 5 6 
#
# 1 0.165842 -0.009759 -0.011146 0.000000 -0.007673 0.000000
# 2 -0.009759 0.030665 -0.016229 0.000000 -0.005518 0.000000
# 3 -0.011146 -0.016229 0.030008 0.000000 0.013892 0.000000
# 4 0.000000 0.000000 0.000000 -0.007247 0.000000 -0.054427
# 5 -0.007673 -0.005518 0.013892 0.000000 0.040049 0.000000
# 6 0.000000 0.000000 0.000000 -0.054427 0.000000 0.078027
#
#
# Mechanical properties :
#
#
# Convention : Reuss Voigt Hill
#
# Bulk Modulus (GPa) = 6.56834 21.45223 14.01029
# Shear Modulus (GPa) = 10.81406 6.96020 8.88713
#
# Velocity S-wave (km/s) = 2.44027 1.95774 2.21220
# Velocity P-wave (km/s) = 3.39953 4.11379 3.77360
#
# Compressibility (1/GPa) = 0.15224547
#
# Stress axis : x y z
#
# Youngs Moduli (GPa) = 6.02984 32.61077 33.32470
#
# Poissons Ratio (x) = 0.31826 0.37143
# Poissons Ratio (y) = 0.05885 0.54084
# Poissons Ratio (z) = 0.06721 0.52925
#
# Static dielectric constant tensor:
#      x y z
#    x 1.612860 0.000000 -0.026540 
#    y 0.000000 1.603410 0.000000 
#    z -0.026540 0.000000 1.628560 
# 
# From -- ./inp_files/37069.got.cif
#   From: 2010.05.17/outbox.cif.g08.bks.cpg/sg10_19_cif.got.tgz:37069.got - 2010.06.03 11:33:40.
