data_PCOD9146461
_publ_section_title
;
Structure prediction by ZEFSAII (Michael W. Deem and Ramdas Pophale) SiO2 
 PCOD9146461
Probable space group: P 2/M
;
_chemical_formula_sum "Si O2"
_cell_formula_units_Z 24
_cell_length_a 10.949438
_cell_length_b 9.026538
_cell_length_c 23.642657
_cell_angle_alpha 90.000000
_cell_angle_beta 149.153069
_cell_angle_gamma 90.000000
_cell_volume 1198.151768
_symmetry_space_group_name_H-M "P 2/M"
_symmetry_group_IT_number 10
_symmetry_cell_setting 'monoclinic'
loop_
_space_group_symop_operation_xyz
x,y,z
-x,y,-z
-x,-y,-z
x,-y,z
loop_
_atom_site_type_symbol
_atom_site_label
_atom_site_fract_x
_atom_site_fract_y
_atom_site_fract_z
Si Si1 0.947041 0.319836 0.609821
Si Si2 0.226996 0.327725 0.829547
Si Si3 0.980974 0.174742 0.151648
Si Si4 0.481004 0.320897 0.359963
Si Si5 0.412195 0.680069 0.726602
Si Si6 0.713103 0.327909 0.949589
O O1 0.949130 0.500000 0.609255
O O2 0.689779 0.273136 0.485562
O O3 0.025296 0.279969 0.704169
O O4 0.159628 0.270676 0.652361
O O5 0.190174 0.500000 0.831412
O O6 0.472320 0.322764 0.892015
O O7 0.210661 0.229238 0.878365
O O8 0.227691 0.247842 0.269177
O O9 0.996896 0.000000 0.156597
O O10 0.907265 0.237274 0.061101
O O11 0.459126 0.500000 0.354138
O O12 0.556984 0.280157 0.326137
O O13 0.411960 0.500000 0.729488
O O14 0.625686 0.726748 0.853464
O O15 0.788459 0.500000 0.975510
#
# Coordination Sequence:
#
# PCOD9146461 Si02
#       6
#     4   4   4   4   4   4
#     4   8  15  30  56  86 106 124 161 213 260 302
#     4   9  18  35  58  80 101 128 167 214 260 305
#     4  12  25  36  47  70 107 144 177 212 250 296
#     4  10  19  33  55  80 107 137 167 202 250 308
#     4   8  15  30  56  86 106 124 161 213 260 302
#     4   9  18  35  58  80 101 128 167 214 260 305
#
# _framework density 20.030850999999998
#
# number of rings (size 3 to 8) (size 9 to 14) (size 15 to 20)
#    0.000    2.667    0.000    4.500    0.000    6.000 
#    0.000    8.333    0.000    4.000    0.000    0.000 
#    0.000    0.000    0.000    0.000    0.000    0.000 
#
# Total GULP energy -133960.008787 kJ/mol
# GULP energy per Si atom -5581.667033 kJ/mol
# Density = 1.998526 g / cm^3
# Si number density = 20.030851 Si / 1000 Ang^3
#
#
#
# Elastic Constant Matrix: (Units=GPa)
#
#
# Indices 1 2 3 4 5 6 
#
# 1 -106.8767 9.2917 197.1711 0.0000 61.6960 0.0000
# 2 9.2917 37.7804 33.1226 0.0000 -0.1379 0.0000
# 3 197.1711 33.1226 -118.7089 0.0000 -90.1540 0.0000
# 4 0.0000 0.0000 0.0000 -14.2299 0.0000 -5.3380
# 5 61.6960 -0.1379 -90.1540 0.0000 -8.1933 0.0000
# 6 0.0000 0.0000 0.0000 -5.3380 0.0000 -14.3849
#
#
#
# Elastic Compliance Matrix: (Units=1/GPa)
#
#
# Indices 1 2 3 4 5 6 
#
# 1 0.013997 -0.010519 0.008138 0.000000 0.016033 0.000000
# 2 -0.010519 0.035370 -0.007205 0.000000 -0.000523 0.000000
# 3 0.008138 -0.007205 0.005920 0.000000 -0.003736 0.000000
# 4 0.000000 0.000000 0.000000 -0.081639 0.000000 0.030295
# 5 0.016033 -0.000523 -0.003736 0.000000 0.039791 0.000000
# 6 0.000000 0.000000 0.000000 0.030295 0.000000 -0.080759
#
#
# Mechanical properties :
#
#
# Convention : Reuss Voigt Hill
#
# Bulk Modulus (GPa) = 27.68838 32.37395 30.03117
# Shear Modulus (GPa) = -138.46739 -35.85431 -87.16085
#
# Velocity S-wave (km/s) = -8.32329 -4.23538 -6.60362
# Velocity P-wave (km/s) = 8.86096 2.77862 6.56648
#
# Compressibility (1/GPa) = 0.03611623
#
# Stress axis : x y z
#
# Youngs Moduli (GPa) = 71.44243 28.27217 168.92878
#
# Poissons Ratio (x) = 0.29738 -1.37473
# Poissons Ratio (y) = 0.75147 1.21712
# Poissons Ratio (z) = -0.58139 0.20370
#
# Static dielectric constant tensor:
#      x y z
#    x 1.724490 0.000000 0.007660 
#    y 0.000000 1.660820 0.000000 
#    z 0.007660 0.000000 1.735850 
# 
# From -- ./inp_files/56678.got.cif
#   From: 2010.05.17/outbox.cif.g08.bks.cpg/sg10_29_cif.got.tgz:56678.got - 2010.06.03 11:33:40.
