data_PCOD9146313
_publ_section_title
;
Structure prediction by ZEFSAII (Michael W. Deem and Ramdas Pophale) SiO2 
 PCOD9146313
Probable space group: P 2/M
;
_chemical_formula_sum "Si O2"
_cell_formula_units_Z 28
_cell_length_a 19.915349
_cell_length_b 9.058764
_cell_length_c 15.627016
_cell_angle_alpha 90.000000
_cell_angle_beta 143.679302
_cell_angle_gamma 90.000000
_cell_volume 1669.851284
_symmetry_space_group_name_H-M "P 2/M"
_symmetry_group_IT_number 10
_symmetry_cell_setting 'monoclinic'
loop_
_space_group_symop_operation_xyz
x,y,z
-x,y,-z
-x,-y,-z
x,-y,z
loop_
_atom_site_type_symbol
_atom_site_label
_atom_site_fract_x
_atom_site_fract_y
_atom_site_fract_z
Si Si1 0.843880 0.676580 0.507516
Si Si2 0.137098 0.830491 0.649270
Si Si3 0.738073 0.677382 0.884956
Si Si4 0.494318 0.822439 0.394246
Si Si5 0.110165 0.677331 0.796967
Si Si6 0.265486 0.823362 0.443742
Si Si7 0.131070 0.323877 0.155005
O O1 0.833468 0.500000 0.496910
O O2 0.819987 0.741161 0.388869
O O3 0.764741 0.748793 0.497549
O O4 0.976005 0.713161 0.665401
O O5 0.159710 0.753825 0.763193
O O6 0.000000 0.830168 0.500000
O O7 0.175530 0.000000 0.687109
O O8 0.726641 0.500000 0.876074
O O9 0.615557 0.751314 0.761481
O O10 0.796104 0.715132 0.853999
O O11 0.820520 0.720836 0.047473
O O12 0.500000 0.775701 0.500000
O O13 0.610361 0.783036 0.465112
O O14 0.483527 0.000000 0.382202
O O15 0.117179 0.500000 0.794438
O O16 0.176152 0.764675 0.282215
O O17 0.259117 0.000000 0.444306
O O18 0.143075 0.500000 0.183733
O O19 0.000000 0.295443 0.000000
#
# Coordination Sequence:
#
# PCOD9146313 Si02
#       7
#     4   4   4   4   4   4   4
#     4  10  19  33  54  78 108 141 171 209 259 311
#     4   9  17  30  50  78 109 139 173 209 248 305
#     4  10  20  33  53  77 101 133 176 218 252 302
#     4  10  21  38  54  70  99 137 177 219 264 308
#     4   9  18  33  52  78 109 139 170 208 259 311
#     4  11  22  35  52  74 102 136 175 218 259 306
#     4  10  20  34  51  74 105 137 168 207 257 309
#
# _framework density 16.767959999999999
#
# number of rings (size 3 to 8) (size 9 to 14) (size 15 to 20)
#    0.000    2.143    1.429    2.143    0.000    6.857 
#    0.000    1.429    0.000    0.857    0.000    6.000 
#    0.000    0.000    0.000    0.000    0.000    0.000 
#
# Total GULP energy -156255.485149 kJ/mol
# GULP energy per Si atom -5580.553041 kJ/mol
# Density = 1.672980 g / cm^3
# Si number density = 16.767960 Si / 1000 Ang^3
#
#
#
# Elastic Constant Matrix: (Units=GPa)
#
#
# Indices 1 2 3 4 5 6 
#
# 1 133.0728 47.6151 23.3504 0.0000 -5.1096 0.0000
# 2 47.6151 35.7288 10.9186 0.0000 1.3511 0.0000
# 3 23.3504 10.9186 18.4227 0.0000 3.5623 0.0000
# 4 0.0000 0.0000 0.0000 4.6238 0.0000 -7.3831
# 5 -5.1096 1.3511 3.5623 0.0000 25.7389 0.0000
# 6 0.0000 0.0000 0.0000 -7.3831 0.0000 30.1012
#
#
#
# Elastic Compliance Matrix: (Units=1/GPa)
#
#
# Indices 1 2 3 4 5 6 
#
# 1 0.016279 -0.018646 -0.010683 0.000000 0.005689 0.000000
# 2 -0.018646 0.055562 -0.008238 0.000000 -0.005478 0.000000
# 3 -0.010683 -0.008238 0.075038 0.000000 -0.012074 0.000000
# 4 0.000000 0.000000 0.000000 0.355503 0.000000 0.087197
# 5 0.005689 -0.005478 -0.012074 0.000000 0.041940 0.000000
# 6 0.000000 0.000000 0.000000 0.087197 0.000000 0.054609
#
#
# Mechanical properties :
#
#
# Convention : Reuss Voigt Hill
#
# Bulk Modulus (GPa) = 13.93793 38.99916 26.46854
# Shear Modulus (GPa) = 7.16354 19.11546 13.13950
#
# Velocity S-wave (km/s) = 2.06916 3.38005 2.80234
# Velocity P-wave (km/s) = 3.74685 6.20819 5.12740
#
# Compressibility (1/GPa) = 0.07174669
#
# Stress axis : x y z
#
# Youngs Moduli (GPa) = 61.42772 17.99799 13.32652
#
# Poissons Ratio (x) = 0.33558 0.14237
# Poissons Ratio (y) = 1.14535 0.10978
# Poissons Ratio (z) = 0.65624 0.14826
#
# Static dielectric constant tensor:
#      x y z
#    x 1.555860 0.000000 -0.000860 
#    y 0.000000 1.562060 0.000000 
#    z -0.000860 0.000000 1.538980 
# 
# From -- ./inp_files/54696.got.cif
#   From: 2010.05.17/outbox.cif.g08.bks.cpg/sg10_28_cif.got.tgz:54696.got - 2010.06.03 11:33:40.
