data_PCOD9146801
_publ_section_title
;
Structure prediction by ZEFSAII (Michael W. Deem and Ramdas Pophale) SiO2 
 PCOD9146801
Probable space group: P 2/M
;
_chemical_formula_sum "Si O2"
_cell_formula_units_Z 32
_cell_length_a 20.105398
_cell_length_b 18.069876
_cell_length_c 14.787460
_cell_angle_alpha 90.000000
_cell_angle_beta 19.353649
_cell_angle_gamma 90.000000
_cell_volume 1780.374164
_symmetry_space_group_name_H-M "P 2/M"
_symmetry_group_IT_number 10
_symmetry_cell_setting 'monoclinic'
loop_
_space_group_symop_operation_xyz
x,y,z
-x,y,-z
-x,-y,-z
x,-y,z
loop_
_atom_site_type_symbol
_atom_site_label
_atom_site_fract_x
_atom_site_fract_y
_atom_site_fract_z
Si Si1 0.709606 0.086550 0.866987
Si Si2 0.536080 0.315675 0.101462
Si Si3 0.603989 0.832332 0.637944
Si Si4 0.599096 0.085471 0.463211
Si Si5 0.162893 0.300002 0.450124
Si Si6 0.009326 0.917182 0.836701
Si Si7 0.000588 0.136058 0.652259
Si Si8 0.141613 0.416568 0.229311
O O1 0.807795 0.100022 0.643980
O O2 0.836160 0.128646 0.783288
O O3 0.716075 0.000000 0.879306
O O4 0.490630 0.120252 0.158712
O O5 0.474795 0.249757 0.246985
O O6 0.332420 0.326246 0.304259
O O7 0.709970 0.291860 0.806714
O O8 0.643915 0.382711 0.015626
O O9 0.543429 0.867331 0.620612
O O10 0.838278 0.850513 0.341643
O O11 0.500000 0.115584 0.500000
O O12 0.536264 0.000000 0.557251
O O13 0.832427 0.085036 0.136483
O O14 0.062380 0.220261 0.595269
O O15 0.985114 0.359679 0.669216
O O16 0.939842 0.905878 0.821854
O O17 0.103198 0.000000 0.723787
O O18 0.160835 0.500000 0.168694
O O19 0.000000 0.420784 0.500000
#
# Coordination Sequence:
#
# PCOD9146801 Si02
#       8
#     4   4   4   4   4   4   4   4
#     4  11  22  32  48  72 101 143 189 234 277 321
#     4  10  20  34  53  80 112 145 180 223 275 323
#     4  12  21  35  52  74 104 139 182 230 283 334
#     4  10  22  39  55  71  96 138 189 239 289 329
#     4  10  19  34  52  78 112 148 181 220 274 327
#     4  11  22  35  52  73 103 141 184 237 280 320
#     4  11  20  34  49  72 106 141 187 226 273 325
#     4   9  19  34  55  81 111 150 188 218 259 327
#
# _framework density 17.973751
#
# number of rings (size 3 to 8) (size 9 to 14) (size 15 to 20)
#    0.000    1.500    2.500    4.500    3.500    3.000 
#    0.000    3.750    0.000    0.000    0.000    0.000 
#    0.000    6.500    0.000    0.000    0.000    0.000 
#
# Total GULP energy -178522.464828 kJ/mol
# GULP energy per Si atom -5578.827026 kJ/mol
# Density = 1.793284 g / cm^3
# Si number density = 17.973751 Si / 1000 Ang^3
#
#
#
# Elastic Constant Matrix: (Units=GPa)
#
#
# Indices 1 2 3 4 5 6 
#
# 1 48.7941 15.2443 -4.0014 0.0000 3.4205 0.0000
# 2 15.2443 101.2770 20.2709 0.0000 -9.5302 0.0000
# 3 -4.0014 20.2709 42.9215 0.0000 4.4570 0.0000
# 4 0.0000 0.0000 0.0000 26.1883 0.0000 0.4188
# 5 3.4205 -9.5302 4.4570 0.0000 28.8448 0.0000
# 6 0.0000 0.0000 0.0000 0.4188 0.0000 19.0286
#
#
#
# Elastic Compliance Matrix: (Units=1/GPa)
#
#
# Indices 1 2 3 4 5 6 
#
# 1 0.022791 -0.004904 0.004969 0.000000 -0.005091 0.000000
# 2 -0.004904 0.012558 -0.006992 0.000000 0.005811 0.000000
# 3 0.004969 -0.006992 0.027811 0.000000 -0.007197 0.000000
# 4 0.000000 0.000000 0.000000 0.038198 0.000000 -0.000841
# 5 -0.005091 0.005811 -0.007197 0.000000 0.038304 0.000000
# 6 0.000000 0.000000 0.000000 -0.000841 0.000000 0.052571
#
#
# Mechanical properties :
#
#
# Convention : Reuss Voigt Hill
#
# Bulk Modulus (GPa) = 20.28097 28.44669 24.36383
# Shear Modulus (GPa) = 22.46971 25.57761 24.02366
#
# Velocity S-wave (km/s) = 3.53957 3.77643 3.65992
# Velocity P-wave (km/s) = 5.29272 5.90562 5.60755
#
# Compressibility (1/GPa) = 0.04930730
#
# Stress axis : x y z
#
# Youngs Moduli (GPa) = 43.87732 79.62858 35.95713
#
# Poissons Ratio (x) = 0.39051 -0.17869
# Poissons Ratio (y) = 0.21518 0.25140
# Poissons Ratio (z) = -0.21805 0.55673
#
# Static dielectric constant tensor:
#      x y z
#    x 1.683060 0.000000 -0.071210 
#    y 0.000000 1.593650 0.000000 
#    z -0.071210 0.000000 1.666650 
# 
# From -- ./inp_files/70832.got.cif
#   From: 2010.05.17/outbox.cif.g08.bks.cpg/sg10_36_cif.got.tgz:70832.got - 2010.06.03 11:33:40.
