data_PCOD9146997
_publ_section_title
;
Structure prediction by ZEFSAII (Michael W. Deem and Ramdas Pophale) SiO2 
 PCOD9146997
Probable space group: P 2/M
;
_chemical_formula_sum "Si O2"
_cell_formula_units_Z 28
_cell_length_a 29.332804
_cell_length_b 7.586506
_cell_length_c 9.230266
_cell_angle_alpha 90.000000
_cell_angle_beta 140.946690
_cell_angle_gamma 90.000000
_cell_volume 1294.136043
_symmetry_space_group_name_H-M "P 2/M"
_symmetry_group_IT_number 10
_symmetry_cell_setting 'monoclinic'
loop_
_space_group_symop_operation_xyz
x,y,z
-x,y,-z
-x,-y,-z
x,-y,z
loop_
_atom_site_type_symbol
_atom_site_label
_atom_site_fract_x
_atom_site_fract_y
_atom_site_fract_z
Si Si1 0.141155 0.784255 0.180528
Si Si2 0.575096 0.784370 0.110342
Si Si3 0.296525 0.297552 0.057681
Si Si4 0.004093 0.784417 0.343133
Si Si5 0.562340 0.201224 0.753356
Si Si6 0.715397 0.212754 0.633615
Si Si7 0.852557 0.787273 0.471009
O O1 0.211021 0.726206 0.262019
O O2 0.145608 0.726316 0.358171
O O3 0.141358 0.000000 0.181476
O O4 0.066870 0.729298 0.920519
O O5 0.644803 0.724044 0.372602
O O6 0.578512 0.000000 0.119693
O O7 0.500000 0.733532 0.000000
O O8 0.575294 0.722283 0.944648
O O9 0.315668 0.500000 0.084893
O O10 0.363054 0.196033 0.150070
O O11 0.287983 0.260534 0.206469
O O12 0.221479 0.260603 0.791345
O O13 0.077465 0.725596 0.445671
O O14 0.000000 0.728260 0.500000
O O15 0.004715 0.000000 0.344766
O O16 0.500000 0.284560 0.500000
O O17 0.537336 0.000000 0.720459
O O18 0.715824 0.000000 0.627533
O O19 0.856006 0.000000 0.483023
#
# Coordination Sequence:
#
# PCOD9146997 Si02
#       7
#     4   4   4   4   4   4   4
#     4   9  17  30  53  85 111 135 177 232 281 323
#     4   9  17  31  55  87 114 136 171 219 265 313
#     4  12  25  38  53  77 112 148 184 224 267 318
#     4   9  16  27  49  83 115 139 170 221 279 327
#     4  10  20  37  63  89 111 139 177 220 268 322
#     4  10  19  34  56  78 105 142 184 227 270 319
#     4  10  19  34  57  81 108 142 181 224 272 327
#
# _framework density 21.636056
#
# number of rings (size 3 to 8) (size 9 to 14) (size 15 to 20)
#    0.000    2.143    0.000    4.286    0.000    8.857 
#    0.000    2.857    0.000    7.286    0.000    0.000 
#    0.000    0.000    0.000    0.000    0.000    0.000 
#
# Total GULP energy -156519.944219 kJ/mol
# GULP energy per Si atom -5589.998008 kJ/mol
# Density = 2.158681 g / cm^3
# Si number density = 21.636056 Si / 1000 Ang^3
#
#
#
# Elastic Constant Matrix: (Units=GPa)
#
#
# Indices 1 2 3 4 5 6 
#
# 1 182.3419 -3.5846 114.1484 0.0000 -14.4281 0.0000
# 2 -3.5846 51.1837 -0.7566 0.0000 -1.3833 0.0000
# 3 114.1484 -0.7566 236.1568 0.0000 -11.5268 0.0000
# 4 0.0000 0.0000 0.0000 -144.6731 0.0000 -24.1888
# 5 -14.4281 -1.3833 -11.5268 0.0000 48.1938 0.0000
# 6 0.0000 0.0000 0.0000 -24.1888 0.0000 -42.9679
#
#
#
# Elastic Compliance Matrix: (Units=1/GPa)
#
#
# Indices 1 2 3 4 5 6 
#
# 1 0.007982 0.000544 -0.003783 0.000000 0.001500 0.000000
# 2 0.000544 0.019592 -0.000167 0.000000 0.000685 0.000000
# 3 -0.003783 -0.000167 0.006078 0.000000 0.000316 0.000000
# 4 0.000000 0.000000 0.000000 -0.007630 0.000000 0.004295
# 5 0.001500 0.000685 0.000316 0.000000 0.021294 0.000000
# 6 0.000000 0.000000 0.000000 0.004295 0.000000 -0.025691
#
#
# Mechanical properties :
#
#
# Convention : Reuss Voigt Hill
#
# Bulk Modulus (GPa) = 37.25872 76.58854 56.92363
# Shear Modulus (GPa) = 133.75237 -3.89776 64.92730
#
# Velocity S-wave (km/s) = 7.87105 -1.34366 5.48398
# Velocity P-wave (km/s) = 9.99313 5.75049 8.15263
#
# Compressibility (1/GPa) = 0.02683935
#
# Stress axis : x y z
#
# Youngs Moduli (GPa) = 125.28333 51.04232 164.52777
#
# Poissons Ratio (x) = -0.02775 0.62243
# Poissons Ratio (y) = -0.06811 0.02740
# Poissons Ratio (z) = 0.47397 0.00850
#
# Static dielectric constant tensor:
#      x y z
#    x 1.736070 0.000000 -0.005490 
#    y 0.000000 1.813800 0.000000 
#    z -0.005490 0.000000 1.743730 
# 
# From -- ./inp_files/37112.got.cif
#   From: 2010.05.17/outbox.cif.g08.bks.cpg/sg10_19_cif.got.tgz:37112.got - 2010.06.03 11:33:40.
