data_PCOD9146120
_publ_section_title
;
Structure prediction by ZEFSAII (Michael W. Deem and Ramdas Pophale) SiO2 
 PCOD9146120
Probable space group: P 2/M
;
_chemical_formula_sum "Si O2"
_cell_formula_units_Z 28
_cell_length_a 19.861717
_cell_length_b 9.079913
_cell_length_c 18.359800
_cell_angle_alpha 90.000000
_cell_angle_beta 22.364424
_cell_angle_gamma 90.000000
_cell_volume 1259.844044
_symmetry_space_group_name_H-M "P 2/M"
_symmetry_group_IT_number 10
_symmetry_cell_setting 'monoclinic'
loop_
_space_group_symop_operation_xyz
x,y,z
-x,y,-z
-x,-y,-z
x,-y,z
loop_
_atom_site_type_symbol
_atom_site_label
_atom_site_fract_x
_atom_site_fract_y
_atom_site_fract_z
Si Si1 0.469393 0.819512 0.786227
Si Si2 0.340239 0.827290 0.063151
Si Si3 0.799302 0.333324 0.233807
Si Si4 0.671357 0.834630 0.228140
Si Si5 0.936859 0.164601 0.228576
Si Si6 0.159407 0.324784 0.539225
Si Si7 0.760857 0.173379 0.683134
O O1 0.420310 0.778445 0.753415
O O2 0.652562 0.742790 0.623075
O O3 0.479890 0.000000 0.779190
O O4 0.333650 0.772958 0.986720
O O5 0.234540 0.766753 0.238636
O O6 0.293939 0.000000 0.108029
O O7 0.550794 0.818744 0.872235
O O8 0.750171 0.500000 0.300914
O O9 0.678434 0.265723 0.291780
O O10 0.807520 0.235862 0.298273
O O11 0.000000 0.335701 0.000000
O O12 0.606649 0.000000 0.309526
O O13 0.875754 0.847086 0.998716
O O14 0.961699 0.262777 0.275155
O O15 0.877860 0.000000 0.308366
O O16 0.161210 0.500000 0.535218
O O17 0.132785 0.258307 0.485433
O O18 0.808165 0.000000 0.634101
#
# Coordination Sequence:
#
# PCOD9146120 Si02
#       7
#     4   4   4   4   4   4   4
#     4   9  17  32  51  72  98 125 154 193 239 282
#     4   7  11  22  44  68  89 117 154 193 231 272
#     4   9  17  30  49  72  97 124 154 190 232 278
#     4   9  18  32  53  76  95 120 157 196 234 279
#     4  10  19  33  52  72  94 123 160 198 233 274
#     4  11  21  31  45  70 100 128 158 193 236 282
#     4   8  13  25  44  65  89 121 158 194 232 272
#
# _framework density 22.224974
#
# number of rings (size 3 to 8) (size 9 to 14) (size 15 to 20)
#    0.000    3.000    0.000    3.857    0.000    2.857 
#    0.000    6.429    0.000    5.143    0.000    6.000 
#    0.000    0.000    0.000    0.000    0.000    0.000 
#
# Total GULP energy -156226.916802 kJ/mol
# GULP energy per Si atom -5579.532743 kJ/mol
# Density = 2.217439 g / cm^3
# Si number density = 22.224974 Si / 1000 Ang^3
#
#
#
# Elastic Constant Matrix: (Units=GPa)
#
#
# Indices 1 2 3 4 5 6 
#
# 1 100.9319 21.6891 40.6442 0.0000 -14.1326 0.0000
# 2 21.6891 69.7817 26.5377 0.0000 -5.3604 0.0000
# 3 40.6442 26.5377 63.0794 0.0000 30.8003 0.0000
# 4 0.0000 0.0000 0.0000 15.9215 0.0000 3.9370
# 5 -14.1326 -5.3604 30.8003 0.0000 -5.6983 0.0000
# 6 0.0000 0.0000 0.0000 3.9370 0.0000 -7.9609
#
#
#
# Elastic Compliance Matrix: (Units=1/GPa)
#
#
# Indices 1 2 3 4 5 6 
#
# 1 0.008741 -0.004044 0.001318 0.000000 -0.010750 0.000000
# 2 -0.004044 0.015240 -0.000468 0.000000 -0.006836 0.000000
# 3 0.001318 -0.000468 0.004556 0.000000 0.021799 0.000000
# 4 0.000000 0.000000 0.000000 0.055964 0.000000 0.027677
# 5 -0.010750 -0.006836 0.021799 0.000000 -0.024570 0.000000
# 6 0.000000 0.000000 0.000000 0.027677 0.000000 -0.111926
#
#
# Mechanical properties :
#
#
# Convention : Reuss Voigt Hill
#
# Bulk Modulus (GPa) = 45.14666 45.72612 45.43639
# Shear Modulus (GPa) = -130.80739 10.11391 -60.34674
#
# Velocity S-wave (km/s) = -7.68009 2.13555 -5.21648
# Velocity P-wave (km/s) = 7.63462 5.16717 3.97416
#
# Compressibility (1/GPa) = 0.02215003
#
# Stress axis : x y z
#
# Youngs Moduli (GPa) = 114.40781 65.61657 219.46961
#
# Poissons Ratio (x) = 0.26534 -0.28928
# Poissons Ratio (y) = 0.46264 0.10270
# Poissons Ratio (z) = -0.15080 0.03070
#
# Static dielectric constant tensor:
#      x y z
#    x 1.849770 0.000000 -0.007770 
#    y 0.000000 1.762360 0.000000 
#    z -0.007770 0.000000 1.923320 
# 
# From -- ./inp_files/37913.got.cif
#   From: 2010.05.17/outbox.cif.g08.bks.cpg/sg10_19_cif.got.tgz:37913.got - 2010.06.03 11:33:40.
