data_PCOD9146640
_publ_section_title
;
Structure prediction by ZEFSAII (Michael W. Deem and Ramdas Pophale) SiO2 
 PCOD9146640
Probable space group: P 2/M
;
_chemical_formula_sum "Si O2"
_cell_formula_units_Z 28
_cell_length_a 11.992360
_cell_length_b 8.672341
_cell_length_c 15.564029
_cell_angle_alpha 90.000000
_cell_angle_beta 64.050365
_cell_angle_gamma 90.000000
_cell_volume 1455.489949
_symmetry_space_group_name_H-M "P 2/M"
_symmetry_group_IT_number 10
_symmetry_cell_setting 'monoclinic'
loop_
_space_group_symop_operation_xyz
x,y,z
-x,y,-z
-x,-y,-z
x,-y,z
loop_
_atom_site_type_symbol
_atom_site_label
_atom_site_fract_x
_atom_site_fract_y
_atom_site_fract_z
Si Si1 0.943364 0.181897 0.702299
Si Si2 0.998286 0.317931 0.868653
Si Si3 0.172686 0.317273 0.539030
Si Si4 0.557354 0.185725 0.233048
Si Si5 0.810521 0.183732 0.063765
Si Si6 0.626561 0.816935 0.403659
Si Si7 0.714130 0.684051 0.684177
O O1 0.982738 0.266389 0.776420
O O2 0.808522 0.236022 0.717528
O O3 0.043669 0.230895 0.596966
O O4 0.946614 0.000000 0.714770
O O5 0.019843 0.500000 0.867919
O O6 0.109277 0.228688 0.879242
O O7 0.875422 0.271611 0.963616
O O8 0.149496 0.500000 0.545864
O O9 0.264060 0.273059 0.586117
O O10 0.240638 0.273888 0.427507
O O11 0.668245 0.223761 0.130472
O O12 0.601292 0.230609 0.314303
O O13 0.426673 0.262536 0.257013
O O14 0.541887 0.000000 0.239104
O O15 0.820749 0.000000 0.046644
O O16 0.500000 0.794950 0.500000
O O17 0.656504 0.000000 0.394627
O O18 0.723622 0.500000 0.689633
#
# Coordination Sequence:
#
# PCOD9146640 Si02
#       7
#     4   4   4   4   4   4   4
#     4  12  25  41  62  84 112 153 200 246 293 349
#     4  11  22  39  63  91 121 151 191 244 298 349
#     4  11  23  38  58  86 119 155 196 243 296 348
#     4  10  21  37  58  86 119 158 198 238 285 340
#     4  10  20  37  63  93 124 156 193 237 289 349
#     4  10  19  33  56  84 118 156 196 236 279 338
#     4  11  24  40  58  83 119 157 195 242 291 346
#
# _framework density 19.237508999999999
#
# number of rings (size 3 to 8) (size 9 to 14) (size 15 to 20)
#    0.000    1.286    1.429    6.000    0.000    6.571 
#    0.000    0.714    0.000    4.286    0.000    0.000 
#    0.000    0.000    0.000    0.000    0.000    0.000 
#
# Total GULP energy -156617.528724 kJ/mol
# GULP energy per Si atom -5593.483169 kJ/mol
# Density = 1.919372 g / cm^3
# Si number density = 19.237509 Si / 1000 Ang^3
#
#
#
# Elastic Constant Matrix: (Units=GPa)
#
#
# Indices 1 2 3 4 5 6 
#
# 1 51.8058 7.9126 23.1507 0.0000 -12.9475 0.0000
# 2 7.9126 31.0297 8.0304 0.0000 -5.5634 0.0000
# 3 23.1507 8.0304 51.8740 0.0000 -17.9919 0.0000
# 4 0.0000 0.0000 0.0000 29.3958 0.0000 3.7267
# 5 -12.9475 -5.5634 -17.9919 0.0000 24.5992 0.0000
# 6 0.0000 0.0000 0.0000 3.7267 0.0000 44.3424
#
#
#
# Elastic Compliance Matrix: (Units=1/GPa)
#
#
# Indices 1 2 3 4 5 6 
#
# 1 0.025177 -0.003073 -0.008582 0.000000 0.006279 0.000000
# 2 -0.003073 0.034428 -0.002437 0.000000 0.004387 0.000000
# 3 -0.008582 -0.002437 0.029112 0.000000 0.016224 0.000000
# 4 0.000000 0.000000 0.000000 0.034385 0.000000 -0.002890
# 5 0.006279 0.004387 0.016224 0.000000 0.056815 0.000000
# 6 0.000000 0.000000 0.000000 -0.002890 0.000000 0.022795
#
#
# Mechanical properties :
#
#
# Convention : Reuss Voigt Hill
#
# Bulk Modulus (GPa) = 16.52011 23.65523 20.08767
# Shear Modulus (GPa) = 19.91446 26.04187 22.97816
#
# Velocity S-wave (km/s) = 3.22093 3.68326 3.45982
# Velocity P-wave (km/s) = 4.73694 5.51468 5.14054
#
# Compressibility (1/GPa) = 0.06053228
#
# Stress axis : x y z
#
# Youngs Moduli (GPa) = 39.71901 29.04619 34.34990
#
# Poissons Ratio (x) = 0.08926 0.29481
# Poissons Ratio (y) = 0.12206 0.08370
# Poissons Ratio (z) = 0.34089 0.07078
#
# Static dielectric constant tensor:
#      x y z
#    x 1.642860 0.000000 -0.007850 
#    y 0.000000 1.644780 0.000000 
#    z -0.007850 0.000000 1.672550 
# 
# From -- ./inp_files/63674.got.cif
#   From: 2010.05.17/outbox.cif.g08.bks.cpg/sg10_32_cif.got.tgz:63674.got - 2010.06.03 11:33:40.
