data_PCOD9146413
_publ_section_title
;
Structure prediction by ZEFSAII (Michael W. Deem and Ramdas Pophale) SiO2 
 PCOD9146413
Probable space group: P 2/M
;
_chemical_formula_sum "Si O2"
_cell_formula_units_Z 28
_cell_length_a 28.403207
_cell_length_b 7.687360
_cell_length_c 9.792572
_cell_angle_alpha 90.000000
_cell_angle_beta 139.727579
_cell_angle_gamma 90.000000
_cell_volume 1382.158671
_symmetry_space_group_name_H-M "P 2/M"
_symmetry_group_IT_number 10
_symmetry_cell_setting 'monoclinic'
loop_
_space_group_symop_operation_xyz
x,y,z
-x,y,-z
-x,-y,-z
x,-y,z
loop_
_atom_site_type_symbol
_atom_site_label
_atom_site_fract_x
_atom_site_fract_y
_atom_site_fract_z
Si Si1 0.064272 0.210056 0.241128
Si Si2 0.929482 0.211726 0.430360
Si Si3 0.291264 0.705025 0.365885
Si Si4 0.332527 0.195087 0.921121
Si Si5 0.580375 0.210644 0.137081
Si Si6 0.216345 0.300265 0.458699
Si Si7 0.238169 0.201504 0.958674
O O1 0.055534 0.257673 0.379194
O O2 0.136981 0.287911 0.341138
O O3 0.070164 0.000000 0.249298
O O4 0.000000 0.264526 0.000000
O O5 0.845392 0.270973 0.214195
O O6 0.000000 0.272681 0.500000
O O7 0.928388 0.000000 0.413658
O O8 0.289120 0.500000 0.333687
O O9 0.362248 0.742883 0.616019
O O10 0.225335 0.754517 0.322127
O O11 0.278777 0.792600 0.193296
O O12 0.394406 0.274510 0.958222
O O13 0.267303 0.187200 0.667305
O O14 0.292758 0.279542 0.964364
O O15 0.357098 0.000000 0.015504
O O16 0.580294 0.000000 0.128340
O O17 0.500000 0.270042 0.000000
O O18 0.242836 0.500000 0.525380
O O19 0.228706 0.000000 0.894118
#
# Coordination Sequence:
#
# PCOD9146413 Si02
#       7
#     4   4   4   4   4   4   4
#     4  10  20  33  52  75  99 131 176 224 269 314
#     4   9  18  32  49  75 105 133 172 221 270 313
#     4  10  22  36  52  78 110 143 179 214 256 315
#     4   9  17  33  56  80 104 132 173 216 258 312
#     4   9  18  35  60  86 109 135 171 216 264 313
#     4  10  20  34  51  72 102 138 175 217 262 309
#     4  10  19  33  55  78 105 140 177 222 266 308
#
# _framework density 20.258167
#
# number of rings (size 3 to 8) (size 9 to 14) (size 15 to 20)
#    0.000    2.429    1.429    0.857    2.000    2.857 
#    0.000    0.714    0.000    5.143    0.000    0.000 
#    0.000    0.000    0.000    0.000    0.000    0.000 
#
# Total GULP energy -155961.322019 kJ/mol
# GULP energy per Si atom -5570.047215 kJ/mol
# Density = 2.021206 g / cm^3
# Si number density = 20.258167 Si / 1000 Ang^3
#
#
#
# Elastic Constant Matrix: (Units=GPa)
#
#
# Indices 1 2 3 4 5 6 
#
# 1 211.3995 12.5110 70.5873 0.0000 1.6811 0.0000
# 2 12.5110 30.8828 1.2774 0.0000 -1.0668 0.0000
# 3 70.5873 1.2774 68.3361 0.0000 -6.5908 0.0000
# 4 0.0000 0.0000 0.0000 -16.3793 0.0000 8.6857
# 5 1.6811 -1.0668 -6.5908 0.0000 35.5916 0.0000
# 6 0.0000 0.0000 0.0000 8.6857 0.0000 4.8215
#
#
#
# Elastic Compliance Matrix: (Units=1/GPa)
#
#
# Indices 1 2 3 4 5 6 
#
# 1 0.007565 -0.002802 -0.007946 0.000000 -0.001913 0.000000
# 2 -0.002802 0.033470 0.002421 0.000000 0.001584 0.000000
# 3 -0.007946 0.002421 0.023254 0.000000 0.004754 0.000000
# 4 0.000000 0.000000 0.000000 -0.031225 0.000000 0.056249
# 5 -0.001913 0.001584 0.004754 0.000000 0.029115 0.000000
# 6 0.000000 0.000000 0.000000 0.056249 0.000000 0.106073
#
#
# Mechanical properties :
#
#
# Convention : Reuss Voigt Hill
#
# Bulk Modulus (GPa) = 20.99241 53.26330 37.12786
# Shear Modulus (GPa) = 24.90235 19.88962 22.39598
#
# Velocity S-wave (km/s) = 3.50987 3.13678 3.32856
# Velocity P-wave (km/s) = 5.17789 6.28240 5.75669
#
# Compressibility (1/GPa) = 0.04763626
#
# Stress axis : x y z
#
# Youngs Moduli (GPa) = 132.19512 29.87736 43.00255
#
# Poissons Ratio (x) = 0.08371 0.34169
# Poissons Ratio (y) = 0.37040 -0.10412
# Poissons Ratio (z) = 1.05041 -0.07234
#
# Static dielectric constant tensor:
#      x y z
#    x 1.775000 0.000000 0.022790 
#    y 0.000000 1.754810 0.000000 
#    z 0.022790 0.000000 1.705600 
# 
# From -- ./inp_files/37322.got.cif
#   From: 2010.05.17/outbox.cif.g08.bks.cpg/sg10_19_cif.got.tgz:37322.got - 2010.06.03 11:33:40.
