data_PCOD9146575
_publ_section_title
;
Structure prediction by ZEFSAII (Michael W. Deem and Ramdas Pophale) SiO2 
 PCOD9146575
Probable space group: P 2/M
;
_chemical_formula_sum "Si O2"
_cell_formula_units_Z 24
_cell_length_a 14.703643
_cell_length_b 13.885573
_cell_length_c 14.244379
_cell_angle_alpha 90.000000
_cell_angle_beta 30.131795
_cell_angle_gamma 90.000000
_cell_volume 1459.916429
_symmetry_space_group_name_H-M "P 2/M"
_symmetry_group_IT_number 10
_symmetry_cell_setting 'monoclinic'
loop_
_space_group_symop_operation_xyz
x,y,z
-x,y,-z
-x,-y,-z
x,-y,z
loop_
_atom_site_type_symbol
_atom_site_label
_atom_site_fract_x
_atom_site_fract_y
_atom_site_fract_z
Si Si1 0.655806 0.113438 0.610991
Si Si2 0.952337 0.113445 0.650901
Si Si3 0.410873 0.275103 0.477972
Si Si4 0.589125 0.775102 0.022030
Si Si5 0.655803 0.386563 0.110994
Si Si6 0.952337 0.613444 0.150902
O O1 0.607281 0.176130 0.563398
O O2 0.535656 0.154459 0.803829
O O3 0.866062 0.127905 0.450896
O O4 0.623929 0.000000 0.627135
O O5 0.000000 0.135537 0.500000
O O6 0.902997 0.000000 0.699131
O O7 0.785491 0.176879 0.833960
O O8 0.500000 0.261998 0.500000
O O9 0.535651 0.345542 0.303833
O O10 0.214505 0.323119 0.666045
O O11 0.607282 0.676130 0.063398
O O12 0.500000 0.761997 0.000000
O O13 0.623925 0.500000 0.127138
O O14 0.866059 0.372096 0.950899
O O15 0.902991 0.500000 0.199141
O O16 0.000000 0.635531 0.000000
#
# Coordination Sequence:
#
# PCOD9146575 Si02
#       6
#     4   4   4   4   4   4
#     4  10  22  37  54  79 108 140 176 215 262 312
#     4  10  19  33  56  81 105 136 175 219 262 307
#     4  11  21  35  57  80 106 139 176 218 261 311
#     4  11  21  35  57  80 106 139 176 218 261 311
#     4  10  22  37  54  79 108 140 176 215 262 312
#     4  10  19  33  56  81 105 136 175 219 262 307
#
# _framework density 16.439298000000001
#
# number of rings (size 3 to 8) (size 9 to 14) (size 15 to 20)
#    0.000    1.667    3.333    2.000    0.000    2.000 
#    0.000    0.000    0.000    1.000    0.000    0.000 
#    0.000    0.000    0.000    0.000    0.000    0.000 
#
# Total GULP energy -134004.693874 kJ/mol
# GULP energy per Si atom -5583.528911 kJ/mol
# Density = 1.640188 g / cm^3
# Si number density = 16.439298 Si / 1000 Ang^3
#
#
#
# Elastic Constant Matrix: (Units=GPa)
#
#
# Indices 1 2 3 4 5 6 
#
# 1 96.0804 95.1877 89.7677 0.0000 10.4563 0.0000
# 2 95.1877 130.2891 78.2800 0.0000 0.3242 0.0000
# 3 89.7677 78.2800 101.4719 0.0000 4.0771 0.0000
# 4 0.0000 0.0000 0.0000 23.4643 0.0000 -6.6488
# 5 10.4563 0.3242 4.0771 0.0000 22.7805 0.0000
# 6 0.0000 0.0000 0.0000 -6.6488 0.0000 14.2294
#
#
#
# Elastic Compliance Matrix: (Units=1/GPa)
#
#
# Indices 1 2 3 4 5 6 
#
# 1 0.234078 -0.090171 -0.134216 0.000000 -0.082138 0.000000
# 2 -0.090171 0.049114 0.040538 0.000000 0.033434 0.000000
# 3 -0.134216 0.040538 0.095552 0.000000 0.043927 0.000000
# 4 0.000000 0.000000 0.000000 0.049122 0.000000 0.022953
# 5 -0.082138 0.033434 0.043927 0.000000 0.073261 0.000000
# 6 0.000000 0.000000 0.000000 0.022953 0.000000 0.081002
#
#
# Mechanical properties :
#
#
# Convention : Reuss Voigt Hill
#
# Bulk Modulus (GPa) = 90.53014 94.92359 92.72686
# Shear Modulus (GPa) = 5.24379 16.40189 10.82284
#
# Velocity S-wave (km/s) = 1.78794 3.16210 2.56862
# Velocity P-wave (km/s) = 7.71046 8.43796 8.08240
#
# Compressibility (1/GPa) = 0.01104605
#
# Stress axis : x y z
#
# Youngs Moduli (GPa) = 4.27208 20.36093 10.46547
#
# Poissons Ratio (x) = 1.83596 1.40464
# Poissons Ratio (y) = 0.38522 -0.42425
# Poissons Ratio (z) = 0.57338 -0.82539
#
# Static dielectric constant tensor:
#      x y z
#    x 1.534310 0.000000 -0.004240 
#    y 0.000000 1.526590 0.000000 
#    z -0.004240 0.000000 1.532240 
# 
# From -- ./inp_files/9213.got.cif
#   From: 2010.05.17/outbox.cif.g08.bks.cpg/sg10_5_cif.got.tgz:9213.got - 2010.06.03 11:33:40.
