data_PCOD9146987
_publ_section_title
;
Structure prediction by ZEFSAII (Michael W. Deem and Ramdas Pophale) SiO2 
 PCOD9146987
Probable space group: P 2/M
;
_chemical_formula_sum "Si O2"
_cell_formula_units_Z 22
_cell_length_a 9.263781
_cell_length_b 13.690719
_cell_length_c 11.836397
_cell_angle_alpha 90.000000
_cell_angle_beta 67.052581
_cell_angle_gamma 90.000000
_cell_volume 1382.385290
_symmetry_space_group_name_H-M "P 2/M"
_symmetry_group_IT_number 10
_symmetry_cell_setting 'monoclinic'
loop_
_space_group_symop_operation_xyz
x,y,z
-x,y,-z
-x,-y,-z
x,-y,z
loop_
_atom_site_type_symbol
_atom_site_label
_atom_site_fract_x
_atom_site_fract_y
_atom_site_fract_z
Si Si1 0.348960 0.274909 0.619568
Si Si2 0.525605 0.383404 0.765922
Si Si3 0.854949 0.886782 0.198419
Si Si4 0.174462 0.383438 0.474443
Si Si5 0.212681 0.885998 0.048829
Si Si6 0.500000 0.743023 0.000000
O O1 0.500000 0.243679 0.500000
O O2 0.411037 0.341891 0.703502
O O3 0.252804 0.184769 0.697882
O O4 0.241226 0.335606 0.567034
O O5 0.505060 0.500000 0.786170
O O6 0.700824 0.365162 0.663783
O O7 0.498983 0.324847 0.889324
O O8 0.040174 0.863319 0.150833
O O9 0.834523 0.000000 0.236903
O O10 0.807974 0.878517 0.080618
O O11 0.169450 0.500000 0.492225
O O12 0.000000 0.348484 0.500000
O O13 0.347671 0.813058 0.046708
O O14 0.249254 0.000000 0.063362
#
# Coordination Sequence:
#
# PCOD9146987 Si02
#       6
#     4   4   4   4   4   2
#     4  10  19  34  56  77 103 142 174 208 254 314
#     4  10  21  35  50  77 109 140 172 211 261 305
#     4   9  18  35  54  76 104 135 172 216 260 306
#     4   9  19  35  55  76 100 135 178 218 253 304
#     4   9  19  34  54  76 103 136 175 215 255 308
#     4  12  20  32  56  80 106 138 170 218 260 304
#
# _framework density 15.914521000000001
#
# number of rings (size 3 to 8) (size 9 to 14) (size 15 to 20)
#    0.000    2.364    1.818    2.182    2.545    2.545 
#    0.000    0.000    0.000    1.636    0.000    0.000 
#    0.000    0.000    0.000    0.000    0.000    0.000 
#
# Total GULP energy -122657.860511 kJ/mol
# GULP energy per Si atom -5575.357296 kJ/mol
# Density = 1.587830 g / cm^3
# Si number density = 15.914521 Si / 1000 Ang^3
#
#
#
# Elastic Constant Matrix: (Units=GPa)
#
#
# Indices 1 2 3 4 5 6 
#
# 1 126.7781 70.8132 65.2037 0.0000 -8.9454 0.0000
# 2 70.8132 97.4152 68.5229 0.0000 -11.4347 0.0000
# 3 65.2037 68.5229 101.7955 0.0000 0.2788 0.0000
# 4 0.0000 0.0000 0.0000 27.8926 0.0000 -1.6730
# 5 -8.9454 -11.4347 0.2788 0.0000 14.5229 0.0000
# 6 0.0000 0.0000 0.0000 -1.6730 0.0000 27.4821
#
#
#
# Elastic Compliance Matrix: (Units=1/GPa)
#
#
# Indices 1 2 3 4 5 6 
#
# 1 0.014263 -0.006665 -0.004660 0.000000 0.003627 0.000000
# 2 -0.006665 0.026931 -0.013907 0.000000 0.017366 0.000000
# 3 -0.004660 -0.013907 0.022208 0.000000 -0.014246 0.000000
# 4 0.000000 0.000000 0.000000 0.035983 0.000000 0.002191
# 5 0.003627 0.017366 -0.014246 0.000000 0.085038 0.000000
# 6 0.000000 0.000000 0.000000 0.002191 0.000000 0.036521
#
#
# Mechanical properties :
#
#
# Convention : Reuss Voigt Hill
#
# Bulk Modulus (GPa) = 77.27950 81.67423 79.47687
# Shear Modulus (GPa) = 18.13445 22.07611 20.10528
#
# Velocity S-wave (km/s) = 3.37930 3.72851 3.55819
# Velocity P-wave (km/s) = 7.99317 8.36467 8.18103
#
# Compressibility (1/GPa) = 0.01294004
#
# Stress axis : x y z
#
# Youngs Moduli (GPa) = 70.11266 37.13262 45.02792
#
# Poissons Ratio (x) = 0.24747 0.20981
# Poissons Ratio (y) = 0.46727 0.62619
# Poissons Ratio (z) = 0.32669 0.51639
#
# Static dielectric constant tensor:
#      x y z
#    x 1.528160 0.000000 -0.009590 
#    y 0.000000 1.504610 0.000000 
#    z -0.009590 0.000000 1.511350 
# 
# From -- ./inp_files/18781.got.cif
#   From: 2010.05.17/outbox.cif.g08.bks.cpg/sg10_10_cif.got.tgz:18781.got - 2010.06.03 11:33:40.
