data_PCOD9146322
_publ_section_title
;
Structure prediction by ZEFSAII (Michael W. Deem and Ramdas Pophale) SiO2 
 PCOD9146322
Probable space group: P 2/M
;
_chemical_formula_sum "Si O2"
_cell_formula_units_Z 30
_cell_length_a 16.891558
_cell_length_b 19.174637
_cell_length_c 16.412786
_cell_angle_alpha 90.000000
_cell_angle_beta 162.511270
_cell_angle_gamma 90.000000
_cell_volume 1597.533389
_symmetry_space_group_name_H-M "P 2/M"
_symmetry_group_IT_number 10
_symmetry_cell_setting 'monoclinic'
loop_
_space_group_symop_operation_xyz
x,y,z
-x,y,-z
-x,-y,-z
x,-y,z
loop_
_atom_site_type_symbol
_atom_site_label
_atom_site_fract_x
_atom_site_fract_y
_atom_site_fract_z
Si Si1 0.140466 0.654538 0.369728
Si Si2 0.081038 0.918866 0.264618
Si Si3 0.758956 0.500000 0.200262
Si Si4 0.614192 0.226050 0.022454
Si Si5 0.616046 0.375183 0.943430
Si Si6 0.380049 0.918700 0.300601
Si Si7 0.856317 0.804354 0.544116
Si Si8 0.240991 0.418101 0.298845
O O1 0.338232 0.613549 0.625416
O O2 0.170152 0.736241 0.423183
O O3 0.210925 0.631085 0.347929
O O4 0.837175 0.638067 0.091997
O O5 0.381423 0.916706 0.529012
O O6 0.056454 0.870001 0.317786
O O7 0.012705 0.000000 0.213301
O O8 0.885229 0.891941 0.001279
O O9 0.000000 0.500000 0.500000
O O10 0.500000 0.500000 0.000000
O O11 0.734132 0.434052 0.116893
O O12 0.580375 0.306812 0.963915
O O13 0.424511 0.185063 0.774065
O O14 0.500000 0.214751 0.000000
O O15 0.919231 0.210198 0.303379
O O16 0.500000 0.885679 0.500000
O O17 0.318463 0.000000 0.260686
O O18 0.500000 0.403922 0.500000
O O19 0.248391 0.500000 0.332822
O O20 0.000000 0.409963 0.000000
#
# Coordination Sequence:
#
# PCOD9146322 Si02
#       8
#     4   4   2   4   4   4   4   4
#     4  10  21  38  56  78 108 140 184 227 264 320
#     4  10  19  33  54  78 110 145 178 226 276 325
#     4  12  24  36  52  82 118 140 168 214 270 332
#     4  10  20  37  58  78 104 141 182 222 267 324
#     4  10  22  35  56  81 106 144 174 216 270 324
#     4   9  17  30  50  77 108 142 179 215 257 319
#     4  10  21  36  56  82 106 138 183 223 270 331
#     4  10  21  36  56  80 105 141 183 229 269 305
#
# _framework density 18.778952
#
# number of rings (size 3 to 8) (size 9 to 14) (size 15 to 20)
#    0.000    2.000    0.000    3.600    1.867    3.733 
#    0.000    2.000    0.000    2.400    0.000    0.000 
#    0.000    0.000    0.000    0.000    0.000    0.000 
#
# Total GULP energy -167341.015689 kJ/mol
# GULP energy per Si atom -5578.033856 kJ/mol
# Density = 1.873621 g / cm^3
# Si number density = 18.778952 Si / 1000 Ang^3
#
#
#
# Elastic Constant Matrix: (Units=GPa)
#
#
# Indices 1 2 3 4 5 6 
#
# 1 91.6503 36.1238 8.6393 0.0000 0.7537 0.0000
# 2 36.1238 45.1274 11.2919 0.0000 -9.0867 0.0000
# 3 8.6393 11.2919 90.5146 0.0000 3.0393 0.0000
# 4 0.0000 0.0000 0.0000 18.0348 0.0000 3.5468
# 5 0.7537 -9.0867 3.0393 0.0000 24.7995 0.0000
# 6 0.0000 0.0000 0.0000 3.5468 0.0000 12.6514
#
#
#
# Elastic Compliance Matrix: (Units=1/GPa)
#
#
# Indices 1 2 3 4 5 6 
#
# 1 0.016703 -0.014675 0.000436 0.000000 -0.005938 0.000000
# 2 -0.014675 0.037837 -0.003816 0.000000 0.014777 0.000000
# 3 0.000436 -0.003816 0.011577 0.000000 -0.002830 0.000000
# 4 0.000000 0.000000 0.000000 0.058684 0.000000 -0.016452
# 5 -0.005938 0.014777 -0.002830 0.000000 0.046265 0.000000
# 6 0.000000 0.000000 0.000000 -0.016452 0.000000 0.083655
#
#
# Mechanical properties :
#
#
# Convention : Reuss Voigt Hill
#
# Bulk Modulus (GPa) = 33.32523 37.71138 35.51831
# Shear Modulus (GPa) = 16.62047 22.51297 19.56672
#
# Velocity S-wave (km/s) = 2.97822 3.46618 3.23143
# Velocity P-wave (km/s) = 5.44160 6.01204 5.73391
#
# Compressibility (1/GPa) = 0.03000729
#
# Stress axis : x y z
#
# Youngs Moduli (GPa) = 59.86934 26.42906 86.37525
#
# Poissons Ratio (x) = 0.38785 -0.03765
# Poissons Ratio (y) = 0.87860 0.32959
# Poissons Ratio (z) = -0.02610 0.10085
#
# Static dielectric constant tensor:
#      x y z
#    x 1.626590 0.000000 -0.029010 
#    y 0.000000 1.644860 0.000000 
#    z -0.029010 0.000000 1.559080 
# 
# From -- ./inp_files/67912.got.cif
#   From: 2010.05.17/outbox.cif.g08.bks.cpg/sg10_34_cif.got.tgz:67912.got - 2010.06.03 11:33:40.
