data_PCOD9146929
_publ_section_title
;
Structure prediction by ZEFSAII (Michael W. Deem and Ramdas Pophale) SiO2 
 PCOD9146929
Probable space group: P 2/M
;
_chemical_formula_sum "Si O2"
_cell_formula_units_Z 20
_cell_length_a 5.997015
_cell_length_b 16.019359
_cell_length_c 11.546443
_cell_angle_alpha 90.000000
_cell_angle_beta 86.513033
_cell_angle_gamma 90.000000
_cell_volume 1107.193973
_symmetry_space_group_name_H-M "P 2/M"
_symmetry_group_IT_number 10
_symmetry_cell_setting 'monoclinic'
loop_
_space_group_symop_operation_xyz
x,y,z
-x,y,-z
-x,-y,-z
x,-y,z
loop_
_atom_site_type_symbol
_atom_site_label
_atom_site_fract_x
_atom_site_fract_y
_atom_site_fract_z
Si Si1 0.500000 0.803028 0.000000
Si Si2 0.876316 0.679991 0.379387
Si Si3 0.754536 0.500000 0.437041
Si Si4 0.824860 0.095312 0.157259
Si Si5 0.445678 0.839223 0.627825
Si Si6 0.804382 0.226693 0.791702
O O1 0.338280 0.862520 0.930819
O O2 0.637167 0.750296 0.900851
O O3 0.771396 0.588356 0.371319
O O4 0.693484 0.753327 0.383521
O O5 0.000000 0.684558 0.500000
O O6 0.047613 0.701279 0.270585
O O7 0.500000 0.500000 0.500000
O O8 0.000000 0.500000 0.500000
O O9 0.699123 0.102038 0.284779
O O10 0.037113 0.154959 0.161949
O O11 0.877736 0.000000 0.128678
O O12 0.500000 0.873788 0.500000
O O13 0.665693 0.814542 0.691687
#
# Coordination Sequence:
#
# PCOD9146929 Si02
#       6
#     2   4   2   4   4   4
#     4  10  21  38  58  79 106 146 202 239 300 344
#     4  10  19  34  58  84 119 149 190 236 291 349
#     4  10  22  34  58  95 127 159 196 242 297 351
#     4  10  22  36  54  80 109 144 192 251 299 346
#     4  10  19  34  55  78 113 153 191 227 295 355
#     4  10  21  35  56  82 110 154 189 246 286 354
#
# _framework density 18.063680999999999
#
# number of rings (size 3 to 8) (size 9 to 14) (size 15 to 20)
#    0.000    2.000    2.000    1.500    2.800    5.200 
#    0.000    1.000    0.000    0.600    0.000   18.200 
#    0.000    0.000    0.000    0.000    0.000    0.000 
#
# Total GULP energy -111495.919294 kJ/mol
# GULP energy per Si atom -5574.795965 kJ/mol
# Density = 1.802257 g / cm^3
# Si number density = 18.063681 Si / 1000 Ang^3
#
#
#
# Elastic Constant Matrix: (Units=GPa)
#
#
# Indices 1 2 3 4 5 6 
#
# 1 97.6294 32.6364 47.1933 0.0000 -3.3658 0.0000
# 2 32.6364 96.9319 23.3779 0.0000 -9.7420 0.0000
# 3 47.1933 23.3779 126.7976 0.0000 -25.8408 0.0000
# 4 0.0000 0.0000 0.0000 4.1100 0.0000 4.1218
# 5 -3.3658 -9.7420 -25.8408 0.0000 48.2021 0.0000
# 6 0.0000 0.0000 0.0000 4.1218 0.0000 -6.6509
#
#
#
# Elastic Compliance Matrix: (Units=1/GPa)
#
#
# Indices 1 2 3 4 5 6 
#
# 1 0.013784 -0.003693 -0.004946 0.000000 -0.002435 0.000000
# 2 -0.003693 0.011854 -0.000421 0.000000 0.001912 0.000000
# 3 -0.004946 -0.000421 0.010909 0.000000 0.005418 0.000000
# 4 0.000000 0.000000 0.000000 0.150051 0.000000 0.092991
# 5 -0.002435 0.001912 0.005418 0.000000 0.023867 0.000000
# 6 0.000000 0.000000 0.000000 0.092991 0.000000 -0.092726
#
#
# Mechanical properties :
#
#
# Convention : Reuss Voigt Hill
#
# Bulk Modulus (GPa) = 54.26866 58.64155 56.45511
# Shear Modulus (GPa) = 35.21098 23.67566 29.44332
#
# Velocity S-wave (km/s) = 4.41984 3.62426 4.04167
# Velocity P-wave (km/s) = 7.49366 7.07445 7.28707
#
# Compressibility (1/GPa) = 0.01842684
#
# Stress axis : x y z
#
# Youngs Moduli (GPa) = 72.54727 84.36184 91.66586
#
# Poissons Ratio (x) = 0.31155 0.45336
# Poissons Ratio (y) = 0.26791 0.03862
# Poissons Ratio (z) = 0.35880 0.03555
#
# Static dielectric constant tensor:
#      x y z
#    x 1.671530 0.000000 -0.023090 
#    y 0.000000 1.570340 0.000000 
#    z -0.023090 0.000000 1.645950 
# 
# From -- ./inp_files/6781.got.cif
#   From: 2010.05.17/outbox.cif.g08.bks.cpg/sg10_4_cif.got.tgz:6781.got - 2010.06.03 11:33:40.
