data_PCOD9146778
_publ_section_title
;
Structure prediction by ZEFSAII (Michael W. Deem and Ramdas Pophale) SiO2 
 PCOD9146778
Probable space group: P 2/M
;
_chemical_formula_sum "Si O2"
_cell_formula_units_Z 28
_cell_length_a 12.189509
_cell_length_b 7.702303
_cell_length_c 15.689283
_cell_angle_alpha 90.000000
_cell_angle_beta 118.744141
_cell_angle_gamma 90.000000
_cell_volume 1291.512251
_symmetry_space_group_name_H-M "P 2/M"
_symmetry_group_IT_number 10
_symmetry_cell_setting 'monoclinic'
loop_
_space_group_symop_operation_xyz
x,y,z
-x,y,-z
-x,-y,-z
x,-y,z
loop_
_atom_site_type_symbol
_atom_site_label
_atom_site_fract_x
_atom_site_fract_y
_atom_site_fract_z
Si Si1 0.852339 0.288439 0.683932
Si Si2 0.621367 0.206471 0.992694
Si Si3 0.119420 0.696343 0.822795
Si Si4 0.871348 0.290688 0.496228
Si Si5 0.475637 0.211980 0.214525
Si Si6 0.251448 0.800116 0.713723
Si Si7 0.567498 0.205098 0.611720
O O1 0.854067 0.500000 0.686534
O O2 0.861029 0.232036 0.588651
O O3 0.717266 0.227634 0.663972
O O4 0.979768 0.226125 0.777975
O O5 0.622240 0.268880 0.894471
O O6 0.601465 0.000000 0.980628
O O7 0.500000 0.275777 0.000000
O O8 0.755511 0.230929 0.087312
O O9 0.110382 0.500000 0.849904
O O10 0.152423 0.698630 0.733872
O O11 0.864127 0.500000 0.492052
O O12 0.768930 0.216938 0.394364
O O13 0.000000 0.236343 0.500000
O O14 0.607695 0.259110 0.220859
O O15 0.468991 0.278618 0.308784
O O16 0.471890 0.000000 0.219759
O O17 0.239281 0.000000 0.735147
O O18 0.500000 0.276041 0.500000
O O19 0.537227 0.000000 0.601358
#
# Coordination Sequence:
#
# PCOD9146778 Si02
#       7
#     4   4   4   4   4   4   4
#     4  10  22  39  57  78 115 157 191 233 287 343
#     4  10  19  36  59  84 115 152 190 236 290 345
#     4  11  22  37  55  82 118 152 187 234 291 343
#     4  10  19  34  51  74 112 152 182 224 286 341
#     4   9  19  36  57  82 115 148 183 236 296 338
#     4  11  20  33  55  84 114 147 188 234 285 344
#     4  10  21  39  62  86 114 148 192 241 282 334
#
# _framework density 21.680009999999999
#
# number of rings (size 3 to 8) (size 9 to 14) (size 15 to 20)
#    0.000    1.857    2.857    1.714    0.000    3.714 
#    0.000    2.857    0.000    4.286    0.000    0.000 
#    0.000    0.000    0.000    0.000    0.000    0.000 
#
# Total GULP energy -156156.577141 kJ/mol
# GULP energy per Si atom -5577.020612 kJ/mol
# Density = 2.163067 g / cm^3
# Si number density = 21.680010 Si / 1000 Ang^3
#
#
#
# Elastic Constant Matrix: (Units=GPa)
#
#
# Indices 1 2 3 4 5 6 
#
# 1 83.6448 -2.5627 38.6574 0.0000 7.9303 0.0000
# 2 -2.5627 30.2898 3.5425 0.0000 -3.8476 0.0000
# 3 38.6574 3.5425 145.3499 0.0000 13.3837 0.0000
# 4 0.0000 0.0000 0.0000 14.8326 0.0000 5.8441
# 5 7.9303 -3.8476 13.3837 0.0000 29.8939 0.0000
# 6 0.0000 0.0000 0.0000 5.8441 0.0000 17.7295
#
#
#
# Elastic Compliance Matrix: (Units=1/GPa)
#
#
# Indices 1 2 3 4 5 6 
#
# 1 0.013809 0.001338 -0.003529 0.000000 -0.001911 0.000000
# 2 0.001338 0.033918 -0.001619 0.000000 0.004735 0.000000
# 3 -0.003529 -0.001619 0.008126 0.000000 -0.002910 0.000000
# 4 0.000000 0.000000 0.000000 0.077482 0.000000 -0.025540
# 5 -0.001911 0.004735 -0.002910 0.000000 0.035871 0.000000
# 6 0.000000 0.000000 0.000000 -0.025540 0.000000 0.064822
#
#
# Mechanical properties :
#
#
# Convention : Reuss Voigt Hill
#
# Bulk Modulus (GPa) = 20.73227 37.61763 29.17495
# Shear Modulus (GPa) = 19.40053 27.13434 23.26744
#
# Velocity S-wave (km/s) = 2.99466 3.54161 3.27956
# Velocity P-wave (km/s) = 4.64122 5.84063 5.27513
#
# Compressibility (1/GPa) = 0.04823398
#
# Stress axis : x y z
#
# Youngs Moduli (GPa) = 72.41887 29.48249 123.06188
#
# Poissons Ratio (x) = -0.03946 0.43431
# Poissons Ratio (y) = -0.09692 0.19919
# Poissons Ratio (z) = 0.25558 0.04772
#
# Static dielectric constant tensor:
#      x y z
#    x 1.781770 0.000000 0.034840 
#    y 0.000000 1.789070 0.000000 
#    z 0.034840 0.000000 1.873410 
# 
# From -- ./inp_files/50044.got.cif
#   From: 2010.05.17/outbox.cif.g08.bks.cpg/sg10_26_cif.got.tgz:50044.got - 2010.06.03 11:33:40.
