data_PCOD9146072
_publ_section_title
;
Structure prediction by ZEFSAII (Michael W. Deem and Ramdas Pophale) SiO2 
 PCOD9146072
Probable space group: P 2/M
;
_chemical_formula_sum "Si O2"
_cell_formula_units_Z 28
_cell_length_a 26.731807
_cell_length_b 15.777020
_cell_length_c 5.283754
_cell_angle_alpha 90.000000
_cell_angle_beta 101.400216
_cell_angle_gamma 90.000000
_cell_volume 2184.448371
_symmetry_space_group_name_H-M "P 2/M"
_symmetry_group_IT_number 10
_symmetry_cell_setting 'monoclinic'
loop_
_space_group_symop_operation_xyz
x,y,z
-x,y,-z
-x,-y,-z
x,-y,z
loop_
_atom_site_type_symbol
_atom_site_label
_atom_site_fract_x
_atom_site_fract_y
_atom_site_fract_z
Si Si1 0.465354 0.500000 0.715354
Si Si2 0.327921 0.896740 0.077908
Si Si3 0.388287 0.155392 0.638277
Si Si4 0.148332 0.103478 0.398304
Si Si5 0.969648 0.103272 0.719647
Si Si6 0.464030 0.311850 0.714029
Si Si7 0.791768 0.102775 0.041795
Si Si8 0.466023 0.000000 0.716022
O O1 0.500000 0.500000 0.500000
O O2 0.440316 0.407116 0.690315
O O3 0.500000 0.500000 0.000000
O O4 0.354540 0.859612 0.354410
O O5 0.267858 0.875758 0.017850
O O6 0.333479 0.000000 0.083466
O O7 0.354537 0.859613 0.854634
O O8 0.419420 0.242839 0.669416
O O9 0.430702 0.082074 0.680699
O O10 0.089312 0.130236 0.339306
O O11 0.178508 0.131236 0.178800
O O12 0.148203 0.000000 0.398173
O O13 0.178513 0.131236 0.678148
O O14 0.000000 0.130143 0.500000
O O15 0.969271 0.000000 0.719268
O O16 0.000000 0.130142 0.000000
O O17 0.500000 0.302266 0.500000
O O18 0.500000 0.302266 0.000000
O O19 0.793648 0.000000 0.043676
O O20 0.500000 0.000000 0.500000
O O21 0.500000 0.000000 0.000000
#
# Coordination Sequence:
#
# PCOD9146072 Si02
#       8
#     2   4   4   4   4   4   4   2
#     4   8  16  30  50  66  82  98 118 148 180 224
#     4  11  20  33  42  56  75 102 131 160 194 223
#     4  12  21  32  45  59  80 102 127 156 188 231
#     4   9  15  24  34  49  62  82 115 148 183 225
#     4   9  15  21  30  44  64  84 102 134 183 235
#     4  10  19  33  48  66  82 100 123 149 186 230
#     4   9  17  26  39  48  62  86 119 156 182 214
#     4  12  22  32  42  56  76 102 124 146 174 220
#
# _framework density 12.817880000000001
#
# number of rings (size 3 to 8) (size 9 to 14) (size 15 to 20)
#    0.000    2.000    1.429    4.286    0.000    5.714 
#    0.000    0.000    0.000    0.000    0.000    0.000 
#    0.000    0.000    0.000    0.000    0.000    0.000 
#
# Total GULP energy -156052.580374 kJ/mol
# GULP energy per Si atom -5573.306442 kJ/mol
# Density = 1.278871 g / cm^3
# Si number density = 12.817880 Si / 1000 Ang^3
#
#
#
# Elastic Constant Matrix: (Units=GPa)
#
#
# Indices 1 2 3 4 5 6 
#
# 1 129.7986 37.9702 85.1603 0.0000 -1.6281 0.0000
# 2 37.9702 66.9374 25.6340 0.0000 4.3456 0.0000
# 3 85.1603 25.6340 150.0903 0.0000 -5.5199 0.0000
# 4 0.0000 0.0000 0.0000 8.9025 0.0000 0.1131
# 5 -1.6281 4.3456 -5.5199 0.0000 26.0021 0.0000
# 6 0.0000 0.0000 0.0000 0.1131 0.0000 9.2211
#
#
#
# Elastic Compliance Matrix: (Units=1/GPa)
#
#
# Indices 1 2 3 4 5 6 
#
# 1 0.013755 -0.005173 -0.006912 0.000000 0.000258 0.000000
# 2 -0.005173 0.018212 -0.000302 0.000000 -0.003432 0.000000
# 3 -0.006912 -0.000302 0.010705 0.000000 0.001890 0.000000
# 4 0.000000 0.000000 0.000000 0.112346 0.000000 -0.001378
# 5 0.000258 -0.003432 0.001890 0.000000 0.039449 0.000000
# 6 0.000000 0.000000 0.000000 -0.001378 0.000000 0.108463
#
#
# Mechanical properties :
#
#
# Convention : Reuss Voigt Hill
#
# Bulk Modulus (GPa) = 55.86463 71.59504 63.72983
# Shear Modulus (GPa) = 14.98484 22.02925 18.50704
#
# Velocity S-wave (km/s) = 3.42286 4.15014 3.80392
# Velocity P-wave (km/s) = 7.70060 8.88492 8.31387
#
# Compressibility (1/GPa) = 0.01790041
#
# Stress axis : x y z
#
# Youngs Moduli (GPa) = 72.69830 54.90936 93.41058
#
# Poissons Ratio (x) = 0.28403 0.64564
# Poissons Ratio (y) = 0.37604 0.02818
# Poissons Ratio (z) = 0.50248 0.01656
#
# Static dielectric constant tensor:
#      x y z
#    x 1.406640 0.000000 -0.004440 
#    y 0.000000 1.404580 0.000000 
#    z -0.004440 0.000000 1.419240 
# 
# From -- ./inp_files/13278.got.cif
#   From: 2010.05.17/outbox.cif.g08.bks.cpg/sg10_7_cif.got.tgz:13278.got - 2010.06.03 11:33:40.
