data_PCOD9146752
_publ_section_title
;
Structure prediction by ZEFSAII (Michael W. Deem and Ramdas Pophale) SiO2 
 PCOD9146752
Probable space group: P 2/M
;
_chemical_formula_sum "Si O2"
_cell_formula_units_Z 30
_cell_length_a 12.455029
_cell_length_b 7.301482
_cell_length_c 16.090659
_cell_angle_alpha 90.000000
_cell_angle_beta 60.160581
_cell_angle_gamma 90.000000
_cell_volume 1269.289519
_symmetry_space_group_name_H-M "P 2/M"
_symmetry_group_IT_number 10
_symmetry_cell_setting 'monoclinic'
loop_
_space_group_symop_operation_xyz
x,y,z
-x,y,-z
-x,-y,-z
x,-y,z
loop_
_atom_site_type_symbol
_atom_site_label
_atom_site_fract_x
_atom_site_fract_y
_atom_site_fract_z
Si Si1 0.992693 0.222333 0.096044
Si Si2 0.215721 0.785394 0.692664
Si Si3 0.828420 0.219778 0.836788
Si Si4 0.659558 0.722611 0.684566
Si Si5 0.944669 0.210867 0.622471
Si Si6 0.506924 0.720176 0.402771
Si Si7 0.557762 0.296169 0.894880
Si Si8 0.133378 0.500000 0.583976
O O1 0.116686 0.273051 0.096922
O O2 0.879917 0.276877 0.198869
O O3 0.987394 0.000000 0.095686
O O4 0.000000 0.289443 0.000000
O O5 0.353492 0.766875 0.676502
O O6 0.199752 0.659883 0.617409
O O7 0.191115 0.000000 0.683164
O O8 0.925267 0.266700 0.727345
O O9 0.700650 0.309142 0.864702
O O10 0.812163 0.000000 0.839334
O O11 0.660042 0.500000 0.685509
O O12 0.802722 0.775578 0.643977
O O13 0.596723 0.782994 0.622794
O O14 0.572753 0.783221 0.796136
O O15 0.058375 0.341428 0.558028
O O16 0.980852 0.000000 0.601045
O O17 0.500000 0.788786 0.500000
O O18 0.493827 0.500000 0.410323
O O19 0.501152 0.500000 0.908936
O O20 0.500000 0.206632 0.000000
#
# Coordination Sequence:
#
# PCOD9146752 Si02
#       8
#     4   4   4   4   4   4   4   2
#     4   9  18  33  52  80 120 161 202 254 313 378
#     4  11  23  39  63  93 125 168 217 264 320 388
#     4   9  17  29  47  72 103 147 195 240 294 360
#     4   9  18  35  59  87 120 160 209 262 320 381
#     4  10  19  33  59  90 118 156 202 250 309 376
#     4  10  22  42  67  92 125 170 217 272 333 385
#     4   9  18  30  47  74 111 153 195 248 309 370
#     4  12  20  36  62  91 126 164 201 261 312 388
#
# _framework density 23.635270999999999
#
# number of rings (size 3 to 8) (size 9 to 14) (size 15 to 20)
#    0.000    2.267    2.667    0.400    0.933    2.133 
#    0.000    0.333    0.000    1.600    0.000    1.867 
#    0.000    0.000    0.000    0.000    0.000    0.000 
#
# Total GULP energy -167014.487498 kJ/mol
# GULP energy per Si atom -5567.149583 kJ/mol
# Density = 2.358148 g / cm^3
# Si number density = 23.635271 Si / 1000 Ang^3
#
#
#
# Elastic Constant Matrix: (Units=GPa)
#
#
# Indices 1 2 3 4 5 6 
#
# 1 133.2605 13.2809 25.8196 0.0000 42.7540 0.0000
# 2 13.2809 117.8499 12.3979 0.0000 4.1917 0.0000
# 3 25.8196 12.3979 97.1507 0.0000 29.4093 0.0000
# 4 0.0000 0.0000 0.0000 -23.4924 0.0000 -11.0467
# 5 42.7540 4.1917 29.4093 0.0000 34.0455 0.0000
# 6 0.0000 0.0000 0.0000 -11.0467 0.0000 23.3576
#
#
#
# Elastic Compliance Matrix: (Units=1/GPa)
#
#
# Indices 1 2 3 4 5 6 
#
# 1 0.012971 -0.001046 0.002137 0.000000 -0.018006 0.000000
# 2 -0.001046 0.008686 -0.001225 0.000000 0.001302 0.000000
# 3 0.002137 -0.001225 0.014419 0.000000 -0.014988 0.000000
# 4 0.000000 0.000000 0.000000 -0.034823 0.000000 -0.016469
# 5 -0.018006 0.001302 -0.014988 0.000000 0.064772 0.000000
# 6 0.000000 0.000000 0.000000 -0.016469 0.000000 0.035024
#
#
# Mechanical properties :
#
#
# Convention : Reuss Voigt Hill
#
# Bulk Modulus (GPa) = 27.92636 50.13977 39.03306
# Shear Modulus (GPa) = 44.14930 26.56632 35.35781
#
# Velocity S-wave (km/s) = 4.32666 3.35627 3.87198
# Velocity P-wave (km/s) = 6.06639 6.02324 6.04485
#
# Compressibility (1/GPa) = 0.03580846
#
# Stress axis : x y z
#
# Youngs Moduli (GPa) = 77.09320 115.13073 69.35382
#
# Poissons Ratio (x) = 0.12044 -0.14821
# Poissons Ratio (y) = 0.08065 0.08493
# Poissons Ratio (z) = -0.16475 0.14099
#
# Static dielectric constant tensor:
#      x y z
#    x 1.857980 0.000000 0.012690 
#    y 0.000000 1.931160 0.000000 
#    z 0.012690 0.000000 2.000230 
# 
# From -- ./inp_files/76202.got.cif
#   From: 2010.05.17/outbox.cif.g08.bks.cpg/sg10_39_cif.got.tgz:76202.got - 2010.06.03 11:33:40.
