data_PCOD9146179
_publ_section_title
;
Structure prediction by ZEFSAII (Michael W. Deem and Ramdas Pophale) SiO2 
 PCOD9146179
Probable space group: P 2/M
;
_chemical_formula_sum "Si O2"
_cell_formula_units_Z 32
_cell_length_a 28.595403
_cell_length_b 9.322158
_cell_length_c 14.378914
_cell_angle_alpha 90.000000
_cell_angle_beta 28.931534
_cell_angle_gamma 90.000000
_cell_volume 1854.267731
_symmetry_space_group_name_H-M "P 2/M"
_symmetry_group_IT_number 10
_symmetry_cell_setting 'monoclinic'
loop_
_space_group_symop_operation_xyz
x,y,z
-x,y,-z
-x,-y,-z
x,-y,z
loop_
_atom_site_type_symbol
_atom_site_label
_atom_site_fract_x
_atom_site_fract_y
_atom_site_fract_z
Si Si1 0.972503 0.336249 0.937922
Si Si2 0.246830 0.328343 0.244105
Si Si3 0.423766 0.668128 0.803757
Si Si4 0.374875 0.830079 0.545296
Si Si5 0.278940 0.670386 0.882345
Si Si6 0.838215 0.170895 0.436103
Si Si7 0.788124 0.830813 0.310043
Si Si8 0.110197 0.325680 0.309971
O O1 0.970370 0.500000 0.907566
O O2 0.056333 0.244939 0.743453
O O3 0.000000 0.338629 0.000000
O O4 0.868726 0.261119 0.115970
O O5 0.238728 0.500000 0.274208
O O6 0.227453 0.241647 0.370940
O O7 0.166474 0.287252 0.306580
O O8 0.350326 0.301314 0.016155
O O9 0.450450 0.500000 0.760922
O O10 0.519416 0.761591 0.638619
O O11 0.360587 0.688237 0.820223
O O12 0.311833 0.758618 0.736459
O O13 0.316451 0.803715 0.551507
O O14 0.381294 0.000000 0.548813
O O15 0.273518 0.500000 0.870692
O O16 0.177803 0.717174 0.105483
O O17 0.796948 0.200044 0.404358
O O18 0.845999 0.000000 0.433835
O O19 0.810825 0.000000 0.258523
O O20 0.109054 0.500000 0.309795
O O21 0.000000 0.274483 0.500000
#
# Coordination Sequence:
#
# PCOD9146179 Si02
#       8
#     4   4   4   4   4   4   4   4
#     4   9  17  30  50  74  97 125 165 208 243 283
#     4   9  18  33  53  76 100 128 169 214 246 288
#     4   9  19  36  54  72  99 133 167 207 257 309
#     4  11  22  34  51  75 101 129 167 215 257 296
#     4   9  18  33  53  76 102 133 166 199 246 309
#     4  10  19  33  53  73 100 139 171 199 247 305
#     4   9  20  36  49  69 104 138 167 204 252 303
#     4   8  15  30  52  77 104 132 161 196 241 293
#
# _framework density 17.257484999999999
#
# number of rings (size 3 to 8) (size 9 to 14) (size 15 to 20)
#    0.000    2.750    0.000    3.000    0.000    6.500 
#    0.000    3.750    0.000    4.500    0.000    0.000 
#    0.000    0.000    0.000    0.000    0.000    0.000 
#
# Total GULP energy -178450.724503 kJ/mol
# GULP energy per Si atom -5576.585141 kJ/mol
# Density = 1.721821 g / cm^3
# Si number density = 17.257485 Si / 1000 Ang^3
#
#
#
# Elastic Constant Matrix: (Units=GPa)
#
#
# Indices 1 2 3 4 5 6 
#
# 1 53.9757 46.4234 66.8762 0.0000 -1.6973 0.0000
# 2 46.4234 58.7863 62.5459 0.0000 1.2654 0.0000
# 3 66.8762 62.5459 115.2250 0.0000 -6.6667 0.0000
# 4 0.0000 0.0000 0.0000 10.6457 0.0000 2.6119
# 5 -1.6973 1.2654 -6.6667 0.0000 28.5743 0.0000
# 6 0.0000 0.0000 0.0000 2.6119 0.0000 21.6686
#
#
#
# Elastic Compliance Matrix: (Units=1/GPa)
#
#
# Indices 1 2 3 4 5 6 
#
# 1 0.090626 -0.036817 -0.032649 0.000000 -0.000604 0.000000
# 2 -0.036817 0.056642 -0.009782 0.000000 -0.006977 0.000000
# 3 -0.032649 -0.009782 0.033300 0.000000 0.006263 0.000000
# 4 0.000000 0.000000 0.000000 0.096797 0.000000 -0.011668
# 5 -0.000604 -0.006977 0.006263 0.000000 0.036731 0.000000
# 6 0.000000 0.000000 0.000000 -0.011668 0.000000 0.047556
#
#
# Mechanical properties :
#
#
# Convention : Reuss Voigt Hill
#
# Bulk Modulus (GPa) = 45.30412 64.40866 54.85639
# Shear Modulus (GPa) = 9.47860 15.65383 12.56621
#
# Velocity S-wave (km/s) = 2.34614 3.01504 2.70137
# Velocity P-wave (km/s) = 5.80069 7.03731 6.44871
#
# Compressibility (1/GPa) = 0.02207305
#
# Stress axis : x y z
#
# Youngs Moduli (GPa) = 11.03441 17.65470 30.02993
#
# Poissons Ratio (x) = 0.64999 0.98045
# Poissons Ratio (y) = 0.40625 0.29374
# Poissons Ratio (z) = 0.36026 0.17269
#
# Static dielectric constant tensor:
#      x y z
#    x 1.589160 0.000000 -0.001920 
#    y 0.000000 1.570100 0.000000 
#    z -0.001920 0.000000 1.571360 
# 
# From -- ./inp_files/72549.got.cif
#   From: 2010.05.17/outbox.cif.g08.bks.cpg/sg10_37_cif.got.tgz:72549.got - 2010.06.03 11:33:40.
