data_PCOD9146285
_publ_section_title
;
Structure prediction by ZEFSAII (Michael W. Deem and Ramdas Pophale) SiO2 
 PCOD9146285
Probable space group: P 2/M
;
_chemical_formula_sum "Si O2"
_cell_formula_units_Z 32
_cell_length_a 20.398258
_cell_length_b 8.945655
_cell_length_c 12.371075
_cell_angle_alpha 90.000000
_cell_angle_beta 50.323057
_cell_angle_gamma 90.000000
_cell_volume 1737.439268
_symmetry_space_group_name_H-M "P 2/M"
_symmetry_group_IT_number 10
_symmetry_cell_setting 'monoclinic'
loop_
_space_group_symop_operation_xyz
x,y,z
-x,y,-z
-x,-y,-z
x,-y,z
loop_
_atom_site_type_symbol
_atom_site_label
_atom_site_fract_x
_atom_site_fract_y
_atom_site_fract_z
Si Si1 0.786661 0.323558 0.701927
Si Si2 0.460010 0.178917 0.382076
Si Si3 0.614654 0.677663 0.320850
Si Si4 0.131276 0.823708 0.190313
Si Si5 0.183554 0.322492 0.913309
Si Si6 0.154772 0.318419 0.702977
Si Si7 0.955272 0.322680 0.378938
Si Si8 0.678846 0.319230 0.612160
O O1 0.778799 0.500000 0.732570
O O2 0.798059 0.237386 0.801085
O O3 0.874200 0.302554 0.541939
O O4 0.711791 0.280980 0.697568
O O5 0.411444 0.242776 0.539567
O O6 0.553883 0.249714 0.294615
O O7 0.406015 0.238810 0.338002
O O8 0.463309 0.000000 0.381992
O O9 0.597930 0.500000 0.347679
O O10 0.714346 0.696800 0.195185
O O11 0.039007 0.763993 0.324193
O O12 0.132518 0.000000 0.188463
O O13 0.145906 0.759630 0.055597
O O14 0.165337 0.500000 0.941519
O O15 0.150556 0.268621 0.830991
O O16 0.155171 0.500000 0.703703
O O17 0.078108 0.274400 0.704611
O O18 0.243905 0.276810 0.551261
O O19 0.974724 0.500000 0.356682
O O20 0.669594 0.500000 0.615428
#
# Coordination Sequence:
#
# PCOD9146285 Si02
#       8
#     4   4   4   4   4   4   4   4
#     4   9  19  36  60  81  99 130 179 230 262 297
#     4  11  20  29  48  81 117 143 165 201 258 322
#     4  10  19  33  54  76 103 140 180 221 252 293
#     4  12  25  36  49  73 109 144 174 211 264 324
#     4  10  20  36  57  75 100 138 182 221 255 303
#     4   8  15  31  55  80 100 128 172 221 263 299
#     4   9  18  35  59  80 100 128 173 226 267 304
#     4   9  16  32  56  81 105 131 173 221 261 302
#
# _framework density 18.417909999999999
#
# number of rings (size 3 to 8) (size 9 to 14) (size 15 to 20)
#    0.000    2.250    1.250    5.250    0.000    4.000 
#    0.000    5.000    0.000    0.750    0.000    5.250 
#    0.000    0.000    0.000    0.000    0.000    0.000 
#
# Total GULP energy -178581.283346 kJ/mol
# GULP energy per Si atom -5580.665105 kJ/mol
# Density = 1.837599 g / cm^3
# Si number density = 18.417910 Si / 1000 Ang^3
#
#
#
# Elastic Constant Matrix: (Units=GPa)
#
#
# Indices 1 2 3 4 5 6 
#
# 1 109.1878 37.2380 10.4755 0.0000 27.9562 0.0000
# 2 37.2380 57.0584 15.3603 0.0000 9.9888 0.0000
# 3 10.4755 15.3603 21.4356 0.0000 18.4948 0.0000
# 4 0.0000 0.0000 0.0000 -38.1618 0.0000 14.0410
# 5 27.9562 9.9888 18.4948 0.0000 26.0095 0.0000
# 6 0.0000 0.0000 0.0000 14.0410 0.0000 -3.5180
#
#
#
# Elastic Compliance Matrix: (Units=1/GPa)
#
#
# Indices 1 2 3 4 5 6 
#
# 1 0.025088 -0.020004 0.048417 0.000000 -0.053712 0.000000
# 2 -0.020004 0.038177 -0.060760 0.000000 0.050045 0.000000
# 3 0.048417 -0.060760 0.236233 0.000000 -0.196687 0.000000
# 4 0.000000 0.000000 0.000000 0.055933 0.000000 0.223240
# 5 -0.053712 0.050045 -0.196687 0.000000 0.216819 0.000000
# 6 0.000000 0.000000 0.000000 0.223240 0.000000 0.606741
#
#
# Mechanical properties :
#
#
# Convention : Reuss Voigt Hill
#
# Bulk Modulus (GPa) = 4.25889 34.86994 19.56441
# Shear Modulus (GPa) = 3.78228 5.17314 4.47771
#
# Velocity S-wave (km/s) = 1.43459 1.67775 1.56091
# Velocity P-wave (km/s) = 2.24977 4.76727 3.72749
#
# Compressibility (1/GPa) = 0.23480272
#
# Stress axis : x y z
#
# Youngs Moduli (GPa) = 39.85978 26.19377 4.23311
#
# Poissons Ratio (x) = 0.52399 -0.20496
# Poissons Ratio (y) = 0.79736 0.25721
# Poissons Ratio (z) = -1.92989 1.59154
#
# Static dielectric constant tensor:
#      x y z
#    x 1.663500 0.000000 0.017560 
#    y 0.000000 1.606880 0.000000 
#    z 0.017560 0.000000 1.633010 
# 
# From -- ./inp_files/54809.got.cif
#   From: 2010.05.17/outbox.cif.g08.bks.cpg/sg10_28_cif.got.tgz:54809.got - 2010.06.03 11:33:40.
