data_PCOD9146257
_publ_section_title
;
Structure prediction by ZEFSAII (Michael W. Deem and Ramdas Pophale) SiO2 
 PCOD9146257
Probable space group: P 2/M
;
_chemical_formula_sum "Si O2"
_cell_formula_units_Z 32
_cell_length_a 11.343312
_cell_length_b 7.452558
_cell_length_c 29.351862
_cell_angle_alpha 90.000000
_cell_angle_beta 149.454859
_cell_angle_gamma 90.000000
_cell_volume 1261.043675
_symmetry_space_group_name_H-M "P 2/M"
_symmetry_group_IT_number 10
_symmetry_cell_setting 'monoclinic'
loop_
_space_group_symop_operation_xyz
x,y,z
-x,y,-z
-x,-y,-z
x,-y,z
loop_
_atom_site_type_symbol
_atom_site_label
_atom_site_fract_x
_atom_site_fract_y
_atom_site_fract_z
Si Si1 0.799413 0.295490 0.402746
Si Si2 0.694332 0.296738 0.031895
Si Si3 0.505713 0.719530 0.224045
Si Si4 0.735884 0.712260 0.556735
Si Si5 0.998564 0.791039 0.212827
Si Si6 0.204289 0.283639 0.761142
Si Si7 0.005576 0.280605 0.948857
Si Si8 0.513392 0.785812 0.390119
O O1 0.875085 0.500000 0.417712
O O2 0.704355 0.216130 0.324595
O O3 0.584042 0.296381 0.365652
O O4 0.000000 0.208183 0.500000
O O5 0.611230 0.500000 0.994007
O O6 0.913203 0.303953 0.139011
O O7 0.790675 0.217607 0.016904
O O8 0.500000 0.209992 0.000000
O O9 0.508265 0.500000 0.226550
O O10 0.577755 0.772061 0.196941
O O11 0.249543 0.774512 0.153261
O O12 0.500000 0.789522 0.500000
O O13 0.738708 0.500000 0.566889
O O14 0.697841 0.735110 0.490316
O O15 0.971566 0.781810 0.657443
O O16 0.818029 0.771773 0.194132
O O17 0.250891 0.727876 0.314352
O O18 0.018965 0.000000 0.208294
O O19 0.204609 0.500000 0.761143
O O20 0.019336 0.500000 0.952540
O O21 0.000000 0.228649 0.000000
O O22 0.517666 0.000000 0.387916
#
# Coordination Sequence:
#
# PCOD9146257 Si02
#       8
#     4   4   4   4   4   4   4   4
#     4  10  20  36  58  82 111 149 197 249 298 350
#     4  10  22  39  64  94 117 147 195 244 294 357
#     4   9  18  32  54  82 113 148 186 238 297 347
#     4  10  19  33  53  80 111 148 194 247 298 341
#     4  11  24  39  56  83 120 159 194 235 294 352
#     4  10  20  35  58  85 113 150 199 246 291 346
#     4   9  18  33  56  89 122 146 177 234 301 352
#     4  11  23  36  54  80 115 157 197 237 289 357
#
# _framework density 25.375806000000001
#
# number of rings (size 3 to 8) (size 9 to 14) (size 15 to 20)
#    0.000    2.000    1.250    2.250    1.750    5.750 
#    0.000    0.625    0.000    1.125    0.000    0.000 
#    0.000    0.000    0.000    0.000    0.000    0.000 
#
# Total GULP energy -178929.271233 kJ/mol
# GULP energy per Si atom -5591.539726 kJ/mol
# Density = 2.531805 g / cm^3
# Si number density = 25.375806 Si / 1000 Ang^3
#
#
#
# Elastic Constant Matrix: (Units=GPa)
#
#
# Indices 1 2 3 4 5 6 
#
# 1 181.0981 -0.3329 36.4625 0.0000 1.4091 0.0000
# 2 -0.3329 82.1376 -0.6797 0.0000 7.4697 0.0000
# 3 36.4625 -0.6797 89.5816 0.0000 -7.2269 0.0000
# 4 0.0000 0.0000 0.0000 -134.0138 0.0000 -20.8433
# 5 1.4091 7.4697 -7.2269 0.0000 43.9485 0.0000
# 6 0.0000 0.0000 0.0000 -20.8433 0.0000 57.7715
#
#
#
# Elastic Compliance Matrix: (Units=1/GPa)
#
#
# Indices 1 2 3 4 5 6 
#
# 1 0.006031 0.000060 -0.002504 0.000000 -0.000615 0.000000
# 2 0.000060 0.012367 -0.000102 0.000000 -0.002121 0.000000
# 3 -0.002504 -0.000102 0.012353 0.000000 0.002129 0.000000
# 4 0.000000 0.000000 0.000000 -0.007065 0.000000 -0.002549
# 5 -0.000615 -0.002121 0.002129 0.000000 0.023484 0.000000
# 6 0.000000 0.000000 0.000000 -0.002549 0.000000 0.016390
#
#
# Mechanical properties :
#
#
# Convention : Reuss Voigt Hill
#
# Bulk Modulus (GPa) = 38.97206 47.07969 43.02588
# Shear Modulus (GPa) = 64.76320 14.69906 39.73113
#
# Velocity S-wave (km/s) = 5.05737 2.40938 3.96120
# Velocity P-wave (km/s) = 7.03520 5.13161 6.15741
#
# Compressibility (1/GPa) = 0.02565941
#
# Stress axis : x y z
#
# Youngs Moduli (GPa) = 165.81237 80.86074 80.95089
#
# Poissons Ratio (x) = -0.00483 0.20270
# Poissons Ratio (y) = -0.00989 0.00822
# Poissons Ratio (z) = 0.41519 0.00821
#
# Static dielectric constant tensor:
#      x y z
#    x 2.006260 0.000000 0.031090 
#    y 0.000000 1.957590 0.000000 
#    z 0.031090 0.000000 2.002830 
# 
# From -- ./inp_files/95037.got.cif
#   From: 2010.05.17/outbox.cif.g08.bks.cpg/sg10_48_cif.got.tgz:95037.got - 2010.06.03 11:33:40.
