data_PCOD9146879
_publ_section_title
;
Structure prediction by ZEFSAII (Michael W. Deem and Ramdas Pophale) SiO2 
 PCOD9146879
Probable space group: P 2/M
;
_chemical_formula_sum "Si O2"
_cell_formula_units_Z 32
_cell_length_a 15.680368
_cell_length_b 14.041156
_cell_length_c 9.836815
_cell_angle_alpha 90.000000
_cell_angle_beta 119.247998
_cell_angle_gamma 90.000000
_cell_volume 1889.668246
_symmetry_space_group_name_H-M "P 2/M"
_symmetry_group_IT_number 10
_symmetry_cell_setting 'monoclinic'
loop_
_space_group_symop_operation_xyz
x,y,z
-x,y,-z
-x,-y,-z
x,-y,z
loop_
_atom_site_type_symbol
_atom_site_label
_atom_site_fract_x
_atom_site_fract_y
_atom_site_fract_z
Si Si1 0.966866 0.885004 0.327105
Si Si2 0.405037 0.807854 0.827816
Si Si3 0.253717 0.113970 0.923409
Si Si4 0.906293 0.891188 0.830868
Si Si5 0.724565 0.216298 0.778646
Si Si6 0.590711 0.890494 0.466945
Si Si7 0.442690 0.396993 0.814894
Si Si8 0.415833 0.388788 0.328151
O O1 0.858677 0.855279 0.193241
O O2 0.000000 0.848544 0.500000
O O3 0.051386 0.866206 0.283601
O O4 0.959659 0.000000 0.329991
O O5 0.319624 0.859708 0.844590
O O6 0.428688 0.853271 0.699886
O O7 0.378593 0.697604 0.775742
O O8 0.500000 0.810143 0.000000
O O9 0.255679 0.000000 0.947659
O O10 0.294669 0.165874 0.090411
O O11 0.836312 0.810221 0.835270
O O12 0.862704 0.000000 0.796278
O O13 0.000000 0.897552 0.000000
O O14 0.672471 0.167755 0.609314
O O15 0.678518 0.321558 0.746412
O O16 0.500000 0.884807 0.500000
O O17 0.620111 0.000000 0.477822
O O18 0.394626 0.500000 0.749386
O O19 0.526651 0.382055 0.768538
O O20 0.500000 0.403475 0.000000
O O21 0.500000 0.357074 0.500000
O O22 0.392966 0.500000 0.337833
#
# Coordination Sequence:
#
# PCOD9146879 Si02
#       8
#     4   4   4   4   4   4   4   4
#     4   9  19  35  53  74 104 142 184 225 263 308
#     4  11  22  35  50  73 106 142 179 220 269 325
#     4  11  22  35  52  77 111 150 183 221 270 324
#     4  10  19  34  54  79 109 145 184 221 265 319
#     4  12  21  34  57  81 106 139 185 227 272 325
#     4  11  23  35  48  72 107 144 178 213 259 324
#     4   9  17  32  53  73  96 129 172 221 266 309
#     4  10  21  38  58  80 108 139 176 228 282 330
#
# _framework density 16.934189
#
# number of rings (size 3 to 8) (size 9 to 14) (size 15 to 20)
#    0.000    1.625    1.250    5.625    1.750    2.000 
#    0.000    0.000    0.000    0.375    0.000    0.000 
#    0.000    2.500    0.000    0.000    0.000    0.000 
#
# Total GULP energy -178369.678649 kJ/mol
# GULP energy per Si atom -5574.052458 kJ/mol
# Density = 1.689565 g / cm^3
# Si number density = 16.934189 Si / 1000 Ang^3
#
#
#
# Elastic Constant Matrix: (Units=GPa)
#
#
# Indices 1 2 3 4 5 6 
#
# 1 62.0526 24.1150 33.9858 0.0000 -10.4140 0.0000
# 2 24.1150 86.8215 28.2258 0.0000 1.2350 0.0000
# 3 33.9858 28.2258 93.8215 0.0000 -22.7385 0.0000
# 4 0.0000 0.0000 0.0000 21.6161 0.0000 8.1233
# 5 -10.4140 1.2350 -22.7385 0.0000 32.6484 0.0000
# 6 0.0000 0.0000 0.0000 8.1233 0.0000 54.8606
#
#
#
# Elastic Compliance Matrix: (Units=1/GPa)
#
#
# Indices 1 2 3 4 5 6 
#
# 1 0.021375 -0.004093 -0.005801 0.000000 0.002933 0.000000
# 2 -0.004093 0.013954 -0.003801 0.000000 -0.004481 0.000000
# 3 -0.005801 -0.003801 0.016229 0.000000 0.009597 0.000000
# 4 0.000000 0.000000 0.000000 0.048988 0.000000 -0.007254
# 5 0.002933 -0.004481 0.009597 0.000000 0.038418 0.000000
# 6 0.000000 0.000000 0.000000 -0.007254 0.000000 0.019302
#
#
# Mechanical properties :
#
#
# Convention : Reuss Voigt Hill
#
# Bulk Modulus (GPa) = 41.37624 46.14987 43.76305
# Shear Modulus (GPa) = 25.81132 32.24962 29.03047
#
# Velocity S-wave (km/s) = 3.90835 4.36869 4.14492
# Velocity P-wave (km/s) = 6.69728 7.26353 6.98615
#
# Compressibility (1/GPa) = 0.02416846
#
# Stress axis : x y z
#
# Youngs Moduli (GPa) = 46.78306 71.66241 61.61692
#
# Poissons Ratio (x) = 0.29331 0.35743
# Poissons Ratio (y) = 0.19148 0.23424
# Poissons Ratio (z) = 0.27138 0.27242
#
# Static dielectric constant tensor:
#      x y z
#    x 1.478010 0.000000 -0.059420 
#    y 0.000000 1.604080 0.000000 
#    z -0.059420 0.000000 1.562670 
# 
# From -- ./inp_files/29546.got.cif
#   From: 2010.05.17/outbox.cif.g08.bks.cpg/sg10_15_cif.got.tgz:29546.got - 2010.06.03 11:33:40.
