data_PCOD9146020
_publ_section_title
;
Structure prediction by ZEFSAII (Michael W. Deem and Ramdas Pophale) SiO2 
 PCOD9146020
Probable space group: P 2/M
;
_chemical_formula_sum "Si O2"
_cell_formula_units_Z 28
_cell_length_a 16.416420
_cell_length_b 13.267035
_cell_length_c 6.986644
_cell_angle_alpha 90.000000
_cell_angle_beta 45.781361
_cell_angle_gamma 90.000000
_cell_volume 1090.557367
_symmetry_space_group_name_H-M "P 2/M"
_symmetry_group_IT_number 10
_symmetry_cell_setting 'monoclinic'
loop_
_space_group_symop_operation_xyz
x,y,z
-x,y,-z
-x,-y,-z
x,-y,z
loop_
_atom_site_type_symbol
_atom_site_label
_atom_site_fract_x
_atom_site_fract_y
_atom_site_fract_z
Si Si1 0.410201 0.330280 0.900143
Si Si2 0.107842 0.355661 0.700511
Si Si3 0.754919 0.888257 0.275866
Si Si4 0.830747 0.389674 0.836217
Si Si5 0.344106 0.324745 0.436358
Si Si6 0.400170 0.106422 0.821500
Si Si7 0.969921 0.193879 0.754795
O O1 0.541525 0.352869 0.635922
O O2 0.406827 0.208985 0.921946
O O3 0.304782 0.366715 0.944585
O O4 0.379512 0.360065 0.165709
O O5 0.132147 0.395882 0.448796
O O6 0.217975 0.369859 0.653170
O O7 0.078737 0.239184 0.686891
O O8 0.000000 0.388894 0.000000
O O9 0.686325 0.794747 0.483558
O O10 0.710585 0.889565 0.128896
O O11 0.732157 0.000000 0.395410
O O12 0.888019 0.869637 0.023419
O O13 0.855252 0.500000 0.876648
O O14 0.897774 0.295222 0.814429
O O15 0.500000 0.107464 0.500000
O O16 0.406195 0.000000 0.917714
O O17 0.000000 0.146246 0.500000
#
# Coordination Sequence:
#
# PCOD9146020 Si02
#       7
#     4   4   4   4   4   4   4
#     4  10  20  37  60  84 121 160 191 239 295 348
#     4  10  20  37  61  85 115 154 196 236 290 349
#     4  11  21  35  58  88 120 155 198 243 286 341
#     4  10  22  40  63  89 112 148 198 247 301 348
#     4  10  21  36  56  86 120 160 193 229 293 351
#     4  10  19  32  55  86 114 149 197 242 283 337
#     4  10  21  38  62  84 117 156 194 247 292 345
#
# _framework density 25.674942999999999
#
# number of rings (size 3 to 8) (size 9 to 14) (size 15 to 20)
#    0.000    1.857    4.286    0.000    0.000    3.714 
#    0.000    8.571    0.000    3.857    0.000    0.000 
#    0.000    0.000    0.000    0.000    0.000    0.000 
#
# Total GULP energy -156295.851513 kJ/mol
# GULP energy per Si atom -5581.994697 kJ/mol
# Density = 2.561651 g / cm^3
# Si number density = 25.674943 Si / 1000 Ang^3
#
#
#
# Elastic Constant Matrix: (Units=GPa)
#
#
# Indices 1 2 3 4 5 6 
#
# 1 97.9917 0.5194 30.9475 0.0000 -29.7785 0.0000
# 2 0.5194 63.0535 11.9175 0.0000 -5.1556 0.0000
# 3 30.9475 11.9175 148.8104 0.0000 -20.9762 0.0000
# 4 0.0000 0.0000 0.0000 1.5737 0.0000 7.9681
# 5 -29.7785 -5.1556 -20.9762 0.0000 49.5849 0.0000
# 6 0.0000 0.0000 0.0000 7.9681 0.0000 -2.9490
#
#
#
# Elastic Compliance Matrix: (Units=1/GPa)
#
#
# Indices 1 2 3 4 5 6 
#
# 1 0.012910 0.000804 -0.001749 0.000000 0.007097 0.000000
# 2 0.000804 0.016221 -0.001234 0.000000 0.001648 0.000000
# 3 -0.001749 -0.001234 0.007461 0.000000 0.001978 0.000000
# 4 0.000000 0.000000 0.000000 0.043285 0.000000 0.116952
# 5 0.007097 0.001648 0.001978 0.000000 0.025437 0.000000
# 6 0.000000 0.000000 0.000000 0.116952 0.000000 -0.023098
#
#
# Mechanical properties :
#
#
# Convention : Reuss Voigt Hill
#
# Bulk Modulus (GPa) = 31.02234 44.06937 37.54586
# Shear Modulus (GPa) = 51.37803 27.40666 39.39234
#
# Velocity S-wave (km/s) = 4.47821 3.27073 3.92123
# Velocity P-wave (km/s) = 6.23283 5.60938 5.92930
#
# Compressibility (1/GPa) = 0.03223483
#
# Stress axis : x y z
#
# Youngs Moduli (GPa) = 77.46172 61.64889 134.02530
#
# Poissons Ratio (x) = -0.04959 0.23439
# Poissons Ratio (y) = -0.06231 0.16540
# Poissons Ratio (z) = 0.13547 0.07608
#
# Static dielectric constant tensor:
#      x y z
#    x 2.091870 0.000000 -0.042380 
#    y 0.000000 2.032390 0.000000 
#    z -0.042380 0.000000 2.054710 
# 
# From -- ./inp_files/32770.got.cif
#   From: 2010.05.17/outbox.cif.g08.bks.cpg/sg10_17_cif.got.tgz:32770.got - 2010.06.03 11:33:40.
