data_PCOD9146259
_publ_section_title
;
Structure prediction by ZEFSAII (Michael W. Deem and Ramdas Pophale) SiO2 
 PCOD9146259
Probable space group: P 2/M
;
_chemical_formula_sum "Si O2"
_cell_formula_units_Z 24
_cell_length_a 9.308329
_cell_length_b 14.584836
_cell_length_c 14.862074
_cell_angle_alpha 90.000000
_cell_angle_beta 40.986228
_cell_angle_gamma 90.000000
_cell_volume 1323.352357
_symmetry_space_group_name_H-M "P 2/M"
_symmetry_group_IT_number 10
_symmetry_cell_setting 'monoclinic'
loop_
_space_group_symop_operation_xyz
x,y,z
-x,y,-z
-x,-y,-z
x,-y,z
loop_
_atom_site_type_symbol
_atom_site_label
_atom_site_fract_x
_atom_site_fract_y
_atom_site_fract_z
Si Si1 0.209509 0.717682 0.335109
Si Si2 0.925634 0.773625 0.891516
Si Si3 0.585584 0.103613 0.552293
Si Si4 0.362408 0.776353 0.799333
Si Si5 0.901849 0.893721 0.725005
Si Si6 0.240318 0.395547 0.142718
O O1 0.442334 0.704193 0.274906
O O2 0.217145 0.817215 0.280323
O O3 0.191514 0.642380 0.265429
O O4 0.000000 0.716369 0.500000
O O5 0.913214 0.851810 0.820585
O O6 0.864655 0.677719 0.874604
O O7 0.160933 0.759294 0.826830
O O8 0.752402 0.796687 0.051620
O O9 0.500000 0.149615 0.500000
O O10 0.493798 0.144953 0.686168
O O11 0.846859 0.105551 0.427413
O O12 0.503134 0.000000 0.588447
O O13 0.822826 0.000000 0.759761
O O14 0.165218 0.500000 0.166848
O O15 0.500000 0.392759 0.000000
#
# Coordination Sequence:
#
# PCOD9146259 Si02
#       6
#     4   4   4   4   4   4
#     4  11  22  37  60  87 118 149 190 239 283 338
#     4  10  22  38  59  83 119 149 191 235 284 348
#     4  10  19  33  53  80 115 159 202 231 276 335
#     4  11  21  36  55  87 115 151 187 238 288 330
#     4  10  21  36  55  82 116 158 198 236 279 331
#     4  10  21  42  66  85 112 149 187 231 288 351
#
# _framework density 18.135759
#
# number of rings (size 3 to 8) (size 9 to 14) (size 15 to 20)
#    0.000    1.667    5.000    0.000    0.000    2.000 
#    0.000    5.000    0.000    1.000    0.000    0.000 
#    0.000    0.000    0.000    0.000    0.000    0.000 
#
# Total GULP energy -133732.234525 kJ/mol
# GULP energy per Si atom -5572.176439 kJ/mol
# Density = 1.809448 g / cm^3
# Si number density = 18.135759 Si / 1000 Ang^3
#
#
#
# Elastic Constant Matrix: (Units=GPa)
#
#
# Indices 1 2 3 4 5 6 
#
# 1 58.3226 12.9484 41.5772 0.0000 13.2665 0.0000
# 2 12.9484 97.5980 35.9748 0.0000 22.7802 0.0000
# 3 41.5772 35.9748 117.1046 0.0000 21.3815 0.0000
# 4 0.0000 0.0000 0.0000 19.6641 0.0000 0.5026
# 5 13.2665 22.7802 21.3815 0.0000 29.8749 0.0000
# 6 0.0000 0.0000 0.0000 0.5026 0.0000 11.6626
#
#
#
# Elastic Compliance Matrix: (Units=1/GPa)
#
#
# Indices 1 2 3 4 5 6 
#
# 1 0.023712 0.001045 -0.007675 0.000000 -0.005834 0.000000
# 2 0.001045 0.013130 -0.002866 0.000000 -0.008425 0.000000
# 3 -0.007675 -0.002866 0.012795 0.000000 -0.003564 0.000000
# 4 0.000000 0.000000 0.000000 0.050910 0.000000 -0.002194
# 5 -0.005834 -0.008425 -0.003564 0.000000 0.045038 0.000000
# 6 0.000000 0.000000 0.000000 -0.002194 0.000000 0.085839
#
#
# Mechanical properties :
#
#
# Convention : Reuss Voigt Hill
#
# Bulk Modulus (GPa) = 32.63146 50.44734 41.53940
# Shear Modulus (GPa) = 19.18405 24.40864 21.79634
#
# Velocity S-wave (km/s) = 3.25592 3.67261 3.47052
# Velocity P-wave (km/s) = 5.67156 6.77207 6.24610
#
# Compressibility (1/GPa) = 0.03064527
#
# Stress axis : x y z
#
# Youngs Moduli (GPa) = 42.17249 76.15884 78.15264
#
# Poissons Ratio (x) = -0.07955 0.59979
# Poissons Ratio (y) = -0.04405 0.22401
# Poissons Ratio (z) = 0.32366 0.21830
#
# Static dielectric constant tensor:
#      x y z
#    x 1.714080 0.000000 0.005600 
#    y 0.000000 1.605130 0.000000 
#    z 0.005600 0.000000 1.615440 
# 
# From -- ./inp_files/29240.got.cif
#   From: 2010.05.17/outbox.cif.g08.bks.cpg/sg10_15_cif.got.tgz:29240.got - 2010.06.03 11:33:40.
