data_PCOD9146387
_publ_section_title
;
Structure prediction by ZEFSAII (Michael W. Deem and Ramdas Pophale) SiO2 
 PCOD9146387
Probable space group: P 2/M
;
_chemical_formula_sum "Si O2"
_cell_formula_units_Z 32
_cell_length_a 18.499420
_cell_length_b 15.181684
_cell_length_c 11.844851
_cell_angle_alpha 90.000000
_cell_angle_beta 149.133434
_cell_angle_gamma 90.000000
_cell_volume 1706.708196
_symmetry_space_group_name_H-M "P 2/M"
_symmetry_group_IT_number 10
_symmetry_cell_setting 'monoclinic'
loop_
_space_group_symop_operation_xyz
x,y,z
-x,y,-z
-x,-y,-z
x,-y,z
loop_
_atom_site_type_symbol
_atom_site_label
_atom_site_fract_x
_atom_site_fract_y
_atom_site_fract_z
Si Si1 0.651761 0.721281 0.257175
Si Si2 0.092583 0.779153 0.520885
Si Si3 0.196835 0.397530 0.365807
Si Si4 0.270130 0.099569 0.898781
Si Si5 0.646662 0.897371 0.631493
Si Si6 0.404270 0.901969 0.704377
Si Si7 0.133159 0.397196 0.020030
Si Si8 0.824262 0.782281 0.024273
O O1 0.777854 0.716705 0.336101
O O2 0.694508 0.661071 0.419584
O O3 0.656055 0.821818 0.306562
O O4 0.500000 0.702631 0.000000
O O5 0.157147 0.869525 0.655761
O O6 0.000000 0.741598 0.500000
O O7 0.987892 0.794736 0.276571
O O8 0.229415 0.500000 0.427076
O O9 0.036105 0.384044 0.194279
O O10 0.193656 0.381841 0.227182
O O11 0.257566 0.170836 0.982192
O O12 0.245139 0.000000 0.906419
O O13 0.426452 0.102271 0.058470
O O14 0.500000 0.876180 0.500000
O O15 0.626546 0.890688 0.470294
O O16 0.677690 0.000000 0.699365
O O17 0.768409 0.834123 0.840543
O O18 0.357496 0.000000 0.676437
O O19 0.157429 0.500000 0.022281
O O20 0.193509 0.322043 0.019140
#
# Coordination Sequence:
#
# PCOD9146387 Si02
#       8
#     4   4   4   4   4   4   4   4
#     4  12  22  37  62  87 117 154 199 252 296 344
#     4  10  23  38  54  84 119 151 195 247 294 352
#     4   9  19  37  60  87 116 148 190 240 302 364
#     4  10  20  36  56  81 115 158 202 240 283 345
#     4  10  19  33  54  83 117 154 195 237 292 356
#     4  10  21  36  54  82 117 153 197 239 288 352
#     4   9  18  35  60  86 115 151 191 241 299 363
#     4  11  19  33  60  83 112 151 200 240 289 344
#
# _framework density 18.749545000000001
#
# number of rings (size 3 to 8) (size 9 to 14) (size 15 to 20)
#    0.000    1.875    3.750    1.875    0.000    3.750 
#    0.000    0.000    0.000    9.375    0.000    0.000 
#    0.000    0.000    0.000    0.000    0.000    0.000 
#
# Total GULP energy -178503.225266 kJ/mol
# GULP energy per Si atom -5578.225790 kJ/mol
# Density = 1.870687 g / cm^3
# Si number density = 18.749545 Si / 1000 Ang^3
#
#
#
# Elastic Constant Matrix: (Units=GPa)
#
#
# Indices 1 2 3 4 5 6 
#
# 1 46.3463 41.4058 22.9258 0.0000 -1.2634 0.0000
# 2 41.4058 119.6864 50.6724 0.0000 -18.3730 0.0000
# 3 22.9258 50.6724 126.9264 0.0000 -14.4826 0.0000
# 4 0.0000 0.0000 0.0000 22.8541 0.0000 -5.4631
# 5 -1.2634 -18.3730 -14.4826 0.0000 20.8886 0.0000
# 6 0.0000 0.0000 0.0000 -5.4631 0.0000 27.0780
#
#
#
# Elastic Compliance Matrix: (Units=1/GPa)
#
#
# Indices 1 2 3 4 5 6 
#
# 1 0.033255 -0.012081 -0.002352 0.000000 -0.010246 0.000000
# 2 -0.012081 0.015352 -0.002703 0.000000 0.010899 0.000000
# 3 -0.002352 -0.002703 0.009877 0.000000 0.004328 0.000000
# 4 0.000000 0.000000 0.000000 0.045973 0.000000 0.009275
# 5 -0.010246 0.010899 0.004328 0.000000 0.059840 0.000000
# 6 0.000000 0.000000 0.000000 0.009275 0.000000 0.038802
#
#
# Mechanical properties :
#
#
# Convention : Reuss Voigt Hill
#
# Bulk Modulus (GPa) = 41.30683 58.10745 49.70714
# Shear Modulus (GPa) = 20.37140 26.02779 23.19960
#
# Velocity S-wave (km/s) = 3.29979 3.72987 3.52140
# Velocity P-wave (km/s) = 6.04953 7.04329 6.56524
#
# Compressibility (1/GPa) = 0.02420907
#
# Stress axis : x y z
#
# Youngs Moduli (GPa) = 30.07096 65.13656 101.25036
#
# Poissons Ratio (x) = 0.78695 0.23818
# Poissons Ratio (y) = 0.36330 0.27371
# Poissons Ratio (z) = 0.07074 0.17609
#
# Static dielectric constant tensor:
#      x y z
#    x 1.682640 0.000000 -0.012600 
#    y 0.000000 1.640160 0.000000 
#    z -0.012600 0.000000 1.667900 
# 
# From -- ./inp_files/54052.got.cif
#   From: 2010.05.17/outbox.cif.g08.bks.cpg/sg10_28_cif.got.tgz:54052.got - 2010.06.03 11:33:40.
