data_PCOD9146931
_publ_section_title
;
Structure prediction by ZEFSAII (Michael W. Deem and Ramdas Pophale) SiO2 
 PCOD9146931
Probable space group: P 2/M
;
_chemical_formula_sum "Si O2"
_cell_formula_units_Z 32
_cell_length_a 27.492139
_cell_length_b 7.568350
_cell_length_c 21.140609
_cell_angle_alpha 90.000000
_cell_angle_beta 159.796937
_cell_angle_gamma 90.000000
_cell_volume 1519.093982
_symmetry_space_group_name_H-M "P 2/M"
_symmetry_group_IT_number 10
_symmetry_cell_setting 'monoclinic'
loop_
_space_group_symop_operation_xyz
x,y,z
-x,y,-z
-x,-y,-z
x,-y,z
loop_
_atom_site_type_symbol
_atom_site_label
_atom_site_fract_x
_atom_site_fract_y
_atom_site_fract_z
Si Si1 0.159524 0.211779 0.868270
Si Si2 0.980052 0.210824 0.173737
Si Si3 0.467857 0.794221 0.217430
Si Si4 0.291180 0.787934 0.578876
Si Si5 0.722007 0.711550 0.781111
Si Si6 0.528621 0.285648 0.432922
Si Si7 0.065453 0.287575 0.514717
Si Si8 0.654159 0.712739 0.207454
O O1 0.104376 0.282023 0.868148
O O2 0.041438 0.247012 0.672260
O O3 0.175511 0.000000 0.894863
O O4 0.311037 0.284129 0.031720
O O5 0.139543 0.279625 0.369566
O O6 0.990657 0.000000 0.194728
O O7 0.880793 0.242041 0.992522
O O8 0.576883 0.716348 0.300098
O O9 0.531489 0.783170 0.365521
O O10 0.449409 0.000000 0.177546
O O11 0.309120 0.753669 0.675103
O O12 0.290322 0.000000 0.568924
O O13 0.711411 0.500000 0.767861
O O14 0.614017 0.772794 0.704512
O O15 0.656921 0.771098 0.634956
O O16 0.527194 0.500000 0.428108
O O17 0.076078 0.500000 0.533299
O O18 0.219918 0.220858 0.683752
O O19 0.000000 0.218643 0.500000
O O20 0.651375 0.500000 0.198341
O O21 0.500000 0.779699 0.000000
#
# Coordination Sequence:
#
# PCOD9146931 Si02
#       8
#     4   4   4   4   4   4   4   4
#     4  10  20  35  55  80 107 136 179 225 261 307
#     4  10  19  34  55  79 105 138 179 221 262 310
#     4  10  21  36  54  79 109 140 177 221 265 312
#     4  10  22  39  56  77 109 143 176 217 265 317
#     4   9  18  32  53  80 109 140 176 219 266 314
#     4   9  18  33  52  79 111 140 175 220 266 313
#     4  10  22  38  56  81 110 139 174 218 266 313
#     4  10  22  39  57  79 108 141 178 217 259 315
#
# _framework density 21.065189
#
# number of rings (size 3 to 8) (size 9 to 14) (size 15 to 20)
#    0.000    2.250    2.500    0.750    1.750    3.000 
#    0.000    1.875    0.000    3.750    0.000    0.000 
#    0.000    0.000    0.000    0.000    0.000    0.000 
#
# Total GULP energy -178662.988879 kJ/mol
# GULP energy per Si atom -5583.218402 kJ/mol
# Density = 2.101724 g / cm^3
# Si number density = 21.065189 Si / 1000 Ang^3
#
#
#
# Elastic Constant Matrix: (Units=GPa)
#
#
# Indices 1 2 3 4 5 6 
#
# 1 78.2989 -3.1273 48.2954 0.0000 29.8854 0.0000
# 2 -3.1273 47.8480 -0.6741 0.0000 14.7352 0.0000
# 3 48.2954 -0.6741 166.0004 0.0000 22.6154 0.0000
# 4 0.0000 0.0000 0.0000 14.5878 0.0000 -12.1067
# 5 29.8854 14.7352 22.6154 0.0000 34.1064 0.0000
# 6 0.0000 0.0000 0.0000 -12.1067 0.0000 12.4125
#
#
#
# Elastic Compliance Matrix: (Units=1/GPa)
#
#
# Indices 1 2 3 4 5 6 
#
# 1 0.023875 0.008241 -0.003933 0.000000 -0.021873 0.000000
# 2 0.008241 0.027379 0.000340 0.000000 -0.019275 0.000000
# 3 -0.003933 0.000340 0.007387 0.000000 -0.001599 0.000000
# 4 0.000000 0.000000 0.000000 0.359797 0.000000 0.350933
# 5 -0.021873 -0.019275 -0.001599 0.000000 0.057874 0.000000
# 6 0.000000 0.000000 0.000000 0.350933 0.000000 0.422850
#
#
# Mechanical properties :
#
#
# Convention : Reuss Voigt Hill
#
# Bulk Modulus (GPa) = 14.71954 42.34837 28.53395
# Shear Modulus (GPa) = 5.47938 28.73155 17.10547
#
# Velocity S-wave (km/s) = 1.61456 3.69716 2.85270
# Velocity P-wave (km/s) = 3.23705 6.19455 4.94221
#
# Compressibility (1/GPa) = 0.06793692
#
# Stress axis : x y z
#
# Youngs Moduli (GPa) = 41.88482 36.52463 135.36381
#
# Poissons Ratio (x) = -0.30100 0.53235
# Poissons Ratio (y) = -0.34517 -0.04596
# Poissons Ratio (z) = 0.16472 -0.01240
#
# Static dielectric constant tensor:
#      x y z
#    x 1.736990 0.000000 0.027580 
#    y 0.000000 1.780810 0.000000 
#    z 0.027580 0.000000 1.764980 
# 
# From -- ./inp_files/85751.got.cif
#   From: 2010.05.17/outbox.cif.g08.bks.cpg/sg10_43_cif.got.tgz:85751.got - 2010.06.03 11:33:40.
