data_PCOD9146251
_publ_section_title
;
Structure prediction by ZEFSAII (Michael W. Deem and Ramdas Pophale) SiO2 
 PCOD9146251
Probable space group: P 2/M
;
_chemical_formula_sum "Si O2"
_cell_formula_units_Z 28
_cell_length_a 25.790405
_cell_length_b 9.081906
_cell_length_c 9.838980
_cell_angle_alpha 90.000000
_cell_angle_beta 40.898446
_cell_angle_gamma 90.000000
_cell_volume 1508.832596
_symmetry_space_group_name_H-M "P 2/M"
_symmetry_group_IT_number 10
_symmetry_cell_setting 'monoclinic'
loop_
_space_group_symop_operation_xyz
x,y,z
-x,y,-z
-x,-y,-z
x,-y,z
loop_
_atom_site_type_symbol
_atom_site_label
_atom_site_fract_x
_atom_site_fract_y
_atom_site_fract_z
Si Si1 0.083929 0.172233 0.270324
Si Si2 0.818114 0.327241 0.149613
Si Si3 0.180359 0.828929 0.354098
Si Si4 0.492554 0.168906 0.679699
Si Si5 0.085096 0.673811 0.771029
Si Si6 0.668334 0.823288 0.320441
Si Si7 0.665577 0.674824 0.027975
O O1 0.114001 0.269553 0.086966
O O2 0.147372 0.182067 0.266111
O O3 0.000000 0.217183 0.500000
O O4 0.077781 0.000000 0.241141
O O5 0.803678 0.500000 0.153668
O O6 0.850435 0.308460 0.237376
O O7 0.739449 0.236153 0.270823
O O8 0.113866 0.766004 0.585870
O O9 0.195685 0.000000 0.352609
O O10 0.260778 0.736224 0.203389
O O11 0.500000 0.171615 0.500000
O O12 0.580719 0.209587 0.553138
O O13 0.419123 0.271594 0.861141
O O14 0.475000 0.000000 0.752956
O O15 0.079862 0.500000 0.746159
O O16 0.000000 0.718450 0.000000
O O17 0.673413 0.746810 0.162711
O O18 0.673764 0.000000 0.291399
O O19 0.668541 0.500000 0.032665
#
# Coordination Sequence:
#
# PCOD9146251 Si02
#       7
#     4   4   4   4   4   4   4
#     4  10  21  36  55  80 109 141 180 231 283 331
#     4  11  22  35  56  83 110 146 186 230 283 335
#     4  11  22  36  57  82 111 148 188 231 277 331
#     4   8  16  30  49  75 110 148 182 220 271 328
#     4  10  23  42  59  79 111 149 189 233 282 338
#     4  10  19  33  53  79 113 149 184 227 275 328
#     4  11  20  31  52  82 115 147 182 227 277 328
#
# _framework density 18.557393000000001
#
# number of rings (size 3 to 8) (size 9 to 14) (size 15 to 20)
#    0.000    1.857    1.429    4.286    0.000    5.429 
#    0.000    0.000    0.000    0.857    0.000    6.000 
#    0.000    0.000    0.000    0.000    0.000    0.000 
#
# Total GULP energy -156350.464027 kJ/mol
# GULP energy per Si atom -5583.945144 kJ/mol
# Density = 1.851516 g / cm^3
# Si number density = 18.557393 Si / 1000 Ang^3
#
#
#
# Elastic Constant Matrix: (Units=GPa)
#
#
# Indices 1 2 3 4 5 6 
#
# 1 33.6113 16.0607 0.7928 0.0000 -21.7661 0.0000
# 2 16.0607 80.2851 27.7168 0.0000 -9.8806 0.0000
# 3 0.7928 27.7168 45.4331 0.0000 -17.5544 0.0000
# 4 0.0000 0.0000 0.0000 27.0361 0.0000 -7.7516
# 5 -21.7661 -9.8806 -17.5544 0.0000 36.4541 0.0000
# 6 0.0000 0.0000 0.0000 -7.7516 0.0000 28.8280
#
#
#
# Elastic Compliance Matrix: (Units=1/GPa)
#
#
# Indices 1 2 3 4 5 6 
#
# 1 0.071703 -0.018308 0.030153 0.000000 0.052370 0.000000
# 2 -0.018308 0.020459 -0.017499 0.000000 -0.013813 0.000000
# 3 0.030153 -0.017499 0.045806 0.000000 0.035318 0.000000
# 4 0.000000 0.000000 0.000000 0.040077 0.000000 0.010776
# 5 0.052370 -0.013813 0.035318 0.000000 0.071965 0.000000
# 6 0.000000 0.000000 0.000000 0.010776 0.000000 0.037586
#
#
# Mechanical properties :
#
#
# Convention : Reuss Voigt Hill
#
# Bulk Modulus (GPa) = 7.89518 27.60777 17.75148
# Shear Modulus (GPa) = 14.65736 26.11427 20.38582
#
# Velocity S-wave (km/s) = 2.81346 3.75536 3.31800
# Velocity P-wave (km/s) = 3.84938 5.80628 4.92598
#
# Compressibility (1/GPa) = 0.12665957
#
# Stress axis : x y z
#
# Youngs Moduli (GPa) = 13.94634 48.87748 21.83129
#
# Poissons Ratio (x) = 0.89487 -0.65827
# Poissons Ratio (y) = 0.25534 0.38202
# Poissons Ratio (z) = -0.42052 0.85530
#
# Static dielectric constant tensor:
#      x y z
#    x 1.658630 0.000000 -0.030210 
#    y 0.000000 1.619490 0.000000 
#    z -0.030210 0.000000 1.634610 
# 
# From -- ./inp_files/36953.got.cif
#   From: 2010.05.17/outbox.cif.g08.bks.cpg/sg10_19_cif.got.tgz:36953.got - 2010.06.03 11:33:40.
