data_PCOD9146653
_publ_section_title
;
Structure prediction by ZEFSAII (Michael W. Deem and Ramdas Pophale) SiO2 
 PCOD9146653
Probable space group: P 2/M
;
_chemical_formula_sum "Si O2"
_cell_formula_units_Z 28
_cell_length_a 14.120541
_cell_length_b 7.762539
_cell_length_c 17.741639
_cell_angle_alpha 90.000000
_cell_angle_beta 39.626819
_cell_angle_gamma 90.000000
_cell_volume 1240.288981
_symmetry_space_group_name_H-M "P 2/M"
_symmetry_group_IT_number 10
_symmetry_cell_setting 'monoclinic'
loop_
_space_group_symop_operation_xyz
x,y,z
-x,y,-z
-x,-y,-z
x,-y,z
loop_
_atom_site_type_symbol
_atom_site_label
_atom_site_fract_x
_atom_site_fract_y
_atom_site_fract_z
Si Si1 0.179884 0.290239 0.668601
Si Si2 0.328545 0.205407 0.115835
Si Si3 0.688839 0.290037 0.562783
Si Si4 0.167889 0.291629 0.372996
Si Si5 0.169171 0.802098 0.907251
Si Si6 0.594711 0.304183 0.349624
Si Si7 0.860602 0.702263 0.913460
O O1 0.180939 0.500000 0.673531
O O2 0.186757 0.248911 0.576048
O O3 0.326738 0.230309 0.623718
O O4 0.027356 0.227923 0.798224
O O5 0.243201 0.244486 0.246936
O O6 0.232123 0.275222 0.105467
O O7 0.333040 0.000000 0.106216
O O8 0.500000 0.268136 0.000000
O O9 0.679112 0.500000 0.573684
O O10 0.727791 0.230019 0.622034
O O11 0.539790 0.222575 0.614495
O O12 0.162374 0.500000 0.376545
O O13 0.000000 0.234967 0.500000
O O14 0.208843 0.788503 0.970596
O O15 0.181247 0.000000 0.874909
O O16 0.272781 0.692032 0.791225
O O17 0.000000 0.746012 0.000000
O O18 0.547886 0.500000 0.395167
O O19 0.871691 0.500000 0.923732
#
# Coordination Sequence:
#
# PCOD9146653 Si02
#       7
#     4   4   4   4   4   4   4
#     4   9  17  32  56  88 121 150 187 242 295 346
#     4  11  26  45  63  89 126 164 206 258 319 381
#     4   9  18  32  56  89 119 150 190 242 302 349
#     4  10  21  40  65  92 124 161 212 267 311 364
#     4  11  23  38  56  82 122 164 198 238 293 354
#     4  10  19  33  56  86 118 153 198 242 286 349
#     4  11  22  38  64  90 116 152 202 252 299 356
#
# _framework density 22.575382999999999
#
# number of rings (size 3 to 8) (size 9 to 14) (size 15 to 20)
#    0.000    1.857    1.429    2.571    2.000    6.000 
#    0.000    0.000    0.000    4.286    0.000    0.000 
#    0.000    0.000    0.000    0.000    0.000    0.000 
#
# Total GULP energy -156348.091561 kJ/mol
# GULP energy per Si atom -5583.860413 kJ/mol
# Density = 2.252400 g / cm^3
# Si number density = 22.575383 Si / 1000 Ang^3
#
#
#
# Elastic Constant Matrix: (Units=GPa)
#
#
# Indices 1 2 3 4 5 6 
#
# 1 121.0097 0.6329 36.0180 0.0000 17.5545 0.0000
# 2 0.6329 43.6623 10.5636 0.0000 -3.1440 0.0000
# 3 36.0180 10.5636 104.0154 0.0000 15.1809 0.0000
# 4 0.0000 0.0000 0.0000 130.1904 0.0000 50.9762
# 5 17.5545 -3.1440 15.1809 0.0000 46.2694 0.0000
# 6 0.0000 0.0000 0.0000 50.9762 0.0000 33.0174
#
#
#
# Elastic Compliance Matrix: (Units=1/GPa)
#
#
# Indices 1 2 3 4 5 6 
#
# 1 0.009521 0.000388 -0.002954 0.000000 -0.002616 0.000000
# 2 0.000388 0.023774 -0.002902 0.000000 0.002420 0.000000
# 3 -0.002954 -0.002902 0.011340 0.000000 -0.002797 0.000000
# 4 0.000000 0.000000 0.000000 0.019422 0.000000 -0.029986
# 5 -0.002616 0.002420 -0.002797 0.000000 0.023687 0.000000
# 6 0.000000 0.000000 0.000000 -0.029986 0.000000 0.076584
#
#
# Mechanical properties :
#
#
# Convention : Reuss Voigt Hill
#
# Bulk Modulus (GPa) = 29.67517 40.34626 35.01071
# Shear Modulus (GPa) = 26.81011 56.66030 41.73520
#
# Velocity S-wave (km/s) = 3.44987 5.01525 4.30432
# Velocity P-wave (km/s) = 5.38909 7.17270 6.34389
#
# Compressibility (1/GPa) = 0.03369821
#
# Stress axis : x y z
#
# Youngs Moduli (GPa) = 105.03449 42.06300 88.18399
#
# Poissons Ratio (x) = -0.01634 0.26053
# Poissons Ratio (y) = -0.04079 0.25592
# Poissons Ratio (z) = 0.31031 0.12207
#
# Static dielectric constant tensor:
#      x y z
#    x 1.841590 0.000000 -0.021000 
#    y 0.000000 1.855950 0.000000 
#    z -0.021000 0.000000 1.836040 
# 
# From -- ./inp_files/77727.got.cif
#   From: 2010.05.17/outbox.cif.g08.bks.cpg/sg10_39_cif.got.tgz:77727.got - 2010.06.03 11:33:40.
