data_PCOD9146614
_publ_section_title
;
Structure prediction by ZEFSAII (Michael W. Deem and Ramdas Pophale) SiO2 
 PCOD9146614
Probable space group: P 2/M
;
_chemical_formula_sum "Si O2"
_cell_formula_units_Z 32
_cell_length_a 12.962912
_cell_length_b 17.105799
_cell_length_c 10.926457
_cell_angle_alpha 90.000000
_cell_angle_beta 139.635245
_cell_angle_gamma 90.000000
_cell_volume 1569.157571
_symmetry_space_group_name_H-M "P 2/M"
_symmetry_group_IT_number 10
_symmetry_cell_setting 'monoclinic'
loop_
_space_group_symop_operation_xyz
x,y,z
-x,y,-z
-x,-y,-z
x,-y,z
loop_
_atom_site_type_symbol
_atom_site_label
_atom_site_fract_x
_atom_site_fract_y
_atom_site_fract_z
Si Si1 0.438345 0.263512 0.151022
Si Si2 0.768884 0.734088 0.819557
Si Si3 0.763805 0.345452 0.433161
Si Si4 0.317491 0.585909 0.382151
Si Si5 0.680104 0.589332 0.109863
Si Si6 0.066918 0.776412 0.258412
Si Si7 0.977235 0.087578 0.346162
Si Si8 0.399544 0.915206 0.033776
O O1 0.395001 0.265320 0.255130
O O2 0.617539 0.286023 0.279313
O O3 0.332151 0.333982 0.991184
O O4 0.420264 0.172323 0.103410
O O5 0.788145 0.646972 0.786844
O O6 0.792374 0.780917 0.715007
O O7 0.905796 0.759664 0.037222
O O8 0.699598 0.398515 0.487876
O O9 0.786710 0.389902 0.325909
O O10 0.902940 0.293287 0.617651
O O11 0.500000 0.592131 0.500000
O O12 0.261151 0.500000 0.303999
O O13 0.717222 0.500000 0.096176
O O14 0.500000 0.583954 0.000000
O O15 0.052740 0.857217 0.314781
O O16 0.789305 0.081772 0.157252
O O17 0.000000 0.123622 0.500000
O O18 0.046547 0.000000 0.408712
O O19 0.440446 0.000000 0.133621
O O20 0.500000 0.915843 0.000000
#
# Coordination Sequence:
#
# PCOD9146614 Si02
#       8
#     4   4   4   4   4   4   4   4
#     4  11  20  35  59  84 119 155 195 243 300 349
#     4  10  21  39  55  83 115 151 200 242 289 347
#     4  10  20  34  57  84 114 155 197 244 300 354
#     4  10  19  33  56  83 110 150 202 255 298 343
#     4   9  19  33  53  85 117 147 192 249 301 353
#     4  10  22  38  58  81 116 157 193 237 292 348
#     4  10  22  39  61  89 117 151 194 239 291 357
#     4  10  21  37  58  89 120 148 188 237 291 349
#
# _framework density 20.393107000000001
#
# number of rings (size 3 to 8) (size 9 to 14) (size 15 to 20)
#    0.000    2.000    2.500    1.500    3.500    1.000 
#    0.000    7.500    0.000    0.750    0.000    2.625 
#    0.000    0.000    0.000    0.000    0.000    0.000 
#
# Total GULP energy -178179.985474 kJ/mol
# GULP energy per Si atom -5568.124546 kJ/mol
# Density = 2.034669 g / cm^3
# Si number density = 20.393107 Si / 1000 Ang^3
#
#
#
# Elastic Constant Matrix: (Units=GPa)
#
#
# Indices 1 2 3 4 5 6 
#
# 1 63.7136 46.6384 0.1114 0.0000 -13.1822 0.0000
# 2 46.6384 157.2174 30.4807 0.0000 -25.6246 0.0000
# 3 0.1114 30.4807 36.1740 0.0000 -17.3963 0.0000
# 4 0.0000 0.0000 0.0000 23.1700 0.0000 6.5730
# 5 -13.1822 -25.6246 -17.3963 0.0000 20.9792 0.0000
# 6 0.0000 0.0000 0.0000 6.5730 0.0000 34.1336
#
#
#
# Elastic Compliance Matrix: (Units=1/GPa)
#
#
# Indices 1 2 3 4 5 6 
#
# 1 0.025042 -0.007211 0.015519 0.000000 0.019796 0.000000
# 2 -0.007211 0.010273 -0.007948 0.000000 0.001426 0.000000
# 3 0.015519 -0.007948 0.057074 0.000000 0.047370 0.000000
# 4 0.000000 0.000000 0.000000 0.045653 0.000000 -0.008791
# 5 0.019796 0.001426 0.047370 0.000000 0.101127 0.000000
# 6 0.000000 0.000000 0.000000 -0.008791 0.000000 0.030990
#
#
# Mechanical properties :
#
#
# Convention : Reuss Voigt Hill
#
# Bulk Modulus (GPa) = 10.74005 45.72957 28.23481
# Shear Modulus (GPa) = 16.64022 27.64820 22.14421
#
# Velocity S-wave (km/s) = 2.85962 3.68606 3.29882
# Velocity P-wave (km/s) = 4.02259 6.37093 5.32776
#
# Compressibility (1/GPa) = 0.09310946
#
# Stress axis : x y z
#
# Youngs Moduli (GPa) = 39.93232 97.34073 17.52100
#
# Poissons Ratio (x) = 0.70193 -0.27191
# Poissons Ratio (y) = 0.28795 0.13926
# Poissons Ratio (z) = -0.61972 0.77370
#
# Static dielectric constant tensor:
#      x y z
#    x 1.737410 0.000000 0.004540 
#    y 0.000000 1.787840 0.000000 
#    z 0.004540 0.000000 1.772800 
# 
# From -- ./inp_files/51651.got.cif
#   From: 2010.05.17/outbox.cif.g08.bks.cpg/sg10_26_cif.got.tgz:51651.got - 2010.06.03 11:33:40.
