data_PCOD9146554
_publ_section_title
;
Structure prediction by ZEFSAII (Michael W. Deem and Ramdas Pophale) SiO2 
 PCOD9146554
Probable space group: P 2/M
;
_chemical_formula_sum "Si O2"
_cell_formula_units_Z 32
_cell_length_a 30.000478
_cell_length_b 9.098175
_cell_length_c 11.727185
_cell_angle_alpha 90.000000
_cell_angle_beta 148.963932
_cell_angle_gamma 90.000000
_cell_volume 1650.327921
_symmetry_space_group_name_H-M "P 2/M"
_symmetry_group_IT_number 10
_symmetry_cell_setting 'monoclinic'
loop_
_space_group_symop_operation_xyz
x,y,z
-x,y,-z
-x,-y,-z
x,-y,z
loop_
_atom_site_type_symbol
_atom_site_label
_atom_site_fract_x
_atom_site_fract_y
_atom_site_fract_z
Si Si1 0.952652 0.655756 0.517703
Si Si2 0.791909 0.826201 0.127047
Si Si3 0.383872 0.821763 0.647954
Si Si4 0.425640 0.177728 0.998430
Si Si5 0.219222 0.168967 0.155874
Si Si6 0.722859 0.675563 0.188587
Si Si7 0.123705 0.830213 0.331447
Si Si8 0.944471 0.235711 0.054101
O O1 0.903188 0.500000 0.412329
O O2 0.888819 0.792425 0.382285
O O3 0.000000 0.663155 0.500000
O O4 0.015871 0.655696 0.764394
O O5 0.732100 0.734376 0.080182
O O6 0.774373 0.000000 0.096960
O O7 0.790122 0.771343 0.992375
O O8 0.393118 0.780065 0.800208
O O9 0.297468 0.762958 0.399538
O O10 0.380682 0.000000 0.644135
O O11 0.472538 0.785174 0.776913
O O12 0.366259 0.263466 0.955815
O O13 0.416582 0.000000 0.991884
O O14 0.243990 0.000000 0.190976
O O15 0.130986 0.165860 0.034212
O O16 0.729265 0.500000 0.210582
O O17 0.800989 0.753043 0.431409
O O18 0.033168 0.837549 0.202199
O O19 0.147365 0.000000 0.353004
O O20 0.103811 0.737707 0.172429
#
# Coordination Sequence:
#
# PCOD9146554 Si02
#       8
#     4   4   4   4   4   4   4   4
#     4  11  23  40  58  80 116 159 199 242 289 338
#     4  11  23  37  58  83 110 150 202 249 288 337
#     4   8  16  33  61  95 123 144 180 236 295 344
#     4   9  17  35  65  93 117 150 187 231 287 351
#     4  10  19  33  55  87 119 147 187 245 292 337
#     4  12  25  40  58  82 118 158 194 239 294 351
#     4  11  23  37  58  87 120 154 193 242 292 344
#     4  11  21  35  58  88 119 153 192 236 289 343
#
# _framework density 19.390084999999999
#
# number of rings (size 3 to 8) (size 9 to 14) (size 15 to 20)
#    0.000    1.625    2.500    4.500    0.000    2.750 
#    0.000    3.125    0.000    6.750    0.000    0.000 
#    0.000    0.000    0.000    0.000    0.000    0.000 
#
# Total GULP energy -178198.088206 kJ/mol
# GULP energy per Si atom -5568.690256 kJ/mol
# Density = 1.934595 g / cm^3
# Si number density = 19.390085 Si / 1000 Ang^3
#
#
#
# Elastic Constant Matrix: (Units=GPa)
#
#
# Indices 1 2 3 4 5 6 
#
# 1 141.6870 34.4816 32.7869 0.0000 -1.2767 0.0000
# 2 34.4816 55.8810 20.8583 0.0000 5.6502 0.0000
# 3 32.7869 20.8583 60.1080 0.0000 -3.7876 0.0000
# 4 0.0000 0.0000 0.0000 20.6149 0.0000 -9.1998
# 5 -1.2767 5.6502 -3.7876 0.0000 29.2538 0.0000
# 6 0.0000 0.0000 0.0000 -9.1998 0.0000 6.3981
#
#
#
# Elastic Compliance Matrix: (Units=1/GPa)
#
#
# Indices 1 2 3 4 5 6 
#
# 1 0.008881 -0.004332 -0.003290 0.000000 0.000798 0.000000
# 2 -0.004332 0.023403 -0.006105 0.000000 -0.005500 0.000000
# 3 -0.003290 -0.006105 0.020785 0.000000 0.003726 0.000000
# 4 0.000000 0.000000 0.000000 0.135380 0.000000 0.194661
# 5 0.000798 -0.005500 0.003726 0.000000 0.035763 0.000000
# 6 0.000000 0.000000 0.000000 0.194661 0.000000 0.436199
#
#
# Mechanical properties :
#
#
# Convention : Reuss Voigt Hill
#
# Bulk Modulus (GPa) = 39.04145 48.21438 43.62792
# Shear Modulus (GPa) = 7.17975 22.55663 14.86819
#
# Velocity S-wave (km/s) = 1.92635 3.41443 2.77211
# Velocity P-wave (km/s) = 5.01261 6.36112 5.72670
#
# Compressibility (1/GPa) = 0.02561380
#
# Stress axis : x y z
#
# Youngs Moduli (GPa) = 112.60257 42.72915 48.11228
#
# Poissons Ratio (x) = 0.18512 0.15831
# Poissons Ratio (y) = 0.48785 0.29370
# Poissons Ratio (z) = 0.37051 0.26084
#
# Static dielectric constant tensor:
#      x y z
#    x 1.698990 0.000000 -0.019780 
#    y 0.000000 1.678500 0.000000 
#    z -0.019780 0.000000 1.701440 
# 
# From -- ./inp_files/58351.got.cif
#   From: 2010.05.17/outbox.cif.g08.bks.cpg/sg10_30_cif.got.tgz:58351.got - 2010.06.03 11:33:40.
