data_PCOD9146903
_publ_section_title
;
Structure prediction by ZEFSAII (Michael W. Deem and Ramdas Pophale) SiO2 
 PCOD9146903
Probable space group: P 2/M
;
_chemical_formula_sum "Si O2"
_cell_formula_units_Z 28
_cell_length_a 25.098335
_cell_length_b 9.392402
_cell_length_c 9.512524
_cell_angle_alpha 90.000000
_cell_angle_beta 138.826826
_cell_angle_gamma 90.000000
_cell_volume 1476.269623
_symmetry_space_group_name_H-M "P 2/M"
_symmetry_group_IT_number 10
_symmetry_cell_setting 'monoclinic'
loop_
_space_group_symop_operation_xyz
x,y,z
-x,y,-z
-x,-y,-z
x,-y,z
loop_
_atom_site_type_symbol
_atom_site_label
_atom_site_fract_x
_atom_site_fract_y
_atom_site_fract_z
Si Si1 0.071562 0.166603 0.531596
Si Si2 0.015889 0.664974 0.865400
Si Si3 0.577975 0.666171 0.237757
Si Si4 0.664406 0.834568 0.644351
Si Si5 0.739677 0.666382 0.370146
Si Si6 0.827538 0.165490 0.783245
Si Si7 0.743374 0.830147 0.086328
O O1 0.162131 0.188077 0.768480
O O2 0.000000 0.195934 0.500000
O O3 0.055511 0.266487 0.366853
O O4 0.064913 0.000000 0.477757
O O5 0.027394 0.500000 0.851215
O O6 0.096147 0.756837 0.997225
O O7 0.000000 0.674496 0.000000
O O8 0.563452 0.500000 0.241147
O O9 0.601157 0.746891 0.426370
O O10 0.655027 0.674325 0.286898
O O11 0.500000 0.723210 0.000000
O O12 0.749716 0.827865 0.729939
O O13 0.640105 0.000000 0.600970
O O14 0.684861 0.786041 0.842736
O O15 0.762549 0.500000 0.403015
O O16 0.802834 0.751779 0.592603
O O17 0.730815 0.741502 0.202699
O O18 0.845835 0.000000 0.791440
O O19 0.732052 0.000000 0.088904
#
# Coordination Sequence:
#
# PCOD9146903 Si02
#       7
#     4   4   4   4   4   4   4
#     4  10  21  37  55  74 100 139 183 223 265 312
#     4  11  23  35  48  72 104 135 173 222 269 312
#     4   9  19  37  59  82 108 138 172 209 253 309
#     4   9  19  35  56  81 105 133 172 214 255 304
#     4  10  20  34  54  80 108 138 173 215 261 310
#     4  10  19  34  55  75  98 133 177 220 262 311
#     4  10  20  35  54  77 107 140 175 216 262 314
#
# _framework density 18.966723999999999
#
# number of rings (size 3 to 8) (size 9 to 14) (size 15 to 20)
#    0.000    2.143    0.000    3.000    0.000    8.571 
#    0.000    2.143    0.000    4.286    0.000    0.000 
#    0.000    0.000    0.000    0.000    0.000    0.000 
#
# Total GULP energy -156358.463001 kJ/mol
# GULP energy per Si atom -5584.230821 kJ/mol
# Density = 1.892356 g / cm^3
# Si number density = 18.966724 Si / 1000 Ang^3
#
#
#
# Elastic Constant Matrix: (Units=GPa)
#
#
# Indices 1 2 3 4 5 6 
#
# 1 14.5254 17.8329 9.7082 0.0000 -16.0618 0.0000
# 2 17.8329 68.4450 52.4597 0.0000 -14.8291 0.0000
# 3 9.7082 52.4597 131.8005 0.0000 -18.1290 0.0000
# 4 0.0000 0.0000 0.0000 81.3228 0.0000 -14.7079
# 5 -16.0618 -14.8291 -18.1290 0.0000 33.4542 0.0000
# 6 0.0000 0.0000 0.0000 -14.7079 0.0000 24.3957
#
#
#
# Elastic Compliance Matrix: (Units=1/GPa)
#
#
# Indices 1 2 3 4 5 6 
#
# 1 0.224098 -0.050749 0.016638 0.000000 0.094113 0.000000
# 2 -0.050749 0.033378 -0.011738 0.000000 -0.015931 0.000000
# 3 0.016638 -0.011738 0.012336 0.000000 0.009470 0.000000
# 4 0.000000 0.000000 0.000000 0.013802 0.000000 0.008321
# 5 0.094113 -0.015931 0.009470 0.000000 0.073147 0.000000
# 6 0.000000 0.000000 0.000000 0.008321 0.000000 0.046007
#
#
# Mechanical properties :
#
#
# Convention : Reuss Voigt Hill
#
# Bulk Modulus (GPa) = 5.61441 41.64139 23.62790
# Shear Modulus (GPa) = 9.02793 36.81920 22.92356
#
# Velocity S-wave (km/s) = 2.18408 4.41074 3.48029
# Velocity P-wave (km/s) = 3.05399 6.92403 5.35112
#
# Compressibility (1/GPa) = 0.17811300
#
# Stress axis : x y z
#
# Youngs Moduli (GPa) = 4.46234 29.96010 81.06080
#
# Poissons Ratio (x) = 1.52043 -1.34865
# Poissons Ratio (y) = 0.22646 0.95152
# Poissons Ratio (z) = -0.07424 0.35168
#
# Static dielectric constant tensor:
#      x y z
#    x 1.666260 0.000000 0.005150 
#    y 0.000000 1.636440 0.000000 
#    z 0.005150 0.000000 1.651350 
# 
# From -- ./inp_files/37045.got.cif
#   From: 2010.05.17/outbox.cif.g08.bks.cpg/sg10_19_cif.got.tgz:37045.got - 2010.06.03 11:33:40.
