data_PCOD9146983
_publ_section_title
;
Structure prediction by ZEFSAII (Michael W. Deem and Ramdas Pophale) SiO2 
 PCOD9146983
Probable space group: P 2/M
;
_chemical_formula_sum "Si O2"
_cell_formula_units_Z 28
_cell_length_a 16.092294
_cell_length_b 7.455620
_cell_length_c 18.088550
_cell_angle_alpha 90.000000
_cell_angle_beta 143.739609
_cell_angle_gamma 90.000000
_cell_volume 1283.594481
_symmetry_space_group_name_H-M "P 2/M"
_symmetry_group_IT_number 10
_symmetry_cell_setting 'monoclinic'
loop_
_space_group_symop_operation_xyz
x,y,z
-x,y,-z
-x,-y,-z
x,-y,z
loop_
_atom_site_type_symbol
_atom_site_label
_atom_site_fract_x
_atom_site_fract_y
_atom_site_fract_z
Si Si1 0.174052 0.783125 0.935020
Si Si2 0.646027 0.793869 0.635565
Si Si3 0.855632 0.287990 0.655968
Si Si4 0.848640 0.715990 0.486502
Si Si5 0.841376 0.780649 0.906953
Si Si6 0.175919 0.716313 0.689639
Si Si7 0.378646 0.798292 0.961065
O O1 0.303632 0.715638 0.978390
O O2 0.021224 0.735350 0.792198
O O3 0.180031 0.000000 0.937235
O O4 0.185367 0.725781 0.028022
O O5 0.500000 0.713553 0.500000
O O6 0.760815 0.792991 0.652450
O O7 0.726323 0.716831 0.764872
O O8 0.611982 0.000000 0.631147
O O9 0.827598 0.500000 0.636707
O O10 0.817935 0.217319 0.546858
O O11 0.831624 0.500000 0.476693
O O12 0.776735 0.776258 0.358501
O O13 0.012252 0.750708 0.587181
O O14 0.840888 0.000000 0.904067
O O15 0.000000 0.725183 0.000000
O O16 0.193963 0.500000 0.706962
O O17 0.256313 0.807122 0.813191
O O18 0.428253 0.000000 0.016595
O O19 0.500000 0.706708 0.000000
#
# Coordination Sequence:
#
# PCOD9146983 Si02
#       7
#     4   4   4   4   4   4   4
#     4  10  19  34  56  76 102 143 184 219 265 324
#     4  10  21  38  57  80 109 142 182 221 262 324
#     4  11  20  33  56  82 108 135 173 223 275 319
#     4   8  16  30  51  76 100 130 168 214 260 309
#     4   9  16  31  57  81 103 137 182 222 262 320
#     4   9  16  32  54  72  96 135 178 209 250 314
#     4  10  21  35  49  74 111 142 173 223 279 317
#
# _framework density 21.813742000000001
#
# number of rings (size 3 to 8) (size 9 to 14) (size 15 to 20)
#    0.000    2.429    2.857    1.286    0.000    0.571 
#    2.571    4.286    0.000    0.000    0.000    0.000 
#    0.000    0.000    0.000    0.000    0.000    0.000 
#
# Total GULP energy -156134.105072 kJ/mol
# GULP energy per Si atom -5576.218038 kJ/mol
# Density = 2.176409 g / cm^3
# Si number density = 21.813742 Si / 1000 Ang^3
#
#
#
# Elastic Constant Matrix: (Units=GPa)
#
#
# Indices 1 2 3 4 5 6 
#
# 1 168.6027 -3.5201 58.8066 0.0000 -22.0493 0.0000
# 2 -3.5201 64.7140 3.8143 0.0000 -0.0477 0.0000
# 3 58.8066 3.8143 82.7671 0.0000 -18.3737 0.0000
# 4 0.0000 0.0000 0.0000 11.6785 0.0000 -12.3532
# 5 -22.0493 -0.0477 -18.3737 0.0000 45.8830 0.0000
# 6 0.0000 0.0000 0.0000 -12.3532 0.0000 2.2487
#
#
#
# Elastic Compliance Matrix: (Units=1/GPa)
#
#
# Indices 1 2 3 4 5 6 
#
# 1 0.008044 0.000755 -0.005369 0.000000 0.001716 0.000000
# 2 0.000755 0.015569 -0.001284 0.000000 -0.000135 0.000000
# 3 -0.005369 -0.001284 0.016884 0.000000 0.004180 0.000000
# 4 0.000000 0.000000 0.000000 -0.017799 0.000000 -0.097777
# 5 0.001716 -0.000135 0.004180 0.000000 0.024293 0.000000
# 6 0.000000 0.000000 0.000000 -0.097777 0.000000 -0.092437
#
#
# Mechanical properties :
#
#
# Convention : Reuss Voigt Hill
#
# Bulk Modulus (GPa) = 34.84167 48.25393 41.54780
# Shear Modulus (GPa) = -207.62005 29.09425 -89.26290
#
# Velocity S-wave (km/s) = -9.76653 3.65603 -6.40385
# Velocity P-wave (km/s) = 10.54387 6.32384 5.96583
#
# Compressibility (1/GPa) = 0.02870126
#
# Stress axis : x y z
#
# Youngs Moduli (GPa) = 124.31615 64.22907 59.22806
#
# Poissons Ratio (x) = -0.04851 0.31800
# Poissons Ratio (y) = -0.09389 0.07606
# Poissons Ratio (z) = 0.66747 0.08248
#
# Static dielectric constant tensor:
#      x y z
#    x 1.827840 0.000000 0.042180 
#    y 0.000000 1.828350 0.000000 
#    z 0.042180 0.000000 1.926350 
# 
# From -- ./inp_files/77786.got.cif
#   From: 2010.05.17/outbox.cif.g08.bks.cpg/sg10_39_cif.got.tgz:77786.got - 2010.06.03 11:33:40.
