data_PCOD9146166
_publ_section_title
;
Structure prediction by ZEFSAII (Michael W. Deem and Ramdas Pophale) SiO2 
 PCOD9146166
Probable space group: P 2/M
;
_chemical_formula_sum "Si O2"
_cell_formula_units_Z 32
_cell_length_a 15.217532
_cell_length_b 7.867591
_cell_length_c 24.536663
_cell_angle_alpha 90.000000
_cell_angle_beta 29.418161
_cell_angle_gamma 90.000000
_cell_volume 1442.919367
_symmetry_space_group_name_H-M "P 2/M"
_symmetry_group_IT_number 10
_symmetry_cell_setting 'monoclinic'
loop_
_space_group_symop_operation_xyz
x,y,z
-x,y,-z
-x,-y,-z
x,-y,z
loop_
_atom_site_type_symbol
_atom_site_label
_atom_site_fract_x
_atom_site_fract_y
_atom_site_fract_z
Si Si1 0.079275 0.294415 0.792223
Si Si2 0.120083 0.707411 0.885936
Si Si3 0.249646 0.803313 0.092073
Si Si4 0.780357 0.197205 0.494998
Si Si5 0.487668 0.796253 0.862864
Si Si6 0.518572 0.694465 0.425332
Si Si7 0.825771 0.208173 0.747779
Si Si8 0.513541 0.700462 0.262824
O O1 0.078783 0.500000 0.783613
O O2 0.015913 0.249584 0.886983
O O3 0.283021 0.234180 0.687291
O O4 0.958133 0.209764 0.812660
O O5 0.126833 0.500000 0.881502
O O6 0.321858 0.768977 0.788946
O O7 0.000000 0.765866 0.000000
O O8 0.254704 0.730829 0.150511
O O9 0.306586 0.000000 0.065625
O O10 0.356311 0.728773 0.982280
O O11 0.642950 0.219637 0.518897
O O12 0.673104 0.258404 0.606409
O O13 0.974135 0.271551 0.373968
O O14 0.812395 0.000000 0.487106
O O15 0.686335 0.748432 0.775806
O O16 0.463906 0.749250 0.812578
O O17 0.471499 0.000000 0.873241
O O18 0.500000 0.688985 0.500000
O O19 0.521947 0.500000 0.402124
O O20 0.832315 0.000000 0.748510
O O21 0.530664 0.500000 0.254606
#
# Coordination Sequence:
#
# PCOD9146166 Si02
#       8
#     4   4   4   4   4   4   4   4
#     4  10  19  33  52  78 112 150 184 217 277 345
#     4   9  17  31  52  75 103 143 184 220 270 338
#     4  10  20  36  60  89 117 147 191 245 292 342
#     4  11  22  37  59  85 117 155 198 243 286 341
#     4  10  21  39  62  86 113 149 196 245 294 349
#     4  10  20  35  55  80 113 153 193 232 281 341
#     4   9  20  39  61  84 114 155 194 235 297 357
#     4  11  22  39  60  83 118 155 194 242 290 348
#
# _framework density 22.17726
#
# number of rings (size 3 to 8) (size 9 to 14) (size 15 to 20)
#    0.000    2.000    1.250    2.625    0.000    4.250 
#    0.000    5.000    0.000    4.125    0.000    0.000 
#    0.000    0.000    0.000    0.000    0.000    0.000 
#
# Total GULP energy -178478.846995 kJ/mol
# GULP energy per Si atom -5577.463969 kJ/mol
# Density = 2.212678 g / cm^3
# Si number density = 22.177260 Si / 1000 Ang^3
#
#
#
# Elastic Constant Matrix: (Units=GPa)
#
#
# Indices 1 2 3 4 5 6 
#
# 1 99.5202 2.6234 19.0011 0.0000 9.2893 0.0000
# 2 2.6234 24.9726 2.0942 0.0000 4.3951 0.0000
# 3 19.0011 2.0942 85.0699 0.0000 6.4154 0.0000
# 4 0.0000 0.0000 0.0000 2.8665 0.0000 -10.9374
# 5 9.2893 4.3951 6.4154 0.0000 31.7544 0.0000
# 6 0.0000 0.0000 0.0000 -10.9374 0.0000 15.0990
#
#
#
# Elastic Compliance Matrix: (Units=1/GPa)
#
#
# Indices 1 2 3 4 5 6 
#
# 1 0.010723 -0.000481 -0.002185 0.000000 -0.002629 0.000000
# 2 -0.000481 0.041094 -0.000493 0.000000 -0.005448 0.000000
# 3 -0.002185 -0.000493 0.012391 0.000000 -0.001796 0.000000
# 4 0.000000 0.000000 0.000000 -0.197771 0.000000 -0.143262
# 5 -0.002629 -0.005448 -0.001796 0.000000 0.033378 0.000000
# 6 0.000000 0.000000 0.000000 -0.143262 0.000000 -0.037547
#
#
# Mechanical properties :
#
#
# Convention : Reuss Voigt Hill
#
# Bulk Modulus (GPa) = 17.27405 28.55559 22.91482
# Shear Modulus (GPa) = -44.59660 22.33359 -11.13150
#
# Velocity S-wave (km/s) = -4.48919 3.17685 -2.24282
# Velocity P-wave (km/s) = 4.36628 5.13425 1.90998
#
# Compressibility (1/GPa) = 0.05789030
#
# Stress axis : x y z
#
# Youngs Moduli (GPa) = 93.25343 24.33419 80.70586
#
# Poissons Ratio (x) = 0.01169 0.17635
# Poissons Ratio (y) = 0.04482 0.03983
# Poissons Ratio (z) = 0.20377 0.01201
#
# Static dielectric constant tensor:
#      x y z
#    x 1.855630 0.000000 0.043030 
#    y 0.000000 1.836020 0.000000 
#    z 0.043030 0.000000 1.949890 
# 
# From -- ./inp_files/66488.got.cif
#   From: 2010.05.17/outbox.cif.g08.bks.cpg/sg10_34_cif.got.tgz:66488.got - 2010.06.03 11:33:40.
