data_PCOD9146877
_publ_section_title
;
Structure prediction by ZEFSAII (Michael W. Deem and Ramdas Pophale) SiO2 
 PCOD9146877
Probable space group: P 2/M
;
_chemical_formula_sum "Si O2"
_cell_formula_units_Z 32
_cell_length_a 15.068013
_cell_length_b 14.989040
_cell_length_c 11.927722
_cell_angle_alpha 90.000000
_cell_angle_beta 140.499755
_cell_angle_gamma 90.000000
_cell_volume 1713.563060
_symmetry_space_group_name_H-M "P 2/M"
_symmetry_group_IT_number 10
_symmetry_cell_setting 'monoclinic'
loop_
_space_group_symop_operation_xyz
x,y,z
-x,y,-z
-x,-y,-z
x,-y,z
loop_
_atom_site_type_symbol
_atom_site_label
_atom_site_fract_x
_atom_site_fract_y
_atom_site_fract_z
Si Si1 0.665868 0.895524 0.944391
Si Si2 0.346639 0.351472 0.828438
Si Si3 0.368001 0.163664 0.718612
Si Si4 0.339200 0.726836 0.479560
Si Si5 0.821590 0.391475 0.114083
Si Si6 0.338007 0.272845 0.214693
Si Si7 0.146254 0.600699 0.433003
Si Si8 0.146061 0.103860 0.671046
O O1 0.516212 0.884552 0.859322
O O2 0.670986 0.825402 0.848826
O O3 0.685020 0.000000 0.933949
O O4 0.779070 0.862744 0.144904
O O5 0.376327 0.256124 0.797218
O O6 0.268966 0.352722 0.871408
O O7 0.238804 0.396019 0.636364
O O8 0.500000 0.392016 0.000000
O O9 0.330707 0.187749 0.553797
O O10 0.248645 0.110829 0.666065
O O11 0.501185 0.696160 0.648813
O O12 0.313820 0.737298 0.323366
O O13 0.228419 0.659812 0.424085
O O14 0.804758 0.500000 0.093340
O O15 0.985599 0.371508 0.293346
O O16 0.763828 0.341816 0.947093
O O17 0.141747 0.500000 0.387022
O O18 0.000000 0.149184 0.500000
O O19 0.121519 0.000000 0.671815
#
# Coordination Sequence:
#
# PCOD9146877 Si02
#       8
#     4   4   4   4   4   4   4   4
#     4  10  20  36  59  83 111 146 181 224 279 332
#     4  11  21  34  55  83 114 147 182 226 276 329
#     4  10  19  34  54  79 108 142 180 222 272 329
#     4   9  21  38  57  78 107 143 184 232 278 325
#     4  11  23  37  56  83 114 150 188 229 279 332
#     4  10  21  40  58  81 111 143 189 237 277 330
#     4  10  22  38  55  80 113 147 187 231 278 334
#     4  10  20  32  49  77 109 138 173 218 267 325
#
# _framework density 18.67454
#
# number of rings (size 3 to 8) (size 9 to 14) (size 15 to 20)
#    0.000    1.875    0.000    5.250    0.000    9.500 
#    0.000    8.125    0.000    0.000    0.000    4.375 
#    0.000    0.000    0.000    0.000    0.000    0.000 
#
# Total GULP energy -178476.210451 kJ/mol
# GULP energy per Si atom -5577.381577 kJ/mol
# Density = 1.863204 g / cm^3
# Si number density = 18.674540 Si / 1000 Ang^3
#
#
#
# Elastic Constant Matrix: (Units=GPa)
#
#
# Indices 1 2 3 4 5 6 
#
# 1 83.7853 21.0578 78.8788 0.0000 -6.6025 0.0000
# 2 21.0578 66.4595 37.1827 0.0000 1.1178 0.0000
# 3 78.8788 37.1827 146.6743 0.0000 5.7217 0.0000
# 4 0.0000 0.0000 0.0000 24.9640 0.0000 5.9160
# 5 -6.6025 1.1178 5.7217 0.0000 30.6572 0.0000
# 6 0.0000 0.0000 0.0000 5.9160 0.0000 14.9558
#
#
#
# Elastic Compliance Matrix: (Units=1/GPa)
#
#
# Indices 1 2 3 4 5 6 
#
# 1 0.026129 -0.000438 -0.014265 0.000000 0.008306 0.000000
# 2 -0.000438 0.017542 -0.004214 0.000000 0.000052 0.000000
# 3 -0.014265 -0.004214 0.015786 0.000000 -0.005865 0.000000
# 4 0.000000 0.000000 0.000000 0.044201 0.000000 -0.017484
# 5 0.008306 0.000052 -0.005865 0.000000 0.035500 0.000000
# 6 0.000000 0.000000 0.000000 -0.017484 0.000000 0.073780
#
#
# Mechanical properties :
#
#
# Convention : Reuss Voigt Hill
#
# Bulk Modulus (GPa) = 46.24308 63.46198 54.85253
# Shear Modulus (GPa) = 19.38138 24.76872 22.07505
#
# Velocity S-wave (km/s) = 3.22506 3.64584 3.44189
# Velocity P-wave (km/s) = 6.21968 7.19582 6.72548
#
# Compressibility (1/GPa) = 0.02162486
#
# Stress axis : x y z
#
# Youngs Moduli (GPa) = 38.27115 57.00601 63.34666
#
# Poissons Ratio (x) = 0.02496 0.90363
# Poissons Ratio (y) = 0.01676 0.26691
# Poissons Ratio (z) = 0.54593 0.24020
#
# Static dielectric constant tensor:
#      x y z
#    x 1.620160 0.000000 0.016500 
#    y 0.000000 1.677070 0.000000 
#    z 0.016500 0.000000 1.688770 
# 
# From -- ./inp_files/51662.got.cif
#   From: 2010.05.17/outbox.cif.g08.bks.cpg/sg10_26_cif.got.tgz:51662.got - 2010.06.03 11:33:40.
