data_PCOD9146838
_publ_section_title
;
Structure prediction by ZEFSAII (Michael W. Deem and Ramdas Pophale) SiO2 
 PCOD9146838
Probable space group: P 2/M
;
_chemical_formula_sum "Si O2"
_cell_formula_units_Z 30
_cell_length_a 14.608126
_cell_length_b 25.235037
_cell_length_c 5.146549
_cell_angle_alpha 90.000000
_cell_angle_beta 72.166319
_cell_angle_gamma 90.000000
_cell_volume 1806.044664
_symmetry_space_group_name_H-M "P 2/M"
_symmetry_group_IT_number 10
_symmetry_cell_setting 'monoclinic'
loop_
_space_group_symop_operation_xyz
x,y,z
-x,y,-z
-x,-y,-z
x,-y,z
loop_
_atom_site_type_symbol
_atom_site_label
_atom_site_fract_x
_atom_site_fract_y
_atom_site_fract_z
Si Si1 0.160540 0.766597 0.957108
Si Si2 0.000000 0.316872 0.000000
Si Si3 0.852801 0.392016 0.322890
Si Si4 0.605042 0.649516 0.996153
Si Si5 0.110942 0.831693 0.495115
Si Si6 0.067831 0.941199 0.692091
Si Si7 0.771397 0.439622 0.885822
Si Si8 0.316559 0.694722 0.571854
O O1 0.082776 0.719038 0.061381
O O2 0.118186 0.799673 0.754612
O O3 0.259992 0.743307 0.755610
O O4 0.166307 0.801804 0.213083
O O5 0.947051 0.356090 0.243799
O O6 0.836196 0.429586 0.578366
O O7 0.766732 0.349136 0.388829
O O8 0.836515 0.424454 0.074576
O O9 0.681531 0.601138 0.939914
O O10 0.638125 0.693866 0.754687
O O11 0.500000 0.631165 0.000000
O O12 0.608679 0.674249 0.279145
O O13 0.135922 0.892238 0.553986
O O14 0.000000 0.832242 0.500000
O O15 0.000000 0.946237 0.500000
O O16 0.110168 0.000000 0.705662
O O17 0.000000 0.927660 0.000000
O O18 0.737893 0.500000 0.932156
#
# Coordination Sequence:
#
# PCOD9146838 Si02
#       8
#     4   2   4   4   4   4   4   4
#     4  11  20  30  46  66  94 122 154 201 237 257
#     4  10  20  34  47  66  85 122 160 190 222 264
#     4   9  20  33  50  65  90 118 148 179 220 274
#     4  10  19  34  54  73  89 113 147 178 214 288
#     4  11  18  28  41  67  90 119 169 207 228 258
#     4   9  17  28  41  56  85 125 164 210 249 268
#     4  10  20  36  51  69  92 113 136 182 234 267
#     4   9  19  33  47  69  95 120 143 178 234 277
#
# _framework density 16.610883999999999
#
# number of rings (size 3 to 8) (size 9 to 14) (size 15 to 20)
#    0.000    2.133    1.333    3.200    0.000    5.067 
#    0.000    2.000    0.000    4.800    0.000    0.000 
#    0.000    0.000    0.000    0.000    0.000   46.667 
#
# Total GULP energy -167059.879000 kJ/mol
# GULP energy per Si atom -5568.662633 kJ/mol
# Density = 1.657308 g / cm^3
# Si number density = 16.610884 Si / 1000 Ang^3
#
#
#
# Elastic Constant Matrix: (Units=GPa)
#
#
# Indices 1 2 3 4 5 6 
#
# 1 30.9805 16.9084 21.1729 0.0000 1.3277 0.0000
# 2 16.9084 80.7044 29.9306 0.0000 -7.1614 0.0000
# 3 21.1729 29.9306 95.3965 0.0000 17.5324 0.0000
# 4 0.0000 0.0000 0.0000 27.6588 0.0000 0.5349
# 5 1.3277 -7.1614 17.5324 0.0000 15.2562 0.0000
# 6 0.0000 0.0000 0.0000 0.5349 0.0000 4.9769
#
#
#
# Elastic Compliance Matrix: (Units=1/GPa)
#
#
# Indices 1 2 3 4 5 6 
#
# 1 0.040408 -0.005273 -0.007876 0.000000 0.003059 0.000000
# 2 -0.005273 0.017932 -0.007717 0.000000 0.017745 0.000000
# 3 -0.007876 -0.007717 0.019259 0.000000 -0.025070 0.000000
# 4 0.000000 0.000000 0.000000 0.036230 0.000000 -0.003894
# 5 0.003059 0.017745 -0.025070 0.000000 0.102421 0.000000
# 6 0.000000 0.000000 0.000000 -0.003894 0.000000 0.201346
#
#
# Mechanical properties :
#
#
# Convention : Reuss Voigt Hill
#
# Bulk Modulus (GPa) = 27.88123 38.12281 33.00202
# Shear Modulus (GPa) = 10.60927 18.84967 14.72947
#
# Velocity S-wave (km/s) = 2.52998 3.37230 2.98104
# Velocity P-wave (km/s) = 5.03545 6.17767 5.63557
#
# Compressibility (1/GPa) = 0.03586642
#
# Stress axis : x y z
#
# Youngs Moduli (GPa) = 24.74753 55.76490 51.92277
#
# Poissons Ratio (x) = 0.29407 0.40895
# Poissons Ratio (y) = 0.13051 0.40070
# Poissons Ratio (z) = 0.19491 0.43035
#
# Static dielectric constant tensor:
#      x y z
#    x 1.570980 0.000000 -0.006240 
#    y 0.000000 1.607670 0.000000 
#    z -0.006240 0.000000 1.599090 
# 
# From -- ./inp_files/10188.got.cif
#   From: 2010.05.17/outbox.cif.g08.bks.cpg/sg10_6_cif.got.tgz:10188.got - 2010.06.03 11:33:40.
