data_PCOD9146922
_publ_section_title
;
Structure prediction by ZEFSAII (Michael W. Deem and Ramdas Pophale) SiO2 
 PCOD9146922
Probable space group: P 2/M
;
_chemical_formula_sum "Si O2"
_cell_formula_units_Z 24
_cell_length_a 7.016938
_cell_length_b 12.949306
_cell_length_c 15.517130
_cell_angle_alpha 90.000000
_cell_angle_beta 62.608621
_cell_angle_gamma 90.000000
_cell_volume 1251.878164
_symmetry_space_group_name_H-M "P 2/M"
_symmetry_group_IT_number 10
_symmetry_cell_setting 'monoclinic'
loop_
_space_group_symop_operation_xyz
x,y,z
-x,y,-z
-x,-y,-z
x,-y,z
loop_
_atom_site_type_symbol
_atom_site_label
_atom_site_fract_x
_atom_site_fract_y
_atom_site_fract_z
Si Si1 0.185895 0.381930 0.631498
Si Si2 0.194034 0.000000 0.629128
Si Si3 0.889613 0.805952 0.238231
Si Si4 0.307062 0.000000 0.415614
Si Si5 0.394924 0.194258 0.283265
Si Si6 0.688701 0.381462 0.583595
Si Si7 0.685127 0.875442 0.893992
O O1 0.113033 0.500000 0.656619
O O2 0.078282 0.300272 0.716979
O O3 0.438393 0.379918 0.605687
O O4 0.182859 0.353535 0.530627
O O5 0.103362 0.101881 0.692995
O O6 0.170524 0.000000 0.531473
O O7 0.446294 0.000000 0.600888
O O8 0.651620 0.806486 0.248107
O O9 0.079175 0.831791 0.132655
O O10 0.292738 0.898284 0.360614
O O11 0.300879 0.300343 0.341421
O O12 0.363076 0.171702 0.189825
O O13 0.739860 0.500000 0.595641
O O14 0.693023 0.000000 0.886342
O O15 0.500000 0.848271 0.000000
#
# Coordination Sequence:
#
# PCOD9146922 Si02
#       7
#     4   2   4   2   4   4   4
#     4   8  14  27  51  82 113 145 176 204 242 301
#     4   9  16  27  47  76 107 137 164 196 246 306
#     4  10  19  34  55  78 106 139 172 210 260 314
#     4   9  16  27  47  76 107 137 164 196 246 306
#     4  10  19  34  55  78 106 139 172 210 260 314
#     4   8  14  27  51  82 113 145 176 204 242 301
#     4  11  24  40  55  74 101 131 176 234 276 312
#
# _framework density 19.171195999999998
#
# number of rings (size 3 to 8) (size 9 to 14) (size 15 to 20)
#    0.000    2.667    1.667    2.000    0.000    4.667 
#    0.000    6.667    0.000    4.000    0.000    4.667 
#    0.000    0.000    0.000    0.000    0.000    0.000 
#
# Total GULP energy -134052.265943 kJ/mol
# GULP energy per Si atom -5585.511081 kJ/mol
# Density = 1.912756 g / cm^3
# Si number density = 19.171196 Si / 1000 Ang^3
#
#
#
# Elastic Constant Matrix: (Units=GPa)
#
#
# Indices 1 2 3 4 5 6 
#
# 1 73.2284 9.3486 16.3847 0.0000 -8.4732 0.0000
# 2 9.3486 92.7522 45.5916 0.0000 -6.6753 0.0000
# 3 16.3847 45.5916 97.5534 0.0000 -20.4376 0.0000
# 4 0.0000 0.0000 0.0000 24.8730 0.0000 1.7675
# 5 -8.4732 -6.6753 -20.4376 0.0000 30.7464 0.0000
# 6 0.0000 0.0000 0.0000 1.7675 0.0000 7.5443
#
#
#
# Elastic Compliance Matrix: (Units=1/GPa)
#
#
# Indices 1 2 3 4 5 6 
#
# 1 0.014400 -0.000453 -0.001622 0.000000 0.002792 0.000000
# 2 -0.000453 0.014073 -0.006839 0.000000 -0.001616 0.000000
# 3 -0.001622 -0.006839 0.015469 0.000000 0.008351 0.000000
# 4 0.000000 0.000000 0.000000 0.040885 0.000000 -0.009579
# 5 0.002792 -0.001616 0.008351 0.000000 0.038494 0.000000
# 6 0.000000 0.000000 0.000000 -0.009579 0.000000 0.134795
#
#
# Mechanical properties :
#
#
# Convention : Reuss Voigt Hill
#
# Bulk Modulus (GPa) = 38.29551 45.13155 41.71353
# Shear Modulus (GPa) = 17.56560 25.44668 21.50614
#
# Velocity S-wave (km/s) = 3.03025 3.64722 3.35295
# Velocity P-wave (km/s) = 5.67997 6.42874 6.06592
#
# Compressibility (1/GPa) = 0.02611272
#
# Stress axis : x y z
#
# Youngs Moduli (GPa) = 69.44598 71.06021 64.64560
#
# Poissons Ratio (x) = 0.03221 0.10484
# Poissons Ratio (y) = 0.03148 0.44212
# Poissons Ratio (z) = 0.11263 0.48599
#
# Static dielectric constant tensor:
#      x y z
#    x 1.773120 0.000000 -0.037780 
#    y 0.000000 1.645520 0.000000 
#    z -0.037780 0.000000 1.627840 
# 
# From -- ./inp_files/74758.got.cif
#   From: 2010.05.17/outbox.cif.g08.bks.cpg/sg10_38_cif.got.tgz:74758.got - 2010.06.03 11:33:40.
