data_PCOD9146971
_publ_section_title
;
Structure prediction by ZEFSAII (Michael W. Deem and Ramdas Pophale) SiO2 
 PCOD9146971
Probable space group: P 2/M
;
_chemical_formula_sum "Si O2"
_cell_formula_units_Z 32
_cell_length_a 9.265712
_cell_length_b 24.915603
_cell_length_c 15.489035
_cell_angle_alpha 90.000000
_cell_angle_beta 151.956704
_cell_angle_gamma 90.000000
_cell_volume 1681.126920
_symmetry_space_group_name_H-M "P 2/M"
_symmetry_group_IT_number 10
_symmetry_cell_setting 'monoclinic'
loop_
_space_group_symop_operation_xyz
x,y,z
-x,y,-z
-x,-y,-z
x,-y,z
loop_
_atom_site_type_symbol
_atom_site_label
_atom_site_fract_x
_atom_site_fract_y
_atom_site_fract_z
Si Si1 0.290452 0.870744 0.973383
Si Si2 0.631423 0.147473 0.798842
Si Si3 0.139619 0.757308 0.829887
Si Si4 0.305513 0.062201 0.310024
Si Si5 0.129142 0.352699 0.295648
Si Si6 0.799372 0.561926 0.807808
Si Si7 0.236946 0.752487 0.546318
Si Si8 0.794667 0.369250 0.475638
O O1 0.120180 0.813326 0.869943
O O2 0.036792 0.916450 0.851034
O O3 0.500000 0.878842 0.000000
O O4 0.478086 0.865285 0.161581
O O5 0.561469 0.100107 0.694773
O O6 0.494598 0.203110 0.693997
O O7 0.000000 0.150385 0.000000
O O8 0.011651 0.703940 0.807493
O O9 0.945690 0.761364 0.639244
O O10 0.500000 0.749747 0.000000
O O11 0.500000 0.067782 0.500000
O O12 0.301231 0.000000 0.281703
O O13 0.500000 0.347354 0.500000
O O14 0.066521 0.400244 0.196330
O O15 0.021445 0.366114 0.336430
O O16 0.779226 0.500000 0.769692
O O17 0.465277 0.586222 0.652124
O O18 0.000000 0.565171 0.000000
O O19 0.348356 0.690777 0.607826
O O20 0.000000 0.758314 0.500000
O O21 0.000000 0.378161 0.500000
#
# Coordination Sequence:
#
# PCOD9146971 Si02
#       8
#     4   4   4   4   4   4   4   4
#     4  10  21  36  56  84 113 145 183 222 274 328
#     4  10  22  36  57  84 113 149 186 225 275 326
#     4  10  20  34  54  83 117 147 179 222 275 331
#     4  10  22  40  59  79 107 145 188 233 277 322
#     4   9  20  36  56  80 109 146 182 222 273 324
#     4  10  22  38  55  77 106 141 183 230 274 320
#     4  10  19  34  55  83 117 146 180 225 273 328
#     4   9  20  36  56  82 108 141 180 219 271 327
#
# _framework density 19.034849000000001
#
# number of rings (size 3 to 8) (size 9 to 14) (size 15 to 20)
#    0.000    2.250    0.000    2.250    0.000   16.000 
#    0.000    0.000    0.000    3.750    0.000    0.000 
#    0.000    0.000    0.000    0.000    0.000    0.000 
#
# Total GULP energy -178623.765610 kJ/mol
# GULP energy per Si atom -5581.992675 kJ/mol
# Density = 1.899152 g / cm^3
# Si number density = 19.034849 Si / 1000 Ang^3
#
#
#
# Elastic Constant Matrix: (Units=GPa)
#
#
# Indices 1 2 3 4 5 6 
#
# 1 99.6721 36.2430 -3.5206 0.0000 -24.7980 0.0000
# 2 36.2430 132.7735 27.5173 0.0000 -17.5580 0.0000
# 3 -3.5206 27.5173 36.9295 0.0000 -10.7140 0.0000
# 4 0.0000 0.0000 0.0000 17.0403 0.0000 -9.8913
# 5 -24.7980 -17.5580 -10.7140 0.0000 18.0068 0.0000
# 6 0.0000 0.0000 0.0000 -9.8913 0.0000 4.0787
#
#
#
# Elastic Compliance Matrix: (Units=1/GPa)
#
#
# Indices 1 2 3 4 5 6 
#
# 1 0.020034 -0.004205 0.014332 0.000000 0.032016 0.000000
# 2 -0.004205 0.010306 -0.008273 0.000000 -0.000664 0.000000
# 3 0.014332 -0.008273 0.045922 0.000000 0.038994 0.000000
# 4 0.000000 0.000000 0.000000 -0.143941 0.000000 -0.349072
# 5 0.032016 -0.000664 0.038994 0.000000 0.122180 0.000000
# 6 0.000000 0.000000 0.000000 -0.349072 0.000000 -0.601363
#
#
# Mechanical properties :
#
#
# Convention : Reuss Voigt Hill
#
# Bulk Modulus (GPa) = 12.50473 43.31717 27.91095
# Shear Modulus (GPa) = -9.54357 21.76753 6.11198
#
# Velocity S-wave (km/s) = -2.24157 3.38533 1.79385
# Velocity P-wave (km/s) = 0.34036 6.17145 4.35723
#
# Compressibility (1/GPa) = 0.07996975
#
# Stress axis : x y z
#
# Youngs Moduli (GPa) = 49.91596 97.02877 21.77598
#
# Poissons Ratio (x) = 0.40800 -0.31209
# Poissons Ratio (y) = 0.20989 0.18015
# Poissons Ratio (z) = -0.71538 0.80271
#
# Static dielectric constant tensor:
#      x y z
#    x 1.706870 0.000000 -0.012680 
#    y 0.000000 1.650100 0.000000 
#    z -0.012680 0.000000 1.650000 
# 
# From -- ./inp_files/30602.got.cif
#   From: 2010.05.17/outbox.cif.g08.bks.cpg/sg10_16_cif.got.tgz:30602.got - 2010.06.03 11:33:40.
