data_PCOD9146781
_publ_section_title
;
Structure prediction by ZEFSAII (Michael W. Deem and Ramdas Pophale) SiO2 
 PCOD9146781
Probable space group: P 2/M
;
_chemical_formula_sum "Si O2"
_cell_formula_units_Z 32
_cell_length_a 11.991290
_cell_length_b 9.151254
_cell_length_c 21.930837
_cell_angle_alpha 90.000000
_cell_angle_beta 50.068492
_cell_angle_gamma 90.000000
_cell_volume 1845.401156
_symmetry_space_group_name_H-M "P 2/M"
_symmetry_group_IT_number 10
_symmetry_cell_setting 'monoclinic'
loop_
_space_group_symop_operation_xyz
x,y,z
-x,y,-z
-x,-y,-z
x,-y,z
loop_
_atom_site_type_symbol
_atom_site_label
_atom_site_fract_x
_atom_site_fract_y
_atom_site_fract_z
Si Si1 0.638615 0.173413 0.742531
Si Si2 0.625389 0.669633 0.220705
Si Si3 0.840584 0.670431 0.030444
Si Si4 0.723708 0.669172 0.831392
Si Si5 0.167612 0.174635 0.090760
Si Si6 0.055840 0.332417 0.663021
Si Si7 0.865238 0.676406 0.234967
Si Si8 0.039147 0.825287 0.418875
O O1 0.511156 0.228946 0.743947
O O2 0.631968 0.255094 0.810102
O O3 0.794174 0.208868 0.657280
O O4 0.632112 0.000000 0.754590
O O5 0.579337 0.500000 0.242449
O O6 0.729883 0.680032 0.125164
O O7 0.724701 0.707646 0.243810
O O8 0.850057 0.500000 0.007228
O O9 0.794210 0.768578 0.989891
O O10 0.000000 0.711842 0.000000
O O11 0.682699 0.500000 0.854365
O O12 0.730607 0.755731 0.892496
O O13 0.890413 0.672682 0.747586
O O14 0.005502 0.238963 0.160140
O O15 0.167955 0.000000 0.094761
O O16 0.089008 0.500000 0.636584
O O17 0.150253 0.285878 0.688241
O O18 0.058322 0.239162 0.601155
O O19 0.893750 0.500000 0.221067
O O20 0.000000 0.770752 0.500000
O O21 0.024048 0.000000 0.423847
#
# Coordination Sequence:
#
# PCOD9146781 Si02
#       8
#     4   4   4   4   4   4   4   4
#     4  10  20  34  52  76 105 129 161 209 254 296
#     4  10  20  34  53  72  97 136 174 205 246 304
#     4  10  19  34  52  69  95 134 177 212 248 299
#     4   9  17  32  52  70  95 132 171 205 247 305
#     4  11  20  29  47  75 103 127 163 218 267 294
#     4   8  15  27  48  76 100 122 159 210 247 277
#     4   9  17  32  50  70  98 135 174 207 244 297
#     4   9  18  33  53  76 103 134 162 192 240 302
#
# _framework density 17.340403999999999
#
# number of rings (size 3 to 8) (size 9 to 14) (size 15 to 20)
#    0.000    2.500    1.250    2.625    0.000    5.000 
#    0.000    0.625    0.000    4.500    0.000    5.250 
#    0.000    0.000    0.000    0.000    0.000    0.000 
#
# Total GULP energy -178448.048576 kJ/mol
# GULP energy per Si atom -5576.501518 kJ/mol
# Density = 1.730094 g / cm^3
# Si number density = 17.340404 Si / 1000 Ang^3
#
#
#
# Elastic Constant Matrix: (Units=GPa)
#
#
# Indices 1 2 3 4 5 6 
#
# 1 113.5678 47.2518 39.4338 0.0000 28.8891 0.0000
# 2 47.2518 58.4155 30.8154 0.0000 12.1554 0.0000
# 3 39.4338 30.8154 46.3600 0.0000 27.4967 0.0000
# 4 0.0000 0.0000 0.0000 18.5159 0.0000 0.2029
# 5 28.8891 12.1554 27.4967 0.0000 27.2430 0.0000
# 6 0.0000 0.0000 0.0000 0.2029 0.0000 8.7910
#
#
#
# Elastic Compliance Matrix: (Units=1/GPa)
#
#
# Indices 1 2 3 4 5 6 
#
# 1 0.016557 -0.011573 0.002392 0.000000 -0.014808 0.000000
# 2 -0.011573 0.037071 -0.030559 0.000000 0.026576 0.000000
# 3 0.002392 -0.030559 0.082881 0.000000 -0.072554 0.000000
# 4 0.000000 0.000000 0.000000 0.054021 0.000000 -0.001247
# 5 -0.014808 0.026576 -0.072554 0.000000 0.113781 0.000000
# 6 0.000000 0.000000 0.000000 -0.001247 0.000000 0.113781
#
#
# Mechanical properties :
#
#
# Convention : Reuss Voigt Hill
#
# Bulk Modulus (GPa) = 17.53515 50.37170 33.95343
# Shear Modulus (GPa) = 9.67903 17.63281 13.65592
#
# Velocity S-wave (km/s) = 2.36514 3.19229 2.80932
# Velocity P-wave (km/s) = 4.19438 6.53448 5.49055
#
# Compressibility (1/GPa) = 0.05702830
#
# Stress axis : x y z
#
# Youngs Moduli (GPa) = 60.39869 26.97550 12.06556
#
# Poissons Ratio (x) = 0.31219 -0.02886
# Poissons Ratio (y) = 0.69901 0.36871
# Poissons Ratio (z) = -0.14449 0.82434
#
# Static dielectric constant tensor:
#      x y z
#    x 1.600380 0.000000 0.009070 
#    y 0.000000 1.584070 0.000000 
#    z 0.009070 0.000000 1.582360 
# 
# From -- ./inp_files/52701.got.cif
#   From: 2010.05.17/outbox.cif.g08.bks.cpg/sg10_27_cif.got.tgz:52701.got - 2010.06.03 11:33:40.
