data_PCOD9146436
_publ_section_title
;
Structure prediction by ZEFSAII (Michael W. Deem and Ramdas Pophale) SiO2 
 PCOD9146436
Probable space group: P 2/M
;
_chemical_formula_sum "Si O2"
_cell_formula_units_Z 28
_cell_length_a 22.506899
_cell_length_b 12.903765
_cell_length_c 9.917733
_cell_angle_alpha 90.000000
_cell_angle_beta 153.802683
_cell_angle_gamma 90.000000
_cell_volume 1271.568183
_symmetry_space_group_name_H-M "P 2/M"
_symmetry_group_IT_number 10
_symmetry_cell_setting 'monoclinic'
loop_
_space_group_symop_operation_xyz
x,y,z
-x,y,-z
-x,-y,-z
x,-y,z
loop_
_atom_site_type_symbol
_atom_site_label
_atom_site_fract_x
_atom_site_fract_y
_atom_site_fract_z
Si Si1 0.817828 0.161111 0.515754
Si Si2 0.766973 0.615327 0.709483
Si Si3 0.520857 0.329336 0.387636
Si Si4 0.849943 0.120104 0.175407
Si Si5 0.716549 0.385372 0.302614
Si Si6 0.112882 0.166194 0.043828
Si Si7 0.610618 0.117819 0.880206
O O1 0.809890 0.285203 0.476528
O O2 0.958864 0.128630 0.737431
O O3 0.821645 0.135207 0.681083
O O4 0.688196 0.116827 0.179740
O O5 0.825433 0.500000 0.837420
O O6 0.662396 0.634988 0.616455
O O7 0.686002 0.620002 0.401509
O O8 0.872587 0.708863 0.926583
O O9 0.500000 0.362618 0.500000
O O10 0.503557 0.204298 0.348796
O O11 0.407202 0.370948 0.052236
O O12 0.821691 0.126556 0.959408
O O13 0.000000 0.167462 0.500000
O O14 0.859458 0.000000 0.236801
O O15 0.727186 0.160081 0.015498
O O16 0.775388 0.500000 0.399479
O O17 0.570397 0.000000 0.766876
#
# Coordination Sequence:
#
# PCOD9146436 Si02
#       7
#     4   4   4   4   4   4   4
#     4   9  19  33  55  84 111 141 176 223 273 316
#     4  10  21  37  57  80 109 147 185 220 264 320
#     4  11  22  36  56  79 106 141 181 229 271 314
#     4  10  19  33  55  79 105 141 179 213 261 324
#     4   9  19  36  57  79 106 142 182 223 270 324
#     4  10  19  34  55  82 114 143 179 222 265 316
#     4  10  21  38  57  79 108 142 180 222 272 324
#
# _framework density 22.020054999999999
#
# number of rings (size 3 to 8) (size 9 to 14) (size 15 to 20)
#    0.000    2.143    1.429    1.714    0.000    3.714 
#    0.000    5.000    0.000   11.571    0.000    0.000 
#    0.000    0.000    0.000    0.000    0.000    0.000 
#
# Total GULP energy -156299.557888 kJ/mol
# GULP energy per Si atom -5582.127067 kJ/mol
# Density = 2.196994 g / cm^3
# Si number density = 22.020055 Si / 1000 Ang^3
#
#
#
# Elastic Constant Matrix: (Units=GPa)
#
#
# Indices 1 2 3 4 5 6 
#
# 1 75.3699 6.1795 7.1438 0.0000 -19.7280 0.0000
# 2 6.1795 101.1471 5.8296 0.0000 0.1574 0.0000
# 3 7.1438 5.8296 63.3049 0.0000 -15.5463 0.0000
# 4 0.0000 0.0000 0.0000 -29.6282 0.0000 -11.7145
# 5 -19.7280 0.1574 -15.5463 0.0000 23.3302 0.0000
# 6 0.0000 0.0000 0.0000 -11.7145 0.0000 10.1364
#
#
#
# Elastic Compliance Matrix: (Units=1/GPa)
#
#
# Indices 1 2 3 4 5 6 
#
# 1 0.017385 -0.001209 0.002106 0.000000 0.016112 0.000000
# 2 -0.001209 0.010036 -0.001262 0.000000 -0.001931 0.000000
# 3 0.002106 -0.001262 0.019268 0.000000 0.014629 0.000000
# 4 0.000000 0.000000 0.000000 -0.023166 0.000000 -0.026773
# 5 0.016112 -0.001931 0.014629 0.000000 0.066248 0.000000
# 6 0.000000 0.000000 0.000000 -0.026773 0.000000 0.067714
#
#
# Mechanical properties :
#
#
# Convention : Reuss Voigt Hill
#
# Bulk Modulus (GPa) = 21.75807 30.90307 26.33057
# Shear Modulus (GPa) = 28.81306 15.47895 22.14600
#
# Velocity S-wave (km/s) = 3.62123 2.65419 3.17475
# Velocity P-wave (km/s) = 5.23325 4.84330 5.04204
#
# Compressibility (1/GPa) = 0.04595997
#
# Stress axis : x y z
#
# Youngs Moduli (GPa) = 57.52201 99.63971 51.90062
#
# Poissons Ratio (x) = 0.12042 -0.10932
# Poissons Ratio (y) = 0.06952 0.06549
# Poissons Ratio (z) = -0.12116 0.12574
#
# Static dielectric constant tensor:
#      x y z
#    x 1.791300 0.000000 -0.020230 
#    y 0.000000 1.836330 0.000000 
#    z -0.020230 0.000000 1.822110 
# 
# From -- ./inp_files/29220.got.cif
#   From: 2010.05.17/outbox.cif.g08.bks.cpg/sg10_15_cif.got.tgz:29220.got - 2010.06.03 11:33:40.
