data_PCOD9146439
_publ_section_title
;
Structure prediction by ZEFSAII (Michael W. Deem and Ramdas Pophale) SiO2 
 PCOD9146439
Probable space group: P 2/M
;
_chemical_formula_sum "Si O2"
_cell_formula_units_Z 28
_cell_length_a 24.004395
_cell_length_b 8.423542
_cell_length_c 21.053193
_cell_angle_alpha 90.000000
_cell_angle_beta 19.005118
_cell_angle_gamma 90.000000
_cell_volume 1386.302635
_symmetry_space_group_name_H-M "P 2/M"
_symmetry_group_IT_number 10
_symmetry_cell_setting 'monoclinic'
loop_
_space_group_symop_operation_xyz
x,y,z
-x,y,-z
-x,-y,-z
x,-y,z
loop_
_atom_site_type_symbol
_atom_site_label
_atom_site_fract_x
_atom_site_fract_y
_atom_site_fract_z
Si Si1 0.550103 0.807799 0.741287
Si Si2 0.893794 0.691501 0.949056
Si Si3 0.510891 0.183516 0.057998
Si Si4 0.167754 0.689275 0.125705
Si Si5 0.526560 0.691867 0.398961
Si Si6 0.913712 0.182319 0.655659
Si Si7 0.249406 0.810398 0.597863
O O1 0.579423 0.747487 0.781822
O O2 0.678069 0.752264 0.548700
O O3 0.555074 0.000000 0.738971
O O4 0.358838 0.759234 0.926762
O O5 0.896782 0.500000 0.947238
O O6 0.906387 0.744027 0.861800
O O7 0.055521 0.753709 0.813188
O O8 0.710834 0.744433 0.173561
O O9 0.449792 0.000000 0.117145
O O10 0.500000 0.259039 0.000000
O O11 0.710957 0.180373 0.860508
O O12 0.182989 0.500000 0.107858
O O13 0.063196 0.738130 0.301025
O O14 0.500000 0.744646 0.500000
O O15 0.525754 0.500000 0.398945
O O16 0.375725 0.749371 0.515951
O O17 0.000000 0.255003 0.500000
O O18 0.974598 0.000000 0.595192
O O19 0.254725 0.000000 0.591712
#
# Coordination Sequence:
#
# PCOD9146439 Si02
#       7
#     4   4   4   4   4   4   4
#     4   9  18  33  53  78 108 146 190 235 291 351
#     4  10  22  39  60  88 119 156 200 242 293 357
#     4   8  14  26  45  68  96 132 178 229 274 326
#     4  10  19  33  55  79 107 148 193 243 295 343
#     4  10  22  43  68  89 117 160 204 246 292 352
#     4   9  18  31  48  71 102 144 189 236 290 347
#     4  11  23  37  60  92 123 156 195 247 301 354
#
# _framework density 20.197607999999999
#
# number of rings (size 3 to 8) (size 9 to 14) (size 15 to 20)
#    0.000    2.429    1.429    1.714    0.000    4.571 
#    0.000    5.714    0.000    6.857    0.000    0.000 
#    0.000    0.000    0.000    0.000    0.000    0.000 
#
# Total GULP energy -156201.881335 kJ/mol
# GULP energy per Si atom -5578.638619 kJ/mol
# Density = 2.015164 g / cm^3
# Si number density = 20.197608 Si / 1000 Ang^3
#
#
#
# Elastic Constant Matrix: (Units=GPa)
#
#
# Indices 1 2 3 4 5 6 
#
# 1 166.9645 21.7302 81.3267 0.0000 14.2761 0.0000
# 2 21.7302 7.3268 15.2437 0.0000 5.9341 0.0000
# 3 81.3267 15.2437 94.4158 0.0000 0.7207 0.0000
# 4 0.0000 0.0000 0.0000 50.3565 0.0000 -29.6414
# 5 14.2761 5.9341 0.7207 0.0000 30.8723 0.0000
# 6 0.0000 0.0000 0.0000 -29.6414 0.0000 45.1852
#
#
#
# Elastic Compliance Matrix: (Units=1/GPa)
#
#
# Indices 1 2 3 4 5 6 
#
# 1 0.012310 -0.019681 -0.007412 0.000000 -0.001736 0.000000
# 2 -0.019681 0.296779 -0.030603 0.000000 -0.047230 0.000000
# 3 -0.007412 -0.030603 0.021850 0.000000 0.008800 0.000000
# 4 0.000000 0.000000 0.000000 0.032350 0.000000 0.021222
# 5 -0.001736 -0.047230 0.008800 0.000000 0.042067 0.000000
# 6 0.000000 0.000000 0.000000 0.021222 0.000000 0.036052
#
#
# Mechanical properties :
#
#
# Convention : Reuss Voigt Hill
#
# Bulk Modulus (GPa) = 4.63937 56.14535 30.39236
# Shear Modulus (GPa) = 7.95356 35.30989 21.63173
#
# Velocity S-wave (km/s) = 1.98656 4.18571 3.27617
# Velocity P-wave (km/s) = 2.75025 7.15672 5.42137
#
# Compressibility (1/GPa) = 0.21554661
#
# Stress axis : x y z
#
# Youngs Moduli (GPa) = 81.23678 3.36951 45.76651
#
# Poissons Ratio (x) = 0.06631 0.33924
# Poissons Ratio (y) = 1.59879 1.40059
# Poissons Ratio (z) = 0.60216 0.10312
#
# Static dielectric constant tensor:
#      x y z
#    x 1.736600 0.000000 0.032130 
#    y 0.000000 1.697700 0.000000 
#    z 0.032130 0.000000 1.731840 
# 
# From -- ./inp_files/86482.got.cif
#   From: 2010.05.17/outbox.cif.g08.bks.cpg/sg10_44_cif.got.tgz:86482.got - 2010.06.03 11:33:40.
