data_PCOD9146382
_publ_section_title
;
Structure prediction by ZEFSAII (Michael W. Deem and Ramdas Pophale) SiO2 
 PCOD9146382
Probable space group: P 2/M
;
_chemical_formula_sum "Si O2"
_cell_formula_units_Z 32
_cell_length_a 19.248993
_cell_length_b 9.901483
_cell_length_c 11.427061
_cell_angle_alpha 90.000000
_cell_angle_beta 126.241409
_cell_angle_gamma 90.000000
_cell_volume 1756.568484
_symmetry_space_group_name_H-M "P 2/M"
_symmetry_group_IT_number 10
_symmetry_cell_setting 'monoclinic'
loop_
_space_group_symop_operation_xyz
x,y,z
-x,y,-z
-x,-y,-z
x,-y,z
loop_
_atom_site_type_symbol
_atom_site_label
_atom_site_fract_x
_atom_site_fract_y
_atom_site_fract_z
Si Si1 0.666470 0.839709 0.470470
Si Si2 0.205213 0.844765 0.837236
Si Si3 0.679030 0.654184 0.896940
Si Si4 0.211145 0.275217 0.212185
Si Si5 0.072568 0.347333 0.260131
Si Si6 0.176290 0.159323 0.537194
Si Si7 0.521340 0.840586 0.659545
Si Si8 0.922731 0.147229 0.076598
O O1 0.712709 0.776478 0.629079
O O2 0.728939 0.813322 0.423141
O O3 0.567021 0.799972 0.362517
O O4 0.665251 0.000000 0.488561
O O5 0.177751 0.818498 0.677013
O O6 0.124327 0.840263 0.844995
O O7 0.238940 0.000000 0.876824
O O8 0.273670 0.737118 0.953156
O O9 0.656861 0.500000 0.905704
O O10 0.746019 0.651164 0.854791
O O11 0.598250 0.743360 0.774047
O O12 0.145145 0.350543 0.231643
O O13 0.152597 0.159596 0.094431
O O14 0.052193 0.500000 0.275672
O O15 0.111325 0.255915 0.403179
O O16 0.989669 0.267781 0.130978
O O17 0.156800 0.000000 0.495664
O O18 0.500000 0.828624 0.500000
O O19 0.541377 0.000000 0.701262
O O20 0.964962 0.000000 0.109954
#
# Coordination Sequence:
#
# PCOD9146382 Si02
#       8
#     4   4   4   4   4   4   4   4
#     4   9  17  32  56  83 107 136 176 220 265 313
#     4   9  20  39  60  79 102 137 180 227 269 307
#     4  11  22  35  54  81 111 144 179 215 260 319
#     4  10  20  35  53  77 108 143 179 217 265 316
#     4  11  23  36  52  77 111 144 174 215 270 324
#     4   9  19  38  61  80 101 135 183 227 263 309
#     4  10  19  33  54  82 114 143 173 215 263 312
#     4  10  21  35  55  80 106 138 179 225 268 313
#
# _framework density 18.217338000000002
#
# number of rings (size 3 to 8) (size 9 to 14) (size 15 to 20)
#    0.000    2.125    1.250    1.875    0.000    7.250 
#    0.000    3.750    0.000    3.750    0.000    0.000 
#    0.000    0.000    0.000    0.000    0.000    0.000 
#
# Total GULP energy -178485.601465 kJ/mol
# GULP energy per Si atom -5577.675046 kJ/mol
# Density = 1.817587 g / cm^3
# Si number density = 18.217338 Si / 1000 Ang^3
#
#
#
# Elastic Constant Matrix: (Units=GPa)
#
#
# Indices 1 2 3 4 5 6 
#
# 1 35.8706 38.4159 28.4620 0.0000 1.6392 0.0000
# 2 38.4159 118.7604 62.9660 0.0000 13.3041 0.0000
# 3 28.4620 62.9660 80.0586 0.0000 -3.0227 0.0000
# 4 0.0000 0.0000 0.0000 -12.5418 0.0000 -1.3843
# 5 1.6392 13.3041 -3.0227 0.0000 33.2432 0.0000
# 6 0.0000 0.0000 0.0000 -1.3843 0.0000 6.6866
#
#
#
# Elastic Compliance Matrix: (Units=1/GPa)
#
#
# Indices 1 2 3 4 5 6 
#
# 1 0.045430 -0.010837 -0.007574 0.000000 0.001408 0.000000
# 2 -0.010837 0.018763 -0.011206 0.000000 -0.007993 0.000000
# 3 -0.007574 -0.011206 0.024264 0.000000 0.007064 0.000000
# 4 0.000000 0.000000 0.000000 -0.077952 0.000000 -0.016137
# 5 0.001408 -0.007993 0.007064 0.000000 0.033853 0.000000
# 6 0.000000 0.000000 0.000000 -0.016137 0.000000 0.146211
#
#
# Mechanical properties :
#
#
# Convention : Reuss Voigt Hill
#
# Bulk Modulus (GPa) = 34.22147 54.93082 44.57615
# Shear Modulus (GPa) = 19.26459 12.46731 15.86595
#
# Velocity S-wave (km/s) = 3.25543 2.61888 2.95435
# Velocity P-wave (km/s) = 5.74076 6.27401 6.01330
#
# Compressibility (1/GPa) = 0.02922142
#
# Stress axis : x y z
#
# Youngs Moduli (GPa) = 22.01197 53.29775 41.21395
#
# Poissons Ratio (x) = 0.57760 0.31217
# Poissons Ratio (y) = 0.23855 0.46183
# Poissons Ratio (z) = 0.16673 0.59724
#
# Static dielectric constant tensor:
#      x y z
#    x 1.654110 0.000000 0.007660 
#    y 0.000000 1.632340 0.000000 
#    z 0.007660 0.000000 1.599330 
# 
# From -- ./inp_files/55310.got.cif
#   From: 2010.05.17/outbox.cif.g08.bks.cpg/sg10_28_cif.got.tgz:55310.got - 2010.06.03 11:33:40.
