data_PCOD9146363
_publ_section_title
;
Structure prediction by ZEFSAII (Michael W. Deem and Ramdas Pophale) SiO2 
 PCOD9146363
Probable space group: P 2/M
;
_chemical_formula_sum "Si O2"
_cell_formula_units_Z 32
_cell_length_a 14.868691
_cell_length_b 9.124967
_cell_length_c 22.529585
_cell_angle_alpha 90.000000
_cell_angle_beta 34.313356
_cell_angle_gamma 90.000000
_cell_volume 1723.136163
_symmetry_space_group_name_H-M "P 2/M"
_symmetry_group_IT_number 10
_symmetry_cell_setting 'monoclinic'
loop_
_space_group_symop_operation_xyz
x,y,z
-x,y,-z
-x,-y,-z
x,-y,z
loop_
_atom_site_type_symbol
_atom_site_label
_atom_site_fract_x
_atom_site_fract_y
_atom_site_fract_z
Si Si1 0.815275 0.821758 0.603317
Si Si2 0.437453 0.825996 0.159728
Si Si3 0.019298 0.839126 0.683014
Si Si4 0.242760 0.671428 0.021904
Si Si5 0.279041 0.666531 0.144610
Si Si6 0.657235 0.829386 0.567627
Si Si7 0.579286 0.675723 0.392787
Si Si8 0.082058 0.168309 0.789699
O O1 0.712705 0.782934 0.717116
O O2 0.711031 0.776305 0.603115
O O3 0.000000 0.770865 0.500000
O O4 0.822833 0.000000 0.596976
O O5 0.394883 0.773551 0.116693
O O6 0.457777 0.000000 0.151093
O O7 0.601412 0.748578 0.089824
O O8 0.179762 0.827749 0.558931
O O9 0.059073 0.835858 0.730852
O O10 0.896975 0.710092 0.737163
O O11 0.945045 0.000000 0.709887
O O12 0.234357 0.500000 0.011472
O O13 0.268096 0.682125 0.079713
O O14 0.075963 0.752090 0.099432
O O15 0.323685 0.500000 0.134415
O O16 0.530709 0.735225 0.600299
O O17 0.603871 0.000000 0.600436
O O18 0.500000 0.718642 0.500000
O O19 0.588926 0.500000 0.386789
O O20 0.754094 0.745215 0.290122
O O21 0.092846 0.000000 0.804491
#
# Coordination Sequence:
#
# PCOD9146363 Si02
#       8
#     4   4   4   4   4   4   4   4
#     4   9  19  36  58  82 110 144 185 233 280 318
#     4  11  21  34  54  78 104 139 186 232 274 326
#     4   9  17  29  49  76 105 138 177 221 266 319
#     4  10  21  36  53  76 109 145 179 222 281 337
#     4  10  20  32  49  74 106 143 180 221 275 331
#     4  10  19  34  56  80 108 146 189 231 273 322
#     4  11  22  34  52  81 119 154 181 219 276 334
#     4  10  19  33  54  81 109 140 181 223 267 324
#
# _framework density 18.570789000000001
#
# number of rings (size 3 to 8) (size 9 to 14) (size 15 to 20)
#    0.000    2.000    1.250    3.000    0.000    6.500 
#    0.000    1.250    0.000    3.375    0.000    5.250 
#    0.000    0.000    0.000    0.000    0.000    0.000 
#
# Total GULP energy -178535.366049 kJ/mol
# GULP energy per Si atom -5579.230189 kJ/mol
# Density = 1.852852 g / cm^3
# Si number density = 18.570789 Si / 1000 Ang^3
#
#
#
# Elastic Constant Matrix: (Units=GPa)
#
#
# Indices 1 2 3 4 5 6 
#
# 1 72.5106 36.2016 34.6637 0.0000 -16.4179 0.0000
# 2 36.2016 85.9298 53.0326 0.0000 -15.1303 0.0000
# 3 34.6637 53.0326 106.0259 0.0000 -23.3990 0.0000
# 4 0.0000 0.0000 0.0000 21.4441 0.0000 -7.9987
# 5 -16.4179 -15.1303 -23.3990 0.0000 25.1535 0.0000
# 6 0.0000 0.0000 0.0000 -7.9987 0.0000 16.2982
#
#
#
# Elastic Compliance Matrix: (Units=1/GPa)
#
#
# Indices 1 2 3 4 5 6 
#
# 1 0.019154 -0.005654 -0.001794 0.000000 0.007432 0.000000
# 2 -0.005654 0.018671 -0.007331 0.000000 0.000721 0.000000
# 3 -0.001794 -0.007331 0.015671 0.000000 0.008997 0.000000
# 4 0.000000 0.000000 0.000000 0.057082 0.000000 0.028015
# 5 0.007432 0.000721 0.008997 0.000000 0.053410 0.000000
# 6 0.000000 0.000000 0.000000 0.028015 0.000000 0.075105
#
#
# Mechanical properties :
#
#
# Convention : Reuss Voigt Hill
#
# Bulk Modulus (GPa) = 41.77544 56.91800 49.34672
# Shear Modulus (GPa) = 18.07464 21.95040 20.01252
#
# Velocity S-wave (km/s) = 3.12313 3.44173 3.28630
# Velocity P-wave (km/s) = 5.96233 6.81981 6.40543
#
# Compressibility (1/GPa) = 0.02393751
#
# Stress axis : x y z
#
# Youngs Moduli (GPa) = 52.20784 53.55957 63.81302
#
# Poissons Ratio (x) = 0.30281 0.11448
# Poissons Ratio (y) = 0.29516 0.46784
# Poissons Ratio (z) = 0.09366 0.39267
#
# Static dielectric constant tensor:
#      x y z
#    x 1.642030 0.000000 0.001180 
#    y 0.000000 1.635270 0.000000 
#    z 0.001180 0.000000 1.649840 
# 
# From -- ./inp_files/89490.got.cif
#   From: 2010.05.17/outbox.cif.g08.bks.cpg/sg10_45_cif.got.tgz:89490.got - 2010.06.03 11:33:40.
