data_PCOD9146959
_publ_section_title
;
Structure prediction by ZEFSAII (Michael W. Deem and Ramdas Pophale) SiO2 
 PCOD9146959
Probable space group: P 2/M
;
_chemical_formula_sum "Si O2"
_cell_formula_units_Z 26
_cell_length_a 26.148208
_cell_length_b 10.579334
_cell_length_c 5.303146
_cell_angle_alpha 90.000000
_cell_angle_beta 101.701480
_cell_angle_gamma 90.000000
_cell_volume 1436.524514
_symmetry_space_group_name_H-M "P 2/M"
_symmetry_group_IT_number 10
_symmetry_cell_setting 'monoclinic'
loop_
_space_group_symop_operation_xyz
x,y,z
-x,y,-z
-x,-y,-z
x,-y,z
loop_
_atom_site_type_symbol
_atom_site_label
_atom_site_fract_x
_atom_site_fract_y
_atom_site_fract_z
Si Si1 0.464535 0.144950 0.214535
Si Si2 0.964445 0.500000 0.214445
Si Si3 0.306012 0.348051 0.556005
Si Si4 0.122622 0.718752 0.872631
Si Si5 0.185903 0.346398 0.435914
Si Si6 0.974529 0.853776 0.224528
Si Si7 0.628349 0.346501 0.878355
O O1 0.500000 0.156638 0.500000
O O2 0.422068 0.256590 0.172068
O O3 0.442687 0.000000 0.192686
O O4 0.500000 0.156638 0.000000
O O5 0.924087 0.616499 0.174086
O O6 0.000000 0.500000 0.500000
O O7 0.000000 0.500000 0.000000
O O8 0.302494 0.500000 0.552485
O O9 0.246248 0.303379 0.496249
O O10 0.337819 0.315400 0.336296
O O11 0.337821 0.315401 0.839323
O O12 0.156908 0.700328 0.657946
O O13 0.087776 0.844169 0.837781
O O14 0.156905 0.700326 0.155895
O O15 0.184049 0.500000 0.434062
O O16 0.000000 0.796330 0.500000
O O17 0.990369 0.000000 0.240369
O O18 0.000000 0.796329 0.000000
O O19 0.617355 0.500000 0.867360
#
# Coordination Sequence:
#
# PCOD9146959 Si02
#       7
#     4   2   4   4   4   4   4
#     4  10  21  36  55  81 115 152 184 217 266 329
#     4  12  22  32  46  72 108 130 156 200 256 316
#     4   9  19  33  54  77 106 139 177 225 261 307
#     4  12  21  34  53  76 103 133 167 209 258 314
#     4  11  20  35  52  78 107 137 172 207 262 324
#     4  10  21  38  56  72  93 129 172 208 250 307
#     4  10  19  34  55  82 108 141 187 229 269 303
#
# _framework density 18.099240000000002
#
# number of rings (size 3 to 8) (size 9 to 14) (size 15 to 20)
#    0.000    1.538    1.538    4.615    0.000    3.077 
#    0.000    0.000    0.000    5.538    0.000    0.000 
#    0.000    0.000    0.000    0.000    0.000    0.000 
#
# Total GULP energy -145048.019855 kJ/mol
# GULP energy per Si atom -5578.769994 kJ/mol
# Density = 1.805804 g / cm^3
# Si number density = 18.099240 Si / 1000 Ang^3
#
#
#
# Elastic Constant Matrix: (Units=GPa)
#
#
# Indices 1 2 3 4 5 6 
#
# 1 147.1991 45.5651 101.3031 0.0000 -4.9009 0.0000
# 2 45.5651 47.6523 41.0986 0.0000 1.6941 0.0000
# 3 101.3031 41.0986 199.0763 0.0000 -14.8192 0.0000
# 4 0.0000 0.0000 0.0000 -6.8274 0.0000 10.3256
# 5 -4.9009 1.6941 -14.8192 0.0000 33.1570 0.0000
# 6 0.0000 0.0000 0.0000 10.3256 0.0000 20.3585
#
#
#
# Elastic Compliance Matrix: (Units=1/GPa)
#
#
# Indices 1 2 3 4 5 6 
#
# 1 0.012480 -0.007871 -0.004715 0.000000 0.000139 0.000000
# 2 -0.007871 0.030964 -0.002680 0.000000 -0.003944 0.000000
# 3 -0.004715 -0.002680 0.008207 0.000000 0.003108 0.000000
# 4 0.000000 0.000000 0.000000 -0.082888 0.000000 0.042040
# 5 0.000139 -0.003944 0.003108 0.000000 0.031771 0.000000
# 6 0.000000 0.000000 0.000000 0.042040 0.000000 0.027797
#
#
# Mechanical properties :
#
#
# Convention : Reuss Voigt Hill
#
# Bulk Modulus (GPa) = 47.35512 85.54016 66.44764
# Shear Modulus (GPa) = 75.86786 23.06834 49.46810
#
# Velocity S-wave (km/s) = 6.48141 3.57395 5.23363
# Velocity P-wave (km/s) = 9.06822 8.02466 8.56235
#
# Compressibility (1/GPa) = 0.02111704
#
# Stress axis : x y z
#
# Youngs Moduli (GPa) = 80.13029 32.29557 121.84283
#
# Poissons Ratio (x) = 0.25421 0.57450
# Poissons Ratio (y) = 0.63074 0.32660
# Poissons Ratio (z) = 0.37782 0.08657
#
# Static dielectric constant tensor:
#      x y z
#    x 1.596510 0.000000 -0.008810 
#    y 0.000000 1.688380 0.000000 
#    z -0.008810 0.000000 1.619700 
# 
# From -- ./inp_files/12305.got.cif
#   From: 2010.05.17/outbox.cif.g08.bks.cpg/sg10_7_cif.got.tgz:12305.got - 2010.06.03 11:33:40.
