data_PCOD9146114
_publ_section_title
;
Structure prediction by ZEFSAII (Michael W. Deem and Ramdas Pophale) SiO2 
 PCOD9146114
Probable space group: P 2/M
;
_chemical_formula_sum "Si O2"
_cell_formula_units_Z 30
_cell_length_a 11.886872
_cell_length_b 18.687894
_cell_length_c 15.089463
_cell_angle_alpha 90.000000
_cell_angle_beta 28.801874
_cell_angle_gamma 90.000000
_cell_volume 1614.925921
_symmetry_space_group_name_H-M "P 2/M"
_symmetry_group_IT_number 10
_symmetry_cell_setting 'monoclinic'
loop_
_space_group_symop_operation_xyz
x,y,z
-x,y,-z
-x,-y,-z
x,-y,z
loop_
_atom_site_type_symbol
_atom_site_label
_atom_site_fract_x
_atom_site_fract_y
_atom_site_fract_z
Si Si1 0.253875 0.289363 0.370220
Si Si2 0.816629 0.916082 0.697288
Si Si3 0.000000 0.687412 0.000000
Si Si4 0.753428 0.230104 0.009109
Si Si5 0.230810 0.581181 0.712120
Si Si6 0.737145 0.083728 0.950912
Si Si7 0.700993 0.418067 0.786752
Si Si8 0.976935 0.667234 0.306604
O O1 0.472499 0.238360 0.199924
O O2 0.335160 0.365298 0.270876
O O3 0.219220 0.293485 0.499785
O O4 0.000000 0.272724 0.500000
O O5 0.824291 0.890797 0.793393
O O6 0.000000 0.885362 0.500000
O O7 0.875575 0.000000 0.664763
O O8 0.545857 0.913842 0.856118
O O9 0.132553 0.733673 0.982960
O O10 0.181969 0.634405 0.826445
O O11 0.817428 0.146363 0.960464
O O12 0.853381 0.274540 0.855620
O O13 0.500000 0.579232 0.500000
O O14 0.150704 0.500000 0.785188
O O15 0.101811 0.615879 0.717503
O O16 0.801126 0.000000 0.922299
O O17 0.735718 0.500000 0.735627
O O18 0.912266 0.383618 0.695168
O O19 0.500000 0.415862 0.000000
#
# Coordination Sequence:
#
# PCOD9146114 Si02
#       8
#     4   4   2   4   4   4   4   4
#     4  10  22  35  54  80 110 146 181 217 270 325
#     4   8  15  29  49  77 111 139 164 202 258 319
#     4  10  23  40  57  76 106 148 180 224 279 320
#     4  11  22  39  55  76 109 140 184 229 270 326
#     4  10  20  36  58  81 105 134 182 234 270 313
#     4   9  19  33  53  79 108 140 175 218 265 318
#     4  10  19  33  51  76 111 145 176 212 256 312
#     4  10  21  35  54  77 107 145 180 217 270 323
#
# _framework density 18.576703999999999
#
# number of rings (size 3 to 8) (size 9 to 14) (size 15 to 20)
#    0.000    2.267    1.333    2.200    0.000    8.800 
#    0.000    1.000    0.000    0.000    0.000    0.000 
#    0.000   10.133    0.000    0.000    0.000    0.000 
#
# Total GULP energy -167136.651103 kJ/mol
# GULP energy per Si atom -5571.221703 kJ/mol
# Density = 1.853442 g / cm^3
# Si number density = 18.576704 Si / 1000 Ang^3
#
#
#
# Elastic Constant Matrix: (Units=GPa)
#
#
# Indices 1 2 3 4 5 6 
#
# 1 43.5912 39.8592 17.4609 0.0000 16.1710 0.0000
# 2 39.8592 134.9303 32.9979 0.0000 10.8497 0.0000
# 3 17.4609 32.9979 104.5276 0.0000 19.2910 0.0000
# 4 0.0000 0.0000 0.0000 3.3241 0.0000 -1.1390
# 5 16.1710 10.8497 19.2910 0.0000 25.6736 0.0000
# 6 0.0000 0.0000 0.0000 -1.1390 0.0000 25.9315
#
#
#
# Elastic Compliance Matrix: (Units=1/GPa)
#
#
# Indices 1 2 3 4 5 6 
#
# 1 0.039957 -0.010212 0.000461 0.000000 -0.021199 0.000000
# 2 -0.010212 0.010708 -0.002353 0.000000 0.003675 0.000000
# 3 0.000461 -0.002353 0.011729 0.000000 -0.008110 0.000000
# 4 0.000000 0.000000 0.000000 0.305427 0.000000 0.013415
# 5 -0.021199 0.003675 -0.008110 0.000000 0.056844 0.000000
# 6 0.000000 0.000000 0.000000 0.013415 0.000000 0.039152
#
#
# Mechanical properties :
#
#
# Convention : Reuss Voigt Hill
#
# Bulk Modulus (GPa) = 26.18628 51.52056 38.85342
# Shear Modulus (GPa) = 9.98497 23.83458 16.90978
#
# Velocity S-wave (km/s) = 2.32092 3.58584 3.02034
# Velocity P-wave (km/s) = 4.61618 6.70362 5.75533
#
# Compressibility (1/GPa) = 0.03818794
#
# Stress axis : x y z
#
# Youngs Moduli (GPa) = 25.02676 93.39051 85.25787
#
# Poissons Ratio (x) = 0.95369 -0.03934
# Poissons Ratio (y) = 0.25557 0.20058
# Poissons Ratio (z) = -0.01155 0.21971
#
# Static dielectric constant tensor:
#      x y z
#    x 1.618490 0.000000 0.018880 
#    y 0.000000 1.659190 0.000000 
#    z 0.018880 0.000000 1.715650 
# 
# From -- ./inp_files/65457.got.cif
#   From: 2010.05.17/outbox.cif.g08.bks.cpg/sg10_33_cif.got.tgz:65457.got - 2010.06.03 11:33:40.
