data_PCOD9146713
_publ_section_title
;
Structure prediction by ZEFSAII (Michael W. Deem and Ramdas Pophale) SiO2 
 PCOD9146713
Probable space group: P 2/M
;
_chemical_formula_sum "Si O2"
_cell_formula_units_Z 28
_cell_length_a 17.870108
_cell_length_b 10.678483
_cell_length_c 21.147703
_cell_angle_alpha 90.000000
_cell_angle_beta 20.021029
_cell_angle_gamma 90.000000
_cell_volume 1381.622238
_symmetry_space_group_name_H-M "P 2/M"
_symmetry_group_IT_number 10
_symmetry_cell_setting 'monoclinic'
loop_
_space_group_symop_operation_xyz
x,y,z
-x,y,-z
-x,-y,-z
x,-y,z
loop_
_atom_site_type_symbol
_atom_site_label
_atom_site_fract_x
_atom_site_fract_y
_atom_site_fract_z
Si Si1 0.007168 0.356199 0.679009
Si Si2 0.884512 0.139770 0.218354
Si Si3 0.612238 0.137033 0.147182
Si Si4 0.303865 0.638225 0.707130
Si Si5 0.821241 0.355510 0.697281
Si Si6 0.462694 0.644994 0.886766
Si Si7 0.399620 0.221998 0.438921
O O1 0.078726 0.500000 0.611439
O O2 0.928229 0.298236 0.674868
O O3 0.197756 0.285797 0.563462
O O4 0.790715 0.358260 0.893665
O O5 0.849101 0.250320 0.196111
O O6 0.703734 0.155905 0.417304
O O7 0.862597 0.000000 0.208154
O O8 0.125627 0.150815 0.056658
O O9 0.512299 0.254116 0.188431
O O10 0.520189 0.139651 0.291234
O O11 0.563798 0.000000 0.156917
O O12 0.500000 0.632285 0.500000
O O13 0.203017 0.500000 0.789702
O O14 0.424232 0.677696 0.675681
O O15 0.773620 0.500000 0.753505
O O16 0.600452 0.311159 0.838839
O O17 0.000000 0.353869 0.500000
O O18 0.530751 0.500000 0.818021
#
# Coordination Sequence:
#
# PCOD9146713 Si02
#       7
#     4   4   4   4   4   4   4
#     4  10  19  33  57  88 121 155 194 243 295 351
#     4  10  22  41  61  83 115 155 197 244 294 351
#     4  11  24  40  60  88 119 156 202 248 292 351
#     4   9  20  37  60  88 119 152 192 243 297 351
#     4   9  17  30  52  85 121 153 192 240 290 347
#     4  10  20  36  59  87 118 157 198 242 295 349
#     4  11  21  37  61  86 116 157 197 242 295 352
#
# _framework density 20.266031999999999
#
# number of rings (size 3 to 8) (size 9 to 14) (size 15 to 20)
#    0.000    2.000    1.429    2.143    0.000    8.857 
#    0.000    2.143    0.000    6.429    0.000    0.000 
#    0.000    0.000    0.000    0.000    0.000    0.000 
#
# Total GULP energy -156233.586469 kJ/mol
# GULP energy per Si atom -5579.770945 kJ/mol
# Density = 2.021991 g / cm^3
# Si number density = 20.266032 Si / 1000 Ang^3
#
#
#
# Elastic Constant Matrix: (Units=GPa)
#
#
# Indices 1 2 3 4 5 6 
#
# 1 101.0423 65.1126 3.1812 0.0000 -6.9790 0.0000
# 2 65.1126 132.2286 14.1426 0.0000 -13.8234 0.0000
# 3 3.1812 14.1426 32.1309 0.0000 7.9628 0.0000
# 4 0.0000 0.0000 0.0000 -178.8774 0.0000 -88.7398
# 5 -6.9790 -13.8234 7.9628 0.0000 21.2084 0.0000
# 6 0.0000 0.0000 0.0000 -88.7398 0.0000 -30.9636
#
#
#
# Elastic Compliance Matrix: (Units=1/GPa)
#
#
# Indices 1 2 3 4 5 6 
#
# 1 0.014609 -0.007505 0.002071 0.000000 -0.000862 0.000000
# 2 -0.007505 0.012914 -0.007073 0.000000 0.008603 0.000000
# 3 0.002071 -0.007073 0.038596 0.000000 -0.018420 0.000000
# 4 0.000000 0.000000 0.000000 0.013255 0.000000 -0.037987
# 5 -0.000862 0.008603 -0.018420 0.000000 0.059391 0.000000
# 6 0.000000 0.000000 0.000000 -0.037987 0.000000 0.076572
#
#
# Mechanical properties :
#
#
# Convention : Reuss Voigt Hill
#
# Bulk Modulus (GPa) = 24.32906 47.80828 36.06867
# Shear Modulus (GPa) = 19.68093 -25.52882 -2.92395
#
# Velocity S-wave (km/s) = 3.11967 -3.55306 -1.20246
# Velocity P-wave (km/s) = 5.00074 2.60946 3.98853
#
# Compressibility (1/GPa) = 0.04110310
#
# Stress axis : x y z
#
# Youngs Moduli (GPa) = 68.45328 77.43330 25.90949
#
# Poissons Ratio (x) = 0.58115 -0.05365
# Poissons Ratio (y) = 0.51375 0.18327
# Poissons Ratio (z) = -0.14175 0.54771
#
# Static dielectric constant tensor:
#      x y z
#    x 1.732070 0.000000 0.014590 
#    y 0.000000 1.734030 0.000000 
#    z 0.014590 0.000000 1.735700 
# 
# From -- ./inp_files/85808.got.cif
#   From: 2010.05.17/outbox.cif.g08.bks.cpg/sg10_43_cif.got.tgz:85808.got - 2010.06.03 11:33:40.
