data_PCOD9146377
_publ_section_title
;
Structure prediction by ZEFSAII (Michael W. Deem and Ramdas Pophale) SiO2 
 PCOD9146377
Probable space group: P 2/M
;
_chemical_formula_sum "Si O2"
_cell_formula_units_Z 32
_cell_length_a 12.735702
_cell_length_b 7.489685
_cell_length_c 14.933999
_cell_angle_alpha 90.000000
_cell_angle_beta 85.191618
_cell_angle_gamma 90.000000
_cell_volume 1419.486970
_symmetry_space_group_name_H-M "P 2/M"
_symmetry_group_IT_number 10
_symmetry_cell_setting 'monoclinic'
loop_
_space_group_symop_operation_xyz
x,y,z
-x,y,-z
-x,-y,-z
x,-y,z
loop_
_atom_site_type_symbol
_atom_site_label
_atom_site_fract_x
_atom_site_fract_y
_atom_site_fract_z
Si Si1 0.106540 0.213606 0.038587
Si Si2 0.031178 0.790285 0.594618
Si Si3 0.476568 0.717912 0.602801
Si Si4 0.263290 0.286210 0.867470
Si Si5 0.505255 0.718006 0.101564
Si Si6 0.883543 0.208291 0.759659
Si Si7 0.351349 0.716055 0.264710
Si Si8 0.241251 0.715878 0.673660
O O1 0.119634 0.283894 0.138895
O O2 0.097511 0.000000 0.045291
O O3 0.200963 0.246169 0.962433
O O4 0.000000 0.283312 0.000000
O O5 0.966608 0.712098 0.683493
O O6 0.000000 0.714376 0.500000
O O7 0.153943 0.775459 0.609474
O O8 0.002888 0.000000 0.593255
O O9 0.500000 0.773048 0.500000
O O10 0.475952 0.500000 0.605504
O O11 0.570281 0.774875 0.662063
O O12 0.360123 0.773975 0.642194
O O13 0.267277 0.500000 0.861048
O O14 0.383798 0.223552 0.865007
O O15 0.214041 0.222880 0.777070
O O16 0.505136 0.500000 0.101957
O O17 0.407103 0.774041 0.168453
O O18 0.500000 0.777134 0.000000
O O19 0.767839 0.220441 0.725055
O O20 0.911357 0.000000 0.768390
O O21 0.348440 0.500000 0.266570
O O22 0.240612 0.500000 0.672139
#
# Coordination Sequence:
#
# PCOD9146377 Si02
#       8
#     4   4   4   4   4   4   4   4
#     4  10  21  37  56  77 105 147 190 226 276 334
#     4  10  23  42  61  80 108 149 190 230 280 333
#     4   9  18  33  55  84 115 146 179 223 278 331
#     4  10  19  33  54  82 112 140 178 227 272 319
#     4   9  16  28  48  75 107 141 174 212 261 315
#     4  10  22  39  56  79 114 147 183 235 283 326
#     4  10  19  34  57  83 111 146 186 221 269 336
#     4  10  20  36  59  87 116 143 182 234 279 325
#
# _framework density 22.543355999999999
#
# number of rings (size 3 to 8) (size 9 to 14) (size 15 to 20)
#    0.000    2.250    1.250    1.500    1.750    4.000 
#    0.000    1.250    0.000    3.000    0.000    0.000 
#    0.000    0.000    0.000    0.000    0.000    0.000 
#
# Total GULP energy -178799.722304 kJ/mol
# GULP energy per Si atom -5587.491322 kJ/mol
# Density = 2.249205 g / cm^3
# Si number density = 22.543356 Si / 1000 Ang^3
#
#
#
# Elastic Constant Matrix: (Units=GPa)
#
#
# Indices 1 2 3 4 5 6 
#
# 1 94.2790 -11.9491 38.1818 0.0000 5.5579 0.0000
# 2 -11.9491 59.4325 5.1483 0.0000 -3.1126 0.0000
# 3 38.1818 5.1483 156.0081 0.0000 9.8697 0.0000
# 4 0.0000 0.0000 0.0000 -11.4329 0.0000 18.1274
# 5 5.5579 -3.1126 9.8697 0.0000 38.9014 0.0000
# 6 0.0000 0.0000 0.0000 18.1274 0.0000 -2.2638
#
#
#
# Elastic Compliance Matrix: (Units=1/GPa)
#
#
# Indices 1 2 3 4 5 6 
#
# 1 0.012219 0.002679 -0.003031 0.000000 -0.000762 0.000000
# 2 0.002679 0.017550 -0.001321 0.000000 0.001357 0.000000
# 3 -0.003031 -0.001321 0.007292 0.000000 -0.001523 0.000000
# 4 0.000000 0.000000 0.000000 0.007478 0.000000 0.059881
# 5 -0.000762 0.001357 -0.001523 0.000000 0.026310 0.000000
# 6 0.000000 0.000000 0.000000 0.059881 0.000000 0.037767
#
#
# Mechanical properties :
#
#
# Convention : Reuss Voigt Hill
#
# Bulk Modulus (GPa) = 29.65955 41.38686 35.52320
# Shear Modulus (GPa) = 40.58515 23.59686 32.09100
#
# Velocity S-wave (km/s) = 4.24762 3.23883 3.77705
# Velocity P-wave (km/s) = 6.10259 5.69081 5.90029
#
# Compressibility (1/GPa) = 0.03371595
#
# Stress axis : x y z
#
# Youngs Moduli (GPa) = 81.84190 56.98034 137.14498
#
# Poissons Ratio (x) = -0.15266 0.41563
# Poissons Ratio (y) = -0.21927 0.18112
# Poissons Ratio (z) = 0.24803 0.07525
#
# Static dielectric constant tensor:
#      x y z
#    x 1.797670 0.000000 -0.000920 
#    y 0.000000 1.873820 0.000000 
#    z -0.000920 0.000000 1.840200 
# 
# From -- ./inp_files/63831.got.cif
#   From: 2010.05.17/outbox.cif.g08.bks.cpg/sg10_32_cif.got.tgz:63831.got - 2010.06.03 11:33:40.
