data_PCOD9146619
_publ_section_title
;
Structure prediction by ZEFSAII (Michael W. Deem and Ramdas Pophale) SiO2 
 PCOD9146619
Probable space group: P 2/M
;
_chemical_formula_sum "Si O2"
_cell_formula_units_Z 32
_cell_length_a 14.803291
_cell_length_b 7.531584
_cell_length_c 12.681654
_cell_angle_alpha 90.000000
_cell_angle_beta 94.379838
_cell_angle_gamma 90.000000
_cell_volume 1409.776833
_symmetry_space_group_name_H-M "P 2/M"
_symmetry_group_IT_number 10
_symmetry_cell_setting 'monoclinic'
loop_
_space_group_symop_operation_xyz
x,y,z
-x,y,-z
-x,-y,-z
x,-y,z
loop_
_atom_site_type_symbol
_atom_site_label
_atom_site_fract_x
_atom_site_fract_y
_atom_site_fract_z
Si Si1 0.665580 0.791956 0.258835
Si Si2 0.595891 0.294366 0.473834
Si Si3 0.864840 0.714365 0.233088
Si Si4 0.730711 0.205142 0.844895
Si Si5 0.895637 0.715055 0.000135
Si Si6 0.966848 0.283691 0.614303
Si Si7 0.763466 0.703133 0.614991
Si Si8 0.604596 0.783362 0.023614
O O1 0.610884 0.709859 0.350275
O O2 0.773172 0.767894 0.283519
O O3 0.640803 0.721401 0.140391
O O4 0.644249 0.000000 0.257721
O O5 0.500000 0.214718 0.500000
O O6 0.593914 0.500000 0.509913
O O7 0.685182 0.213424 0.536265
O O8 0.867427 0.500000 0.232446
O O9 0.956878 0.777695 0.296547
O O10 0.860113 0.774221 0.111335
O O11 0.831101 0.216414 0.902917
O O12 0.729648 0.296925 0.732165
O O13 0.706509 0.000000 0.824386
O O14 0.664943 0.278136 0.930357
O O15 0.892617 0.500000 0.995096
O O16 0.000000 0.768263 0.000000
O O17 0.965429 0.500000 0.623911
O O18 0.864551 0.218090 0.622041
O O19 0.000000 0.240579 0.500000
O O20 0.775512 0.500000 0.577663
O O21 0.610866 0.000000 0.024215
O O22 0.500000 0.735285 0.000000
#
# Coordination Sequence:
#
# PCOD9146619 Si02
#       8
#     4   4   4   4   4   4   4   4
#     4  11  22  38  62  88 117 152 195 241 290 353
#     4  10  23  42  63  88 119 153 192 245 300 346
#     4  10  19  33  56  83 113 148 189 238 286 337
#     4  11  22  37  59  86 120 154 193 243 294 347
#     4  10  20  35  56  82 115 157 201 238 281 345
#     4   9  17  32  57  84 108 147 196 235 281 341
#     4  10  21  39  61  85 118 154 194 240 290 355
#     4   9  20  38  58  82 114 155 195 236 288 347
#
# _framework density 22.698626999999998
#
# number of rings (size 3 to 8) (size 9 to 14) (size 15 to 20)
#    0.000    2.000    1.250    2.250    1.750    5.000 
#    0.000    1.875    0.000    4.500    0.000    0.000 
#    0.000    0.000    0.000    0.000    0.000    0.000 
#
# Total GULP energy -178886.189413 kJ/mol
# GULP energy per Si atom -5590.193419 kJ/mol
# Density = 2.264696 g / cm^3
# Si number density = 22.698627 Si / 1000 Ang^3
#
#
#
# Elastic Constant Matrix: (Units=GPa)
#
#
# Indices 1 2 3 4 5 6 
#
# 1 151.0375 -2.4047 46.6723 0.0000 -8.7295 0.0000
# 2 -2.4047 56.7863 -4.4926 0.0000 3.0369 0.0000
# 3 46.6723 -4.4926 99.8786 0.0000 -6.2865 0.0000
# 4 0.0000 0.0000 0.0000 20.6704 0.0000 -45.3321
# 5 -8.7295 3.0369 -6.2865 0.0000 38.7856 0.0000
# 6 0.0000 0.0000 0.0000 -45.3321 0.0000 47.9601
#
#
#
# Elastic Compliance Matrix: (Units=1/GPa)
#
#
# Indices 1 2 3 4 5 6 
#
# 1 0.007791 -0.000015 -0.003567 0.000000 0.001177 0.000000
# 2 -0.000015 0.017735 0.000725 0.000000 -0.001275 0.000000
# 3 -0.003567 0.000725 0.011778 0.000000 0.001049 0.000000
# 4 0.000000 0.000000 0.000000 -0.045090 0.000000 -0.042619
# 5 0.001177 -0.001275 0.001049 0.000000 0.026317 0.000000
# 6 0.000000 0.000000 0.000000 -0.042619 0.000000 -0.019434
#
#
# Mechanical properties :
#
#
# Convention : Reuss Voigt Hill
#
# Bulk Modulus (GPa) = 31.65794 43.02805 37.34299
# Shear Modulus (GPa) = 325.89847 39.34504 182.62175
#
# Velocity S-wave (km/s) = 11.99533 4.16789 8.97940
# Velocity P-wave (km/s) = 14.34671 6.49300 11.13524
#
# Compressibility (1/GPa) = 0.03158765
#
# Stress axis : x y z
#
# Youngs Moduli (GPa) = 128.35400 56.38655 84.90592
#
# Poissons Ratio (x) = 0.00086 0.30288
# Poissons Ratio (y) = 0.00195 -0.06152
# Poissons Ratio (z) = 0.45787 -0.04086
#
# Static dielectric constant tensor:
#      x y z
#    x 1.834090 0.000000 0.007250 
#    y 0.000000 1.882640 0.000000 
#    z 0.007250 0.000000 1.802130 
# 
# From -- ./inp_files/49816.got.cif
#   From: 2010.05.17/outbox.cif.g08.bks.cpg/sg10_25_cif.got.tgz:49816.got - 2010.06.03 11:33:40.
