data_PCOD9146773
_publ_section_title
;
Structure prediction by ZEFSAII (Michael W. Deem and Ramdas Pophale) SiO2 
 PCOD9146773
Probable space group: P 2/M
;
_chemical_formula_sum "Si O2"
_cell_formula_units_Z 32
_cell_length_a 12.079893
_cell_length_b 9.139220
_cell_length_c 22.230822
_cell_angle_alpha 90.000000
_cell_angle_beta 128.709772
_cell_angle_gamma 90.000000
_cell_volume 1915.149012
_symmetry_space_group_name_H-M "P 2/M"
_symmetry_group_IT_number 10
_symmetry_cell_setting 'monoclinic'
loop_
_space_group_symop_operation_xyz
x,y,z
-x,y,-z
-x,-y,-z
x,-y,z
loop_
_atom_site_type_symbol
_atom_site_label
_atom_site_fract_x
_atom_site_fract_y
_atom_site_fract_z
Si Si1 0.660796 0.325195 0.290698
Si Si2 0.018533 0.172915 0.815591
Si Si3 0.353279 0.324060 0.227850
Si Si4 0.734530 0.673727 0.674152
Si Si5 0.833149 0.825088 0.455536
Si Si6 0.147543 0.827146 0.739143
Si Si7 0.066334 0.174650 0.085019
Si Si8 0.822335 0.824989 0.589081
O O1 0.670546 0.500000 0.294971
O O2 0.496136 0.283680 0.241774
O O3 0.743357 0.259118 0.375697
O O4 0.736823 0.262667 0.257602
O O5 0.141344 0.199126 0.808804
O O6 0.887640 0.273132 0.750788
O O7 0.037407 0.197720 0.892780
O O8 0.978457 0.000000 0.794220
O O9 0.334856 0.500000 0.219338
O O10 0.365473 0.285341 0.303352
O O11 0.214964 0.249000 0.152727
O O12 0.730253 0.500000 0.664602
O O13 0.723961 0.750724 0.605960
O O14 0.796440 0.781502 0.511431
O O15 0.000000 0.799173 0.500000
O O16 0.810599 0.000000 0.441891
O O17 0.988366 0.792070 0.660655
O O18 0.169329 0.000000 0.735592
O O19 0.089548 0.000000 0.087937
O O20 0.000000 0.227487 0.000000
O O21 0.807778 0.000000 0.588884
#
# Coordination Sequence:
#
# PCOD9146773 Si02
#       8
#     4   4   4   4   4   4   4   4
#     4  11  22  33  47  69  97 128 166 207 240 277
#     4   8  15  28  46  70 100 126 149 188 239 284
#     4   9  20  36  49  68 101 135 161 190 236 292
#     4   9  16  28  47  67  90 122 160 198 236 281
#     4  10  19  34  50  66  93 128 163 201 249 297
#     4   9  16  29  47  67  93 128 162 193 239 289
#     4   9  17  31  55  84 104 120 153 199 237 276
#     4   9  17  30  48  68  92 120 156 204 250 289
#
# _framework density 16.708884000000001
#
# number of rings (size 3 to 8) (size 9 to 14) (size 15 to 20)
#    0.000    2.750    1.250    1.500    0.000    4.500 
#    0.000    0.625    0.000    4.500    0.000    5.250 
#    0.000    0.000    0.000    0.000    0.000    0.000 
#
# Total GULP energy -178215.470930 kJ/mol
# GULP energy per Si atom -5569.233467 kJ/mol
# Density = 1.667085 g / cm^3
# Si number density = 16.708884 Si / 1000 Ang^3
#
#
#
# Elastic Constant Matrix: (Units=GPa)
#
#
# Indices 1 2 3 4 5 6 
#
# 1 107.8357 39.3641 54.8171 0.0000 -20.2961 0.0000
# 2 39.3641 23.8619 25.8908 0.0000 -7.3340 0.0000
# 3 54.8171 25.8908 82.3381 0.0000 -25.6829 0.0000
# 4 0.0000 0.0000 0.0000 17.7071 0.0000 -3.8715
# 5 -20.2961 -7.3340 -25.6829 0.0000 23.8247 0.0000
# 6 0.0000 0.0000 0.0000 -3.8715 0.0000 26.2513
#
#
#
# Elastic Compliance Matrix: (Units=1/GPa)
#
#
# Indices 1 2 3 4 5 6 
#
# 1 0.025604 -0.036363 -0.003465 0.000000 0.006883 0.000000
# 2 -0.036363 0.115395 -0.016058 0.000000 -0.012766 0.000000
# 3 -0.003465 -0.016058 0.025670 0.000000 0.019777 0.000000
# 4 0.000000 0.000000 0.000000 0.058356 0.000000 0.008606
# 5 0.006883 -0.012766 0.019777 0.000000 0.065227 0.000000
# 6 0.000000 0.000000 0.000000 0.008606 0.000000 0.039363
#
#
# Mechanical properties :
#
#
# Convention : Reuss Voigt Hill
#
# Bulk Modulus (GPa) = 18.21613 50.46439 34.34026
# Shear Modulus (GPa) = 10.87698 19.82085 15.34892
#
# Velocity S-wave (km/s) = 2.55418 3.44793 3.03414
# Velocity P-wave (km/s) = 4.42992 6.79107 5.73336
#
# Compressibility (1/GPa) = 0.05489642
#
# Stress axis : x y z
#
# Youngs Moduli (GPa) = 39.05628 8.66591 38.95555
#
# Poissons Ratio (x) = 0.31512 0.13498
# Poissons Ratio (y) = 1.42020 0.62556
# Poissons Ratio (z) = 0.13533 0.13916
#
# Static dielectric constant tensor:
#      x y z
#    x 1.584090 0.000000 -0.039660 
#    y 0.000000 1.556570 0.000000 
#    z -0.039660 0.000000 1.560380 
# 
# From -- ./inp_files/54912.got.cif
#   From: 2010.05.17/outbox.cif.g08.bks.cpg/sg10_28_cif.got.tgz:54912.got - 2010.06.03 11:33:40.
