data_PCOD9146288
_publ_section_title
;
Structure prediction by ZEFSAII (Michael W. Deem and Ramdas Pophale) SiO2 
 PCOD9146288
Probable space group: P 2/M
;
_chemical_formula_sum "Si O2"
_cell_formula_units_Z 32
_cell_length_a 24.744283
_cell_length_b 7.332254
_cell_length_c 24.724689
_cell_angle_alpha 90.000000
_cell_angle_beta 18.871670
_cell_angle_gamma 90.000000
_cell_volume 1450.941194
_symmetry_space_group_name_H-M "P 2/M"
_symmetry_group_IT_number 10
_symmetry_cell_setting 'monoclinic'
loop_
_space_group_symop_operation_xyz
x,y,z
-x,y,-z
-x,-y,-z
x,-y,z
loop_
_atom_site_type_symbol
_atom_site_label
_atom_site_fract_x
_atom_site_fract_y
_atom_site_fract_z
Si Si1 0.142605 0.722945 0.116889
Si Si2 0.063535 0.722641 0.069666
Si Si3 0.713331 0.278079 0.351278
Si Si4 0.506043 0.723250 0.166124
Si Si5 0.400561 0.279361 0.041350
Si Si6 0.341422 0.721945 0.720720
Si Si7 0.849951 0.292141 0.471113
Si Si8 0.984603 0.790261 0.575004
O O1 0.145212 0.500000 0.116382
O O2 0.102551 0.777740 0.093829
O O3 0.998273 0.787420 0.294538
O O4 0.325001 0.780596 0.964213
O O5 0.062914 0.500000 0.069400
O O6 0.880711 0.782072 0.222729
O O7 0.208914 0.781992 0.890835
O O8 0.714102 0.500000 0.351310
O O9 0.712640 0.224436 0.288747
O O10 0.534544 0.221288 0.545246
O O11 0.502055 0.500000 0.170203
O O12 0.334725 0.788876 0.355066
O O13 0.517390 0.778410 0.092626
O O14 0.399177 0.500000 0.043222
O O15 0.209003 0.219557 0.225384
O O16 0.500000 0.216988 0.000000
O O17 0.340961 0.500000 0.721937
O O18 0.832339 0.500000 0.468463
O O19 0.909503 0.295410 0.477047
O O20 0.000000 0.711248 0.500000
O O21 0.039999 0.000000 0.519502
#
# Coordination Sequence:
#
# PCOD9146288 Si02
#       8
#     4   4   4   4   4   4   4   4
#     4   9  17  28  42  64  89 113 150 201 244 285
#     4   9  15  21  32  50  74 103 140 189 240 275
#     4   8  13  20  29  43  67 102 145 184 226 276
#     4   9  17  30  48  70  91 116 154 195 236 283
#     4  10  19  33  54  77 100 126 161 196 232 288
#     4   8  13  20  29  42  66 103 144 187 225 270
#     4  10  19  34  55  71  93 128 160 196 240 286
#     4  11  23  36  51  75 105 128 154 196 242 289
#
# _framework density 22.054651
#
# number of rings (size 3 to 8) (size 9 to 14) (size 15 to 20)
#    0.000    2.750    1.250    2.250    0.000    4.750 
#    0.000    5.625    0.000    0.000    0.000    0.000 
#    0.000    0.000    0.000    0.000    0.000    2.500 
#
# Total GULP energy -178765.961480 kJ/mol
# GULP energy per Si atom -5586.436296 kJ/mol
# Density = 2.200445 g / cm^3
# Si number density = 22.054651 Si / 1000 Ang^3
#
#
#
# Elastic Constant Matrix: (Units=GPa)
#
#
# Indices 1 2 3 4 5 6 
#
# 1 159.6341 3.2667 117.7305 0.0000 -16.1482 0.0000
# 2 3.2667 85.1237 2.3906 0.0000 -0.6715 0.0000
# 3 117.7305 2.3906 211.3368 0.0000 -25.9575 0.0000
# 4 0.0000 0.0000 0.0000 57.3019 0.0000 39.9280
# 5 -16.1482 -0.6715 -25.9575 0.0000 20.4551 0.0000
# 6 0.0000 0.0000 0.0000 39.9280 0.0000 -37.2183
#
#
#
# Elastic Compliance Matrix: (Units=1/GPa)
#
#
# Indices 1 2 3 4 5 6 
#
# 1 0.010656 -0.000238 -0.005806 0.000000 0.001036 0.000000
# 2 -0.000238 0.011758 0.000028 0.000000 0.000234 0.000000
# 3 -0.005806 0.000028 0.008770 0.000000 0.006546 0.000000
# 4 0.000000 0.000000 0.000000 0.009986 0.000000 0.010713
# 5 0.001036 0.000234 0.006546 0.000000 0.058021 0.000000
# 6 0.000000 0.000000 0.000000 0.010713 0.000000 -0.015375
#
#
# Mechanical properties :
#
#
# Convention : Reuss Voigt Hill
#
# Bulk Modulus (GPa) = 52.21288 78.09670 65.15479
# Shear Modulus (GPa) = 48.90843 30.28819 39.59831
#
# Velocity S-wave (km/s) = 4.71425 3.70986 4.24189
# Velocity P-wave (km/s) = 7.30465 7.33745 7.32107
#
# Compressibility (1/GPa) = 0.01915236
#
# Stress axis : x y z
#
# Youngs Moduli (GPa) = 93.84203 85.05005 114.02408
#
# Poissons Ratio (x) = 0.02022 0.66206
# Poissons Ratio (y) = 0.02231 -0.00321
# Poissons Ratio (z) = 0.54488 -0.00240
#
# Static dielectric constant tensor:
#      x y z
#    x 1.747930 0.000000 0.003500 
#    y 0.000000 1.838360 0.000000 
#    z 0.003500 0.000000 1.777130 
# 
# From -- ./inp_files/90587.got.cif
#   From: 2010.05.17/outbox.cif.g08.bks.cpg/sg10_46_cif.got.tgz:90587.got - 2010.06.03 11:33:40.
