data_PCOD9146635
_publ_section_title
;
Structure prediction by ZEFSAII (Michael W. Deem and Ramdas Pophale) SiO2 
 PCOD9146635
Probable space group: P 2/M
;
_chemical_formula_sum "Si O2"
_cell_formula_units_Z 32
_cell_length_a 12.854388
_cell_length_b 7.607311
_cell_length_c 14.674519
_cell_angle_alpha 90.000000
_cell_angle_beta 84.184973
_cell_angle_gamma 90.000000
_cell_volume 1427.597819
_symmetry_space_group_name_H-M "P 2/M"
_symmetry_group_IT_number 10
_symmetry_cell_setting 'monoclinic'
loop_
_space_group_symop_operation_xyz
x,y,z
-x,y,-z
-x,-y,-z
x,-y,z
loop_
_atom_site_type_symbol
_atom_site_label
_atom_site_fract_x
_atom_site_fract_y
_atom_site_fract_z
Si Si1 0.947788 0.796843 0.414332
Si Si2 0.878298 0.707965 0.743304
Si Si3 0.502529 0.787347 0.104844
Si Si4 0.757374 0.784090 0.317433
Si Si5 0.647499 0.297078 0.724203
Si Si6 0.103914 0.787305 0.045096
Si Si7 0.263330 0.214255 0.879884
Si Si8 0.531003 0.794166 0.399936
O O1 0.840380 0.720347 0.384315
O O2 0.000000 0.716748 0.500000
O O3 0.030519 0.791802 0.324634
O O4 0.923583 0.000000 0.439724
O O5 0.881692 0.500000 0.724899
O O6 0.764230 0.777061 0.722256
O O7 0.891771 0.732550 0.850365
O O8 0.408238 0.715853 0.172805
O O9 0.615637 0.732716 0.132043
O O10 0.496030 0.000000 0.110685
O O11 0.500000 0.736374 0.000000
O O12 0.786787 0.731496 0.211684
O O13 0.639717 0.724182 0.349982
O O14 0.759856 0.000000 0.316864
O O15 0.656888 0.500000 0.697192
O O16 0.565593 0.216120 0.660783
O O17 0.104348 0.000000 0.045599
O O18 0.201763 0.726656 0.974872
O O19 0.000000 0.731053 0.000000
O O20 0.262713 0.000000 0.882771
O O21 0.500000 0.715543 0.500000
O O22 0.553212 0.000000 0.413094
#
# Coordination Sequence:
#
# PCOD9146635 Si02
#       8
#     4   4   4   4   4   4   4   4
#     4  10  22  39  64  92 116 148 195 252 302 348
#     4  11  25  42  58  83 124 167 201 240 292 353
#     4  10  19  33  56  84 113 150 196 243 291 342
#     4   9  17  34  58  89 122 144 182 245 301 351
#     4  11  24  40  57  83 124 166 201 240 288 352
#     4  10  20  36  62  91 116 151 200 251 301 349
#     4   9  16  29  53  83 114 145 180 234 294 343
#     4  10  21  37  64  93 117 151 195 250 307 355
#
# _framework density 22.415275999999999
#
# number of rings (size 3 to 8) (size 9 to 14) (size 15 to 20)
#    0.000    2.000    1.250    2.250    1.750    6.000 
#    0.000    1.250    0.000    0.000    0.000    0.000 
#    0.000    0.000    0.000    0.000    0.000    0.000 
#
# Total GULP energy -178800.397309 kJ/mol
# GULP energy per Si atom -5587.512416 kJ/mol
# Density = 2.236426 g / cm^3
# Si number density = 22.415276 Si / 1000 Ang^3
#
#
#
# Elastic Constant Matrix: (Units=GPa)
#
#
# Indices 1 2 3 4 5 6 
#
# 1 105.9969 -6.7570 31.0842 0.0000 18.1695 0.0000
# 2 -6.7570 43.6715 -8.1357 0.0000 0.6653 0.0000
# 3 31.0842 -8.1357 128.1203 0.0000 17.0412 0.0000
# 4 0.0000 0.0000 0.0000 4.8069 0.0000 7.2845
# 5 18.1695 0.6653 17.0412 0.0000 37.5287 0.0000
# 6 0.0000 0.0000 0.0000 7.2845 0.0000 42.9656
#
#
#
# Elastic Compliance Matrix: (Units=1/GPa)
#
#
# Indices 1 2 3 4 5 6 
#
# 1 0.010849 0.001380 -0.001961 0.000000 -0.004387 0.000000
# 2 0.001380 0.023394 0.001378 0.000000 -0.001709 0.000000
# 3 -0.001961 0.001378 0.008775 0.000000 -0.003060 0.000000
# 4 0.000000 0.000000 0.000000 0.279968 0.000000 -0.047466
# 5 -0.004387 -0.001709 -0.003060 0.000000 0.030190 0.000000
# 6 0.000000 0.000000 0.000000 -0.047466 0.000000 0.031322
#
#
# Mechanical properties :
#
#
# Convention : Reuss Voigt Hill
#
# Bulk Modulus (GPa) = 22.41489 34.46349 28.43919
# Shear Modulus (GPa) = 12.56989 34.50007 23.53498
#
# Velocity S-wave (km/s) = 2.37063 3.92743 3.24381
# Velocity P-wave (km/s) = 4.18506 5.99789 5.17153
#
# Compressibility (1/GPa) = 0.04461320
#
# Stress axis : x y z
#
# Youngs Moduli (GPa) = 92.17221 42.74509 113.95436
#
# Poissons Ratio (x) = -0.05899 0.22348
# Poissons Ratio (y) = -0.12721 -0.15703
# Poissons Ratio (z) = 0.18076 -0.05890
#
# Static dielectric constant tensor:
#      x y z
#    x 1.819160 0.000000 0.016700 
#    y 0.000000 1.872340 0.000000 
#    z 0.016700 0.000000 1.814420 
# 
# From -- ./inp_files/63799.got.cif
#   From: 2010.05.17/outbox.cif.g08.bks.cpg/sg10_32_cif.got.tgz:63799.got - 2010.06.03 11:33:40.
