data_PCOD9146367
_publ_section_title
;
Structure prediction by ZEFSAII (Michael W. Deem and Ramdas Pophale) SiO2 
 PCOD9146367
Probable space group: P 2/M
;
_chemical_formula_sum "Si O2"
_cell_formula_units_Z 32
_cell_length_a 12.336439
_cell_length_b 7.643338
_cell_length_c 15.326071
_cell_angle_alpha 90.000000
_cell_angle_beta 86.164839
_cell_angle_gamma 90.000000
_cell_volume 1441.883156
_symmetry_space_group_name_H-M "P 2/M"
_symmetry_group_IT_number 10
_symmetry_cell_setting 'monoclinic'
loop_
_space_group_symop_operation_xyz
x,y,z
-x,y,-z
-x,-y,-z
x,-y,z
loop_
_atom_site_type_symbol
_atom_site_label
_atom_site_fract_x
_atom_site_fract_y
_atom_site_fract_z
Si Si1 0.067635 0.786088 0.582521
Si Si2 0.620690 0.294134 0.013510
Si Si3 0.365060 0.788499 0.315092
Si Si4 0.700704 0.796778 0.492958
Si Si5 0.226695 0.787785 0.156697
Si Si6 0.603374 0.704757 0.329858
Si Si7 0.991556 0.790826 0.219886
Si Si8 0.243676 0.288658 0.828269
O O1 0.190418 0.724684 0.557590
O O2 0.000000 0.735963 0.500000
O O3 0.024655 0.724943 0.679306
O O4 0.065586 0.000000 0.586444
O O5 0.604041 0.500000 0.032998
O O6 0.699841 0.276367 0.926657
O O7 0.500000 0.220405 0.000000
O O8 0.687170 0.222262 0.093028
O O9 0.330154 0.720045 0.412125
O O10 0.284043 0.733776 0.243748
O O11 0.487818 0.731593 0.291211
O O12 0.365308 0.000000 0.317007
O O13 0.607727 0.786440 0.425348
O O14 0.724742 0.000000 0.508781
O O15 0.101937 0.726713 0.168531
O O16 0.227727 0.000000 0.152056
O O17 0.621100 0.500000 0.341461
O O18 0.697227 0.777420 0.262527
O O19 0.882783 0.756169 0.170930
O O20 0.003323 0.000000 0.226581
O O21 0.250473 0.500000 0.827778
#
# Coordination Sequence:
#
# PCOD9146367 Si02
#       8
#     4   4   4   4   4   4   4   4
#     4   9  16  29  53  81 109 147 193 233 270 323
#     4  10  22  42  65  86 111 149 195 234 280 345
#     4  10  21  36  55  81 115 150 187 233 284 340
#     4  10  19  33  54  81 111 148 192 233 279 337
#     4  10  22  39  59  88 119 145 182 236 290 336
#     4  11  22  36  55  80 113 150 191 238 285 335
#     4  10  20  36  59  86 116 149 188 233 283 340
#     4  10  22  39  59  83 113 150 192 239 285 337
#
# _framework density 22.193197999999999
#
# number of rings (size 3 to 8) (size 9 to 14) (size 15 to 20)
#    0.000    2.000    1.250    2.250    0.000    8.750 
#    0.000    2.500    0.000    3.000    0.000    0.000 
#    0.000    0.000    0.000    0.000    0.000    0.000 
#
# Total GULP energy -178767.838420 kJ/mol
# GULP energy per Si atom -5586.494951 kJ/mol
# Density = 2.214269 g / cm^3
# Si number density = 22.193198 Si / 1000 Ang^3
#
#
#
# Elastic Constant Matrix: (Units=GPa)
#
#
# Indices 1 2 3 4 5 6 
#
# 1 157.4844 -9.4020 53.9930 0.0000 2.4552 0.0000
# 2 -9.4020 37.9789 -6.5530 0.0000 -0.1075 0.0000
# 3 53.9930 -6.5530 101.3124 0.0000 10.7446 0.0000
# 4 0.0000 0.0000 0.0000 24.0688 0.0000 -2.7871
# 5 2.4552 -0.1075 10.7446 0.0000 37.0444 0.0000
# 6 0.0000 0.0000 0.0000 -2.7871 0.0000 -1.9701
#
#
#
# Elastic Compliance Matrix: (Units=1/GPa)
#
#
# Indices 1 2 3 4 5 6 
#
# 1 0.007843 0.001223 -0.004174 0.000000 0.000695 0.000000
# 2 0.001223 0.026825 0.001118 0.000000 -0.000327 0.000000
# 3 -0.004174 0.001118 0.012523 0.000000 -0.003352 0.000000
# 4 0.000000 0.000000 0.000000 0.035700 0.000000 -0.050503
# 5 0.000695 -0.000327 -0.003352 0.000000 0.027920 0.000000
# 6 0.000000 0.000000 0.000000 -0.050503 0.000000 -0.436140
#
#
# Mechanical properties :
#
#
# Convention : Reuss Voigt Hill
#
# Bulk Modulus (GPa) = 22.97533 41.42796 32.20164
# Shear Modulus (GPa) = -16.27849 29.07780 6.39966
#
# Velocity S-wave (km/s) = -2.71124 3.62361 1.69996
# Velocity P-wave (km/s) = 0.75749 6.01788 4.28886
#
# Compressibility (1/GPa) = 0.04352495
#
# Stress axis : x y z
#
# Youngs Moduli (GPa) = 127.49821 37.27836 79.85300
#
# Poissons Ratio (x) = -0.04560 0.33334
# Poissons Ratio (y) = -0.15598 -0.08926
# Poissons Ratio (z) = 0.53224 -0.04167
#
# Static dielectric constant tensor:
#      x y z
#    x 1.812140 0.000000 0.004020 
#    y 0.000000 1.836290 0.000000 
#    z 0.004020 0.000000 1.801330 
# 
# From -- ./inp_files/49890.got.cif
#   From: 2010.05.17/outbox.cif.g08.bks.cpg/sg10_25_cif.got.tgz:49890.got - 2010.06.03 11:33:40.
