data_PCOD9146365
_publ_section_title
;
Structure prediction by ZEFSAII (Michael W. Deem and Ramdas Pophale) SiO2 
 PCOD9146365
Probable space group: P 2/M
;
_chemical_formula_sum "Si O2"
_cell_formula_units_Z 30
_cell_length_a 15.975298
_cell_length_b 12.520639
_cell_length_c 9.528439
_cell_angle_alpha 90.000000
_cell_angle_beta 117.104342
_cell_angle_gamma 90.000000
_cell_volume 1696.579494
_symmetry_space_group_name_H-M "P 2/M"
_symmetry_group_IT_number 10
_symmetry_cell_setting 'monoclinic'
loop_
_space_group_symop_operation_xyz
x,y,z
-x,y,-z
-x,-y,-z
x,-y,z
loop_
_atom_site_type_symbol
_atom_site_label
_atom_site_fract_x
_atom_site_fract_y
_atom_site_fract_z
Si Si1 0.637777 0.117682 0.920233
Si Si2 0.500000 0.240244 0.000000
Si Si3 0.112072 0.876762 0.591292
Si Si4 0.325424 0.379268 0.754688
Si Si5 0.395124 0.879507 0.431823
Si Si6 0.887498 0.627812 0.899290
Si Si7 0.223170 0.249676 0.436304
Si Si8 0.801036 0.718937 0.119646
O O1 0.543418 0.166072 0.912842
O O2 0.633619 0.110614 0.751200
O O3 0.654452 0.000000 0.993021
O O4 0.719582 0.198919 0.016943
O O5 0.415922 0.309684 0.868862
O O6 0.159566 0.827339 0.486894
O O7 0.134078 0.792894 0.732450
O O8 0.000000 0.881299 0.500000
O O9 0.145575 0.000000 0.638834
O O10 0.355537 0.500000 0.756636
O O11 0.271754 0.334717 0.577673
O O12 0.249427 0.368656 0.821696
O O13 0.500000 0.830444 0.500000
O O14 0.312144 0.815750 0.443305
O O15 0.404750 0.000000 0.500660
O O16 0.871411 0.500000 0.868333
O O17 0.838299 0.693525 0.733591
O O18 0.845156 0.668620 0.014631
O O19 0.000000 0.644804 0.000000
#
# Coordination Sequence:
#
# PCOD9146365 Si02
#       8
#     4   2   4   4   4   4   4   4
#     4  10  19  33  54  81 111 144 184 225 275 339
#     4  10  20  34  56  82 114 150 190 236 282 340
#     4  10  21  37  58  86 117 150 191 239 294 359
#     4  10  21  36  57  80 110 152 194 241 286 337
#     4  10  20  34  55  82 116 152 187 229 282 347
#     4  11  23  39  60  85 114 152 201 252 300 351
#     4  11  21  38  60  83 119 154 195 241 299 349
#     4  10  20  37  57  80 111 149 187 236 292 344
#
# _framework density 17.682637
#
# number of rings (size 3 to 8) (size 9 to 14) (size 15 to 20)
#    0.000    1.733    1.333    3.600    0.000    0.000 
#    0.000    4.000    0.000   11.200    0.000    0.000 
#    0.000    0.000    0.000    0.000    0.000    0.000 
#
# Total GULP energy -167207.985181 kJ/mol
# GULP energy per Si atom -5573.599506 kJ/mol
# Density = 1.764239 g / cm^3
# Si number density = 17.682637 Si / 1000 Ang^3
#
#
#
# Elastic Constant Matrix: (Units=GPa)
#
#
# Indices 1 2 3 4 5 6 
#
# 1 114.5130 47.9465 41.8621 0.0000 -7.6975 0.0000
# 2 47.9465 89.5298 26.7892 0.0000 -8.2674 0.0000
# 3 41.8621 26.7892 91.8350 0.0000 -5.3868 0.0000
# 4 0.0000 0.0000 0.0000 10.4454 0.0000 0.6260
# 5 -7.6975 -8.2674 -5.3868 0.0000 29.3857 0.0000
# 6 0.0000 0.0000 0.0000 0.6260 0.0000 20.5023
#
#
#
# Elastic Compliance Matrix: (Units=1/GPa)
#
#
# Indices 1 2 3 4 5 6 
#
# 1 0.012560 -0.005409 -0.004088 0.000000 0.001019 0.000000
# 2 -0.005409 0.014803 -0.001710 0.000000 0.002434 0.000000
# 3 -0.004088 -0.001710 0.013303 0.000000 0.000887 0.000000
# 4 0.000000 0.000000 0.000000 0.095912 0.000000 -0.002928
# 5 0.001019 0.002434 0.000887 0.000000 0.035144 0.000000
# 6 0.000000 0.000000 0.000000 -0.002928 0.000000 0.048864
#
#
# Mechanical properties :
#
#
# Convention : Reuss Voigt Hill
#
# Bulk Modulus (GPa) = 54.78560 58.78592 56.78576
# Shear Modulus (GPa) = 20.07353 24.01868 22.04611
#
# Velocity S-wave (km/s) = 3.37295 3.68954 3.53479
# Velocity P-wave (km/s) = 6.79845 7.17408 6.98879
#
# Compressibility (1/GPa) = 0.01825297
#
# Stress axis : x y z
#
# Youngs Moduli (GPa) = 79.61554 67.55545 75.16992
#
# Poissons Ratio (x) = 0.36543 0.30728
# Poissons Ratio (y) = 0.43066 0.12850
# Poissons Ratio (z) = 0.32545 0.11549
#
# Static dielectric constant tensor:
#      x y z
#    x 1.597420 0.000000 0.012350 
#    y 0.000000 1.619450 0.000000 
#    z 0.012350 0.000000 1.647240 
# 
# From -- ./inp_files/28638.got.cif
#   From: 2010.05.17/outbox.cif.g08.bks.cpg/sg10_15_cif.got.tgz:28638.got - 2010.06.03 11:33:40.
