data_PCOD9146598
_publ_section_title
;
Structure prediction by ZEFSAII (Michael W. Deem and Ramdas Pophale) SiO2 
 PCOD9146598
Probable space group: P 2/M
;
_chemical_formula_sum "Si O2"
_cell_formula_units_Z 32
_cell_length_a 28.668751
_cell_length_b 8.756900
_cell_length_c 22.176838
_cell_angle_alpha 90.000000
_cell_angle_beta 18.847137
_cell_angle_gamma 90.000000
_cell_volume 1798.543686
_symmetry_space_group_name_H-M "P 2/M"
_symmetry_group_IT_number 10
_symmetry_cell_setting 'monoclinic'
loop_
_space_group_symop_operation_xyz
x,y,z
-x,y,-z
-x,-y,-z
x,-y,z
loop_
_atom_site_type_symbol
_atom_site_label
_atom_site_fract_x
_atom_site_fract_y
_atom_site_fract_z
Si Si1 0.331831 0.681896 0.092454
Si Si2 0.835966 0.184394 0.588114
Si Si3 0.172367 0.182648 0.171003
Si Si4 0.347870 0.816076 0.303508
Si Si5 0.675647 0.816343 0.532382
Si Si6 0.161460 0.184177 0.786689
Si Si7 0.604623 0.317704 0.186572
Si Si8 0.558721 0.315728 0.493119
O O1 0.332584 0.500000 0.089340
O O2 0.243236 0.740141 0.258567
O O3 0.256126 0.746679 0.125219
O O4 0.494871 0.743447 0.896429
O O5 0.756044 0.228342 0.624029
O O6 0.004398 0.225291 0.379536
O O7 0.826202 0.000000 0.606504
O O8 0.183841 0.000000 0.160025
O O9 0.250915 0.241126 0.014738
O O10 0.288673 0.776244 0.442462
O O11 0.364091 0.000000 0.281697
O O12 0.791416 0.774617 0.339349
O O13 0.526086 0.737496 0.696425
O O14 0.655239 0.000000 0.554338
O O15 0.286210 0.249128 0.677462
O O16 0.164308 0.000000 0.787705
O O17 0.000000 0.236527 0.000000
O O18 0.617487 0.500000 0.167582
O O19 0.553408 0.273942 0.316411
O O20 0.500000 0.265635 0.500000
O O21 0.570444 0.500000 0.478428
#
# Coordination Sequence:
#
# PCOD9146598 Si02
#       8
#     4   4   4   4   4   4   4   4
#     4  12  24  37  58  84 108 140 183 226 272 323
#     4  10  23  40  56  79 110 144 182 222 273 329
#     4  11  22  38  58  81 110 144 182 224 270 325
#     4  10  20  37  59  80 106 144 185 223 267 324
#     4   9  17  32  56  79 106 145 183 218 265 320
#     4   9  18  33  53  83 115 142 179 227 271 313
#     4  10  19  33  56  82 108 141 185 229 266 314
#     4   9  19  36  56  79 111 148 185 221 264 322
#
# _framework density 17.792172999999998
#
# number of rings (size 3 to 8) (size 9 to 14) (size 15 to 20)
#    0.000    2.000    1.250    2.625    0.000    5.500 
#    2.250    0.000    0.000    0.000    0.000    0.000 
#    0.000    0.000    0.000    0.000    0.000    0.000 
#
# Total GULP energy -178646.503395 kJ/mol
# GULP energy per Si atom -5582.703231 kJ/mol
# Density = 1.775168 g / cm^3
# Si number density = 17.792173 Si / 1000 Ang^3
#
#
#
# Elastic Constant Matrix: (Units=GPa)
#
#
# Indices 1 2 3 4 5 6 
#
# 1 126.4033 31.1654 68.6083 0.0000 9.2946 0.0000
# 2 31.1654 19.3493 31.0490 0.0000 2.2608 0.0000
# 3 68.6083 31.0490 132.0876 0.0000 8.0564 0.0000
# 4 0.0000 0.0000 0.0000 -5.8202 0.0000 20.6851
# 5 9.2946 2.2608 8.0564 0.0000 24.3905 0.0000
# 6 0.0000 0.0000 0.0000 20.6851 0.0000 9.0116
#
#
#
# Elastic Compliance Matrix: (Units=1/GPa)
#
#
# Indices 1 2 3 4 5 6 
#
# 1 0.014066 -0.017469 -0.003033 0.000000 -0.002739 0.000000
# 2 -0.017469 0.104716 -0.015671 0.000000 0.002127 0.000000
# 3 -0.003033 -0.015671 0.012931 0.000000 -0.001663 0.000000
# 4 0.000000 0.000000 0.000000 -0.018761 0.000000 0.043065
# 5 -0.002739 0.002127 -0.001663 0.000000 0.042396 0.000000
# 6 0.000000 0.000000 0.000000 0.043065 0.000000 0.012117
#
#
# Mechanical properties :
#
#
# Convention : Reuss Voigt Hill
#
# Bulk Modulus (GPa) = 16.84413 59.94283 38.39348
# Shear Modulus (GPa) = 19.26051 15.31754 17.28903
#
# Velocity S-wave (km/s) = 3.29375 2.93732 3.12063
# Velocity P-wave (km/s) = 4.89415 6.72811 5.88304
#
# Compressibility (1/GPa) = 0.05936785
#
# Stress axis : x y z
#
# Youngs Moduli (GPa) = 71.09523 9.54961 77.33357
#
# Poissons Ratio (x) = 0.16682 0.23452
# Poissons Ratio (y) = 1.24196 1.21190
# Poissons Ratio (z) = 0.21560 0.14965
#
# Static dielectric constant tensor:
#      x y z
#    x 1.598650 0.000000 0.023360 
#    y 0.000000 1.597700 0.000000 
#    z 0.023360 0.000000 1.591840 
# 
# From -- ./inp_files/86842.got.cif
#   From: 2010.05.17/outbox.cif.g08.bks.cpg/sg10_44_cif.got.tgz:86842.got - 2010.06.03 11:33:40.
