data_PCOD9146941
_publ_section_title
;
Structure prediction by ZEFSAII (Michael W. Deem and Ramdas Pophale) SiO2 
 PCOD9146941
Probable space group: P 2/M
;
_chemical_formula_sum "Si O2"
_cell_formula_units_Z 32
_cell_length_a 13.465816
_cell_length_b 17.904798
_cell_length_c 18.910071
_cell_angle_alpha 90.000000
_cell_angle_beta 160.820210
_cell_angle_gamma 90.000000
_cell_volume 1497.872826
_symmetry_space_group_name_H-M "P 2/M"
_symmetry_group_IT_number 10
_symmetry_cell_setting 'monoclinic'
loop_
_space_group_symop_operation_xyz
x,y,z
-x,y,-z
-x,-y,-z
x,-y,z
loop_
_atom_site_type_symbol
_atom_site_label
_atom_site_fract_x
_atom_site_fract_y
_atom_site_fract_z
Si Si1 0.826769 0.750270 0.308543
Si Si2 0.780999 0.154739 0.536190
Si Si3 0.227200 0.349359 0.006160
Si Si4 0.362245 0.712377 0.236779
Si Si5 0.179486 0.806101 0.927957
Si Si6 0.654537 0.419982 0.679802
Si Si7 0.744300 0.916463 0.888511
Si Si8 0.247795 0.584329 0.729648
O O1 0.813428 0.663744 0.271948
O O2 0.000000 0.749531 0.500000
O O3 0.995654 0.804648 0.368539
O O4 0.495160 0.783858 0.102250
O O5 0.515898 0.214845 0.369360
O O6 0.588815 0.089397 0.370963
O O7 0.966518 0.146565 0.732813
O O8 0.049478 0.277741 0.855045
O O9 0.003334 0.402201 0.898423
O O10 0.434220 0.307737 0.204042
O O11 0.427727 0.396788 0.087747
O O12 0.472071 0.643420 0.356285
O O13 0.000000 0.718909 0.000000
O O14 0.228336 0.853078 0.032642
O O15 0.500000 0.419746 0.500000
O O16 0.617330 0.500000 0.689212
O O17 0.784648 0.000000 0.945497
O O18 0.000000 0.906567 0.000000
O O19 0.247615 0.500000 0.761844
O O20 0.000000 0.581523 0.500000
#
# Coordination Sequence:
#
# PCOD9146941 Si02
#       8
#     4   4   4   4   4   4   4   4
#     4  10  19  39  64  92 131 173 223 270 314 370
#     4  12  22  40  68  95 130 170 213 260 313 371
#     4  10  19  34  55  79 115 161 213 260 313 375
#     4  10  20  34  54  81 116 163 217 260 318 378
#     4  11  23  40  67  99 127 168 215 260 310 378
#     4  10  21  34  48  76 116 156 208 272 323 370
#     4  11  26  48  71 100 134 164 199 251 320 391
#     4   9  17  29  51  83 117 160 212 265 316 364
#
# _framework density 21.363630000000001
#
# number of rings (size 3 to 8) (size 9 to 14) (size 15 to 20)
#    0.000    1.625    2.500    3.375    1.750    3.750 
#    0.000    3.125    0.000    8.250    0.000    0.000 
#    0.000    0.000    0.000    0.000    0.000    0.000 
#
# Total GULP energy -178571.255215 kJ/mol
# GULP energy per Si atom -5580.351725 kJ/mol
# Density = 2.131501 g / cm^3
# Si number density = 21.363630 Si / 1000 Ang^3
#
#
#
# Elastic Constant Matrix: (Units=GPa)
#
#
# Indices 1 2 3 4 5 6 
#
# 1 47.4113 20.7069 17.3273 0.0000 -0.3239 0.0000
# 2 20.7069 117.1606 18.2045 0.0000 3.8895 0.0000
# 3 17.3273 18.2045 73.7501 0.0000 -13.7243 0.0000
# 4 0.0000 0.0000 0.0000 50.4945 0.0000 -8.4232
# 5 -0.3239 3.8895 -13.7243 0.0000 28.3443 0.0000
# 6 0.0000 0.0000 0.0000 -8.4232 0.0000 12.4853
#
#
#
# Elastic Compliance Matrix: (Units=1/GPa)
#
#
# Indices 1 2 3 4 5 6 
#
# 1 0.024503 -0.003458 -0.005235 0.000000 -0.001780 0.000000
# 2 -0.003458 0.009529 -0.001967 0.000000 -0.002300 0.000000
# 3 -0.005235 -0.001967 0.016830 0.000000 0.008359 0.000000
# 4 0.000000 0.000000 0.000000 0.022316 0.000000 0.015055
# 5 -0.001780 -0.002300 0.008359 0.000000 0.039623 0.000000
# 6 0.000000 0.000000 0.000000 0.015055 0.000000 0.090251
#
#
# Mechanical properties :
#
#
# Convention : Reuss Voigt Hill
#
# Bulk Modulus (GPa) = 33.85049 38.97773 36.41411
# Shear Modulus (GPa) = 21.34746 30.40372 25.87559
#
# Velocity S-wave (km/s) = 3.16451 3.77656 3.48400
# Velocity P-wave (km/s) = 5.40661 6.10746 5.76769
#
# Compressibility (1/GPa) = 0.02954167
#
# Stress axis : x y z
#
# Youngs Moduli (GPa) = 40.81081 104.94763 59.41619
#
# Poissons Ratio (x) = 0.36294 0.31102
# Poissons Ratio (y) = 0.14113 0.11690
# Poissons Ratio (z) = 0.21363 0.20648
#
# Static dielectric constant tensor:
#      x y z
#    x 1.790880 0.000000 -0.010080 
#    y 0.000000 1.775050 0.000000 
#    z -0.010080 0.000000 1.819320 
# 
# From -- ./inp_files/85508.got.cif
#   From: 2010.05.17/outbox.cif.g08.bks.cpg/sg10_43_cif.got.tgz:85508.got - 2010.06.03 11:33:40.
