data_PCOD9146187
_publ_section_title
;
Structure prediction by ZEFSAII (Michael W. Deem and Ramdas Pophale) SiO2 
 PCOD9146187
Probable space group: P 2/M
;
_chemical_formula_sum "Si O2"
_cell_formula_units_Z 24
_cell_length_a 18.940431
_cell_length_b 8.704447
_cell_length_c 24.891262
_cell_angle_alpha 90.000000
_cell_angle_beta 19.483045
_cell_angle_gamma 90.000000
_cell_volume 1368.705854
_symmetry_space_group_name_H-M "P 2/M"
_symmetry_group_IT_number 10
_symmetry_cell_setting 'monoclinic'
loop_
_space_group_symop_operation_xyz
x,y,z
-x,y,-z
-x,-y,-z
x,-y,z
loop_
_atom_site_type_symbol
_atom_site_label
_atom_site_fract_x
_atom_site_fract_y
_atom_site_fract_z
Si Si1 0.566471 0.816946 0.175315
Si Si2 0.382289 0.183715 0.529268
Si Si3 0.083136 0.314426 0.155572
Si Si4 0.487791 0.677279 0.343735
Si Si5 0.981749 0.322839 0.681957
Si Si6 0.104152 0.313060 0.481932
O O1 0.593873 0.759905 0.217054
O O2 0.338486 0.754502 0.319483
O O3 0.568597 0.000000 0.172359
O O4 0.745073 0.749019 0.008559
O O5 0.500000 0.223460 0.500000
O O6 0.508679 0.241979 0.386182
O O7 0.150569 0.259463 0.693452
O O8 0.359283 0.000000 0.542650
O O9 0.086731 0.500000 0.153691
O O10 0.120160 0.257113 0.190683
O O11 0.553578 0.500000 0.299288
O O12 0.234449 0.678768 0.512957
O O13 0.910936 0.500000 0.729459
O O14 0.968823 0.257971 0.631031
O O15 0.119335 0.500000 0.474452
O O16 0.000000 0.273419 0.500000
#
# Coordination Sequence:
#
# PCOD9146187 Si02
#       6
#     4   4   4   4   4   4
#     4  11  21  33  51  75 104 134 168 214 265 308
#     4  10  20  34  53  79 109 136 164 204 255 304
#     4  10  19  33  53  74 100 135 176 215 250 299
#     4   9  17  32  53  74  98 132 174 209 244 301
#     4   7  13  27  48  72  94 123 164 206 245 289
#     4   9  17  32  54  77 101 131 170 213 255 305
#
# _framework density 17.534811999999999
#
# number of rings (size 3 to 8) (size 9 to 14) (size 15 to 20)
#    0.000    2.667    0.000    5.000    0.000    1.667 
#    0.000    2.500    0.000   10.000    0.000    0.000 
#    0.000    0.000    0.000    0.000    0.000    0.000 
#
# Total GULP energy -133706.337567 kJ/mol
# GULP energy per Si atom -5571.097399 kJ/mol
# Density = 1.749490 g / cm^3
# Si number density = 17.534812 Si / 1000 Ang^3
#
#
#
# Elastic Constant Matrix: (Units=GPa)
#
#
# Indices 1 2 3 4 5 6 
#
# 1 179.2522 56.0235 72.1307 0.0000 40.6530 0.0000
# 2 56.0235 68.3210 35.8637 0.0000 14.5382 0.0000
# 3 72.1307 35.8637 94.7501 0.0000 40.6547 0.0000
# 4 0.0000 0.0000 0.0000 19.3508 0.0000 1.2573
# 5 40.6530 14.5382 40.6547 0.0000 30.8916 0.0000
# 6 0.0000 0.0000 0.0000 1.2573 0.0000 19.8625
#
#
#
# Elastic Compliance Matrix: (Units=1/GPa)
#
#
# Indices 1 2 3 4 5 6 
#
# 1 0.009842 -0.005279 -0.002304 0.000000 -0.007435 0.000000
# 2 -0.005279 0.021115 -0.006181 0.000000 0.005144 0.000000
# 3 -0.002304 -0.006181 0.027792 0.000000 -0.030635 0.000000
# 4 0.000000 0.000000 0.000000 0.051891 0.000000 -0.003285
# 5 -0.007435 0.005144 -0.030635 0.000000 0.080052 0.000000
# 6 0.000000 0.000000 0.000000 -0.003285 0.000000 0.050554
#
#
# Mechanical properties :
#
#
# Convention : Reuss Voigt Hill
#
# Bulk Modulus (GPa) = 32.02845 74.48435 53.25640
# Shear Modulus (GPa) = 17.90955 25.90802 21.90878
#
# Velocity S-wave (km/s) = 3.19936 3.84802 3.53858
# Velocity P-wave (km/s) = 5.65271 7.89387 6.86536
#
# Compressibility (1/GPa) = 0.03122224
#
# Stress axis : x y z
#
# Youngs Moduli (GPa) = 101.60524 47.35892 35.98158
#
# Poissons Ratio (x) = 0.25000 0.08290
# Poissons Ratio (y) = 0.53636 0.22239
# Poissons Ratio (z) = 0.23410 0.29271
#
# Static dielectric constant tensor:
#      x y z
#    x 1.626110 0.000000 0.029700 
#    y 0.000000 1.588620 0.000000 
#    z 0.029700 0.000000 1.577060 
# 
# From -- ./inp_files/31232.got.cif
#   From: 2010.05.17/outbox.cif.g08.bks.cpg/sg10_16_cif.got.tgz:31232.got - 2010.06.03 11:33:40.
