data_PCOD9146113
_publ_section_title
;
Structure prediction by ZEFSAII (Michael W. Deem and Ramdas Pophale) SiO2 
 PCOD9146113
Probable space group: P 2/M
;
_chemical_formula_sum "Si O2"
_cell_formula_units_Z 30
_cell_length_a 12.876771
_cell_length_b 26.653854
_cell_length_c 14.837070
_cell_angle_alpha 90.000000
_cell_angle_beta 161.012285
_cell_angle_gamma 90.000000
_cell_volume 1656.862694
_symmetry_space_group_name_H-M "P 2/M"
_symmetry_group_IT_number 10
_symmetry_cell_setting 'monoclinic'
loop_
_space_group_symop_operation_xyz
x,y,z
-x,y,-z
-x,-y,-z
x,-y,z
loop_
_atom_site_type_symbol
_atom_site_label
_atom_site_fract_x
_atom_site_fract_y
_atom_site_fract_z
Si Si1 0.624130 0.000000 0.704351
Si Si2 0.150259 0.754545 0.723045
Si Si3 0.559681 0.626231 0.815361
Si Si4 0.307165 0.789263 0.501079
Si Si5 0.381220 0.891544 0.302179
Si Si6 0.911434 0.726586 0.032454
Si Si7 0.824828 0.361522 0.214725
Si Si8 0.380663 0.557083 0.307052
O O1 0.500000 0.000000 0.500000
O O2 0.555423 0.945731 0.692638
O O3 0.000000 0.000000 0.000000
O O4 0.193637 0.699216 0.803264
O O5 0.000000 0.748607 0.500000
O O6 0.942454 0.785391 0.622780
O O7 0.500000 0.776938 0.000000
O O8 0.737408 0.676614 0.926500
O O9 0.543547 0.588746 0.718712
O O10 0.191426 0.631329 0.547058
O O11 0.778219 0.612364 0.079679
O O12 0.404903 0.845409 0.555818
O O13 0.634573 0.767128 0.806494
O O14 0.185694 0.751894 0.320311
O O15 0.500000 0.898813 0.500000
O O16 0.000000 0.880261 0.000000
O O17 0.000000 0.718395 0.000000
O O18 0.500000 0.376876 0.000000
O O19 0.500000 0.579528 0.500000
O O20 0.508598 0.500000 0.405664
O O21 0.000000 0.554747 0.000000
#
# Coordination Sequence:
#
# PCOD9146113 Si02
#       8
#     2   4   4   4   4   4   4   4
#     4   8  16  30  50  72 100 138 190 228 256 314
#     4  11  21  36  54  73 102 140 185 230 264 314
#     4  12  21  38  58  82 109 146 183 221 276 322
#     4  12  22  35  50  77 109 145 176 221 274 331
#     4  10  19  33  51  76 108 147 182 222 271 328
#     4  12  23  34  49  78 114 145 173 210 266 338
#     4  11  22  37  58  80 106 141 188 231 272 320
#     4  10  22  40  62  88 116 149 188 229 270 324
#
# _framework density 18.106508999999999
#
# number of rings (size 3 to 8) (size 9 to 14) (size 15 to 20)
#    0.000    1.067    2.667    6.400    0.000    1.067 
#    0.000    0.000    0.000    2.400    0.000    0.933 
#    0.000    0.000    0.000    0.000    0.000    0.000 
#
# Total GULP energy -167094.518459 kJ/mol
# GULP energy per Si atom -5569.817282 kJ/mol
# Density = 1.806530 g / cm^3
# Si number density = 18.106509 Si / 1000 Ang^3
#
#
#
# Elastic Constant Matrix: (Units=GPa)
#
#
# Indices 1 2 3 4 5 6 
#
# 1 84.9837 24.2520 20.9194 0.0000 -5.2371 0.0000
# 2 24.2520 61.0107 -2.8615 0.0000 -6.8025 0.0000
# 3 20.9194 -2.8615 86.4685 0.0000 -4.6939 0.0000
# 4 0.0000 0.0000 0.0000 19.8296 0.0000 1.5852
# 5 -5.2371 -6.8025 -4.6939 0.0000 27.9443 0.0000
# 6 0.0000 0.0000 0.0000 1.5852 0.0000 33.1596
#
#
#
# Elastic Compliance Matrix: (Units=1/GPa)
#
#
# Indices 1 2 3 4 5 6 
#
# 1 0.014358 -0.005803 -0.003629 0.000000 0.000669 0.000000
# 2 -0.005803 0.019246 0.002257 0.000000 0.003977 0.000000
# 3 -0.003629 0.002257 0.012626 0.000000 0.001990 0.000000
# 4 0.000000 0.000000 0.000000 0.050623 0.000000 -0.002420
# 5 0.000669 0.003977 0.001990 0.000000 0.037213 0.000000
# 6 0.000000 0.000000 0.000000 -0.002420 0.000000 0.030273
#
#
# Mechanical properties :
#
#
# Convention : Reuss Voigt Hill
#
# Bulk Modulus (GPa) = 31.36888 35.23142 33.30015
# Shear Modulus (GPa) = 26.41090 28.86356 27.63723
#
# Velocity S-wave (km/s) = 3.82336 3.99695 3.91112
# Velocity P-wave (km/s) = 6.07067 6.38756 6.23113
#
# Compressibility (1/GPa) = 0.03187873
#
# Stress axis : x y z
#
# Youngs Moduli (GPa) = 69.64994 51.95768 79.20391
#
# Poissons Ratio (x) = 0.30150 0.28745
# Poissons Ratio (y) = 0.40417 -0.17874
# Poissons Ratio (z) = 0.25278 -0.11725
#
# Static dielectric constant tensor:
#      x y z
#    x 1.820040 0.000000 0.214040 
#    y 0.000000 1.698350 0.000000 
#    z 0.214040 0.000000 1.927520 
# 
# From -- ./inp_files/65551.got.cif
#   From: 2010.05.17/outbox.cif.g08.bks.cpg/sg10_33_cif.got.tgz:65551.got - 2010.06.03 11:33:40.
