data_PCOD9146811
_publ_section_title
;
Structure prediction by ZEFSAII (Michael W. Deem and Ramdas Pophale) SiO2 
 PCOD9146811
Probable space group: P 2/M
;
_chemical_formula_sum "Si O2"
_cell_formula_units_Z 18
_cell_length_a 5.002949
_cell_length_b 14.036473
_cell_length_c 13.116855
_cell_angle_alpha 90.000000
_cell_angle_beta 86.693869
_cell_angle_gamma 90.000000
_cell_volume 919.581802
_symmetry_space_group_name_H-M "P 2/M"
_symmetry_group_IT_number 10
_symmetry_cell_setting 'monoclinic'
loop_
_space_group_symop_operation_xyz
x,y,z
-x,y,-z
-x,-y,-z
x,-y,z
loop_
_atom_site_type_symbol
_atom_site_label
_atom_site_fract_x
_atom_site_fract_y
_atom_site_fract_z
Si Si1 0.019362 0.191449 0.674790
Si Si2 0.038488 0.273616 0.886974
Si Si3 0.532790 0.309175 0.613731
Si Si4 0.560986 0.607986 0.827611
Si Si5 0.232968 0.000000 0.575693
O O1 0.968220 0.201530 0.796596
O O2 0.238604 0.270984 0.645081
O O3 0.167660 0.093882 0.642830
O O4 0.751101 0.222365 0.618842
O O5 0.333045 0.317192 0.865297
O O6 0.831450 0.360691 0.877272
O O7 0.000000 0.232473 0.000000
O O8 0.500000 0.347010 0.500000
O O9 0.606975 0.379038 0.704654
O O10 0.484853 0.500000 0.852044
O O11 0.500000 0.000000 0.500000
O O12 0.000000 0.000000 0.500000
#
# Coordination Sequence:
#
# PCOD9146811 Si02
#       5
#     4   4   4   4   2
#     4  10  21  35  52  79 106 134 175 213 253 311
#     4  10  21  37  55  74 104 141 174 216 265 305
#     4  10  19  34  53  73 107 144 170 207 262 314
#     4  10  21  34  52  80 105 133 180 223 256 307
#     4  12  22  34  57  84 109 134 168 212 257 306
#
# _framework density 19.574117000000001
#
# number of rings (size 3 to 8) (size 9 to 14) (size 15 to 20)
#    0.000    1.778    0.000    5.333    0.000    3.111 
#    0.000    0.556    0.000    8.000    0.000   10.889 
#    0.000    0.000    0.000    0.000    0.000    0.000 
#
# Total GULP energy -100367.482350 kJ/mol
# GULP energy per Si atom -5575.971242 kJ/mol
# Density = 1.952956 g / cm^3
# Si number density = 19.574117 Si / 1000 Ang^3
#
#
#
# Elastic Constant Matrix: (Units=GPa)
#
#
# Indices 1 2 3 4 5 6 
#
# 1 99.7053 -7.8096 13.9586 0.0000 -2.1226 0.0000
# 2 -7.8096 41.2546 9.6421 0.0000 -9.0943 0.0000
# 3 13.9586 9.6421 119.3600 0.0000 -3.1474 0.0000
# 4 0.0000 0.0000 0.0000 3.0161 0.0000 -2.5959
# 5 -2.1226 -9.0943 -3.1474 0.0000 22.0961 0.0000
# 6 0.0000 0.0000 0.0000 -2.5959 0.0000 18.7047
#
#
#
# Elastic Compliance Matrix: (Units=1/GPa)
#
#
# Indices 1 2 3 4 5 6 
#
# 1 0.010480 0.002737 -0.001396 0.000000 0.001934 0.000000
# 2 0.002737 0.027796 -0.002265 0.000000 0.011381 0.000000
# 3 -0.001396 -0.002265 0.008729 0.000000 0.000177 0.000000
# 4 0.000000 0.000000 0.000000 0.376533 0.000000 0.052256
# 5 0.001934 0.011381 0.000177 0.000000 0.050152 0.000000
# 6 0.000000 0.000000 0.000000 0.052256 0.000000 0.060715
#
#
# Mechanical properties :
#
#
# Convention : Reuss Voigt Hill
#
# Bulk Modulus (GPa) = 22.14521 32.43355 27.28938
# Shear Modulus (GPa) = 9.06937 25.06529 17.06733
#
# Velocity S-wave (km/s) = 2.15486 3.58233 2.95606
# Velocity P-wave (km/s) = 4.18680 5.80658 5.06190
#
# Compressibility (1/GPa) = 0.04515649
#
# Stress axis : x y z
#
# Youngs Moduli (GPa) = 95.41543 35.97641 114.56194
#
# Poissons Ratio (x) = -0.09845 0.15989
# Poissons Ratio (y) = -0.26111 0.25952
# Poissons Ratio (z) = 0.13317 0.08150
#
# Static dielectric constant tensor:
#      x y z
#    x 1.670560 0.000000 -0.005330 
#    y 0.000000 1.534270 0.000000 
#    z -0.005330 0.000000 1.749450 
# 
# From -- ./inp_files/6573.got.cif
#   From: 2010.05.17/outbox.cif.g08.bks.cpg/sg10_4_cif.got.tgz:6573.got - 2010.06.03 11:33:40.
