data_PCOD9146463
_publ_section_title
;
Structure prediction by ZEFSAII (Michael W. Deem and Ramdas Pophale) SiO2 
 PCOD9146463
Probable space group: P 2/M
;
_chemical_formula_sum "Si O2"
_cell_formula_units_Z 32
_cell_length_a 28.730225
_cell_length_b 8.973568
_cell_length_c 22.280950
_cell_angle_alpha 90.000000
_cell_angle_beta 18.767359
_cell_angle_gamma 90.000000
_cell_volume 1848.095939
_symmetry_space_group_name_H-M "P 2/M"
_symmetry_group_IT_number 10
_symmetry_cell_setting 'monoclinic'
loop_
_space_group_symop_operation_xyz
x,y,z
-x,y,-z
-x,-y,-z
x,-y,z
loop_
_atom_site_type_symbol
_atom_site_label
_atom_site_fract_x
_atom_site_fract_y
_atom_site_fract_z
Si Si1 0.842657 0.177519 0.335596
Si Si2 0.077539 0.678395 0.968248
Si Si3 0.831104 0.179364 0.710178
Si Si4 0.300818 0.322486 0.377446
Si Si5 0.413666 0.320636 0.545053
Si Si6 0.669127 0.178386 0.785078
Si Si7 0.602215 0.678295 0.075278
Si Si8 0.457190 0.178293 0.365320
O O1 0.806530 0.249950 0.443475
O O2 0.705159 0.215584 0.460549
O O3 0.848488 0.000000 0.333670
O O4 0.987517 0.240839 0.129646
O O5 0.068457 0.500000 0.988186
O O6 0.245358 0.720194 0.759338
O O7 0.000000 0.714210 0.000000
O O8 0.754749 0.220184 0.740555
O O9 0.000000 0.218008 0.500000
O O10 0.819006 0.000000 0.732149
O O11 0.743705 0.256730 0.870540
O O12 0.287119 0.500000 0.395095
O O13 0.278174 0.259215 0.338982
O O14 0.463425 0.284465 0.202284
O O15 0.500000 0.281990 0.500000
O O16 0.421307 0.500000 0.527538
O O17 0.472195 0.243273 0.413560
O O18 0.681833 0.000000 0.761480
O O19 0.500000 0.214121 0.000000
O O20 0.610319 0.500000 0.070678
O O21 0.565433 0.750005 0.184568
O O22 0.472268 0.000000 0.346745
#
# Coordination Sequence:
#
# PCOD9146463 Si02
#       8
#     4   4   4   4   4   4   4   4
#     4  10  20  33  53  81 111 141 178 225 272 319
#     4  10  19  33  55  80 107 139 176 219 266 317
#     4  10  21  37  56  80 111 145 180 220 268 321
#     4  10  20  33  53  81 111 141 178 225 272 319
#     4  10  21  37  56  80 111 145 180 220 268 321
#     4  10  19  33  55  80 107 139 176 219 266 317
#     4  10  20  34  55  81 109 141 180 224 268 319
#     4  10  20  34  55  81 109 141 180 224 268 319
#
# _framework density 17.315118999999999
#
# number of rings (size 3 to 8) (size 9 to 14) (size 15 to 20)
#    0.000    2.000    2.500    1.500    0.000    4.000 
#    0.000    1.250    0.000    0.000    0.000    0.000 
#    0.000    0.000    0.000    0.000    0.000    0.000 
#
# Total GULP energy -178653.124829 kJ/mol
# GULP energy per Si atom -5582.910151 kJ/mol
# Density = 1.727571 g / cm^3
# Si number density = 17.315119 Si / 1000 Ang^3
#
#
#
# Elastic Constant Matrix: (Units=GPa)
#
#
# Indices 1 2 3 4 5 6 
#
# 1 133.0331 51.2854 83.2356 0.0000 19.0918 0.0000
# 2 51.2854 35.2598 53.4013 0.0000 13.7845 0.0000
# 3 83.2356 53.4013 139.0878 0.0000 20.3307 0.0000
# 4 0.0000 0.0000 0.0000 27.4862 0.0000 12.9871
# 5 19.0918 13.7845 20.3307 0.0000 34.4177 0.0000
# 6 0.0000 0.0000 0.0000 12.9871 0.0000 25.5066
#
#
#
# Elastic Compliance Matrix: (Units=1/GPa)
#
#
# Indices 1 2 3 4 5 6 
#
# 1 0.017278 -0.022848 -0.001646 0.000000 0.000539 0.000000
# 2 -0.022848 0.103634 -0.023971 0.000000 -0.014672 0.000000
# 3 -0.001646 -0.023971 0.017339 0.000000 0.000272 0.000000
# 4 0.000000 0.000000 0.000000 0.047907 0.000000 -0.024393
# 5 0.000539 -0.014672 0.000272 0.000000 0.034471 0.000000
# 6 0.000000 0.000000 0.000000 -0.024393 0.000000 0.051626
#
#
# Mechanical properties :
#
#
# Convention : Reuss Voigt Hill
#
# Bulk Modulus (GPa) = 24.20180 75.91391 50.05786
# Shear Modulus (GPa) = 13.05626 25.44598 19.25112
#
# Velocity S-wave (km/s) = 2.74895 3.83767 3.33800
# Velocity P-wave (km/s) = 4.90747 7.97337 6.62035
#
# Compressibility (1/GPa) = 0.04131923
#
# Stress axis : x y z
#
# Youngs Moduli (GPa) = 57.87858 9.64938 57.67435
#
# Poissons Ratio (x) = 0.22047 0.09495
# Poissons Ratio (y) = 1.32239 1.38254
# Poissons Ratio (z) = 0.09528 0.23131
#
# Static dielectric constant tensor:
#      x y z
#    x 1.570620 0.000000 -0.008390 
#    y 0.000000 1.574720 0.000000 
#    z -0.008390 0.000000 1.569330 
# 
# From -- ./inp_files/86744.got.cif
#   From: 2010.05.17/outbox.cif.g08.bks.cpg/sg10_44_cif.got.tgz:86744.got - 2010.06.03 11:33:40.
