data_PCOD9146400
_publ_section_title
;
Structure prediction by ZEFSAII (Michael W. Deem and Ramdas Pophale) SiO2 
 PCOD9146400
Probable space group: P 2/M
;
_chemical_formula_sum "Si O2"
_cell_formula_units_Z 28
_cell_length_a 28.390496
_cell_length_b 7.595825
_cell_length_c 10.006676
_cell_angle_alpha 90.000000
_cell_angle_beta 141.337376
_cell_angle_gamma 90.000000
_cell_volume 1348.132284
_symmetry_space_group_name_H-M "P 2/M"
_symmetry_group_IT_number 10
_symmetry_cell_setting 'monoclinic'
loop_
_space_group_symop_operation_xyz
x,y,z
-x,y,-z
-x,-y,-z
x,-y,z
loop_
_atom_site_type_symbol
_atom_site_label
_atom_site_fract_x
_atom_site_fract_y
_atom_site_fract_z
Si Si1 0.866765 0.291489 0.874984
Si Si2 0.302765 0.290179 0.512783
Si Si3 0.994653 0.204837 0.637583
Si Si4 0.556516 0.202192 0.731077
Si Si5 0.297717 0.212546 0.810871
Si Si6 0.461101 0.713056 0.772831
Si Si7 0.873296 0.213193 0.580641
O O1 0.865643 0.500000 0.895956
O O2 0.781258 0.220446 0.701099
O O3 0.889674 0.263420 0.770647
O O4 0.926277 0.213025 0.109459
O O5 0.299685 0.500000 0.486139
O O6 0.318349 0.260206 0.704358
O O7 0.374286 0.225395 0.587784
O O8 0.000000 0.281890 0.500000
O O9 0.932860 0.280316 0.603856
O O10 0.973095 0.000000 0.572055
O O11 0.500000 0.287982 0.500000
O O12 0.510041 0.204190 0.765115
O O13 0.569884 0.000000 0.716366
O O14 0.638344 0.280210 0.946790
O O15 0.211880 0.272523 0.641560
O O16 0.298124 0.000000 0.819484
O O17 0.462327 0.500000 0.758897
O O18 0.500000 0.752391 0.000000
O O19 0.874419 0.000000 0.581750
#
# Coordination Sequence:
#
# PCOD9146400 Si02
#       7
#     4   4   4   4   4   4   4
#     4  10  20  34  55  80 106 133 167 212 259 305
#     4   9  18  33  52  77 105 130 166 216 258 297
#     4  10  21  37  54  76 106 138 172 208 250 304
#     4  10  21  35  49  74 109 139 171 213 258 302
#     4   9  17  31  52  74 100 134 172 210 254 303
#     4  10  19  33  55  77 100 135 176 212 252 302
#     4   9  18  34  56  77  99 133 174 214 252 300
#
# _framework density 20.769473999999999
#
# number of rings (size 3 to 8) (size 9 to 14) (size 15 to 20)
#    0.000    2.429    1.429    0.857    0.000    4.286 
#    2.571    0.000    0.000    0.000    0.000    0.000 
#    0.000    0.000    0.000    0.000    0.000    0.000 
#
# Total GULP energy -156217.326075 kJ/mol
# GULP energy per Si atom -5579.190217 kJ/mol
# Density = 2.072220 g / cm^3
# Si number density = 20.769474 Si / 1000 Ang^3
#
#
#
# Elastic Constant Matrix: (Units=GPa)
#
#
# Indices 1 2 3 4 5 6 
#
# 1 66.5858 2.7385 47.3624 0.0000 9.3272 0.0000
# 2 2.7385 42.4575 -8.7569 0.0000 -0.8590 0.0000
# 3 47.3624 -8.7569 144.5167 0.0000 2.7370 0.0000
# 4 0.0000 0.0000 0.0000 68.0791 0.0000 -5.8205
# 5 9.3272 -0.8590 2.7370 0.0000 24.8702 0.0000
# 6 0.0000 0.0000 0.0000 -5.8205 0.0000 22.0227
#
#
#
# Elastic Compliance Matrix: (Units=1/GPa)
#
#
# Indices 1 2 3 4 5 6 
#
# 1 0.021104 -0.002943 -0.006957 0.000000 -0.007251 0.000000
# 2 -0.002943 0.024272 0.002403 0.000000 0.001678 0.000000
# 3 -0.006957 0.002403 0.009314 0.000000 0.001667 0.000000
# 4 0.000000 0.000000 0.000000 0.015028 0.000000 0.003972
# 5 -0.007251 0.001678 0.001667 0.000000 0.042803 0.000000
# 6 0.000000 0.000000 0.000000 0.003972 0.000000 0.046457
#
#
# Mechanical properties :
#
#
# Convention : Reuss Voigt Hill
#
# Bulk Modulus (GPa) = 25.19113 37.36089 31.27601
# Shear Modulus (GPa) = 26.70891 37.14214 31.92553
#
# Velocity S-wave (km/s) = 3.58993 4.23342 3.92489
# Velocity P-wave (km/s) = 5.41652 6.47482 5.96917
#
# Compressibility (1/GPa) = 0.03969651
#
# Stress axis : x y z
#
# Youngs Moduli (GPa) = 47.38534 41.19903 107.36788
#
# Poissons Ratio (x) = 0.12124 0.74699
# Poissons Ratio (y) = 0.13945 -0.25805
# Poissons Ratio (z) = 0.32967 -0.09902
#
# Static dielectric constant tensor:
#      x y z
#    x 1.731750 0.000000 0.034750 
#    y 0.000000 1.790900 0.000000 
#    z 0.034750 0.000000 1.752400 
# 
# From -- ./inp_files/37244.got.cif
#   From: 2010.05.17/outbox.cif.g08.bks.cpg/sg10_19_cif.got.tgz:37244.got - 2010.06.03 11:33:40.
