data_PCOD9146818
_publ_section_title
;
Structure prediction by ZEFSAII (Michael W. Deem and Ramdas Pophale) SiO2 
 PCOD9146818
Probable space group: P 2/M
;
_chemical_formula_sum "Si O2"
_cell_formula_units_Z 28
_cell_length_a 7.705337
_cell_length_b 13.245861
_cell_length_c 15.633008
_cell_angle_alpha 90.000000
_cell_angle_beta 55.701480
_cell_angle_gamma 90.000000
_cell_volume 1318.116386
_symmetry_space_group_name_H-M "P 2/M"
_symmetry_group_IT_number 10
_symmetry_cell_setting 'monoclinic'
loop_
_space_group_symop_operation_xyz
x,y,z
-x,y,-z
-x,-y,-z
x,-y,z
loop_
_atom_site_type_symbol
_atom_site_label
_atom_site_fract_x
_atom_site_fract_y
_atom_site_fract_z
Si Si1 0.902132 0.884325 0.179517
Si Si2 0.718785 0.260767 0.091069
Si Si3 0.680534 0.243877 0.387820
Si Si4 0.246834 0.612956 0.078161
Si Si5 0.278672 0.193258 0.170320
Si Si6 0.922214 0.244373 0.610534
Si Si7 0.526991 0.619582 0.693406
O O1 0.849425 0.816598 0.112111
O O2 0.767430 0.836911 0.295170
O O3 0.143801 0.873239 0.143084
O O4 0.850003 0.000000 0.178697
O O5 0.820784 0.330686 0.989708
O O6 0.529319 0.197636 0.098351
O O7 0.601822 0.335911 0.189983
O O8 0.500000 0.202132 0.500000
O O9 0.415448 0.334933 0.640653
O O10 0.872211 0.276752 0.394561
O O11 0.161084 0.500000 0.112358
O O12 0.500000 0.604951 0.000000
O O13 0.206582 0.691583 0.165407
O O14 0.205302 0.173613 0.287795
O O15 0.760252 0.333569 0.633600
O O16 0.000000 0.197367 0.500000
O O17 0.528621 0.500000 0.694859
#
# Coordination Sequence:
#
# PCOD9146818 Si02
#       7
#     4   4   4   4   4   4   4
#     4  10  22  39  59  82 109 143 185 233 284 335
#     4   9  19  37  59  83 112 146 183 230 274 320
#     4  10  20  37  56  76 110 142 185 236 278 320
#     4   9  17  34  61  88 115 150 188 222 264 321
#     4   9  20  36  57  82 116 146 179 230 278 321
#     4  10  19  34  53  75 108 154 180 220 270 324
#     4  10  20  33  52  80 113 150 184 218 267 329
#
# _framework density 21.242432999999998
#
# number of rings (size 3 to 8) (size 9 to 14) (size 15 to 20)
#    0.000    2.429    1.429    0.429    0.000    6.000 
#    0.000    8.571    0.000    4.286    0.000    0.000 
#    0.000    0.000    0.000    0.000    0.000    0.000 
#
# Total GULP energy -156326.566524 kJ/mol
# GULP energy per Si atom -5583.091662 kJ/mol
# Density = 2.119408 g / cm^3
# Si number density = 21.242433 Si / 1000 Ang^3
#
#
#
# Elastic Constant Matrix: (Units=GPa)
#
#
# Indices 1 2 3 4 5 6 
#
# 1 116.8988 26.9701 7.4288 0.0000 21.3180 0.0000
# 2 26.9701 87.2882 8.9968 0.0000 8.6383 0.0000
# 3 7.4288 8.9968 99.4013 0.0000 11.8148 0.0000
# 4 0.0000 0.0000 0.0000 4.6948 0.0000 -3.9538
# 5 21.3180 8.6383 11.8148 0.0000 33.7051 0.0000
# 6 0.0000 0.0000 0.0000 -3.9538 0.0000 15.0765
#
#
#
# Elastic Compliance Matrix: (Units=1/GPa)
#
#
# Indices 1 2 3 4 5 6 
#
# 1 0.010209 -0.002593 0.000167 0.000000 -0.005851 0.000000
# 2 -0.002593 0.012465 -0.000782 0.000000 -0.001281 0.000000
# 3 0.000167 -0.000782 0.010547 0.000000 -0.003602 0.000000
# 4 0.000000 0.000000 0.000000 0.273381 0.000000 0.071693
# 5 -0.005851 -0.001281 -0.003602 0.000000 0.034961 0.000000
# 6 0.000000 0.000000 0.000000 0.071693 0.000000 0.085130
#
#
# Mechanical properties :
#
#
# Convention : Reuss Voigt Hill
#
# Bulk Modulus (GPa) = 37.30622 43.37552 40.34087
# Shear Modulus (GPa) = 11.31114 28.04145 19.67630
#
# Velocity S-wave (km/s) = 2.31005 3.63722 3.04678
# Velocity P-wave (km/s) = 4.97146 6.17274 5.60438
#
# Compressibility (1/GPa) = 0.02680518
#
# Stress axis : x y z
#
# Youngs Moduli (GPa) = 97.95322 80.22665 94.81646
#
# Poissons Ratio (x) = 0.20799 -0.01585
# Poissons Ratio (y) = 0.25395 0.07417
# Poissons Ratio (z) = -0.01637 0.06275
#
# Static dielectric constant tensor:
#      x y z
#    x 1.829060 0.000000 -0.014320 
#    y 0.000000 1.708280 0.000000 
#    z -0.014320 0.000000 1.813200 
# 
# From -- ./inp_files/61135.got.cif
#   From: 2010.05.17/outbox.cif.g08.bks.cpg/sg10_31_cif.got.tgz:61135.got - 2010.06.03 11:33:40.
