data_PCOD9146530
_publ_section_title
;
Structure prediction by ZEFSAII (Michael W. Deem and Ramdas Pophale) SiO2 
 PCOD9146530
Probable space group: P 2/M
;
_chemical_formula_sum "Si O2"
_cell_formula_units_Z 30
_cell_length_a 16.537102
_cell_length_b 14.402793
_cell_length_c 10.428882
_cell_angle_alpha 90.000000
_cell_angle_beta 140.588081
_cell_angle_gamma 90.000000
_cell_volume 1577.041849
_symmetry_space_group_name_H-M "P 2/M"
_symmetry_group_IT_number 10
_symmetry_cell_setting 'monoclinic'
loop_
_space_group_symop_operation_xyz
x,y,z
-x,y,-z
-x,-y,-z
x,-y,z
loop_
_atom_site_type_symbol
_atom_site_label
_atom_site_fract_x
_atom_site_fract_y
_atom_site_fract_z
Si Si1 0.300275 0.394183 0.500850
Si Si2 0.010307 0.396075 0.165457
Si Si3 0.568670 0.781583 0.222860
Si Si4 0.181385 0.727979 0.923933
Si Si5 0.000000 0.783426 0.500000
Si Si6 0.338306 0.894416 0.052903
Si Si7 0.635927 0.608157 0.708499
Si Si8 0.201616 0.105377 0.606343
O O1 0.345395 0.500000 0.577732
O O2 0.158331 0.384990 0.383118
O O3 0.393505 0.316960 0.670661
O O4 0.286736 0.384188 0.329918
O O5 0.966799 0.500000 0.156260
O O6 0.927486 0.312568 0.118372
O O7 0.000000 0.396836 0.000000
O O8 0.700821 0.837313 0.361910
O O9 0.500000 0.770603 0.000000
O O10 0.471228 0.840972 0.191055
O O11 0.242025 0.829921 0.016074
O O12 0.114601 0.726277 0.703494
O O13 0.298544 0.659920 0.094805
O O14 0.933197 0.846025 0.527644
O O15 0.271833 0.899181 0.831098
O O16 0.355034 0.000000 0.119127
O O17 0.500000 0.647313 0.500000
O O18 0.620973 0.500000 0.721419
O O19 0.184456 0.000000 0.539513
#
# Coordination Sequence:
#
# PCOD9146530 Si02
#       8
#     4   4   4   4   2   4   4   4
#     4  10  20  34  53  80 110 142 187 232 274 328
#     4  10  19  35  58  82 105 139 190 238 274 322
#     4  10  19  33  55  83 114 150 189 230 282 339
#     4  11  20  35  57  82 115 148 185 232 289 338
#     4  10  21  32  51  88 122 148 179 230 297 350
#     4   9  19  34  54  81 112 148 189 234 283 335
#     4  10  20  35  56  80 104 141 193 234 267 323
#     4   9  17  32  54  79 110 147 190 235 276 330
#
# _framework density 19.022957000000002
#
# number of rings (size 3 to 8) (size 9 to 14) (size 15 to 20)
#    0.000    2.133    1.333    2.600    0.000    2.400 
#    0.000    2.000    0.000   17.600    0.000    0.000 
#    0.000    0.000    0.000    0.000    0.000    0.000 
#
# Total GULP energy -167169.621035 kJ/mol
# GULP energy per Si atom -5572.320701 kJ/mol
# Density = 1.897966 g / cm^3
# Si number density = 19.022957 Si / 1000 Ang^3
#
#
#
# Elastic Constant Matrix: (Units=GPa)
#
#
# Indices 1 2 3 4 5 6 
#
# 1 72.9091 54.3947 12.7210 0.0000 25.1693 0.0000
# 2 54.3947 148.5118 53.9756 0.0000 8.7996 0.0000
# 3 12.7210 53.9756 87.1169 0.0000 15.2233 0.0000
# 4 0.0000 0.0000 0.0000 56.4501 0.0000 -6.2363
# 5 25.1693 8.7996 15.2233 0.0000 25.2446 0.0000
# 6 0.0000 0.0000 0.0000 -6.2363 0.0000 30.8195
#
#
#
# Elastic Compliance Matrix: (Units=1/GPa)
#
#
# Indices 1 2 3 4 5 6 
#
# 1 0.035199 -0.014427 0.010119 0.000000 -0.036167 0.000000
# 2 -0.014427 0.014605 -0.009575 0.000000 0.015067 0.000000
# 3 0.010119 -0.009575 0.019129 0.000000 -0.018286 0.000000
# 4 0.000000 0.000000 0.000000 0.018120 0.000000 0.003667
# 5 -0.036167 0.015067 -0.018286 0.000000 0.081447 0.000000
# 6 0.000000 0.000000 0.000000 0.003667 0.000000 0.033189
#
#
# Mechanical properties :
#
#
# Convention : Reuss Voigt Hill
#
# Bulk Modulus (GPa) = 24.29154 61.19116 42.74135
# Shear Modulus (GPa) = 20.56122 34.99929 27.78026
#
# Velocity S-wave (km/s) = 3.29122 4.29399 3.82560
# Velocity P-wave (km/s) = 5.21921 7.53799 6.48311
#
# Compressibility (1/GPa) = 0.04116660
#
# Stress axis : x y z
#
# Youngs Moduli (GPa) = 28.41015 68.47126 52.27607
#
# Poissons Ratio (x) = 0.98781 -0.52896
# Poissons Ratio (y) = 0.40986 0.50054
# Poissons Ratio (z) = -0.28747 0.65561
#
# Static dielectric constant tensor:
#      x y z
#    x 1.702230 0.000000 0.043320 
#    y 0.000000 1.674560 0.000000 
#    z 0.043320 0.000000 1.684320 
# 
# From -- ./inp_files/53686.got.cif
#   From: 2010.05.17/outbox.cif.g08.bks.cpg/sg10_27_cif.got.tgz:53686.got - 2010.06.03 11:33:40.
