data_PCOD9146344
_publ_section_title
;
Structure prediction by ZEFSAII (Michael W. Deem and Ramdas Pophale) SiO2 
 PCOD9146344
Probable space group: P 2/M
;
_chemical_formula_sum "Si O2"
_cell_formula_units_Z 32
_cell_length_a 21.628836
_cell_length_b 9.486016
_cell_length_c 14.944458
_cell_angle_alpha 90.000000
_cell_angle_beta 145.524797
_cell_angle_gamma 90.000000
_cell_volume 1735.607782
_symmetry_space_group_name_H-M "P 2/M"
_symmetry_group_IT_number 10
_symmetry_cell_setting 'monoclinic'
loop_
_space_group_symop_operation_xyz
x,y,z
-x,y,-z
-x,-y,-z
x,-y,z
loop_
_atom_site_type_symbol
_atom_site_label
_atom_site_fract_x
_atom_site_fract_y
_atom_site_fract_z
Si Si1 0.800062 0.334098 0.585377
Si Si2 0.027478 0.161167 0.667197
Si Si3 0.748568 0.166724 0.809153
Si Si4 0.736333 0.166347 0.140481
Si Si5 0.389739 0.333056 0.500666
Si Si6 0.987837 0.836396 0.136338
Si Si7 0.604493 0.165822 0.809325
Si Si8 0.186430 0.331954 0.605753
O O1 0.826650 0.500000 0.619331
O O2 0.691067 0.311429 0.511622
O O3 0.785255 0.295053 0.463423
O O4 0.902529 0.250506 0.748341
O O5 0.145122 0.185921 0.764591
O O6 0.033774 0.170638 0.782337
O O7 0.934855 0.268418 0.525156
O O8 0.993322 0.000000 0.604570
O O9 0.670665 0.257556 0.653613
O O10 0.703142 0.179482 0.855952
O O11 0.742482 0.000000 0.778605
O O12 0.875350 0.211430 0.956216
O O13 0.736268 0.258237 0.229659
O O14 0.725689 0.000000 0.148194
O O15 0.647486 0.203537 0.959193
O O16 0.402095 0.500000 0.499617
O O17 0.504575 0.260003 0.657717
O O18 0.005710 0.000000 0.134270
O O19 0.573276 0.000000 0.771925
O O20 0.187130 0.500000 0.616607
#
# Coordination Sequence:
#
# PCOD9146344 Si02
#       8
#     4   4   4   4   4   4   4   4
#     4   9  21  40  55  73 111 153 185 221 268 318
#     4   9  16  30  51  77 110 144 174 210 264 325
#     4  10  20  37  60  86 113 139 173 222 279 330
#     4  10  19  33  54  80 109 141 175 216 270 325
#     4  11  24  40  57  78 106 146 190 228 269 319
#     4   9  17  32  57  85 110 140 179 221 266 323
#     4  10  21  39  60  82 111 143 177 222 276 327
#     4  10  20  33  51  77 108 144 182 219 263 316
#
# _framework density 18.437346000000002
#
# number of rings (size 3 to 8) (size 9 to 14) (size 15 to 20)
#    0.000    2.250    1.250    1.500    0.000    7.000 
#    0.000    3.125    0.000    3.750    0.000    0.000 
#    0.000    0.000    0.000    0.000    0.000    0.000 
#
# Total GULP energy -178645.671134 kJ/mol
# GULP energy per Si atom -5582.677223 kJ/mol
# Density = 1.839538 g / cm^3
# Si number density = 18.437346 Si / 1000 Ang^3
#
#
#
# Elastic Constant Matrix: (Units=GPa)
#
#
# Indices 1 2 3 4 5 6 
#
# 1 34.9602 31.7680 34.7722 0.0000 5.1394 0.0000
# 2 31.7680 70.1083 94.8653 0.0000 11.4000 0.0000
# 3 34.7722 94.8653 202.3573 0.0000 20.0762 0.0000
# 4 0.0000 0.0000 0.0000 56.5055 0.0000 -0.6886
# 5 5.1394 11.4000 20.0762 0.0000 33.5251 0.0000
# 6 0.0000 0.0000 0.0000 -0.6886 0.0000 25.2837
#
#
#
# Elastic Compliance Matrix: (Units=1/GPa)
#
#
# Indices 1 2 3 4 5 6 
#
# 1 0.050901 -0.030649 0.005700 0.000000 -0.000795 0.000000
# 2 -0.030649 0.057655 -0.021564 0.000000 -0.001993 0.000000
# 3 0.005700 -0.021564 0.014279 0.000000 -0.002092 0.000000
# 4 0.000000 0.000000 0.000000 0.017703 0.000000 0.000482
# 5 -0.000795 -0.001993 -0.002092 0.000000 0.031881 0.000000
# 6 0.000000 0.000000 0.000000 0.000482 0.000000 0.039564
#
#
# Mechanical properties :
#
#
# Convention : Reuss Voigt Hill
#
# Bulk Modulus (GPa) = 33.54611 70.02629 51.78620
# Shear Modulus (GPa) = 15.87573 32.79753 24.33663
#
# Velocity S-wave (km/s) = 2.93757 4.22223 3.63707
# Velocity P-wave (km/s) = 5.45343 7.86338 6.76656
#
# Compressibility (1/GPa) = 0.02980972
#
# Stress axis : x y z
#
# Youngs Moduli (GPa) = 19.64580 17.34460 70.03220
#
# Poissons Ratio (x) = 0.53159 -0.39922
# Poissons Ratio (y) = 0.60212 1.51020
# Poissons Ratio (z) = -0.11199 0.37402
#
# Static dielectric constant tensor:
#      x y z
#    x 1.647060 0.000000 -0.026180 
#    y 0.000000 1.612230 0.000000 
#    z -0.026180 0.000000 1.624330 
# 
# From -- ./inp_files/71684.got.cif
#   From: 2010.05.17/outbox.cif.g08.bks.cpg/sg10_36_cif.got.tgz:71684.got - 2010.06.03 11:33:40.
