data_PCOD9146622
_publ_section_title
;
Structure prediction by ZEFSAII (Michael W. Deem and Ramdas Pophale) SiO2 
 PCOD9146622
Probable space group: P 2/M
;
_chemical_formula_sum "Si O2"
_cell_formula_units_Z 26
_cell_length_a 7.691835
_cell_length_b 9.622143
_cell_length_c 15.675952
_cell_angle_alpha 90.000000
_cell_angle_beta 96.984643
_cell_angle_gamma 90.000000
_cell_volume 1151.597406
_symmetry_space_group_name_H-M "P 2/M"
_symmetry_group_IT_number 10
_symmetry_cell_setting 'monoclinic'
loop_
_space_group_symop_operation_xyz
x,y,z
-x,y,-z
-x,-y,-z
x,-y,z
loop_
_atom_site_type_symbol
_atom_site_label
_atom_site_fract_x
_atom_site_fract_y
_atom_site_fract_z
Si Si1 0.828436 0.341042 0.049030
Si Si2 0.113382 0.840192 0.429341
Si Si3 0.761634 0.835946 0.736708
Si Si4 0.349688 0.847919 0.089807
Si Si5 0.738112 0.841063 0.197068
Si Si6 0.577183 0.342254 0.321732
Si Si7 0.500000 0.250291 0.500000
O O1 0.786706 0.500000 0.067810
O O2 0.684177 0.270160 0.979998
O O3 0.841783 0.251548 0.135677
O O4 0.000000 0.337878 0.000000
O O5 0.102079 0.794847 0.329301
O O6 0.322824 0.831044 0.462133
O O7 0.000000 0.773829 0.500000
O O8 0.057446 0.000000 0.423295
O O9 0.785893 0.835125 0.839489
O O10 0.608602 0.723784 0.715072
O O11 0.710860 0.000000 0.716389
O O12 0.541476 0.846470 0.143882
O O13 0.323204 0.000000 0.047310
O O14 0.712551 0.762409 0.285170
O O15 0.800847 0.000000 0.209613
O O16 0.600103 0.500000 0.293423
O O17 0.568927 0.335751 0.423218
#
# Coordination Sequence:
#
# PCOD9146622 Si02
#       7
#     4   4   4   4   4   4   2
#     4  11  24  39  54  78 115 151 186 228 279 340
#     4   9  17  31  53  81 114 150 192 241 291 341
#     4   8  16  32  53  79 111 141 181 235 281 331
#     4   9  18  34  57  82 107 140 184 233 283 335
#     4  10  21  38  60  86 111 140 188 239 284 337
#     4  10  19  33  56  83 114 149 186 227 279 339
#     4  10  20  34  54  82 119 154 195 236 289 346
#
# _framework density 22.577334
#
# number of rings (size 3 to 8) (size 9 to 14) (size 15 to 20)
#    0.000    2.462    0.000    3.231    0.000    8.000 
#    2.769    0.000    0.000   11.538    0.000    0.000 
#    0.000    0.000    0.000    0.000    0.000    0.000 
#
# Total GULP energy -144938.585814 kJ/mol
# GULP energy per Si atom -5574.560993 kJ/mol
# Density = 2.252595 g / cm^3
# Si number density = 22.577334 Si / 1000 Ang^3
#
#
#
# Elastic Constant Matrix: (Units=GPa)
#
#
# Indices 1 2 3 4 5 6 
#
# 1 78.1798 22.1586 15.7770 0.0000 -17.7152 0.0000
# 2 22.1586 148.1592 62.1759 0.0000 -16.7046 0.0000
# 3 15.7770 62.1759 142.1880 0.0000 -49.5108 0.0000
# 4 0.0000 0.0000 0.0000 24.9216 0.0000 -9.6083
# 5 -17.7152 -16.7046 -49.5108 0.0000 35.1664 0.0000
# 6 0.0000 0.0000 0.0000 -9.6083 0.0000 10.5811
#
#
#
# Elastic Compliance Matrix: (Units=1/GPa)
#
#
# Indices 1 2 3 4 5 6 
#
# 1 0.015339 -0.002389 0.003214 0.000000 0.011116 0.000000
# 2 -0.002389 0.008733 -0.004960 0.000000 -0.004038 0.000000
# 3 0.003214 -0.004960 0.016848 0.000000 0.022984 0.000000
# 4 0.000000 0.000000 0.000000 0.061741 0.000000 0.056064
# 5 0.011116 -0.004038 0.022984 0.000000 0.064477 0.000000
# 6 0.000000 0.000000 0.000000 0.056064 0.000000 0.145418
#
#
# Mechanical properties :
#
#
# Convention : Reuss Voigt Hill
#
# Bulk Modulus (GPa) = 30.62885 63.19444 46.91165
# Shear Modulus (GPa) = 15.07348 32.02820 23.55084
#
# Velocity S-wave (km/s) = 2.58667 3.77052 3.23324
# Velocity P-wave (km/s) = 4.74519 6.85614 5.89591
#
# Compressibility (1/GPa) = 0.03264895
#
# Stress axis : x y z
#
# Youngs Moduli (GPa) = 65.19488 114.50904 59.35364
#
# Poissons Ratio (x) = 0.27360 -0.19074
# Poissons Ratio (y) = 0.15577 0.29438
# Poissons Ratio (z) = -0.20951 0.56793
#
# Static dielectric constant tensor:
#      x y z
#    x 1.918190 0.000000 0.001950 
#    y 0.000000 1.778490 0.000000 
#    z 0.001950 0.000000 1.972530 
# 
# From -- ./inp_files/74326.got.cif
#   From: 2010.05.17/outbox.cif.g08.bks.cpg/sg10_38_cif.got.tgz:74326.got - 2010.06.03 11:33:40.
