data_PCOD9146336
_publ_section_title
;
Structure prediction by ZEFSAII (Michael W. Deem and Ramdas Pophale) SiO2 
 PCOD9146336
Probable space group: P 2/M
;
_chemical_formula_sum "Si O2"
_cell_formula_units_Z 30
_cell_length_a 7.750889
_cell_length_b 13.715448
_cell_length_c 22.403873
_cell_angle_alpha 90.000000
_cell_angle_beta 137.739022
_cell_angle_gamma 90.000000
_cell_volume 1601.704790
_symmetry_space_group_name_H-M "P 2/M"
_symmetry_group_IT_number 10
_symmetry_cell_setting 'monoclinic'
loop_
_space_group_symop_operation_xyz
x,y,z
-x,y,-z
-x,-y,-z
x,-y,z
loop_
_atom_site_type_symbol
_atom_site_label
_atom_site_fract_x
_atom_site_fract_y
_atom_site_fract_z
Si Si1 0.279401 0.109729 0.895148
Si Si2 0.000000 0.233071 0.000000
Si Si3 0.157265 0.387345 0.593504
Si Si4 0.652809 0.692789 0.773225
Si Si5 0.613744 0.388241 0.897741
Si Si6 0.233671 0.385800 0.397322
Si Si7 0.081869 0.299860 0.789937
Si Si8 0.245827 0.108028 0.164191
O O1 0.216779 0.192983 0.830439
O O2 0.014908 0.101588 0.864223
O O3 0.343259 0.000000 0.888681
O O4 0.500000 0.136691 0.000000
O O5 0.796726 0.308808 0.976791
O O6 0.840657 0.160334 0.918377
O O7 0.194378 0.500000 0.587347
O O8 0.437012 0.348373 0.675743
O O9 0.000000 0.338772 0.500000
O O10 0.989284 0.381950 0.610111
O O11 0.640910 0.639820 0.834322
O O12 0.587429 0.807472 0.763594
O O13 0.927826 0.683570 0.812016
O O14 0.688230 0.500000 0.926920
O O15 0.319292 0.371981 0.840240
O O16 0.500000 0.360127 0.500000
O O17 0.260004 0.500000 0.384336
O O18 0.126267 0.319134 0.315889
O O19 0.352738 0.000000 0.184664
#
# Coordination Sequence:
#
# PCOD9146336 Si02
#       8
#     4   2   4   4   4   4   4   4
#     4   9  18  34  56  82 111 143 188 242 290 337
#     4  10  20  34  54  78 110 146 184 234 278 330
#     4  10  19  33  54  79 111 147 184 226 273 329
#     4  10  21  35  53  79 110 145 183 230 275 327
#     4  11  22  36  52  76 112 150 188 227 273 332
#     4  10  20  34  54  83 114 147 190 235 277 330
#     4  11  21  35  58  82 112 152 191 235 286 335
#     4   9  18  33  54  78 105 138 180 231 283 329
#
# _framework density 18.730045
#
# number of rings (size 3 to 8) (size 9 to 14) (size 15 to 20)
#    0.000    2.000    1.333    2.800    0.000    3.200 
#    0.000    2.667    0.000   10.400    0.000    0.000 
#    0.000    0.000    0.000    0.000    0.000    0.000 
#
# Total GULP energy -167188.428703 kJ/mol
# GULP energy per Si atom -5572.947623 kJ/mol
# Density = 1.868741 g / cm^3
# Si number density = 18.730045 Si / 1000 Ang^3
#
#
#
# Elastic Constant Matrix: (Units=GPa)
#
#
# Indices 1 2 3 4 5 6 
#
# 1 49.7358 26.2048 13.8585 0.0000 9.7404 0.0000
# 2 26.2048 112.2903 37.1501 0.0000 -7.6804 0.0000
# 3 13.8585 37.1501 87.7668 0.0000 1.1559 0.0000
# 4 0.0000 0.0000 0.0000 41.1950 0.0000 1.4213
# 5 9.7404 -7.6804 1.1559 0.0000 23.5021 0.0000
# 6 0.0000 0.0000 0.0000 1.4213 0.0000 20.8950
#
#
#
# Elastic Compliance Matrix: (Units=1/GPa)
#
#
# Indices 1 2 3 4 5 6 
#
# 1 0.026537 -0.006700 -0.001181 0.000000 -0.013130 0.000000
# 2 -0.006700 0.012361 -0.004267 0.000000 0.007026 0.000000
# 3 -0.001181 -0.004267 0.013407 0.000000 -0.001564 0.000000
# 4 0.000000 0.000000 0.000000 0.024332 0.000000 -0.001655
# 5 -0.013130 0.007026 -0.001564 0.000000 0.050364 0.000000
# 6 0.000000 0.000000 0.000000 -0.001655 0.000000 0.047971
#
#
# Mechanical properties :
#
#
# Convention : Reuss Voigt Hill
#
# Bulk Modulus (GPa) = 35.70310 44.91329 40.30819
# Shear Modulus (GPa) = 23.96877 28.62372 26.29625
#
# Velocity S-wave (km/s) = 3.58117 3.91349 3.75101
# Velocity P-wave (km/s) = 6.01689 6.66723 6.35039
#
# Compressibility (1/GPa) = 0.02800877
#
# Stress axis : x y z
#
# Youngs Moduli (GPa) = 37.68343 80.89762 74.58761
#
# Poissons Ratio (x) = 0.54202 0.08811
# Poissons Ratio (y) = 0.25248 0.31826
# Poissons Ratio (z) = 0.04451 0.34518
#
# Static dielectric constant tensor:
#      x y z
#    x 1.707630 0.000000 -0.031380 
#    y 0.000000 1.673230 0.000000 
#    z -0.031380 0.000000 1.672990 
# 
# From -- ./inp_files/88100.got.cif
#   From: 2010.05.17/outbox.cif.g08.bks.cpg/sg10_45_cif.got.tgz:88100.got - 2010.06.03 11:33:40.
