data_PCOD9146065
_publ_section_title
;
Structure prediction by ZEFSAII (Michael W. Deem and Ramdas Pophale) SiO2 
 PCOD9146065
Probable space group: P 2/M
;
_chemical_formula_sum "Si O2"
_cell_formula_units_Z 24
_cell_length_a 10.267157
_cell_length_b 10.430352
_cell_length_c 29.093042
_cell_angle_alpha 90.000000
_cell_angle_beta 153.857686
_cell_angle_gamma 90.000000
_cell_volume 1372.729676
_symmetry_space_group_name_H-M "P 2/M"
_symmetry_group_IT_number 10
_symmetry_cell_setting 'monoclinic'
loop_
_space_group_symop_operation_xyz
x,y,z
-x,y,-z
-x,-y,-z
x,-y,z
loop_
_atom_site_type_symbol
_atom_site_label
_atom_site_fract_x
_atom_site_fract_y
_atom_site_fract_z
Si Si1 0.220055 0.845484 0.029801
Si Si2 0.277673 0.000000 0.554372
Si Si3 0.129405 0.768946 0.734345
Si Si4 0.702766 0.243232 0.687350
Si Si5 0.839592 0.000000 0.589356
Si Si6 0.155846 0.153737 0.904310
Si Si7 0.961617 0.500000 0.646096
Si Si8 0.470941 0.500000 0.572783
O O1 0.548940 0.798253 0.144103
O O2 0.229905 0.000000 0.034527
O O3 0.120824 0.812682 0.946806
O O4 0.000000 0.800438 0.000000
O O5 0.479164 0.126038 0.623804
O O6 0.000000 0.000000 0.500000
O O7 0.168373 0.000000 0.467548
O O8 0.898165 0.775330 0.703227
O O9 0.012140 0.876486 0.662539
O O10 0.128958 0.631564 0.709536
O O11 0.528019 0.374769 0.621880
O O12 0.936733 0.235347 0.803095
O O13 0.500000 0.000000 0.500000
O O14 0.096960 0.000000 0.879058
O O15 0.500000 0.173309 0.000000
O O16 0.710304 0.500000 0.606734
O O17 0.826809 0.500000 0.552036
#
# Coordination Sequence:
#
# PCOD9146065 Si02
#       8
#     4   2   4   4   2   4   2   2
#     4  10  21  36  56  88 121 150 191 244 294 345
#     4  12  26  38  56  89 121 148 196 251 293 339
#     4  11  20  36  61  88 116 155 199 239 295 349
#     4  11  20  38  60  87 117 156 196 240 294 350
#     4  12  22  34  62  88 111 152 199 247 282 349
#     4  10  19  32  59  85 114 152 192 235 295 345
#     4   9  20  34  56  88 121 152 193 247 298 335
#     4   9  20  36  59  85 119 155 195 246 289 345
#
# _framework density 17.483412999999999
#
# number of rings (size 3 to 8) (size 9 to 14) (size 15 to 20)
#    0.000    1.500    5.000    1.000    2.333    1.333 
#    0.000    2.083    0.000    2.000    0.000    0.000 
#    0.000    0.000    0.000    0.000    0.000    0.000 
#
# Total GULP energy -133908.170727 kJ/mol
# GULP energy per Si atom -5579.507114 kJ/mol
# Density = 1.744362 g / cm^3
# Si number density = 17.483413 Si / 1000 Ang^3
#
#
#
# Elastic Constant Matrix: (Units=GPa)
#
#
# Indices 1 2 3 4 5 6 
#
# 1 101.0709 42.8105 50.0761 0.0000 -10.3124 0.0000
# 2 42.8105 104.5635 63.2069 0.0000 -10.6232 0.0000
# 3 50.0761 63.2069 126.0755 0.0000 -28.8755 0.0000
# 4 0.0000 0.0000 0.0000 28.3415 0.0000 -20.0227
# 5 -10.3124 -10.6232 -28.8755 0.0000 31.4949 0.0000
# 6 0.0000 0.0000 0.0000 -20.0227 0.0000 16.2476
#
#
#
# Elastic Compliance Matrix: (Units=1/GPa)
#
#
# Indices 1 2 3 4 5 6 
#
# 1 0.013008 -0.003154 -0.003612 0.000000 -0.000116 0.000000
# 2 -0.003154 0.014600 -0.006551 0.000000 -0.002114 0.000000
# 3 -0.003612 -0.006551 0.015030 0.000000 0.010387 0.000000
# 4 0.000000 0.000000 0.000000 0.272728 0.000000 0.336095
# 5 -0.000116 -0.002114 0.010387 0.000000 0.040523 0.000000
# 6 0.000000 0.000000 0.000000 0.336095 0.000000 0.475732
#
#
# Mechanical properties :
#
#
# Convention : Reuss Voigt Hill
#
# Bulk Modulus (GPa) = 62.48689 71.54412 67.01551
# Shear Modulus (GPa) = 5.78978 26.92455 16.35717
#
# Velocity S-wave (km/s) = 1.82175 3.92855 3.06205
# Velocity P-wave (km/s) = 6.34376 7.84780 7.13552
#
# Compressibility (1/GPa) = 0.01600336
#
# Stress axis : x y z
#
# Youngs Moduli (GPa) = 76.87750 68.49229 66.53438
#
# Poissons Ratio (x) = 0.21603 0.24031
# Poissons Ratio (y) = 0.24248 0.43588
# Poissons Ratio (z) = 0.27767 0.44871
#
# Static dielectric constant tensor:
#      x y z
#    x 1.583500 0.000000 -0.006870 
#    y 0.000000 1.589510 0.000000 
#    z -0.006870 0.000000 1.573730 
# 
# From -- ./inp_files/88153.got.cif
#   From: 2010.05.17/outbox.cif.g08.bks.cpg/sg10_45_cif.got.tgz:88153.got - 2010.06.03 11:33:40.
