data_PCOD9146302
_publ_section_title
;
Structure prediction by ZEFSAII (Michael W. Deem and Ramdas Pophale) SiO2 
 PCOD9146302
Probable space group: P 2/M
;
_chemical_formula_sum "Si O2"
_cell_formula_units_Z 30
_cell_length_a 17.568698
_cell_length_b 10.049712
_cell_length_c 28.530450
_cell_angle_alpha 90.000000
_cell_angle_beta 19.647154
_cell_angle_gamma 90.000000
_cell_volume 1693.690665
_symmetry_space_group_name_H-M "P 2/M"
_symmetry_group_IT_number 10
_symmetry_cell_setting 'monoclinic'
loop_
_space_group_symop_operation_xyz
x,y,z
-x,y,-z
-x,-y,-z
x,-y,z
loop_
_atom_site_type_symbol
_atom_site_label
_atom_site_fract_x
_atom_site_fract_y
_atom_site_fract_z
Si Si1 0.519860 0.841311 0.091705
Si Si2 0.994206 0.645462 0.688653
Si Si3 0.010615 0.839810 0.394390
Si Si4 0.209751 0.162059 0.977974
Si Si5 0.311426 0.160345 0.737674
Si Si6 0.558244 0.344990 0.519426
Si Si7 0.541456 0.160654 0.704145
Si Si8 0.500000 0.721350 0.000000
O O1 0.711753 0.790918 0.016036
O O2 0.531981 0.798659 0.030619
O O3 0.269775 0.806539 0.256966
O O4 0.533234 0.000000 0.084017
O O5 0.040308 0.500000 0.640065
O O6 0.028895 0.762766 0.631315
O O7 0.173762 0.663200 0.625938
O O8 0.736673 0.647434 0.855206
O O9 0.805574 0.800548 0.547577
O O10 0.998857 0.000000 0.394476
O O11 0.392557 0.210206 0.833792
O O12 0.218181 0.000000 0.973339
O O13 0.954617 0.194542 0.111224
O O14 0.438084 0.245230 0.624845
O O15 0.418514 0.192468 0.726262
O O16 0.336304 0.000000 0.716227
O O17 0.500000 0.311354 0.500000
O O18 0.491358 0.500000 0.566477
O O19 0.540862 0.000000 0.708045
#
# Coordination Sequence:
#
# PCOD9146302 Si02
#       8
#     4   4   4   4   4   4   4   2
#     4   9  18  31  46  73 108 137 165 206 258 301
#     4  10  20  35  53  75  99 131 169 206 249 303
#     4   9  17  31  52  76 101 130 166 208 250 296
#     4   9  18  30  48  76 107 135 167 208 256 301
#     4  10  19  33  54  78 103 133 172 212 250 296
#     4  10  22  37  53  74 104 137 168 206 255 303
#     4   9  16  29  50  76 102 132 168 210 253 299
#     4  10  20  32  52  74  97 134 173 210 243 302
#
# _framework density 17.712797999999999
#
# number of rings (size 3 to 8) (size 9 to 14) (size 15 to 20)
#    0.000    2.533    1.333    0.800    1.867    2.933 
#    0.000    2.667    0.000    2.400    0.000    3.733 
#    0.000    0.000    0.000    0.000    0.000    0.000 
#
# Total GULP energy -167013.204512 kJ/mol
# GULP energy per Si atom -5567.106817 kJ/mol
# Density = 1.767248 g / cm^3
# Si number density = 17.712798 Si / 1000 Ang^3
#
#
#
# Elastic Constant Matrix: (Units=GPa)
#
#
# Indices 1 2 3 4 5 6 
#
# 1 43.9603 8.6677 12.2614 0.0000 8.9798 0.0000
# 2 8.6677 12.1756 10.7319 0.0000 0.6047 0.0000
# 3 12.2614 10.7319 80.4233 0.0000 6.8317 0.0000
# 4 0.0000 0.0000 0.0000 8.7730 0.0000 -7.4744
# 5 8.9798 0.6047 6.8317 0.0000 21.8645 0.0000
# 6 0.0000 0.0000 0.0000 -7.4744 0.0000 9.2151
#
#
#
# Elastic Compliance Matrix: (Units=1/GPa)
#
#
# Indices 1 2 3 4 5 6 
#
# 1 0.029091 -0.019357 -0.000907 0.000000 -0.011129 0.000000
# 2 -0.019357 0.105999 -0.011937 0.000000 0.008748 0.000000
# 3 -0.000907 -0.011937 0.014490 0.000000 -0.003825 0.000000
# 4 0.000000 0.000000 0.000000 0.368946 0.000000 0.299254
# 5 -0.011129 0.008748 -0.003825 0.000000 0.051260 0.000000
# 6 0.000000 0.000000 0.000000 0.299254 0.000000 0.351244
#
#
# Mechanical properties :
#
#
# Convention : Reuss Voigt Hill
#
# Bulk Modulus (GPa) = 11.74012 22.20902 16.97457
# Shear Modulus (GPa) = 4.93183 14.96374 9.94778
#
# Velocity S-wave (km/s) = 1.67044 2.90969 2.37241
# Velocity P-wave (km/s) = 3.21915 4.88406 4.13624
#
# Compressibility (1/GPa) = 0.08517799
#
# Stress axis : x y z
#
# Youngs Moduli (GPa) = 34.37518 9.43408 69.01209
#
# Poissons Ratio (x) = 0.18262 0.06257
# Poissons Ratio (y) = 0.66542 0.82377
# Poissons Ratio (z) = 0.03117 0.11261
#
# Static dielectric constant tensor:
#      x y z
#    x 1.600290 0.000000 -0.016170 
#    y 0.000000 1.589080 0.000000 
#    z -0.016170 0.000000 1.627300 
# 
# From -- ./inp_files/95508.got.cif
#   From: 2010.05.17/outbox.cif.g08.bks.cpg/sg10_48_cif.got.tgz:95508.got - 2010.06.03 11:33:40.
