data_PCOD9146880
_publ_section_title
;
Structure prediction by ZEFSAII (Michael W. Deem and Ramdas Pophale) SiO2 
 PCOD9146880
Probable space group: P 2/M
;
_chemical_formula_sum "Si O2"
_cell_formula_units_Z 26
_cell_length_a 10.817559
_cell_length_b 7.541909
_cell_length_c 28.080073
_cell_angle_alpha 90.000000
_cell_angle_beta 25.348171
_cell_angle_gamma 90.000000
_cell_volume 980.781107
_symmetry_space_group_name_H-M "P 2/M"
_symmetry_group_IT_number 10
_symmetry_cell_setting 'monoclinic'
loop_
_space_group_symop_operation_xyz
x,y,z
-x,y,-z
-x,-y,-z
x,-y,z
loop_
_atom_site_type_symbol
_atom_site_label
_atom_site_fract_x
_atom_site_fract_y
_atom_site_fract_z
Si Si1 0.700883 0.787213 0.128032
Si Si2 0.230104 0.801339 0.485747
Si Si3 0.798629 0.699451 0.338606
Si Si4 0.087294 0.500000 0.603174
Si Si5 0.213634 0.202977 0.077736
Si Si6 0.400876 0.783460 0.729581
Si Si7 0.575699 0.710220 0.869772
O O1 0.623546 0.722022 0.207534
O O2 0.456668 0.738347 0.174917
O O3 0.721030 0.000000 0.123237
O O4 0.000000 0.719457 0.000000
O O5 0.534496 0.806928 0.409678
O O6 0.050125 0.655950 0.576018
O O7 0.332009 0.743718 0.397400
O O8 0.103618 0.000000 0.528562
O O9 0.752102 0.500000 0.334538
O O10 0.825918 0.652162 0.385352
O O11 0.117254 0.774191 0.217028
O O12 0.305538 0.203384 0.990045
O O13 0.203346 0.000000 0.097367
O O14 0.500000 0.290931 0.000000
O O15 0.897517 0.280808 0.191147
O O16 0.385154 0.000000 0.735696
O O17 0.572353 0.500000 0.878324
#
# Coordination Sequence:
#
# PCOD9146880 Si02
#       7
#     4   4   4   2   4   4   4
#     4  10  19  37  59  76 108 155 199 239 280 324
#     4  11  20  35  62  90 117 154 193 232 294 358
#     4   9  20  38  54  79 122 150 180 245 288 336
#     4  10  21  42  60  85 124 149 184 250 297 344
#     4  10  19  34  54  79 114 153 188 225 276 341
#     4   9  19  34  53  83 115 145 193 242 277 337
#     4  11  22  35  54  80 116 150 191 236 282 341
#
# _framework density 26.509482999999999
#
# number of rings (size 3 to 8) (size 9 to 14) (size 15 to 20)
#    0.462    1.538    2.308    2.308    0.000    4.308 
#    2.769    0.000    0.000    1.846    0.000    3.231 
#    0.000    0.000    0.000    0.000    0.000    0.000 
#
# Total GULP energy -144880.883012 kJ/mol
# GULP energy per Si atom -5572.341654 kJ/mol
# Density = 2.644915 g / cm^3
# Si number density = 26.509483 Si / 1000 Ang^3
#
#
#
# Elastic Constant Matrix: (Units=GPa)
#
#
# Indices 1 2 3 4 5 6 
#
# 1 116.0210 15.1472 39.4370 0.0000 12.9753 0.0000
# 2 15.1472 102.2101 36.7720 0.0000 16.6500 0.0000
# 3 39.4370 36.7720 106.3078 0.0000 14.2482 0.0000
# 4 0.0000 0.0000 0.0000 -0.8351 0.0000 28.9799
# 5 12.9753 16.6500 14.2482 0.0000 61.6096 0.0000
# 6 0.0000 0.0000 0.0000 28.9799 0.0000 35.1877
#
#
#
# Elastic Compliance Matrix: (Units=1/GPa)
#
#
# Indices 1 2 3 4 5 6 
#
# 1 0.009960 0.000000 -0.003523 0.000000 -0.001283 0.000000
# 2 0.000000 0.011469 -0.003666 0.000000 -0.002252 0.000000
# 3 -0.003523 -0.003666 0.012125 0.000000 -0.001072 0.000000
# 4 0.000000 0.000000 0.000000 -0.040482 0.000000 0.033340
# 5 -0.001283 -0.002252 -0.001072 0.000000 0.017358 0.000000
# 6 0.000000 0.000000 0.000000 0.033340 0.000000 0.000961
#
#
# Mechanical properties :
#
#
# Convention : Reuss Voigt Hill
#
# Bulk Modulus (GPa) = 52.14285 56.36127 54.25206
# Shear Modulus (GPa) = 155.47029 34.73796 95.10413
#
# Velocity S-wave (km/s) = 7.66644 3.62387 5.99611
# Velocity P-wave (km/s) = 9.90344 6.23032 8.27330
#
# Compressibility (1/GPa) = 0.01917808
#
# Stress axis : x y z
#
# Youngs Moduli (GPa) = 100.40063 87.18918 82.47313
#
# Poissons Ratio (x) = -0.00004 0.29056
# Poissons Ratio (y) = -0.00004 0.30231
# Poissons Ratio (z) = 0.35372 0.31960
#
# Static dielectric constant tensor:
#      x y z
#    x 2.155050 0.000000 0.033270 
#    y 0.000000 1.980760 0.000000 
#    z 0.033270 0.000000 2.218210 
# 
# From -- ./inp_files/92622.got.cif
#   From: 2010.05.17/outbox.cif.g08.bks.cpg/sg10_47_cif.got.tgz:92622.got - 2010.06.03 11:33:40.
