data_PCOD9146723
_publ_section_title
;
Structure prediction by ZEFSAII (Michael W. Deem and Ramdas Pophale) SiO2 
 PCOD9146723
Probable space group: P 2/M
;
_chemical_formula_sum "Si O2"
_cell_formula_units_Z 28
_cell_length_a 12.223673
_cell_length_b 12.353326
_cell_length_c 20.243605
_cell_angle_alpha 90.000000
_cell_angle_beta 150.728543
_cell_angle_gamma 90.000000
_cell_volume 1494.638320
_symmetry_space_group_name_H-M "P 2/M"
_symmetry_group_IT_number 10
_symmetry_cell_setting 'monoclinic'
loop_
_space_group_symop_operation_xyz
x,y,z
-x,y,-z
-x,-y,-z
x,-y,z
loop_
_atom_site_type_symbol
_atom_site_label
_atom_site_fract_x
_atom_site_fract_y
_atom_site_fract_z
Si Si1 0.235911 0.123505 0.371365
Si Si2 0.048468 0.276012 0.385072
Si Si3 0.520193 0.771693 0.299518
Si Si4 0.097142 0.125190 0.148492
Si Si5 0.178038 0.500000 0.773851
Si Si6 0.824808 0.332737 0.962529
Si Si7 0.698089 0.500000 0.006529
Si Si8 0.795155 0.882618 0.340176
O O1 0.500000 0.145958 0.500000
O O2 0.124957 0.208667 0.361555
O O3 0.116595 0.127099 0.237789
O O4 0.220936 0.000000 0.390302
O O5 0.265511 0.269477 0.547212
O O6 0.958805 0.393945 0.320292
O O7 0.851922 0.210006 0.318289
O O8 0.335344 0.829588 0.247505
O O9 0.404133 0.675226 0.198616
O O10 0.591532 0.855269 0.280341
O O11 0.061135 0.000000 0.109442
O O12 0.915175 0.211991 0.027817
O O13 0.427876 0.500000 0.873304
O O14 0.207861 0.500000 0.869291
O O15 0.786073 0.399422 0.008706
O O16 0.000000 0.375922 0.000000
O O17 0.000000 0.885956 0.500000
O O18 0.774402 0.000000 0.297147
#
# Coordination Sequence:
#
# PCOD9146723 Si02
#       8
#     4   4   4   4   2   4   2   4
#     4  10  19  33  58  84 115 156 188 232 289 344
#     4  11  21  38  56  86 119 148 197 242 288 347
#     4  10  20  34  56  86 122 150 184 238 293 347
#     4  10  20  35  57  89 122 155 194 232 284 349
#     4  11  26  41  65  84 108 155 198 249 292 334
#     4  10  22  38  61  85 112 154 194 237 290 346
#     4  11  23  47  64  79 109 152 205 244 290 344
#     4   9  18  31  52  81 114 152 185 225 282 345
#
# _framework density 18.733629000000001
#
# number of rings (size 3 to 8) (size 9 to 14) (size 15 to 20)
#    0.000    1.857    1.429    2.786    0.000    4.857 
#    0.000    5.000    0.000    0.000    0.000    9.000 
#    0.000    0.000    0.000    0.000    0.000    0.000 
#
# Total GULP energy -156177.401208 kJ/mol
# GULP energy per Si atom -5577.764329 kJ/mol
# Density = 1.869099 g / cm^3
# Si number density = 18.733629 Si / 1000 Ang^3
#
#
#
# Elastic Constant Matrix: (Units=GPa)
#
#
# Indices 1 2 3 4 5 6 
#
# 1 109.9677 73.4721 43.2133 0.0000 -4.1916 0.0000
# 2 73.4721 157.6819 53.4379 0.0000 -4.5653 0.0000
# 3 43.2133 53.4379 80.3728 0.0000 -4.8762 0.0000
# 4 0.0000 0.0000 0.0000 38.1706 0.0000 -26.6334
# 5 -4.1916 -4.5653 -4.8762 0.0000 24.6687 0.0000
# 6 0.0000 0.0000 0.0000 -26.6334 0.0000 42.3794
#
#
#
# Elastic Compliance Matrix: (Units=1/GPa)
#
#
# Indices 1 2 3 4 5 6 
#
# 1 0.014225 -0.005203 -0.004150 0.000000 0.000634 0.000000
# 2 -0.005203 0.010095 -0.003901 0.000000 0.000213 0.000000
# 3 -0.004150 -0.003901 0.017389 0.000000 0.002010 0.000000
# 4 0.000000 0.000000 0.000000 0.046657 0.000000 0.029322
# 5 0.000634 0.000213 0.002010 0.000000 0.041082 0.000000
# 6 0.000000 0.000000 0.000000 0.029322 0.000000 0.042024
#
#
# Mechanical properties :
#
#
# Convention : Reuss Voigt Hill
#
# Bulk Modulus (GPa) = 65.79182 76.47434 71.13308
# Shear Modulus (GPa) = 24.62478 32.90368 28.76423
#
# Velocity S-wave (km/s) = 3.62949 4.19549 3.92271
# Velocity P-wave (km/s) = 7.26362 8.02372 7.65311
#
# Compressibility (1/GPa) = 0.01519946
#
# Stress axis : x y z
#
# Youngs Moduli (GPa) = 70.29806 99.06245 57.50708
#
# Poissons Ratio (x) = 0.51546 0.23867
# Poissons Ratio (y) = 0.36579 0.22434
# Poissons Ratio (z) = 0.29176 0.38645
#
# Static dielectric constant tensor:
#      x y z
#    x 1.659670 0.000000 0.020190 
#    y 0.000000 1.654880 0.000000 
#    z 0.020190 0.000000 1.665220 
# 
# From -- ./inp_files/84012.got.cif
#   From: 2010.05.17/outbox.cif.g08.bks.cpg/sg10_43_cif.got.tgz:84012.got - 2010.06.03 11:33:40.
