data_PCOD9146543
_publ_section_title
;
Structure prediction by ZEFSAII (Michael W. Deem and Ramdas Pophale) SiO2 
 PCOD9146543
Probable space group: P 2/M
;
_chemical_formula_sum "Si O2"
_cell_formula_units_Z 28
_cell_length_a 20.012051
_cell_length_b 10.977258
_cell_length_c 17.912485
_cell_angle_alpha 90.000000
_cell_angle_beta 21.718905
_cell_angle_gamma 90.000000
_cell_volume 1456.148288
_symmetry_space_group_name_H-M "P 2/M"
_symmetry_group_IT_number 10
_symmetry_cell_setting 'monoclinic'
loop_
_space_group_symop_operation_xyz
x,y,z
-x,y,-z
-x,-y,-z
x,-y,z
loop_
_atom_site_type_symbol
_atom_site_label
_atom_site_fract_x
_atom_site_fract_y
_atom_site_fract_z
Si Si1 0.111976 0.353751 0.579844
Si Si2 0.557847 0.352496 0.858735
Si Si3 0.475658 0.264811 0.650470
Si Si4 0.149539 0.359909 0.902390
Si Si5 0.690565 0.646237 0.021316
Si Si6 0.000119 0.000000 0.090020
Si Si7 0.429052 0.000000 0.658729
Si Si8 0.855637 0.739229 0.296433
O O1 0.130450 0.500000 0.575543
O O2 0.237233 0.326100 0.378840
O O3 0.185743 0.277931 0.573758
O O4 0.900994 0.324831 0.790469
O O5 0.541963 0.500000 0.877490
O O6 0.500000 0.306292 0.000000
O O7 0.427689 0.311396 0.926470
O O8 0.338214 0.297316 0.726145
O O9 0.497763 0.120579 0.626339
O O10 0.681081 0.311410 0.432939
O O11 0.385950 0.305246 0.820910
O O12 0.181553 0.500000 0.850437
O O13 0.000000 0.306369 0.000000
O O14 0.029425 0.345655 0.101560
O O15 0.674774 0.500000 0.042022
O O16 0.911365 0.876054 0.214260
O O17 0.000000 0.000000 0.000000
O O18 0.212561 0.000000 0.888185
O O19 0.500000 0.000000 0.500000
#
# Coordination Sequence:
#
# PCOD9146543 Si02
#       8
#     4   4   4   4   4   2   2   4
#     4  10  19  33  55  84 117 156 196 239 293 351
#     4   9  18  32  52  83 121 156 193 240 295 354
#     4  12  24  39  61  86 114 153 203 246 297 353
#     4  11  25  41  58  83 117 155 195 244 301 357
#     4  10  19  34  57  83 117 157 195 239 293 352
#     4  12  24  44  62  85 118 153 194 257 310 350
#     4  12  26  42  64  87 113 154 201 251 311 355
#     4  12  23  38  62  85 116 154 200 248 297 353
#
# _framework density 19.228811
#
# number of rings (size 3 to 8) (size 9 to 14) (size 15 to 20)
#    0.000    1.143    4.286    2.571    2.000    2.286 
#    0.000    4.286    0.000    0.000    0.000    2.000 
#    0.000    3.429    0.000    0.000    0.000    0.000 
#
# Total GULP energy -156303.405359 kJ/mol
# GULP energy per Si atom -5582.264477 kJ/mol
# Density = 1.918505 g / cm^3
# Si number density = 19.228811 Si / 1000 Ang^3
#
#
#
# Elastic Constant Matrix: (Units=GPa)
#
#
# Indices 1 2 3 4 5 6 
#
# 1 80.3958 12.6499 51.3354 0.0000 0.6437 0.0000
# 2 12.6499 55.8397 22.8492 0.0000 -0.6584 0.0000
# 3 51.3354 22.8492 143.4063 0.0000 -9.6743 0.0000
# 4 0.0000 0.0000 0.0000 16.5653 0.0000 -1.0087
# 5 0.6437 -0.6584 -9.6743 0.0000 42.3935 0.0000
# 6 0.0000 0.0000 0.0000 -1.0087 0.0000 9.9668
#
#
#
# Elastic Compliance Matrix: (Units=1/GPa)
#
#
# Indices 1 2 3 4 5 6 
#
# 1 0.016327 -0.001372 -0.005733 0.000000 -0.001577 0.000000
# 2 -0.001372 0.019279 -0.002599 0.000000 -0.000273 0.000000
# 3 -0.005733 -0.002599 0.009590 0.000000 0.002235 0.000000
# 4 0.000000 0.000000 0.000000 0.060741 0.000000 0.006147
# 5 -0.001577 -0.000273 0.002235 0.000000 0.024118 0.000000
# 6 0.000000 0.000000 0.000000 0.006147 0.000000 0.100956
#
#
# Mechanical properties :
#
#
# Convention : Reuss Voigt Hill
#
# Bulk Modulus (GPa) = 38.77453 50.36786 44.57119
# Shear Modulus (GPa) = 19.30383 26.63894 22.97138
#
# Velocity S-wave (km/s) = 3.17188 3.72609 3.46010
# Velocity P-wave (km/s) = 5.79853 6.69048 6.26041
#
# Compressibility (1/GPa) = 0.02579013
#
# Stress axis : x y z
#
# Youngs Moduli (GPa) = 61.24689 51.86858 104.27276
#
# Poissons Ratio (x) = 0.07115 0.59775
# Poissons Ratio (y) = 0.08401 0.27103
# Poissons Ratio (z) = 0.35110 0.13482
#
# Static dielectric constant tensor:
#      x y z
#    x 1.728270 0.000000 -0.011510 
#    y 0.000000 1.648350 0.000000 
#    z -0.011510 0.000000 1.709530 
# 
# From -- ./inp_files/79536.got.cif
#   From: 2010.05.17/outbox.cif.g08.bks.cpg/sg10_40_cif.got.tgz:79536.got - 2010.06.03 11:33:40.
