data_PCOD9146854
_publ_section_title
;
Structure prediction by ZEFSAII (Michael W. Deem and Ramdas Pophale) SiO2 
 PCOD9146854
Probable space group: P 2/M
;
_chemical_formula_sum "Si O2"
_cell_formula_units_Z 28
_cell_length_a 8.955929
_cell_length_b 10.950897
_cell_length_c 27.939396
_cell_angle_alpha 90.000000
_cell_angle_beta 145.600738
_cell_angle_gamma 90.000000
_cell_volume 1548.075948
_symmetry_space_group_name_H-M "P 2/M"
_symmetry_group_IT_number 10
_symmetry_cell_setting 'monoclinic'
loop_
_space_group_symop_operation_xyz
x,y,z
-x,y,-z
-x,-y,-z
x,-y,z
loop_
_atom_site_type_symbol
_atom_site_label
_atom_site_fract_x
_atom_site_fract_y
_atom_site_fract_z
Si Si1 0.694060 0.640808 0.670743
Si Si2 0.777435 0.500000 0.868425
Si Si3 0.287175 0.281784 0.831924
Si Si4 0.360915 0.500000 0.055536
Si Si5 0.333220 0.724908 0.227346
Si Si6 0.785377 0.142225 0.096014
Si Si7 0.673440 0.860197 0.593628
Si Si8 0.301351 0.141113 0.743245
O O1 0.610242 0.500000 0.638700
O O2 0.631001 0.677378 0.708976
O O3 0.601945 0.750383 0.611174
O O4 0.012971 0.648050 0.750377
O O5 0.693700 0.500000 0.901643
O O6 0.673830 0.613903 0.811341
O O7 0.095359 0.500000 0.955002
O O8 0.474471 0.377012 0.908293
O O9 0.224657 0.169082 0.850098
O O10 0.399141 0.225921 0.812837
O O11 0.563052 0.814111 0.269623
O O12 0.044680 0.787433 0.147076
O O13 0.818011 0.000000 0.094140
O O14 0.500000 0.180300 0.000000
O O15 0.500000 0.850490 0.500000
O O16 0.982864 0.847998 0.661060
O O17 0.640725 0.000000 0.604410
O O18 0.369205 0.000000 0.769559
#
# Coordination Sequence:
#
# PCOD9146854 Si02
#       8
#     4   2   4   2   4   4   4   4
#     4  10  20  34  58  85 114 147 184 226 275 328
#     4  11  22  33  51  77 110 146 184 240 278 323
#     4  10  19  34  54  76 103 141 186 231 273 332
#     4  11  20  33  53  77 104 145 194 234 284 316
#     4  11  21  36  54  79 111 147 186 229 276 327
#     4  10  21  35  50  72 106 144 184 234 284 327
#     4   9  20  40  64  89 115 143 179 224 276 340
#     4  10  20  35  58  83 106 139 182 225 275 333
#
# _framework density 18.086969
#
# number of rings (size 3 to 8) (size 9 to 14) (size 15 to 20)
#    0.000    1.857    2.857    1.714    0.000    4.286 
#    0.000    2.857    0.000    6.857    0.000    0.000 
#    0.000    0.000    0.000    0.000    0.000    0.000 
#
# Total GULP energy -156056.513966 kJ/mol
# GULP energy per Si atom -5573.446927 kJ/mol
# Density = 1.804580 g / cm^3
# Si number density = 18.086969 Si / 1000 Ang^3
#
#
#
# Elastic Constant Matrix: (Units=GPa)
#
#
# Indices 1 2 3 4 5 6 
#
# 1 72.3255 43.5002 -0.9290 0.0000 -12.4839 0.0000
# 2 43.5002 121.4891 32.2251 0.0000 -13.1198 0.0000
# 3 -0.9290 32.2251 37.8320 0.0000 -10.3857 0.0000
# 4 0.0000 0.0000 0.0000 25.9741 0.0000 -3.6659
# 5 -12.4839 -13.1198 -10.3857 0.0000 15.6419 0.0000
# 6 0.0000 0.0000 0.0000 -3.6659 0.0000 16.0166
#
#
#
# Elastic Compliance Matrix: (Units=1/GPa)
#
#
# Indices 1 2 3 4 5 6 
#
# 1 0.023636 -0.010218 0.014809 0.000000 0.020126 0.000000
# 2 -0.010218 0.015215 -0.014609 0.000000 -0.005093 0.000000
# 3 0.014809 -0.014609 0.047841 0.000000 0.031330 0.000000
# 4 0.000000 0.000000 0.000000 0.039785 0.000000 0.009106
# 5 0.020126 -0.005093 0.031330 0.000000 0.096524 0.000000
# 6 0.000000 0.000000 0.000000 0.009106 0.000000 0.064520
#
#
# Mechanical properties :
#
#
# Convention : Reuss Voigt Hill
#
# Bulk Modulus (GPa) = 15.00235 42.35993 28.68114
# Shear Modulus (GPa) = 15.16189 21.98321 18.57255
#
# Velocity S-wave (km/s) = 2.89844 3.49007 3.20792
# Velocity P-wave (km/s) = 4.41745 6.30172 5.44176
#
# Compressibility (1/GPa) = 0.06665624
#
# Stress axis : x y z
#
# Youngs Moduli (GPa) = 42.30833 65.72582 20.90266
#
# Poissons Ratio (x) = 0.67156 -0.30954
# Poissons Ratio (y) = 0.43229 0.30536
# Poissons Ratio (z) = -0.62654 0.96018
#
# Static dielectric constant tensor:
#      x y z
#    x 1.618800 0.000000 0.002520 
#    y 0.000000 1.631670 0.000000 
#    z 0.002520 0.000000 1.603160 
# 
# From -- ./inp_files/92131.got.cif
#   From: 2010.05.17/outbox.cif.g08.bks.cpg/sg10_47_cif.got.tgz:92131.got - 2010.06.03 11:33:40.
