data_PCOD9146990
_publ_section_title
;
Structure prediction by ZEFSAII (Michael W. Deem and Ramdas Pophale) SiO2 
 PCOD9146990
Probable space group: P 2/M
;
_chemical_formula_sum "Si O2"
_cell_formula_units_Z 32
_cell_length_a 10.200598
_cell_length_b 7.288810
_cell_length_c 20.829198
_cell_angle_alpha 90.000000
_cell_angle_beta 123.865350
_cell_angle_gamma 90.000000
_cell_volume 1285.925191
_symmetry_space_group_name_H-M "P 2/M"
_symmetry_group_IT_number 10
_symmetry_cell_setting 'monoclinic'
loop_
_space_group_symop_operation_xyz
x,y,z
-x,y,-z
-x,-y,-z
x,-y,z
loop_
_atom_site_type_symbol
_atom_site_label
_atom_site_fract_x
_atom_site_fract_y
_atom_site_fract_z
Si Si1 0.434585 0.776818 0.913678
Si Si2 0.755343 0.222287 0.947574
Si Si3 0.813209 0.224294 0.249314
Si Si4 0.975776 0.777338 0.888660
Si Si5 0.421294 0.793909 0.704718
Si Si6 0.175504 0.288875 0.533184
Si Si7 0.164936 0.221518 0.383098
Si Si8 0.730904 0.775556 0.722122
O O1 0.574400 0.723287 0.902779
O O2 0.265995 0.719900 0.839634
O O3 0.428390 0.000000 0.915247
O O4 0.500000 0.714828 0.000000
O O5 0.851634 0.275584 0.910842
O O6 0.757224 0.000000 0.948314
O O7 0.855326 0.281679 0.037605
O O8 0.690113 0.284497 0.270556
O O9 0.987775 0.282845 0.316103
O O10 0.819177 0.000000 0.251129
O O11 0.895802 0.720780 0.800510
O O12 0.983287 0.000000 0.888333
O O13 0.310026 0.803603 0.611767
O O14 0.584931 0.710585 0.725293
O O15 0.461698 0.000000 0.738737
O O16 0.174509 0.500000 0.554173
O O17 0.205840 0.281396 0.465695
O O18 0.000000 0.213679 0.500000
O O19 0.273752 0.280170 0.353293
O O20 0.165318 0.000000 0.384723
O O21 0.725699 0.000000 0.721281
#
# Coordination Sequence:
#
# PCOD9146990 Si02
#       8
#     4   4   4   4   4   4   4   4
#     4   9  16  22  32  56  93 133 168 203 243 287
#     4   8  13  20  31  50  81 127 171 201 236 288
#     4   9  17  28  45  68  97 137 178 208 245 298
#     4   8  13  22  36  54  84 128 170 200 236 289
#     4  10  19  34  56  78 102 135 171 209 252 301
#     4  11  23  39  58  79 102 129 166 209 256 309
#     4  10  20  34  53  78 105 135 170 209 253 303
#     4   9  18  29  46  72 102 134 169 209 248 295
#
# _framework density 24.884808
#
# number of rings (size 3 to 8) (size 9 to 14) (size 15 to 20)
#    0.000    2.750    1.250    1.875    1.750    4.000 
#    0.000    3.125    0.000    0.000    0.000    0.000 
#    0.000    2.000    0.000    6.625    0.000    6.750 
#
# Total GULP energy -178842.196459 kJ/mol
# GULP energy per Si atom -5588.818639 kJ/mol
# Density = 2.482817 g / cm^3
# Si number density = 24.884808 Si / 1000 Ang^3
#
#
#
# Elastic Constant Matrix: (Units=GPa)
#
#
# Indices 1 2 3 4 5 6 
#
# 1 50.1436 -2.4377 -8.1244 0.0000 1.5604 0.0000
# 2 -2.4377 104.0307 -6.8590 0.0000 2.2506 0.0000
# 3 -8.1244 -6.8590 112.6972 0.0000 -3.0233 0.0000
# 4 0.0000 0.0000 0.0000 -253.6989 0.0000 123.2790
# 5 1.5604 2.2506 -3.0233 0.0000 40.9054 0.0000
# 6 0.0000 0.0000 0.0000 123.2790 0.0000 -123.9612
#
#
#
# Elastic Compliance Matrix: (Units=1/GPa)
#
#
# Indices 1 2 3 4 5 6 
#
# 1 0.020232 0.000586 0.001476 0.000000 -0.000695 0.000000
# 2 0.000586 0.009678 0.000618 0.000000 -0.000509 0.000000
# 3 0.001476 0.000618 0.009033 0.000000 0.000577 0.000000
# 4 0.000000 0.000000 0.000000 -0.007628 0.000000 -0.007586
# 5 -0.000695 -0.000509 0.000577 0.000000 0.024544 0.000000
# 6 0.000000 0.000000 0.000000 -0.007586 0.000000 -0.015611
#
#
# Mechanical properties :
#
#
# Convention : Reuss Voigt Hill
#
# Bulk Modulus (GPa) = 22.57235 25.78105 24.17670
# Shear Modulus (GPa) = 100.69348 -48.39811 26.14769
#
# Velocity S-wave (km/s) = 6.36802 -4.41487 3.24504
# Velocity P-wave (km/s) = 7.94728 3.95037 4.87616
#
# Compressibility (1/GPa) = 0.04430198
#
# Stress axis : x y z
#
# Youngs Moduli (GPa) = 49.42685 103.32688 110.70781
#
# Poissons Ratio (x) = -0.06059 -0.16336
# Poissons Ratio (y) = -0.02898 -0.06838
# Poissons Ratio (z) = -0.07293 -0.06382
#
# Static dielectric constant tensor:
#      x y z
#    x 1.956680 0.000000 -0.013480 
#    y 0.000000 2.046350 0.000000 
#    z -0.013480 0.000000 1.927030 
# 
# From -- ./inp_files/83638.got.cif
#   From: 2010.05.17/outbox.cif.g08.bks.cpg/sg10_42_cif.got.tgz:83638.got - 2010.06.03 11:33:40.
