data_PCOD9146024
_publ_section_title
;
Structure prediction by ZEFSAII (Michael W. Deem and Ramdas Pophale) SiO2 
 PCOD9146024
Probable space group: P 2/M
;
_chemical_formula_sum "Si O2"
_cell_formula_units_Z 20
_cell_length_a 17.188844
_cell_length_b 9.694149
_cell_length_c 15.981450
_cell_angle_alpha 90.000000
_cell_angle_beta 157.365719
_cell_angle_gamma 90.000000
_cell_volume 1024.852471
_symmetry_space_group_name_H-M "P 2/M"
_symmetry_group_IT_number 10
_symmetry_cell_setting 'monoclinic'
loop_
_space_group_symop_operation_xyz
x,y,z
-x,y,-z
-x,-y,-z
x,-y,z
loop_
_atom_site_type_symbol
_atom_site_label
_atom_site_fract_x
_atom_site_fract_y
_atom_site_fract_z
Si Si1 0.996771 0.837157 0.398209
Si Si2 0.266105 0.842977 0.261203
Si Si3 0.341009 0.155537 0.064316
Si Si4 0.271904 0.657864 0.549467
Si Si5 0.008678 0.763817 0.866801
O O1 0.000000 0.810465 0.500000
O O2 0.154869 0.742564 0.505439
O O3 0.043477 0.000000 0.430741
O O4 0.774533 0.814250 0.137504
O O5 0.500000 0.815019 0.500000
O O6 0.161554 0.841918 0.247946
O O7 0.240019 0.000000 0.201470
O O8 0.162497 0.733511 0.095981
O O9 0.518430 0.262555 0.259621
O O10 0.423689 0.000000 0.145419
O O11 0.158231 0.162808 0.949819
O O12 0.309201 0.500000 0.609937
O O13 0.122125 0.662418 0.320424
#
# Coordination Sequence:
#
# PCOD9146024 Si02
#       5
#     4   4   4   4   4
#     4   9  20  40  64  89 116 147 188 239 290 340
#     4  10  19  32  55  87 117 145 186 243 299 344
#     4  10  20  35  59  86 113 149 192 238 286 340
#     4  11  24  39  57  83 118 158 194 232 282 343
#     4  10  20  35  55  81 113 149 189 235 286 338
#
# _framework density 19.515004999999999
#
# number of rings (size 3 to 8) (size 9 to 14) (size 15 to 20)
#    0.000    2.000    0.000    4.200    0.000   10.000 
#    0.000    6.000    0.000    6.000    0.000    0.000 
#    0.000    0.000    0.000    0.000    0.000    0.000 
#
# Total GULP energy -111372.202791 kJ/mol
# GULP energy per Si atom -5568.610140 kJ/mol
# Density = 1.947059 g / cm^3
# Si number density = 19.515005 Si / 1000 Ang^3
#
#
#
# Elastic Constant Matrix: (Units=GPa)
#
#
# Indices 1 2 3 4 5 6 
#
# 1 102.4741 39.2183 57.3531 0.0000 -12.0249 0.0000
# 2 39.2183 90.5770 61.2783 0.0000 2.5644 0.0000
# 3 57.3531 61.2783 128.5243 0.0000 15.4243 0.0000
# 4 0.0000 0.0000 0.0000 10.6018 0.0000 -6.1110
# 5 -12.0249 2.5644 15.4243 0.0000 26.7499 0.0000
# 6 0.0000 0.0000 0.0000 -6.1110 0.0000 4.1044
#
#
#
# Elastic Compliance Matrix: (Units=1/GPa)
#
#
# Indices 1 2 3 4 5 6 
#
# 1 0.016287 -0.002219 -0.007643 0.000000 0.011941 0.000000
# 2 -0.002219 0.016848 -0.007229 0.000000 0.001556 0.000000
# 3 -0.007643 -0.007229 0.016080 0.000000 -0.012014 0.000000
# 4 0.000000 0.000000 0.000000 0.665278 0.000000 0.990531
# 5 0.011941 0.001556 -0.012014 0.000000 0.049530 0.000000
# 6 0.000000 0.000000 0.000000 0.990531 0.000000 1.718441
#
#
# Mechanical properties :
#
#
# Convention : Reuss Voigt Hill
#
# Bulk Modulus (GPa) = 66.52510 70.80833 68.66671
# Shear Modulus (GPa) = 1.98282 19.20625 10.59453
#
# Velocity S-wave (km/s) = 1.00909 3.14057 2.33253
# Velocity P-wave (km/s) = 5.95994 7.03660 6.52053
#
# Compressibility (1/GPa) = 0.01503192
#
# Stress axis : x y z
#
# Youngs Moduli (GPa) = 61.39990 59.35418 62.19009
#
# Poissons Ratio (x) = 0.13173 0.47530
# Poissons Ratio (y) = 0.13627 0.44958
# Poissons Ratio (z) = 0.46926 0.42908
#
# Static dielectric constant tensor:
#      x y z
#    x 1.705340 0.000000 -0.027570 
#    y 0.000000 1.666780 0.000000 
#    z -0.027570 0.000000 1.704000 
# 
# From -- ./inp_files/78827.got.cif
#   From: 2010.05.17/outbox.cif.g08.bks.cpg/sg10_40_cif.got.tgz:78827.got - 2010.06.03 11:33:40.
