data_PCOD9146290
_publ_section_title
;
Structure prediction by ZEFSAII (Michael W. Deem and Ramdas Pophale) SiO2 
 PCOD9146290
Probable space group: P 2/M
;
_chemical_formula_sum "Si O2"
_cell_formula_units_Z 28
_cell_length_a 24.122004
_cell_length_b 16.151415
_cell_length_c 12.752569
_cell_angle_alpha 90.000000
_cell_angle_beta 18.380614
_cell_angle_gamma 90.000000
_cell_volume 1566.693835
_symmetry_space_group_name_H-M "P 2/M"
_symmetry_group_IT_number 10
_symmetry_cell_setting 'monoclinic'
loop_
_space_group_symop_operation_xyz
x,y,z
-x,y,-z
-x,-y,-z
x,-y,z
loop_
_atom_site_type_symbol
_atom_site_label
_atom_site_fract_x
_atom_site_fract_y
_atom_site_fract_z
Si Si1 0.986416 0.342240 0.903833
Si Si2 0.171445 0.812923 0.915690
Si Si3 0.461035 0.249728 0.766018
Si Si4 0.098174 0.092456 0.712046
Si Si5 0.169372 0.289338 0.127280
Si Si6 0.689942 0.593415 0.293926
Si Si7 0.328721 0.750156 0.239030
O O1 0.180950 0.321158 0.513845
O O2 0.000000 0.367231 0.000000
O O3 0.884950 0.253996 0.072730
O O4 0.866818 0.401156 0.047472
O O5 0.381306 0.815518 0.535082
O O6 0.121302 0.770238 0.115879
O O7 0.055027 0.891582 0.098823
O O8 0.553286 0.340203 0.587057
O O9 0.312981 0.246330 0.943234
O O10 0.382074 0.240179 0.022603
O O11 0.239857 0.165025 0.441021
O O12 0.172526 0.000000 0.569427
O O13 0.000000 0.098856 0.000000
O O14 0.000000 0.309860 0.500000
O O15 0.256031 0.368988 0.915759
O O16 0.625393 0.500000 0.405107
O O17 0.500000 0.730820 0.000000
#
# Coordination Sequence:
#
# PCOD9146290 Si02
#       7
#     4   4   4   4   4   4   4
#     4   9  17  32  51  71  96 132 175 210 250 303
#     4   9  17  32  52  73 101 136 175 211 248 299
#     4  10  19  33  54  77 101 135 177 216 253 303
#     4  10  20  34  53  80 112 139 165 206 260 307
#     4  10  19  33  54  78 101 133 176 218 257 303
#     4  10  21  35  51  74 104 136 172 218 269 311
#     4  11  19  32  55  79 104 134 174 214 250 304
#
# _framework density 17.872032000000001
#
# number of rings (size 3 to 8) (size 9 to 14) (size 15 to 20)
#    0.000    2.429    0.000    8.571    0.000    2.000 
#    0.000    2.857    0.000    7.286    0.000    0.000 
#    0.000    0.000    0.000    0.000    0.000    0.000 
#
# Total GULP energy -156062.938230 kJ/mol
# GULP energy per Si atom -5573.676365 kJ/mol
# Density = 1.783135 g / cm^3
# Si number density = 17.872032 Si / 1000 Ang^3
#
#
#
# Elastic Constant Matrix: (Units=GPa)
#
#
# Indices 1 2 3 4 5 6 
#
# 1 83.0179 -1.1347 6.5452 0.0000 -1.2716 0.0000
# 2 -1.1347 39.6014 8.3831 0.0000 4.7564 0.0000
# 3 6.5452 8.3831 74.0735 0.0000 8.6333 0.0000
# 4 0.0000 0.0000 0.0000 12.9564 0.0000 -1.2791
# 5 -1.2716 4.7564 8.6333 0.0000 39.6072 0.0000
# 6 0.0000 0.0000 0.0000 -1.2791 0.0000 9.1679
#
#
#
# Elastic Compliance Matrix: (Units=1/GPa)
#
#
# Indices 1 2 3 4 5 6 
#
# 1 0.012157 0.000532 -0.001203 0.000000 0.000589 0.000000
# 2 0.000532 0.026145 -0.002711 0.000000 -0.002532 0.000000
# 3 -0.001203 -0.002711 0.014242 0.000000 -0.002817 0.000000
# 4 0.000000 0.000000 0.000000 0.078260 0.000000 0.010919
# 5 0.000589 -0.002532 -0.002817 0.000000 0.026185 0.000000
# 6 0.000000 0.000000 0.000000 0.010919 0.000000 0.110600
#
#
# Mechanical properties :
#
#
# Convention : Reuss Voigt Hill
#
# Bulk Modulus (GPa) = 21.84360 24.91999 23.38180
# Shear Modulus (GPa) = 17.26456 24.53959 20.90207
#
# Velocity S-wave (km/s) = 3.11144 3.70952 3.42357
# Velocity P-wave (km/s) = 5.01566 5.68517 5.36088
#
# Compressibility (1/GPa) = 0.04578000
#
# Stress axis : x y z
#
# Youngs Moduli (GPa) = 82.25889 38.24848 70.21700
#
# Poissons Ratio (x) = -0.02036 0.08447
# Poissons Ratio (y) = -0.04379 0.19035
# Poissons Ratio (z) = 0.09896 0.10369
#
# Static dielectric constant tensor:
#      x y z
#    x 1.625440 0.000000 -0.020940 
#    y 0.000000 1.604330 0.000000 
#    z -0.020940 0.000000 1.626890 
# 
# From -- ./inp_files/57074.got.cif
#   From: 2010.05.17/outbox.cif.g08.bks.cpg/sg10_29_cif.got.tgz:57074.got - 2010.06.03 11:33:40.
