data_PCOD9146294
_publ_section_title
;
Structure prediction by ZEFSAII (Michael W. Deem and Ramdas Pophale) SiO2 
 PCOD9146294
Probable space group: P 2/M
;
_chemical_formula_sum "Si O2"
_cell_formula_units_Z 32
_cell_length_a 33.243406
_cell_length_b 8.972645
_cell_length_c 13.121604
_cell_angle_alpha 90.000000
_cell_angle_beta 25.995216
_cell_angle_gamma 90.000000
_cell_volume 1715.459745
_symmetry_space_group_name_H-M "P 2/M"
_symmetry_group_IT_number 10
_symmetry_cell_setting 'monoclinic'
loop_
_space_group_symop_operation_xyz
x,y,z
-x,y,-z
-x,-y,-z
x,-y,z
loop_
_atom_site_type_symbol
_atom_site_label
_atom_site_fract_x
_atom_site_fract_y
_atom_site_fract_z
Si Si1 0.574918 0.826477 0.208684
Si Si2 0.033488 0.820427 0.036473
Si Si3 0.137184 0.819223 0.444896
Si Si4 0.756574 0.173982 0.449471
Si Si5 0.597410 0.324230 0.472374
Si Si6 0.570991 0.826103 0.749224
Si Si7 0.289704 0.325134 0.240152
Si Si8 0.269141 0.174837 0.972979
O O1 0.482533 0.732603 0.421545
O O2 0.652332 0.805866 0.118641
O O3 0.549999 0.000000 0.264016
O O4 0.625661 0.773122 0.991134
O O5 0.964110 0.778672 0.285405
O O6 0.027978 0.000000 0.043048
O O7 0.139466 0.785574 0.817655
O O8 0.000000 0.765554 0.000000
O O9 0.203551 0.734175 0.371759
O O10 0.149736 0.000000 0.427131
O O11 0.174840 0.782611 0.245974
O O12 0.675295 0.181173 0.553155
O O13 0.729235 0.285056 0.601135
O O14 0.759215 0.000000 0.480430
O O15 0.599042 0.500000 0.470989
O O16 0.571675 0.261135 0.641841
O O17 0.693425 0.262696 0.209285
O O18 0.547965 0.000000 0.781708
O O19 0.500000 0.775162 0.000000
O O20 0.305741 0.500000 0.186312
O O21 0.264980 0.000000 0.956942
#
# Coordination Sequence:
#
# PCOD9146294 Si02
#       8
#     4   4   4   4   4   4   4   4
#     4  10  20  35  55  77 105 141 181 222 267 317
#     4   9  15  27  53  83 110 137 176 228 274 321
#     4   9  17  32  52  76 107 144 178 215 267 322
#     4  10  19  33  54  77 104 144 187 225 271 322
#     4  12  24  36  54  78 107 139 175 223 274 322
#     4  10  22  39  58  78 103 141 187 227 262 313
#     4  11  20  29  46  76 113 145 175 215 263 321
#     4   9  19  34  54  77 104 140 180 219 264 322
#
# _framework density 18.653891999999999
#
# number of rings (size 3 to 8) (size 9 to 14) (size 15 to 20)
#    0.000    2.000    1.250    4.500    0.000    5.750 
#    0.000    1.250    0.000    0.750    0.000    5.250 
#    0.000    0.000    0.000    0.000    0.000    0.000 
#
# Total GULP energy -178414.627899 kJ/mol
# GULP energy per Si atom -5575.457122 kJ/mol
# Density = 1.861143 g / cm^3
# Si number density = 18.653892 Si / 1000 Ang^3
#
#
#
# Elastic Constant Matrix: (Units=GPa)
#
#
# Indices 1 2 3 4 5 6 
#
# 1 39.8901 26.2316 36.2531 0.0000 6.7978 0.0000
# 2 26.2316 52.0008 32.1124 0.0000 14.7062 0.0000
# 3 36.2531 32.1124 146.4731 0.0000 13.6796 0.0000
# 4 0.0000 0.0000 0.0000 -29.6035 0.0000 -24.5308
# 5 6.7978 14.7062 13.6796 0.0000 29.3543 0.0000
# 6 0.0000 0.0000 0.0000 -24.5308 0.0000 -26.0394
#
#
#
# Elastic Compliance Matrix: (Units=1/GPa)
#
#
# Indices 1 2 3 4 5 6 
#
# 1 0.042718 -0.017971 -0.006848 0.000000 0.002302 0.000000
# 2 -0.017971 0.032511 -0.001618 0.000000 -0.011372 0.000000
# 3 -0.006848 -0.001618 0.009047 0.000000 -0.001820 0.000000
# 4 0.000000 0.000000 0.000000 -0.153991 0.000000 0.145070
# 5 0.002302 -0.011372 -0.001820 0.000000 0.040079 0.000000
# 6 0.000000 0.000000 0.000000 0.145070 0.000000 -0.175068
#
#
# Mechanical properties :
#
#
# Convention : Reuss Voigt Hill
#
# Bulk Modulus (GPa) = 31.84487 47.50647 39.67567
# Shear Modulus (GPa) = -35.36953 4.32674 -15.52139
#
# Velocity S-wave (km/s) = -4.35914 1.52464 -2.88770
# Velocity P-wave (km/s) = 2.86839 5.34995 3.19330
#
# Compressibility (1/GPa) = 0.03140223
#
# Stress axis : x y z
#
# Youngs Moduli (GPa) = 23.40939 30.75889 110.53745
#
# Poissons Ratio (x) = 0.55277 0.75696
# Poissons Ratio (y) = 0.42069 0.17880
# Poissons Ratio (z) = 0.16031 0.04976
#
# Static dielectric constant tensor:
#      x y z
#    x 1.645090 0.000000 0.000190 
#    y 0.000000 1.620250 0.000000 
#    z 0.000190 0.000000 1.724630 
# 
# From -- ./inp_files/58083.got.cif
#   From: 2010.05.17/outbox.cif.g08.bks.cpg/sg10_30_cif.got.tgz:58083.got - 2010.06.03 11:33:40.
