data_PCOD9146956
_publ_section_title
;
Structure prediction by ZEFSAII (Michael W. Deem and Ramdas Pophale) SiO2 
 PCOD9146956
Probable space group: P 2/M
;
_chemical_formula_sum "Si O2"
_cell_formula_units_Z 24
_cell_length_a 11.748126
_cell_length_b 16.249211
_cell_length_c 19.385823
_cell_angle_alpha 90.000000
_cell_angle_beta 20.118899
_cell_angle_gamma 90.000000
_cell_volume 1272.931317
_symmetry_space_group_name_H-M "P 2/M"
_symmetry_group_IT_number 10
_symmetry_cell_setting 'monoclinic'
loop_
_space_group_symop_operation_xyz
x,y,z
-x,y,-z
-x,-y,-z
x,-y,z
loop_
_atom_site_type_symbol
_atom_site_label
_atom_site_fract_x
_atom_site_fract_y
_atom_site_fract_z
Si Si1 0.199554 0.752155 0.480231
Si Si2 0.320223 0.744607 0.665738
Si Si3 0.228977 0.164172 0.934308
Si Si4 0.794899 0.911746 0.687627
Si Si5 0.175904 0.593334 0.280481
Si Si6 0.945543 0.407550 0.815118
O O1 0.407821 0.735363 0.430216
O O2 0.474813 0.779958 0.267228
O O3 0.947546 0.829269 0.634580
O O4 0.000429 0.668296 0.580418
O O5 0.500000 0.790136 0.500000
O O6 0.178716 0.660237 0.715278
O O7 0.014273 0.788102 0.876662
O O8 0.423126 0.100180 0.871828
O O9 0.000000 0.134560 0.000000
O O10 0.000000 0.916946 0.500000
O O11 0.835343 0.000000 0.701521
O O12 0.088630 0.500000 0.352589
O O13 0.085688 0.599481 0.250081
O O14 0.573077 0.602039 0.056407
O O15 0.059875 0.500000 0.766056
#
# Coordination Sequence:
#
# PCOD9146956 Si02
#       6
#     4   4   4   4   4   4
#     4  10  19  34  55  81 110 140 176 225 268 315
#     4  11  20  33  52  78 105 148 182 215 266 318
#     4   9  20  35  54  81 111 135 174 221 269 318
#     4   9  18  35  60  84 105 137 179 220 264 318
#     4   9  17  31  52  79 108 141 179 222 268 314
#     4   9  18  31  49  77 106 138 188 230 254 308
#
# _framework density 18.854120000000002
#
# number of rings (size 3 to 8) (size 9 to 14) (size 15 to 20)
#    0.000    2.500    1.667    2.000    0.000    1.333 
#    0.000    3.333    0.000   12.500    0.000    0.000 
#    0.000    0.000    0.000    0.000    0.000    0.000 
#
# Total GULP energy -133660.179311 kJ/mol
# GULP energy per Si atom -5569.174138 kJ/mol
# Density = 1.881121 g / cm^3
# Si number density = 18.854120 Si / 1000 Ang^3
#
#
#
# Elastic Constant Matrix: (Units=GPa)
#
#
# Indices 1 2 3 4 5 6 
#
# 1 64.0347 32.3122 27.5282 0.0000 -13.1292 0.0000
# 2 32.3122 119.5660 55.6037 0.0000 -23.1990 0.0000
# 3 27.5282 55.6037 91.6624 0.0000 -8.3819 0.0000
# 4 0.0000 0.0000 0.0000 30.9669 0.0000 31.3669
# 5 -13.1292 -23.1990 -8.3819 0.0000 30.7256 0.0000
# 6 0.0000 0.0000 0.0000 31.3669 0.0000 52.4901
#
#
#
# Elastic Compliance Matrix: (Units=1/GPa)
#
#
# Indices 1 2 3 4 5 6 
#
# 1 0.019655 -0.002414 -0.003935 0.000000 0.005502 0.000000
# 2 -0.002414 0.013651 -0.006879 0.000000 0.007399 0.000000
# 3 -0.003935 -0.006879 0.016036 0.000000 -0.002501 0.000000
# 4 0.000000 0.000000 0.000000 0.081815 0.000000 -0.048891
# 5 0.005502 0.007399 -0.002501 0.000000 0.039801 0.000000
# 6 0.000000 0.000000 0.000000 -0.048891 0.000000 0.048267
#
#
# Mechanical properties :
#
#
# Convention : Reuss Voigt Hill
#
# Bulk Modulus (GPa) = 43.69808 56.23904 49.96856
# Shear Modulus (GPa) = 19.73871 33.49110 26.61491
#
# Velocity S-wave (km/s) = 3.23912 4.21922 3.76123
# Velocity P-wave (km/s) = 6.10053 7.32319 6.73964
#
# Compressibility (1/GPa) = 0.02288430
#
# Stress axis : x y z
#
# Youngs Moduli (GPa) = 50.87893 73.25707 62.36078
#
# Poissons Ratio (x) = 0.17683 0.24540
# Poissons Ratio (y) = 0.12282 0.42899
# Poissons Ratio (z) = 0.20022 0.50395
#
# Static dielectric constant tensor:
#      x y z
#    x 1.664190 0.000000 -0.003470 
#    y 0.000000 1.692030 0.000000 
#    z -0.003470 0.000000 1.687000 
# 
# From -- ./inp_files/61954.got.cif
#   From: 2010.05.17/outbox.cif.g08.bks.cpg/sg10_31_cif.got.tgz:61954.got - 2010.06.03 11:33:40.
