data_PCOD9146410
_publ_section_title
;
Structure prediction by ZEFSAII (Michael W. Deem and Ramdas Pophale) SiO2 
 PCOD9146410
Probable space group: P 2/M
;
_chemical_formula_sum "Si O2"
_cell_formula_units_Z 28
_cell_length_a 15.000114
_cell_length_b 17.734024
_cell_length_c 8.778334
_cell_angle_alpha 90.000000
_cell_angle_beta 142.642098
_cell_angle_gamma 90.000000
_cell_volume 1416.947584
_symmetry_space_group_name_H-M "P 2/M"
_symmetry_group_IT_number 10
_symmetry_cell_setting 'monoclinic'
loop_
_space_group_symop_operation_xyz
x,y,z
-x,y,-z
-x,-y,-z
x,-y,z
loop_
_atom_site_type_symbol
_atom_site_label
_atom_site_fract_x
_atom_site_fract_y
_atom_site_fract_z
Si Si1 0.187950 0.086791 0.587301
Si Si2 0.640272 0.324454 0.787154
Si Si3 0.302711 0.162883 0.049417
Si Si4 0.095578 0.086905 0.987239
Si Si5 0.832803 0.588234 0.803999
Si Si6 0.573999 0.358976 0.263215
Si Si7 0.412908 0.180024 0.721742
O O1 0.222645 0.127257 0.793617
O O2 0.271996 0.130129 0.565046
O O3 0.018779 0.086573 0.309153
O O4 0.238523 0.000000 0.665034
O O5 0.500000 0.294710 0.500000
O O6 0.753935 0.365499 0.831751
O O7 0.555563 0.377047 0.792124
O O8 0.711888 0.253492 0.968661
O O9 0.234246 0.132156 0.112446
O O10 0.475568 0.149285 0.253620
O O11 0.135580 0.000000 0.076999
O O12 0.000000 0.116245 0.000000
O O13 0.838129 0.500000 0.851109
O O14 0.722964 0.598884 0.511062
O O15 0.000000 0.613629 0.000000
O O16 0.612035 0.269351 0.332544
O O17 0.500000 0.371463 0.000000
O O18 0.500000 0.174718 0.000000
#
# Coordination Sequence:
#
# PCOD9146410 Si02
#       7
#     4   4   4   4   4   4   4
#     4  10  20  35  55  78 107 146 190 234 282 337
#     4   9  20  37  58  84 113 147 185 227 283 349
#     4  10  19  33  55  78 102 137 183 229 273 323
#     4  10  22  36  48  70 106 144 184 231 284 340
#     4  10  22  40  61  87 119 153 189 232 285 344
#     4   9  18  36  60  87 119 152 191 236 280 338
#     4   8  17  32  52  79 107 135 178 233 279 324
#
# _framework density 19.760787000000001
#
# number of rings (size 3 to 8) (size 9 to 14) (size 15 to 20)
#    0.000    2.571    0.000    1.714    0.000   12.286 
#    0.000    3.571    0.000    6.000    0.000    0.000 
#    0.000    0.000    0.000    0.000    0.000    0.000 
#
# Total GULP energy -156070.592232 kJ/mol
# GULP energy per Si atom -5573.949723 kJ/mol
# Density = 1.971581 g / cm^3
# Si number density = 19.760787 Si / 1000 Ang^3
#
#
#
# Elastic Constant Matrix: (Units=GPa)
#
#
# Indices 1 2 3 4 5 6 
#
# 1 152.2174 36.7040 40.5224 0.0000 17.7379 0.0000
# 2 36.7040 48.0839 24.1060 0.0000 15.6441 0.0000
# 3 40.5224 24.1060 72.0810 0.0000 2.5167 0.0000
# 4 0.0000 0.0000 0.0000 19.9472 0.0000 -7.7309
# 5 17.7379 15.6441 2.5167 0.0000 30.8150 0.0000
# 6 0.0000 0.0000 0.0000 -7.7309 0.0000 17.6305
#
#
#
# Elastic Compliance Matrix: (Units=1/GPa)
#
#
# Indices 1 2 3 4 5 6 
#
# 1 0.008798 -0.004090 -0.003484 0.000000 -0.002704 0.000000
# 2 -0.004090 0.032304 -0.008037 0.000000 -0.013390 0.000000
# 3 -0.003484 -0.008037 0.018360 0.000000 0.004586 0.000000
# 4 0.000000 0.000000 0.000000 0.060396 0.000000 0.026483
# 5 -0.002704 -0.013390 0.004586 0.000000 0.040431 0.000000
# 6 0.000000 0.000000 0.000000 0.026483 0.000000 0.068333
#
#
# Mechanical properties :
#
#
# Convention : Reuss Voigt Hill
#
# Bulk Modulus (GPa) = 35.40971 52.78301 44.09636
# Shear Modulus (GPa) = 18.56962 25.08188 21.82575
#
# Velocity S-wave (km/s) = 3.06881 3.56655 3.32700
# Velocity P-wave (km/s) = 5.52403 6.61282 6.09279
#
# Compressibility (1/GPa) = 0.02824084
#
# Stress axis : x y z
#
# Youngs Moduli (GPa) = 113.65880 30.95572 54.46743
#
# Poissons Ratio (x) = 0.12660 0.18977
# Poissons Ratio (y) = 0.46482 0.43775
# Poissons Ratio (z) = 0.39600 0.24879
#
# Static dielectric constant tensor:
#      x y z
#    x 1.738900 0.000000 -0.016560 
#    y 0.000000 1.691250 0.000000 
#    z -0.016560 0.000000 1.716100 
# 
# From -- ./inp_files/30179.got.cif
#   From: 2010.05.17/outbox.cif.g08.bks.cpg/sg10_16_cif.got.tgz:30179.got - 2010.06.03 11:33:40.
