data_PCOD9146385
_publ_section_title
;
Structure prediction by ZEFSAII (Michael W. Deem and Ramdas Pophale) SiO2 
 PCOD9146385
Probable space group: P 2/M
;
_chemical_formula_sum "Si O2"
_cell_formula_units_Z 28
_cell_length_a 9.383312
_cell_length_b 13.448136
_cell_length_c 14.882673
_cell_angle_alpha 90.000000
_cell_angle_beta 58.022200
_cell_angle_gamma 90.000000
_cell_volume 1593.033013
_symmetry_space_group_name_H-M "P 2/M"
_symmetry_group_IT_number 10
_symmetry_cell_setting 'monoclinic'
loop_
_space_group_symop_operation_xyz
x,y,z
-x,y,-z
-x,-y,-z
x,-y,z
loop_
_atom_site_type_symbol
_atom_site_label
_atom_site_fract_x
_atom_site_fract_y
_atom_site_fract_z
Si Si1 0.885499 0.886931 0.382753
Si Si2 0.573208 0.884256 0.617861
Si Si3 0.307770 0.745242 0.062143
Si Si4 0.736173 0.887008 0.752732
Si Si5 0.008658 0.382162 0.889360
Si Si6 0.202831 0.113461 0.933921
Si Si7 0.253587 0.774840 0.733165
O O1 0.744021 0.871160 0.504465
O O2 0.863963 0.814032 0.306666
O O3 0.076368 0.878842 0.350718
O O4 0.863248 0.000000 0.356256
O O5 0.613530 0.874512 0.709822
O O6 0.440841 0.798900 0.635793
O O7 0.516940 0.000000 0.619769
O O8 0.285698 0.809269 0.160205
O O9 0.159047 0.664943 0.099045
O O10 0.500000 0.706299 0.000000
O O11 0.279406 0.819027 0.986834
O O12 0.718479 0.000000 0.794209
O O13 0.014842 0.500000 0.873810
O O14 0.174313 0.328106 0.794020
O O15 0.000000 0.362508 0.000000
O O16 0.247244 0.153635 0.821415
O O17 0.256576 0.000000 0.928805
O O18 0.000000 0.117171 0.000000
#
# Coordination Sequence:
#
# PCOD9146385 Si02
#       7
#     4   4   4   4   4   4   4
#     4  10  19  33  54  82 117 155 190 220 260 319
#     4  10  21  33  52  85 122 153 186 223 257 315
#     4  12  22  36  57  84 112 143 184 229 283 340
#     4  10  20  34  52  79 120 160 184 210 258 325
#     4  11  24  44  62  79 105 140 187 242 293 339
#     4  11  20  32  51  80 118 152 180 211 261 334
#     4  12  19  35  56  80 106 147 186 226 279 321
#
# _framework density 17.576535
#
# number of rings (size 3 to 8) (size 9 to 14) (size 15 to 20)
#    0.000    1.143    4.286    3.429    0.000    7.714 
#    0.000    0.000    0.000    1.714    0.000    1.000 
#    0.000    0.000    0.000    0.000    0.000    0.000 
#
# Total GULP energy -156252.970308 kJ/mol
# GULP energy per Si atom -5580.463225 kJ/mol
# Density = 1.753653 g / cm^3
# Si number density = 17.576535 Si / 1000 Ang^3
#
#
#
# Elastic Constant Matrix: (Units=GPa)
#
#
# Indices 1 2 3 4 5 6 
#
# 1 95.1104 42.6855 20.4649 0.0000 -14.3020 0.0000
# 2 42.6855 87.5197 29.7526 0.0000 -3.0048 0.0000
# 3 20.4649 29.7526 64.4756 0.0000 -4.7625 0.0000
# 4 0.0000 0.0000 0.0000 -2.9747 0.0000 10.2264
# 5 -14.3020 -3.0048 -4.7625 0.0000 33.8996 0.0000
# 6 0.0000 0.0000 0.0000 10.2264 0.0000 4.4393
#
#
#
# Elastic Compliance Matrix: (Units=1/GPa)
#
#
# Indices 1 2 3 4 5 6 
#
# 1 0.014485 -0.006467 -0.001217 0.000000 0.005367 0.000000
# 2 -0.006467 0.016443 -0.005688 0.000000 -0.002070 0.000000
# 3 -0.001217 -0.005688 0.018639 0.000000 0.001601 0.000000
# 4 0.000000 0.000000 0.000000 -0.037690 0.000000 0.086822
# 5 0.005367 -0.002070 0.001601 0.000000 0.031805 0.000000
# 6 0.000000 0.000000 0.000000 0.086822 0.000000 0.025255
#
#
# Mechanical properties :
#
#
# Convention : Reuss Voigt Hill
#
# Bulk Modulus (GPa) = 43.81471 48.10129 45.95800
# Shear Modulus (GPa) = 48.40818 17.35302 32.88060
#
# Velocity S-wave (km/s) = 5.25368 3.14552 4.32986
# Velocity P-wave (km/s) = 7.86026 6.37327 7.15549
#
# Compressibility (1/GPa) = 0.02282339
#
# Stress axis : x y z
#
# Youngs Moduli (GPa) = 69.03523 60.81776 53.65096
#
# Poissons Ratio (x) = 0.39330 0.06530
# Poissons Ratio (y) = 0.44644 0.30516
# Poissons Ratio (z) = 0.08402 0.34592
#
# Static dielectric constant tensor:
#      x y z
#    x 1.636750 0.000000 -0.051040 
#    y 0.000000 1.568580 0.000000 
#    z -0.051040 0.000000 1.637550 
# 
# From -- ./inp_files/28690.got.cif
#   From: 2010.05.17/outbox.cif.g08.bks.cpg/sg10_15_cif.got.tgz:28690.got - 2010.06.03 11:33:40.
