data_PCOD9146182
_publ_section_title
;
Structure prediction by ZEFSAII (Michael W. Deem and Ramdas Pophale) SiO2 
 PCOD9146182
Probable space group: P 2/M
;
_chemical_formula_sum "Si O2"
_cell_formula_units_Z 32
_cell_length_a 23.982709
_cell_length_b 8.812000
_cell_length_c 21.560352
_cell_angle_alpha 90.000000
_cell_angle_beta 155.953660
_cell_angle_gamma 90.000000
_cell_volume 1856.649558
_symmetry_space_group_name_H-M "P 2/M"
_symmetry_group_IT_number 10
_symmetry_cell_setting 'monoclinic'
loop_
_space_group_symop_operation_xyz
x,y,z
-x,y,-z
-x,-y,-z
x,-y,z
loop_
_atom_site_type_symbol
_atom_site_label
_atom_site_fract_x
_atom_site_fract_y
_atom_site_fract_z
Si Si1 0.409287 0.176059 0.971024
Si Si2 0.262369 0.317862 0.505845
Si Si3 0.159214 0.317898 0.651013
Si Si4 0.942329 0.682413 0.810646
Si Si5 0.754384 0.317700 0.851558
Si Si6 0.469468 0.317770 0.610295
Si Si7 0.683306 0.817717 0.307119
Si Si8 0.734149 0.819673 0.694660
O O1 0.268219 0.263249 0.814214
O O2 0.376145 0.000000 0.950038
O O3 0.500000 0.180508 0.000000
O O4 0.523694 0.232663 0.135972
O O5 0.263180 0.500000 0.516678
O O6 0.134528 0.279981 0.331343
O O7 0.393128 0.275813 0.596097
O O8 0.264854 0.234513 0.573485
O O9 0.162731 0.500000 0.651580
O O10 0.221787 0.250717 0.650823
O O11 0.000000 0.271893 0.500000
O O12 0.929149 0.500000 0.805390
O O13 0.865136 0.760797 0.789294
O O14 0.100148 0.725361 0.972401
O O15 0.753705 0.500000 0.842845
O O16 0.627723 0.277503 0.766676
O O17 0.735245 0.245343 0.764751
O O18 0.453791 0.500000 0.587948
O O19 0.392565 0.242497 0.474232
O O20 0.684185 0.000000 0.301688
O O21 0.731675 0.000000 0.693738
#
# Coordination Sequence:
#
# PCOD9146182 Si02
#       8
#     4   4   4   4   4   4   4   4
#     4   8  16  31  50  74 103 134 167 199 235 285
#     4   9  18  34  53  72  97 130 170 210 245 288
#     4  10  20  33  52  81 111 135 164 205 248 285
#     4   9  19  35  53  72  97 131 168 207 250 298
#     4  10  19  33  53  73  95 126 164 206 255 307
#     4   9  19  35  53  72  95 127 166 207 251 299
#     4  10  20  34  54  77 102 136 172 202 240 294
#     4  11  21  31  47  73 102 130 162 203 252 305
#
# _framework density 17.235347000000001
#
# number of rings (size 3 to 8) (size 9 to 14) (size 15 to 20)
#    0.000    2.500    0.000    4.125    0.000    9.750 
#    0.000    1.250    0.000    3.000    0.000    0.000 
#    0.000    0.000    0.000    0.000    0.000    0.000 
#
# Total GULP energy -178403.455949 kJ/mol
# GULP energy per Si atom -5575.107998 kJ/mol
# Density = 1.719612 g / cm^3
# Si number density = 17.235347 Si / 1000 Ang^3
#
#
#
# Elastic Constant Matrix: (Units=GPa)
#
#
# Indices 1 2 3 4 5 6 
#
# 1 76.9722 26.7737 54.7045 0.0000 2.0129 0.0000
# 2 26.7737 28.5672 27.0899 0.0000 8.2907 0.0000
# 3 54.7045 27.0899 72.5749 0.0000 39.2267 0.0000
# 4 0.0000 0.0000 0.0000 10.4344 0.0000 1.0942
# 5 2.0129 8.2907 39.2267 0.0000 22.6449 0.0000
# 6 0.0000 0.0000 0.0000 1.0942 0.0000 5.0331
#
#
#
# Elastic Compliance Matrix: (Units=1/GPa)
#
#
# Indices 1 2 3 4 5 6 
#
# 1 0.001111 -0.013443 0.024692 0.000000 -0.037950 0.000000
# 2 -0.013443 0.057366 -0.009006 0.000000 -0.004206 0.000000
# 3 0.024692 -0.009006 -0.032444 0.000000 0.057303 0.000000
# 4 0.000000 0.000000 0.000000 0.098072 0.000000 -0.021320
# 5 -0.037950 -0.004206 0.057303 0.000000 -0.050190 0.000000
# 6 0.000000 0.000000 0.000000 -0.021320 0.000000 0.203320
#
#
# Mechanical properties :
#
#
# Convention : Reuss Voigt Hill
#
# Bulk Modulus (GPa) = 32.76687 43.91672 38.34180
# Shear Modulus (GPa) = 17.67261 12.25890 14.96575
#
# Velocity S-wave (km/s) = 3.20561 2.66985 2.94992
# Velocity P-wave (km/s) = 5.72311 5.91946 5.82211
#
# Compressibility (1/GPa) = 0.03051863
#
# Stress axis : x y z
#
# Youngs Moduli (GPa) = 899.76822 17.43207 -30.82275
#
# Poissons Ratio (x) = 0.23434 0.76107
# Poissons Ratio (y) = 12.09552 -0.27760
# Poissons Ratio (z) = -22.21705 0.15700
#
# Static dielectric constant tensor:
#      x y z
#    x 1.556900 0.000000 0.012000 
#    y 0.000000 1.580410 0.000000 
#    z 0.012000 0.000000 1.619190 
# 
# From -- ./inp_files/91229.got.cif
#   From: 2010.05.17/outbox.cif.g08.bks.cpg/sg10_46_cif.got.tgz:91229.got - 2010.06.03 11:33:40.
