data_PCOD9146937
_publ_section_title
;
Structure prediction by ZEFSAII (Michael W. Deem and Ramdas Pophale) SiO2 
 PCOD9146937
Probable space group: P 2/M
;
_chemical_formula_sum "Si O2"
_cell_formula_units_Z 32
_cell_length_a 31.297091
_cell_length_b 7.626760
_cell_length_c 13.385541
_cell_angle_alpha 90.000000
_cell_angle_beta 152.397776
_cell_angle_gamma 90.000000
_cell_volume 1480.371819
_symmetry_space_group_name_H-M "P 2/M"
_symmetry_group_IT_number 10
_symmetry_cell_setting 'monoclinic'
loop_
_space_group_symop_operation_xyz
x,y,z
-x,y,-z
-x,-y,-z
x,-y,z
loop_
_atom_site_type_symbol
_atom_site_label
_atom_site_fract_x
_atom_site_fract_y
_atom_site_fract_z
Si Si1 0.892222 0.213716 0.970894
Si Si2 0.223886 0.790265 0.852775
Si Si3 0.560890 0.711476 0.720876
Si Si4 0.101064 0.795300 0.416821
Si Si5 0.399559 0.714726 0.755561
Si Si6 0.404972 0.287864 0.539944
Si Si7 0.786538 0.206217 0.949035
Si Si8 0.789276 0.705310 0.551629
O O1 0.997904 0.276570 0.191936
O O2 0.889442 0.000000 0.962824
O O3 0.840434 0.276495 0.964020
O O4 0.841625 0.273281 0.765382
O O5 0.162880 0.720007 0.634823
O O6 0.211078 0.000000 0.829936
O O7 0.332904 0.763642 0.061941
O O8 0.196000 0.719297 0.904413
O O9 0.500000 0.772524 0.500000
O O10 0.560222 0.500000 0.716620
O O11 0.503279 0.767431 0.699049
O O12 0.155010 0.785338 0.424332
O O13 0.087555 0.000000 0.412481
O O14 0.397616 0.500000 0.752286
O O15 0.387067 0.771973 0.615338
O O16 0.314139 0.775166 0.645508
O O17 0.500000 0.769138 0.000000
O O18 0.403252 0.500000 0.536385
O O19 0.321854 0.226713 0.297981
O O20 0.809006 0.000000 0.999101
O O21 0.782294 0.500000 0.514122
#
# Coordination Sequence:
#
# PCOD9146937 Si02
#       8
#     4   4   4   4   4   4   4   4
#     4  10  21  39  62  83 109 147 189 234 285 341
#     4  10  22  38  56  82 116 150 188 236 283 329
#     4  10  20  33  54  81 109 147 190 225 267 333
#     4  10  23  41  58  80 114 153 187 229 288 341
#     4   9  19  34  53  80 112 145 179 220 274 328
#     4  10  19  34  55  79 110 148 186 226 273 333
#     4  10  20  35  58  85 111 144 189 237 279 327
#     4  11  22  37  62  89 113 144 187 236 278 332
#
# _framework density 21.61619
#
# number of rings (size 3 to 8) (size 9 to 14) (size 15 to 20)
#    0.000    2.000    2.500    0.750    1.750    3.750 
#    0.000    2.500    0.000    1.875    0.000    3.500 
#    0.000    0.000    0.000    0.000    0.000    0.000 
#
# Total GULP energy -178745.209749 kJ/mol
# GULP energy per Si atom -5585.787805 kJ/mol
# Density = 2.156699 g / cm^3
# Si number density = 21.616190 Si / 1000 Ang^3
#
#
#
# Elastic Constant Matrix: (Units=GPa)
#
#
# Indices 1 2 3 4 5 6 
#
# 1 114.8966 -14.1008 51.5692 0.0000 -5.2779 0.0000
# 2 -14.1008 39.2947 -13.0017 0.0000 -0.1845 0.0000
# 3 51.5692 -13.0017 128.7191 0.0000 9.8130 0.0000
# 4 0.0000 0.0000 0.0000 20.9490 0.0000 3.0562
# 5 -5.2779 -0.1845 9.8130 0.0000 22.6283 0.0000
# 6 0.0000 0.0000 0.0000 3.0562 0.0000 2.3925
#
#
#
# Elastic Compliance Matrix: (Units=1/GPa)
#
#
# Indices 1 2 3 4 5 6 
#
# 1 0.011308 0.002548 -0.004629 0.000000 0.004666 0.000000
# 2 0.002548 0.026924 0.001692 0.000000 0.000080 0.000000
# 3 -0.004629 0.001692 0.010213 0.000000 -0.005495 0.000000
# 4 0.000000 0.000000 0.000000 0.058668 0.000000 -0.074943
# 5 0.004666 0.000080 -0.005495 0.000000 0.047664 0.000000
# 6 0.000000 0.000000 0.000000 -0.074943 0.000000 0.513708
#
#
# Mechanical properties :
#
#
# Convention : Reuss Voigt Hill
#
# Bulk Modulus (GPa) = 20.97808 36.87155 28.92481
# Shear Modulus (GPa) = 7.29766 26.42355 16.86060
#
# Velocity S-wave (km/s) = 1.83939 3.50007 2.79588
# Velocity P-wave (km/s) = 3.77319 5.78173 4.88187
#
# Compressibility (1/GPa) = 0.04766880
#
# Stress axis : x y z
#
# Youngs Moduli (GPa) = 88.43277 37.14224 97.91330
#
# Poissons Ratio (x) = -0.09465 0.45321
# Poissons Ratio (y) = -0.22535 -0.16572
# Poissons Ratio (z) = 0.40933 -0.06286
#
# Static dielectric constant tensor:
#      x y z
#    x 1.775600 0.000000 -0.008320 
#    y 0.000000 1.819530 0.000000 
#    z -0.008320 0.000000 1.756730 
# 
# From -- ./inp_files/58296.got.cif
#   From: 2010.05.17/outbox.cif.g08.bks.cpg/sg10_30_cif.got.tgz:58296.got - 2010.06.03 11:33:40.
