data_PCOD9146074
_publ_section_title
;
Structure prediction by ZEFSAII (Michael W. Deem and Ramdas Pophale) SiO2 
 PCOD9146074
Probable space group: P 2/M
;
_chemical_formula_sum "Si O2"
_cell_formula_units_Z 24
_cell_length_a 13.485618
_cell_length_b 13.615080
_cell_length_c 15.043562
_cell_angle_alpha 90.000000
_cell_angle_beta 29.002724
_cell_angle_gamma 90.000000
_cell_volume 1339.214699
_symmetry_space_group_name_H-M "P 2/M"
_symmetry_group_IT_number 10
_symmetry_cell_setting 'monoclinic'
loop_
_space_group_symop_operation_xyz
x,y,z
-x,y,-z
-x,-y,-z
x,-y,z
loop_
_atom_site_type_symbol
_atom_site_label
_atom_site_fract_x
_atom_site_fract_y
_atom_site_fract_z
Si Si1 0.683108 0.615015 0.234934
Si Si2 0.436405 0.610796 0.153370
Si Si3 0.776080 0.614950 0.371044
Si Si4 0.337999 0.885647 0.011835
Si Si5 0.773257 0.189265 0.705994
Si Si6 0.186123 0.710280 0.039045
O O1 0.719270 0.500000 0.186242
O O2 0.736519 0.628199 0.296375
O O3 0.441170 0.635717 0.413253
O O4 0.806694 0.679271 0.069081
O O5 0.377134 0.500000 0.227745
O O6 0.268440 0.697255 0.288306
O O7 0.500000 0.606962 0.000000
O O8 0.632559 0.648710 0.055120
O O9 0.824310 0.500000 0.347038
O O10 0.967440 0.679348 0.249421
O O11 0.262912 0.830832 0.160820
O O12 0.233334 0.824069 0.016309
O O13 0.289791 0.000000 0.054339
O O14 0.582943 0.870603 0.813433
O O15 0.000000 0.159542 0.500000
#
# Coordination Sequence:
#
# PCOD9146074 Si02
#       6
#     4   4   4   4   4   4
#     4   9  18  32  51  80 108 131 167 205 245 302
#     4  10  19  33  48  73 113 146 169 197 236 297
#     4   9  18  32  52  78 108 135 162 205 250 298
#     4  10  22  38  51  73 100 125 172 231 265 300
#     4  10  19  36  57  74  95 134 177 215 260 300
#     4  11  19  32  53  74  99 140 172 207 251 305
#
# _framework density 17.920950999999999
#
# number of rings (size 3 to 8) (size 9 to 14) (size 15 to 20)
#    0.000    2.167    3.333    4.000    0.000    5.667 
#    0.000    0.000    0.000    2.000    0.000    2.333 
#    0.000    0.000    0.000    0.000    0.000    0.000 
#
# Total GULP energy -133852.916239 kJ/mol
# GULP energy per Si atom -5577.204843 kJ/mol
# Density = 1.788016 g / cm^3
# Si number density = 17.920951 Si / 1000 Ang^3
#
#
#
# Elastic Constant Matrix: (Units=GPa)
#
#
# Indices 1 2 3 4 5 6 
#
# 1 19.7714 15.4140 8.2287 0.0000 -8.4379 0.0000
# 2 15.4140 102.3591 26.9699 0.0000 -9.1454 0.0000
# 3 8.2287 26.9699 93.2107 0.0000 -20.7338 0.0000
# 4 0.0000 0.0000 0.0000 9.6601 0.0000 -4.8357
# 5 -8.4379 -9.1454 -20.7338 0.0000 16.1476 0.0000
# 6 0.0000 0.0000 0.0000 -4.8357 0.0000 36.9922
#
#
#
# Elastic Compliance Matrix: (Units=1/GPa)
#
#
# Indices 1 2 3 4 5 6 
#
# 1 0.071870 -0.008615 0.004782 0.000000 0.038817 0.000000
# 2 -0.008615 0.011705 -0.003014 0.000000 -0.001742 0.000000
# 3 0.004782 -0.003014 0.015894 0.000000 0.021200 0.000000
# 4 0.000000 0.000000 0.000000 0.110767 0.000000 0.014480
# 5 0.038817 -0.001742 0.021200 0.000000 0.108447 0.000000
# 6 0.000000 0.000000 0.000000 0.014480 0.000000 0.028926
#
#
# Mechanical properties :
#
#
# Convention : Reuss Voigt Hill
#
# Bulk Modulus (GPa) = 11.65813 35.17404 23.41609
# Shear Modulus (GPa) = 12.82403 23.54189 18.18296
#
# Velocity S-wave (km/s) = 2.67795 3.62837 3.18877
# Velocity P-wave (km/s) = 4.01015 6.10109 5.16259
#
# Compressibility (1/GPa) = 0.08577702
#
# Stress axis : x y z
#
# Youngs Moduli (GPa) = 13.91404 85.43190 62.91682
#
# Poissons Ratio (x) = 0.73596 -0.30089
# Poissons Ratio (y) = 0.11986 0.18962
# Poissons Ratio (z) = -0.06654 0.25748
#
# Static dielectric constant tensor:
#      x y z
#    x 1.649700 0.000000 -0.013060 
#    y 0.000000 1.604270 0.000000 
#    z -0.013060 0.000000 1.626790 
# 
# From -- ./inp_files/65026.got.cif
#   From: 2010.05.17/outbox.cif.g08.bks.cpg/sg10_33_cif.got.tgz:65026.got - 2010.06.03 11:33:40.
