data_PCOD9146743
_publ_section_title
;
Structure prediction by ZEFSAII (Michael W. Deem and Ramdas Pophale) SiO2 
 PCOD9146743
Probable space group: P 2/M
;
_chemical_formula_sum "Si O2"
_cell_formula_units_Z 28
_cell_length_a 19.466816
_cell_length_b 13.114671
_cell_length_c 16.491885
_cell_angle_alpha 90.000000
_cell_angle_beta 21.641830
_cell_angle_gamma 90.000000
_cell_volume 1552.806607
_symmetry_space_group_name_H-M "P 2/M"
_symmetry_group_IT_number 10
_symmetry_cell_setting 'monoclinic'
loop_
_space_group_symop_operation_xyz
x,y,z
-x,y,-z
-x,-y,-z
x,-y,z
loop_
_atom_site_type_symbol
_atom_site_label
_atom_site_fract_x
_atom_site_fract_y
_atom_site_fract_z
Si Si1 0.622921 0.880444 0.025483
Si Si2 0.665060 0.382959 0.536194
Si Si3 0.938962 0.614865 0.983397
Si Si4 0.763939 0.207844 0.536742
Si Si5 0.591324 0.740593 0.310904
Si Si6 0.196599 0.880483 0.331649
Si Si7 0.150270 0.877674 0.070010
O O1 0.415005 0.862714 0.283653
O O2 0.661040 0.000000 0.977543
O O3 0.657437 0.842694 0.896433
O O4 0.767504 0.841329 0.933352
O O5 0.594431 0.500000 0.620699
O O6 0.690305 0.318998 0.591257
O O7 0.546173 0.314728 0.602637
O O8 0.874919 0.389657 0.272554
O O9 0.875579 0.500000 0.073779
O O10 0.768246 0.667301 0.127987
O O11 0.000000 0.668054 0.000000
O O12 0.806652 0.186692 0.584216
O O13 0.947075 0.173915 0.285714
O O14 0.500000 0.753580 0.500000
O O15 0.690454 0.841893 0.167247
O O16 0.000000 0.879613 0.500000
O O17 0.234246 0.000000 0.313580
O O18 0.128804 0.000000 0.093206
#
# Coordination Sequence:
#
# PCOD9146743 Si02
#       7
#     4   4   4   4   4   4   4
#     4  10  20  35  58  89 120 152 195 242 289 346
#     4  11  24  39  59  89 117 151 201 251 300 355
#     4  10  20  36  60  88 113 140 189 256 309 348
#     4  12  21  37  61  84 122 161 194 240 301 351
#     4  12  23  39  63  87 119 154 199 248 305 351
#     4  10  19  33  58  93 124 152 195 248 293 343
#     4  11  23  38  57  87 122 157 196 236 289 360
#
# _framework density 18.031865
#
# number of rings (size 3 to 8) (size 9 to 14) (size 15 to 20)
#    0.000    1.143    5.714    2.143    0.000    2.000 
#    0.000    0.000    0.000    3.429    0.000    0.000 
#    0.000    0.000    0.000    0.000    0.000    0.000 
#
# Total GULP energy -156022.071239 kJ/mol
# GULP energy per Si atom -5572.216830 kJ/mol
# Density = 1.799082 g / cm^3
# Si number density = 18.031865 Si / 1000 Ang^3
#
#
#
# Elastic Constant Matrix: (Units=GPa)
#
#
# Indices 1 2 3 4 5 6 
#
# 1 83.9347 37.6352 25.6878 0.0000 -1.2111 0.0000
# 2 37.6352 61.4230 20.4767 0.0000 6.8708 0.0000
# 3 25.6878 20.4767 94.5098 0.0000 -7.7149 0.0000
# 4 0.0000 0.0000 0.0000 24.2073 0.0000 -4.5853
# 5 -1.2111 6.8708 -7.7149 0.0000 29.3014 0.0000
# 6 0.0000 0.0000 0.0000 -4.5853 0.0000 35.7191
#
#
#
# Elastic Compliance Matrix: (Units=1/GPa)
#
#
# Indices 1 2 3 4 5 6 
#
# 1 0.017140 -0.010013 -0.002289 0.000000 0.002454 0.000000
# 2 -0.010013 0.024218 -0.003089 0.000000 -0.006906 0.000000
# 3 -0.002289 -0.003089 0.012186 0.000000 0.003838 0.000000
# 4 0.000000 0.000000 0.000000 0.042339 0.000000 0.005435
# 5 0.002454 -0.006906 0.003838 0.000000 0.036859 0.000000
# 6 0.000000 0.000000 0.000000 0.005435 0.000000 0.028694
#
#
# Mechanical properties :
#
#
# Convention : Reuss Voigt Hill
#
# Bulk Modulus (GPa) = 43.93506 45.27410 44.60458
# Shear Modulus (GPa) = 25.02422 28.25008 26.63715
#
# Velocity S-wave (km/s) = 3.72933 3.96242 3.84764
# Velocity P-wave (km/s) = 6.55454 6.78945 6.67303
#
# Compressibility (1/GPa) = 0.02276086
#
# Stress axis : x y z
#
# Youngs Moduli (GPa) = 58.34393 41.29101 82.06366
#
# Poissons Ratio (x) = 0.41346 0.18782
# Poissons Ratio (y) = 0.58422 0.25352
# Poissons Ratio (z) = 0.13354 0.12756
#
# Static dielectric constant tensor:
#      x y z
#    x 1.681700 0.000000 0.016580 
#    y 0.000000 1.638470 0.000000 
#    z 0.016580 0.000000 1.666230 
# 
# From -- ./inp_files/79486.got.cif
#   From: 2010.05.17/outbox.cif.g08.bks.cpg/sg10_40_cif.got.tgz:79486.got - 2010.06.03 11:33:40.
