data_PCOD9146309
_publ_section_title
;
Structure prediction by ZEFSAII (Michael W. Deem and Ramdas Pophale) SiO2 
 PCOD9146309
Probable space group: P 2/M
;
_chemical_formula_sum "Si O2"
_cell_formula_units_Z 28
_cell_length_a 23.429824
_cell_length_b 8.965563
_cell_length_c 19.526507
_cell_angle_alpha 90.000000
_cell_angle_beta 157.705175
_cell_angle_gamma 90.000000
_cell_volume 1556.098581
_symmetry_space_group_name_H-M "P 2/M"
_symmetry_group_IT_number 10
_symmetry_cell_setting 'monoclinic'
loop_
_space_group_symop_operation_xyz
x,y,z
-x,y,-z
-x,-y,-z
x,-y,z
loop_
_atom_site_type_symbol
_atom_site_label
_atom_site_fract_x
_atom_site_fract_y
_atom_site_fract_z
Si Si1 0.917398 0.179237 0.064388
Si Si2 0.312365 0.320586 0.613641
Si Si3 0.819819 0.174934 0.815444
Si Si4 0.238272 0.322943 0.383714
Si Si5 0.445649 0.177661 0.017125
Si Si6 0.128902 0.677338 0.699720
Si Si7 0.989272 0.178783 0.292366
O O1 0.804039 0.222719 0.877357
O O2 0.939875 0.000000 0.082376
O O3 0.889145 0.208907 0.112906
O O4 0.074384 0.259506 0.222111
O O5 0.301163 0.500000 0.607890
O O6 0.337240 0.285047 0.560448
O O7 0.442083 0.256110 0.805198
O O8 0.154515 0.246662 0.461312
O O9 0.729780 0.257258 0.655728
O O10 0.786858 0.000000 0.773285
O O11 0.000000 0.193482 0.000000
O O12 0.230920 0.500000 0.370124
O O13 0.445539 0.000000 0.028600
O O14 0.500000 0.205441 0.000000
O O15 0.280741 0.244157 0.844066
O O16 0.151860 0.500000 0.732254
O O17 0.077656 0.746691 0.714734
O O18 0.000000 0.701954 0.500000
O O19 0.001248 0.000000 0.313813
#
# Coordination Sequence:
#
# PCOD9146309 Si02
#       7
#     4   4   4   4   4   4   4
#     4   8  15  26  40  62  94 132 169 207 253 299
#     4  10  20  34  52  76 108 142 175 213 260 312
#     4   8  13  22  36  57  90 130 168 205 249 299
#     4   9  16  24  38  64  96 130 168 209 251 296
#     4  11  24  40  59  82 105 132 170 214 256 302
#     4  11  24  40  58  80 107 138 169 205 255 312
#     4  10  19  33  54  78 106 139 177 219 258 302
#
# _framework density 17.993718999999999
#
# number of rings (size 3 to 8) (size 9 to 14) (size 15 to 20)
#    0.000    2.429    0.000    3.857    0.000    9.429 
#    0.000    0.000    0.000    0.000    0.000    1.000 
#    0.000    8.000    0.000    0.000    0.000    0.000 
#
# Total GULP energy -156044.222637 kJ/mol
# GULP energy per Si atom -5573.007951 kJ/mol
# Density = 1.795276 g / cm^3
# Si number density = 17.993719 Si / 1000 Ang^3
#
#
#
# Elastic Constant Matrix: (Units=GPa)
#
#
# Indices 1 2 3 4 5 6 
#
# 1 134.1053 66.8722 62.6046 0.0000 -38.5419 0.0000
# 2 66.8722 65.0224 45.7176 0.0000 -26.6788 0.0000
# 3 62.6046 45.7176 73.9407 0.0000 -23.0821 0.0000
# 4 0.0000 0.0000 0.0000 24.3222 0.0000 -5.8319
# 5 -38.5419 -26.6788 -23.0821 0.0000 32.9097 0.0000
# 6 0.0000 0.0000 0.0000 -5.8319 0.0000 25.7294
#
#
#
# Elastic Compliance Matrix: (Units=1/GPa)
#
#
# Indices 1 2 3 4 5 6 
#
# 1 0.018073 -0.011157 -0.005915 0.000000 0.007973 0.000000
# 2 -0.011157 0.039391 -0.011548 0.000000 0.010767 0.000000
# 3 -0.005915 -0.011548 0.026359 0.000000 0.002199 0.000000
# 4 0.000000 0.000000 0.000000 0.043478 0.000000 0.009855
# 5 0.007973 0.010767 0.002199 0.000000 0.049994 0.000000
# 6 0.000000 0.000000 0.000000 0.009855 0.000000 0.041100
#
#
# Mechanical properties :
#
#
# Convention : Reuss Voigt Hill
#
# Bulk Modulus (GPa) = 37.61761 69.27304 53.44533
# Shear Modulus (GPa) = 17.57504 23.11718 20.34611
#
# Velocity S-wave (km/s) = 3.12866 3.58821 3.36629
# Velocity P-wave (km/s) = 5.83118 7.46653 6.69895
#
# Compressibility (1/GPa) = 0.02658329
#
# Stress axis : x y z
#
# Youngs Moduli (GPa) = 55.33119 25.38666 37.93810
#
# Poissons Ratio (x) = 0.28324 0.22440
# Poissons Ratio (y) = 0.61734 0.43809
# Poissons Ratio (z) = 0.32727 0.29316
#
# Static dielectric constant tensor:
#      x y z
#    x 1.661260 0.000000 -0.033440 
#    y 0.000000 1.597640 0.000000 
#    z -0.033440 0.000000 1.609340 
# 
# From -- ./inp_files/86541.got.cif
#   From: 2010.05.17/outbox.cif.g08.bks.cpg/sg10_44_cif.got.tgz:86541.got - 2010.06.03 11:33:40.
