data_PCOD9146181
_publ_section_title
;
Structure prediction by ZEFSAII (Michael W. Deem and Ramdas Pophale) SiO2 
 PCOD9146181
Probable space group: P 2/M
;
_chemical_formula_sum "Si O2"
_cell_formula_units_Z 28
_cell_length_a 17.013412
_cell_length_b 8.619553
_cell_length_c 21.844419
_cell_angle_alpha 90.000000
_cell_angle_beta 31.629128
_cell_angle_gamma 90.000000
_cell_volume 1679.944546
_symmetry_space_group_name_H-M "P 2/M"
_symmetry_group_IT_number 10
_symmetry_cell_setting 'monoclinic'
loop_
_space_group_symop_operation_xyz
x,y,z
-x,y,-z
-x,-y,-z
x,-y,z
loop_
_atom_site_type_symbol
_atom_site_label
_atom_site_fract_x
_atom_site_fract_y
_atom_site_fract_z
Si Si1 0.170397 0.314542 0.904828
Si Si2 0.308077 0.685542 0.574028
Si Si3 0.628490 0.816207 0.336236
Si Si4 0.262261 0.317195 0.174751
Si Si5 0.978208 0.311446 0.755229
Si Si6 0.515296 0.316622 0.090070
Si Si7 0.233891 0.815966 0.996684
O O1 0.185738 0.500000 0.890384
O O2 0.282005 0.236342 0.782641
O O3 0.204308 0.260268 0.950920
O O4 0.000000 0.273181 0.000000
O O5 0.325736 0.500000 0.558447
O O6 0.454796 0.765601 0.448928
O O7 0.304627 0.733650 0.647694
O O8 0.151809 0.730469 0.646207
O O9 0.638366 0.000000 0.338174
O O10 0.242151 0.500000 0.201181
O O11 0.106331 0.256417 0.250622
O O12 0.355866 0.254409 0.170512
O O13 0.373606 0.306939 0.042392
O O14 0.967133 0.500000 0.764532
O O15 0.886269 0.247480 0.874242
O O16 0.502774 0.500000 0.113308
O O17 0.602090 0.229574 0.086058
O O18 0.220006 0.000000 0.001642
#
# Coordination Sequence:
#
# PCOD9146181 Si02
#       7
#     4   4   4   4   4   4   4
#     4  11  23  38  54  70  91 122 160 197 232 277
#     4  10  19  33  53  73  95 125 161 196 230 275
#     4  11  22  35  51  71  97 125 155 194 238 280
#     4   7  11  22  42  65  88 119 158 195 229 267
#     4   9  17  30  48  70  96 127 162 197 232 273
#     4   8  13  25  43  61  88 125 160 191 226 274
#     4  11  21  30  44  69 100 129 157 192 236 284
#
# _framework density 16.667217000000001
#
# number of rings (size 3 to 8) (size 9 to 14) (size 15 to 20)
#    0.000    2.429    0.000    6.857    0.000    5.714 
#    0.000    5.714    0.000    0.000    0.000    1.000 
#    0.000    8.000    0.000    0.000    0.000    0.000 
#
# Total GULP energy -156041.358265 kJ/mol
# GULP energy per Si atom -5572.905652 kJ/mol
# Density = 1.662928 g / cm^3
# Si number density = 16.667217 Si / 1000 Ang^3
#
#
#
# Elastic Constant Matrix: (Units=GPa)
#
#
# Indices 1 2 3 4 5 6 
#
# 1 127.4090 12.3248 34.5862 0.0000 -23.9353 0.0000
# 2 12.3248 28.4361 7.1922 0.0000 -3.1667 0.0000
# 3 34.5862 7.1922 38.8748 0.0000 -6.2497 0.0000
# 4 0.0000 0.0000 0.0000 30.6080 0.0000 32.9472
# 5 -23.9353 -3.1667 -6.2497 0.0000 23.4840 0.0000
# 6 0.0000 0.0000 0.0000 32.9472 0.0000 35.6782
#
#
#
# Elastic Compliance Matrix: (Units=1/GPa)
#
#
# Indices 1 2 3 4 5 6 
#
# 1 0.012355 -0.001965 -0.009033 0.000000 0.009924 0.000000
# 2 -0.001965 0.037452 -0.004900 0.000000 0.001743 0.000000
# 3 -0.009033 -0.004900 0.034559 0.000000 -0.000671 0.000000
# 4 0.000000 0.000000 0.000000 5.473006 0.000000 -5.054080
# 5 0.009924 0.001743 -0.000671 0.000000 0.052753 0.000000
# 6 0.000000 0.000000 0.000000 -5.054080 0.000000 4.695248
#
#
# Mechanical properties :
#
#
# Convention : Reuss Voigt Hill
#
# Bulk Modulus (GPa) = 19.02270 33.65848 26.34059
# Shear Modulus (GPa) = 0.48287 27.32849 13.90568
#
# Velocity S-wave (km/s) = 0.53883 4.05366 2.89158
# Velocity P-wave (km/s) = 3.43877 6.49213 5.19485
#
# Compressibility (1/GPa) = 0.05256878
#
# Stress axis : x y z
#
# Youngs Moduli (GPa) = 80.93693 26.70094 28.93582
#
# Poissons Ratio (x) = 0.05247 0.26139
# Poissons Ratio (y) = 0.15905 0.14179
# Poissons Ratio (z) = 0.73113 0.13084
#
# Static dielectric constant tensor:
#      x y z
#    x 1.603440 0.000000 -0.032650 
#    y 0.000000 1.552550 0.000000 
#    z -0.032650 0.000000 1.534210 
# 
# From -- ./inp_files/77703.got.cif
#   From: 2010.05.17/outbox.cif.g08.bks.cpg/sg10_39_cif.got.tgz:77703.got - 2010.06.03 11:33:40.
