data_PCOD9146301
_publ_section_title
;
Structure prediction by ZEFSAII (Michael W. Deem and Ramdas Pophale) SiO2 
 PCOD9146301
Probable space group: P 2/M
;
_chemical_formula_sum "Si O2"
_cell_formula_units_Z 28
_cell_length_a 9.916674
_cell_length_b 8.800749
_cell_length_c 30.824723
_cell_angle_alpha 90.000000
_cell_angle_beta 37.026610
_cell_angle_gamma 90.000000
_cell_volume 1620.001494
_symmetry_space_group_name_H-M "P 2/M"
_symmetry_group_IT_number 10
_symmetry_cell_setting 'monoclinic'
loop_
_space_group_symop_operation_xyz
x,y,z
-x,y,-z
-x,-y,-z
x,-y,z
loop_
_atom_site_type_symbol
_atom_site_label
_atom_site_fract_x
_atom_site_fract_y
_atom_site_fract_z
Si Si1 0.937187 0.815661 0.063677
Si Si2 0.739566 0.818612 0.344124
Si Si3 0.030340 0.182894 0.354014
Si Si4 0.759442 0.183385 0.932766
Si Si5 0.547807 0.815912 0.225619
Si Si6 0.650859 0.325295 0.505074
Si Si7 0.144192 0.681008 0.778408
O O1 0.697776 0.770387 0.145387
O O2 0.121300 0.774956 0.052514
O O3 0.934538 0.000000 0.061996
O O4 0.000000 0.757520 0.000000
O O5 0.493320 0.766505 0.422912
O O6 0.807824 0.740579 0.281981
O O7 0.910200 0.776095 0.339368
O O8 0.745335 0.000000 0.337742
O O9 0.289357 0.229182 0.288370
O O10 0.885387 0.254156 0.430070
O O11 0.018326 0.000000 0.360658
O O12 0.906530 0.258287 0.857319
O O13 0.774217 0.000000 0.924287
O O14 0.500000 0.226353 0.000000
O O15 0.670943 0.747725 0.235854
O O16 0.557561 0.000000 0.226266
O O17 0.500000 0.321302 0.500000
O O18 0.675973 0.500000 0.511988
O O19 0.149259 0.500000 0.778386
#
# Coordination Sequence:
#
# PCOD9146301 Si02
#       7
#     4   4   4   4   4   4   4
#     4   8  14  26  47  73  97 122 156 201 248 291
#     4  10  19  33  54  78 103 132 171 214 253 298
#     4   9  18  32  53  78 101 130 170 215 258 300
#     4   9  18  33  53  74  97 129 169 210 251 296
#     4   9  18  34  53  74 102 134 169 209 254 303
#     4   9  17  30  49  74 105 136 165 203 254 307
#     4  11  22  35  51  73 105 141 172 205 252 304
#
# _framework density 17.283935
#
# number of rings (size 3 to 8) (size 9 to 14) (size 15 to 20)
#    0.000    2.714    0.000    3.000    0.000    4.286 
#    0.000    5.000    0.000   11.143    0.000    0.000 
#    0.000    0.000    0.000    0.000    0.000    0.000 
#
# Total GULP energy -156100.659600 kJ/mol
# GULP energy per Si atom -5575.023557 kJ/mol
# Density = 1.724460 g / cm^3
# Si number density = 17.283935 Si / 1000 Ang^3
#
#
#
# Elastic Constant Matrix: (Units=GPa)
#
#
# Indices 1 2 3 4 5 6 
#
# 1 65.9228 32.3173 93.7004 0.0000 -10.9552 0.0000
# 2 32.3173 42.8333 54.0559 0.0000 -0.6549 0.0000
# 3 93.7004 54.0559 189.5873 0.0000 -11.7789 0.0000
# 4 0.0000 0.0000 0.0000 6.2317 0.0000 3.3143
# 5 -10.9552 -0.6549 -11.7789 0.0000 34.5630 0.0000
# 6 0.0000 0.0000 0.0000 3.3143 0.0000 11.5173
#
#
#
# Elastic Compliance Matrix: (Units=1/GPa)
#
#
# Indices 1 2 3 4 5 6 
#
# 1 0.057125 -0.012623 -0.024033 0.000000 0.009677 0.000000
# 2 -0.012623 0.039548 -0.005353 0.000000 -0.005076 0.000000
# 3 -0.024033 -0.005353 0.018593 0.000000 -0.001383 0.000000
# 4 0.000000 0.000000 0.000000 0.189467 0.000000 -0.054523
# 5 0.009677 -0.005076 -0.001383 0.000000 0.031433 0.000000
# 6 0.000000 0.000000 0.000000 -0.054523 0.000000 0.102516
#
#
# Mechanical properties :
#
#
# Convention : Reuss Voigt Hill
#
# Bulk Modulus (GPa) = 32.00132 73.16562 52.58347
# Shear Modulus (GPa) = 9.37887 18.34705 13.86296
#
# Velocity S-wave (km/s) = 2.33198 3.26161 2.83516
# Velocity P-wave (km/s) = 5.07997 7.52381 6.41926
#
# Compressibility (1/GPa) = 0.03124871
#
# Stress axis : x y z
#
# Youngs Moduli (GPa) = 17.50560 25.28589 53.78469
#
# Poissons Ratio (x) = 0.31918 1.29259
# Poissons Ratio (y) = 0.22097 0.28790
# Poissons Ratio (z) = 0.42071 0.13535
#
# Static dielectric constant tensor:
#      x y z
#    x 1.570490 0.000000 -0.005610 
#    y 0.000000 1.577120 0.000000 
#    z -0.005610 0.000000 1.578800 
# 
# From -- ./inp_files/37268.got.cif
#   From: 2010.05.17/outbox.cif.g08.bks.cpg/sg10_19_cif.got.tgz:37268.got - 2010.06.03 11:33:40.
