data_PCOD9146965
_publ_section_title
;
Structure prediction by ZEFSAII (Michael W. Deem and Ramdas Pophale) SiO2 
 PCOD9146965
Probable space group: P 2/M
;
_chemical_formula_sum "Si O2"
_cell_formula_units_Z 24
_cell_length_a 16.583973
_cell_length_b 10.506461
_cell_length_c 15.093150
_cell_angle_alpha 90.000000
_cell_angle_beta 27.565666
_cell_angle_gamma 90.000000
_cell_volume 1216.985310
_symmetry_space_group_name_H-M "P 2/M"
_symmetry_group_IT_number 10
_symmetry_cell_setting 'monoclinic'
loop_
_space_group_symop_operation_xyz
x,y,z
-x,y,-z
-x,-y,-z
x,-y,z
loop_
_atom_site_type_symbol
_atom_site_label
_atom_site_fract_x
_atom_site_fract_y
_atom_site_fract_z
Si Si1 0.770980 0.654966 0.794897
Si Si2 0.674166 0.854339 0.164874
Si Si3 0.384385 0.351653 0.235856
Si Si4 0.288023 0.788199 0.497712
Si Si5 0.200477 0.850173 0.773769
Si Si6 0.066677 0.854262 0.240959
O O1 0.806977 0.500000 0.766375
O O2 0.736559 0.695854 0.726700
O O3 0.907177 0.748053 0.709362
O O4 0.585054 0.685500 0.023337
O O5 0.478628 0.850573 0.319813
O O6 0.689664 0.800824 0.249048
O O7 0.730198 0.000000 0.123505
O O8 0.810887 0.806047 0.959591
O O9 0.385147 0.500000 0.219016
O O10 0.321815 0.324601 0.395484
O O11 0.230328 0.771227 0.655441
O O12 0.129045 0.860035 0.605505
O O13 0.244598 0.000000 0.709876
O O14 0.000000 0.847105 0.000000
O O15 0.119508 0.000000 0.214270
#
# Coordination Sequence:
#
# PCOD9146965 Si02
#       6
#     4   4   4   4   4   4
#     4   9  19  42  67  87 116 160 203 248 298 358
#     4  10  20  35  54  81 120 158 195 238 296 352
#     4   9  20  39  65  89 112 152 208 250 293 360
#     4  12  21  34  59  87 117 154 200 243 297 351
#     4  10  19  34  55  82 117 159 200 240 287 355
#     4  11  22  36  57  92 127 154 194 252 301 351
#
# _framework density 19.720863000000001
#
# number of rings (size 3 to 8) (size 9 to 14) (size 15 to 20)
#    0.000    1.833    3.333    3.000    0.000    2.667 
#    0.000    6.667    0.000    3.500    0.000    0.000 
#    0.000    0.000    0.000    0.000    0.000    0.000 
#
# Total GULP energy -133637.154009 kJ/mol
# GULP energy per Si atom -5568.214750 kJ/mol
# Density = 1.967598 g / cm^3
# Si number density = 19.720863 Si / 1000 Ang^3
#
#
#
# Elastic Constant Matrix: (Units=GPa)
#
#
# Indices 1 2 3 4 5 6 
#
# 1 131.0983 37.5104 33.0407 0.0000 -16.5079 0.0000
# 2 37.5104 27.9419 12.9494 0.0000 -9.3769 0.0000
# 3 33.0407 12.9494 95.5056 0.0000 -6.0092 0.0000
# 4 0.0000 0.0000 0.0000 92.5246 0.0000 -18.4381
# 5 -16.5079 -9.3769 -6.0092 0.0000 29.9872 0.0000
# 6 0.0000 0.0000 0.0000 -18.4381 0.0000 23.7234
#
#
#
# Elastic Compliance Matrix: (Units=1/GPa)
#
#
# Indices 1 2 3 4 5 6 
#
# 1 0.012901 -0.015702 -0.002224 0.000000 0.001746 0.000000
# 2 -0.015702 0.061287 -0.002244 0.000000 0.010071 0.000000
# 3 -0.002224 -0.002244 0.011569 0.000000 0.000392 0.000000
# 4 0.000000 0.000000 0.000000 0.012789 0.000000 0.009940
# 5 0.001746 0.010071 0.000392 0.000000 0.037537 0.000000
# 6 0.000000 0.000000 0.000000 0.009940 0.000000 0.049878
#
#
# Mechanical properties :
#
#
# Convention : Reuss Voigt Hill
#
# Bulk Modulus (GPa) = 22.01835 46.83855 34.42845
# Shear Modulus (GPa) = 20.70906 40.65004 30.67955
#
# Velocity S-wave (km/s) = 3.24405 4.54505 3.94850
# Velocity P-wave (km/s) = 5.02206 7.16558 6.18735
#
# Compressibility (1/GPa) = 0.04541666
#
# Stress axis : x y z
#
# Youngs Moduli (GPa) = 77.51252 16.31658 86.43761
#
# Poissons Ratio (x) = 0.25621 0.19226
# Poissons Ratio (y) = 1.21712 0.19396
# Poissons Ratio (z) = 0.17241 0.03661
#
# Static dielectric constant tensor:
#      x y z
#    x 1.758690 0.000000 -0.010150 
#    y 0.000000 1.666530 0.000000 
#    z -0.010150 0.000000 1.752680 
# 
# From -- ./inp_files/67202.got.cif
#   From: 2010.05.17/outbox.cif.g08.bks.cpg/sg10_34_cif.got.tgz:67202.got - 2010.06.03 11:33:40.
