data_PCOD9146062
_publ_section_title
;
Structure prediction by ZEFSAII (Michael W. Deem and Ramdas Pophale) SiO2 
 PCOD9146062
Probable space group: P 2/M
;
_chemical_formula_sum "Si O2"
_cell_formula_units_Z 21
_cell_length_a 14.160464
_cell_length_b 11.934753
_cell_length_c 9.483668
_cell_angle_alpha 90.000000
_cell_angle_beta 149.472725
_cell_angle_gamma 90.000000
_cell_volume 814.117184
_symmetry_space_group_name_H-M "P 2/M"
_symmetry_group_IT_number 10
_symmetry_cell_setting 'monoclinic'
loop_
_space_group_symop_operation_xyz
x,y,z
-x,y,-z
-x,-y,-z
x,-y,z
loop_
_atom_site_type_symbol
_atom_site_label
_atom_site_fract_x
_atom_site_fract_y
_atom_site_fract_z
Si Si1 0.001252 0.131621 0.732518
Si Si2 0.812933 0.677453 0.333425
Si Si3 0.634312 0.718442 0.822952
Si Si4 0.753377 0.500000 0.810838
Si Si5 0.664172 0.879529 0.482215
Si Si6 0.194556 0.500000 0.440725
Si Si7 0.500000 0.000000 0.000000
O O1 0.875958 0.197916 0.458209
O O2 0.875745 0.144100 0.710808
O O3 0.014494 0.000000 0.716926
O O4 0.198563 0.192225 0.988512
O O5 0.766416 0.607285 0.411723
O O6 0.000000 0.628599 0.500000
O O7 0.659652 0.678457 0.017249
O O8 0.676526 0.610715 0.784978
O O9 0.560022 0.783230 0.431009
O O10 0.711628 0.500000 0.590736
O O11 0.974419 0.500000 0.123440
O O12 0.556436 0.905531 0.195007
O O13 0.660211 0.000000 0.554683
#
# Coordination Sequence:
#
# PCOD9146062 Si02
#       7
#     4   4   4   2   4   2   1
#     4  10  20  33  55  92 130 162 193 243 315 370
#     4  10  19  32  58  90 118 156 201 247 306 360
#     4  11  21  36  61  96 121 160 208 254 297 369
#     4  11  23  38  62  87 119 164 213 253 315 359
#     4   9  19  34  54  90 137 160 191 248 310 368
#     4  11  20  41  59  84 122 161 206 267 301 365
#     4   8  16  32  50  86 128 166 178 236 308 356
#
# _framework density 25.794809999999998
#
# number of rings (size 3 to 8) (size 9 to 14) (size 15 to 20)
#    0.571    1.333    3.810    2.571    0.000    3.429 
#    0.000    1.905    0.000    8.571    0.000    2.667 
#    0.000    0.000    0.000    0.000    0.000    0.000 
#
# Total GULP energy -117411.059630 kJ/mol
# GULP energy per Si atom -5591.002840 kJ/mol
# Density = 2.573610 g / cm^3
# Si number density = 25.794810 Si / 1000 Ang^3
#
#
#
# Elastic Constant Matrix: (Units=GPa)
#
#
# Indices 1 2 3 4 5 6 
#
# 1 126.2347 97.8031 45.3347 0.0000 -26.3728 0.0000
# 2 97.8031 204.8729 45.7359 0.0000 -35.1867 0.0000
# 3 45.3347 45.7359 116.8977 0.0000 -30.4813 0.0000
# 4 0.0000 0.0000 0.0000 -9.5479 0.0000 -13.0938
# 5 -26.3728 -35.1867 -30.4813 0.0000 34.0066 0.0000
# 6 0.0000 0.0000 0.0000 -13.0938 0.0000 21.6081
#
#
#
# Elastic Compliance Matrix: (Units=1/GPa)
#
#
# Indices 1 2 3 4 5 6 
#
# 1 0.013613 -0.005494 -0.002427 0.000000 0.002698 0.000000
# 2 -0.005494 0.008233 0.000026 0.000000 0.004282 0.000000
# 3 -0.002427 0.000026 0.011747 0.000000 0.008674 0.000000
# 4 0.000000 0.000000 0.000000 -0.057201 0.000000 -0.034662
# 5 0.002698 0.004282 0.008674 0.000000 0.043704 0.000000
# 6 0.000000 0.000000 0.000000 -0.034662 0.000000 0.025275
#
#
# Mechanical properties :
#
#
# Convention : Reuss Voigt Hill
#
# Bulk Modulus (GPa) = 56.16432 91.75030 73.95731
# Shear Modulus (GPa) = 74.52050 26.48880 50.50465
#
# Velocity S-wave (km/s) = 5.38075 3.20801 4.42966
# Velocity P-wave (km/s) = 7.77329 7.02626 7.40919
#
# Compressibility (1/GPa) = 0.01780490
#
# Stress axis : x y z
#
# Youngs Moduli (GPa) = 73.45831 121.45836 85.12579
#
# Poissons Ratio (x) = 0.66725 0.20656
# Poissons Ratio (y) = 0.40355 -0.00219
# Poissons Ratio (z) = 0.17825 -0.00312
#
# Static dielectric constant tensor:
#      x y z
#    x 2.042030 0.000000 -0.020700 
#    y 0.000000 1.969330 0.000000 
#    z -0.020700 0.000000 2.066100 
# 
# From -- ./inp_files/32326.got.cif
#   From: 2010.05.17/outbox.cif.g08.bks.cpg/sg10_17_cif.got.tgz:32326.got - 2010.06.03 11:33:40.
