data_PCOD9146104
_publ_section_title
;
Structure prediction by ZEFSAII (Michael W. Deem and Ramdas Pophale) SiO2 
 PCOD9146104
Probable space group: P 2/M
;
_chemical_formula_sum "Si O2"
_cell_formula_units_Z 24
_cell_length_a 12.644821
_cell_length_b 13.513889
_cell_length_c 12.636348
_cell_angle_alpha 90.000000
_cell_angle_beta 131.993405
_cell_angle_gamma 90.000000
_cell_volume 1604.844929
_symmetry_space_group_name_H-M "P 2/M"
_symmetry_group_IT_number 10
_symmetry_cell_setting 'monoclinic'
loop_
_space_group_symop_operation_xyz
x,y,z
-x,y,-z
-x,-y,-z
x,-y,z
loop_
_atom_site_type_symbol
_atom_site_label
_atom_site_fract_x
_atom_site_fract_y
_atom_site_fract_z
Si Si1 0.159197 0.699207 0.418227
Si Si2 0.334921 0.617509 0.101295
Si Si3 0.336500 0.617096 0.732962
Si Si4 0.339976 0.617900 0.354401
Si Si5 0.837794 0.712319 0.195288
Si Si6 0.010790 0.885232 0.379859
O O1 0.253141 0.648621 0.571393
O O2 0.228590 0.675242 0.352602
O O3 0.994830 0.663713 0.314112
O O4 0.141854 0.816434 0.430014
O O5 0.306930 0.500000 0.065665
O O6 0.496415 0.636759 0.171434
O O7 0.325522 0.637147 0.220117
O O8 0.228130 0.682090 0.960290
O O9 0.319946 0.500000 0.739215
O O10 0.267455 0.674277 0.784616
O O11 0.500000 0.641386 0.500000
O O12 0.319738 0.500000 0.358049
O O13 0.875945 0.827788 0.238771
O O14 0.000000 0.876160 0.500000
O O15 0.020656 0.000000 0.358823
#
# Coordination Sequence:
#
# PCOD9146104 Si02
#       6
#     4   4   4   4   4   4
#     4  10  19  33  53  79  97 136 175 219 248 296
#     4  10  21  33  49  73 111 152 171 195 247 308
#     4  11  19  31  49  76 112 144 166 200 252 309
#     4  10  19  33  51  73 106 147 179 200 237 304
#     4  10  20  33  49  81 103 132 172 216 264 298
#     4   9  18  36  57  77 101 129 171 221 274 310
#
# _framework density 14.954717
#
# number of rings (size 3 to 8) (size 9 to 14) (size 15 to 20)
#    1.000    1.000    3.333    2.000    0.000    5.333 
#    0.000    1.667    0.000    5.500    0.000    0.000 
#    0.000    0.000    0.000    0.000    0.000    0.000 
#
# Total GULP energy -133639.852697 kJ/mol
# GULP energy per Si atom -5568.327196 kJ/mol
# Density = 1.492068 g / cm^3
# Si number density = 14.954717 Si / 1000 Ang^3
#
#
#
# Elastic Constant Matrix: (Units=GPa)
#
#
# Indices 1 2 3 4 5 6 
#
# 1 52.7625 5.3866 -10.1053 0.0000 -12.3496 0.0000
# 2 5.3866 25.5113 1.7924 0.0000 -1.9346 0.0000
# 3 -10.1053 1.7924 67.5979 0.0000 -5.8709 0.0000
# 4 0.0000 0.0000 0.0000 2.8160 0.0000 -19.7617
# 5 -12.3496 -1.9346 -5.8709 0.0000 16.1293 0.0000
# 6 0.0000 0.0000 0.0000 -19.7617 0.0000 -2.0516
#
#
#
# Elastic Compliance Matrix: (Units=1/GPa)
#
#
# Indices 1 2 3 4 5 6 
#
# 1 0.025401 -0.004171 0.005735 0.000000 0.021035 0.000000
# 2 -0.004171 0.040271 -0.001600 0.000000 0.001055 0.000000
# 3 0.005735 -0.001600 0.016582 0.000000 0.010235 0.000000
# 4 0.000000 0.000000 0.000000 0.005177 0.000000 -0.049865
# 5 0.021035 0.001055 0.010235 0.000000 0.081957 0.000000
# 6 0.000000 0.000000 0.000000 -0.049865 0.000000 -0.007106
#
#
# Mechanical properties :
#
#
# Convention : Reuss Voigt Hill
#
# Bulk Modulus (GPa) = 12.16816 15.55770 13.86293
# Shear Modulus (GPa) = 26.35076 13.29859 19.82468
#
# Velocity S-wave (km/s) = 4.20222 2.98528 3.64489
# Velocity P-wave (km/s) = 5.63020 4.72317 5.19651
#
# Compressibility (1/GPa) = 0.08218169
#
# Stress axis : x y z
#
# Youngs Moduli (GPa) = 39.36925 24.83151 60.30668
#
# Poissons Ratio (x) = 0.10357 -0.34584
# Poissons Ratio (y) = 0.16421 0.09648
# Poissons Ratio (z) = -0.22577 0.03972
#
# Static dielectric constant tensor:
#      x y z
#    x 1.490500 0.000000 0.000290 
#    y 0.000000 1.480250 0.000000 
#    z 0.000290 0.000000 1.497530 
# 
# From -- ./inp_files/42312.got.cif
#   From: 2010.05.17/outbox.cif.g08.bks.cpg/sg10_22_cif.got.tgz:42312.got - 2010.06.03 11:33:40.
