data_PCOD9146393
_publ_section_title
;
Structure prediction by ZEFSAII (Michael W. Deem and Ramdas Pophale) SiO2 
 PCOD9146393
Probable space group: P 2/M
;
_chemical_formula_sum "Si O2"
_cell_formula_units_Z 30
_cell_length_a 15.174226
_cell_length_b 20.451868
_cell_length_c 15.223237
_cell_angle_alpha 90.000000
_cell_angle_beta 19.408532
_cell_angle_gamma 90.000000
_cell_volume 1569.925163
_symmetry_space_group_name_H-M "P 2/M"
_symmetry_group_IT_number 10
_symmetry_cell_setting 'monoclinic'
loop_
_space_group_symop_operation_xyz
x,y,z
-x,y,-z
-x,-y,-z
x,-y,z
loop_
_atom_site_type_symbol
_atom_site_label
_atom_site_fract_x
_atom_site_fract_y
_atom_site_fract_z
Si Si1 0.299657 0.321445 0.910447
Si Si2 0.862453 0.104513 0.364963
Si Si3 0.035840 0.169310 0.566173
Si Si4 0.464573 0.738585 0.931920
Si Si5 0.715717 0.578369 0.225055
Si Si6 0.702108 0.929549 0.178383
Si Si7 0.000000 0.816423 0.000000
Si Si8 0.229223 0.248336 0.619877
O O1 0.398985 0.314109 0.917564
O O2 0.326556 0.387450 0.828989
O O3 0.480999 0.270418 0.683646
O O4 0.991425 0.301512 0.198344
O O5 0.892947 0.107973 0.440014
O O6 0.848826 0.181529 0.355151
O O7 0.109743 0.073870 0.083230
O O8 0.596619 0.076352 0.573586
O O9 0.270271 0.223036 0.344499
O O10 0.000000 0.148212 0.500000
O O11 0.770712 0.207524 0.845648
O O12 0.500000 0.714975 0.000000
O O13 0.500000 0.599899 0.500000
O O14 0.699570 0.500000 0.230962
O O15 0.000000 0.595023 0.000000
O O16 0.736363 0.000000 0.191653
O O17 0.794807 0.867169 0.147356
O O18 0.829501 0.770938 0.224602
#
# Coordination Sequence:
#
# PCOD9146393 Si02
#       8
#     4   4   4   4   4   4   2   4
#     4  12  21  36  56  85 117 150 186 233 285 335
#     4  11  20  38  56  80 110 138 180 236 269 337
#     4  10  19  33  55  82 113 145 171 218 289 353
#     4  10  19  33  54  84 118 146 181 225 286 358
#     4  10  23  41  57  80 114 163 208 235 266 322
#     4  11  24  40  59  74 103 151 190 223 272 332
#     4  10  25  40  54  82 115 144 180 238 276 346
#     4  11  23  34  55  83 116 142 176 228 292 333
#
# _framework density 19.109190000000002
#
# number of rings (size 3 to 8) (size 9 to 14) (size 15 to 20)
#    0.000    1.333    2.667    3.800    2.800    4.267 
#    0.000    3.333    0.000    2.800    0.000    0.000 
#    0.000    8.533    0.000    0.000    0.000    1.333 
#
# Total GULP energy -167541.904100 kJ/mol
# GULP energy per Si atom -5584.730137 kJ/mol
# Density = 1.906570 g / cm^3
# Si number density = 19.109190 Si / 1000 Ang^3
#
#
#
# Elastic Constant Matrix: (Units=GPa)
#
#
# Indices 1 2 3 4 5 6 
#
# 1 117.5979 18.6092 2.5512 0.0000 12.9285 0.0000
# 2 18.6092 38.8526 -4.7838 0.0000 5.5146 0.0000
# 3 2.5512 -4.7838 62.8537 0.0000 6.7275 0.0000
# 4 0.0000 0.0000 0.0000 48.4316 0.0000 48.8472
# 5 12.9285 5.5146 6.7275 0.0000 18.8457 0.0000
# 6 0.0000 0.0000 0.0000 48.8472 0.0000 75.5534
#
#
#
# Elastic Compliance Matrix: (Units=1/GPa)
#
#
# Indices 1 2 3 4 5 6 
#
# 1 0.009726 -0.003891 -0.000103 0.000000 -0.005497 0.000000
# 2 -0.003891 0.028965 0.003103 0.000000 -0.006914 0.000000
# 3 -0.000103 0.003103 0.016885 0.000000 -0.006865 0.000000
# 4 0.000000 0.000000 0.000000 0.059345 0.000000 -0.038368
# 5 -0.005497 -0.006914 -0.006865 0.000000 0.061307 0.000000
# 6 0.000000 0.000000 0.000000 -0.038368 0.000000 0.038042
#
#
# Mechanical properties :
#
#
# Convention : Reuss Voigt Hill
#
# Bulk Modulus (GPa) = 18.58927 28.00637 23.29782
# Shear Modulus (GPa) = 21.36906 42.09465 31.73186
#
# Velocity S-wave (km/s) = 3.34767 4.69854 4.07941
# Velocity P-wave (km/s) = 4.96906 6.64250 5.86577
#
# Compressibility (1/GPa) = 0.05379448
#
# Stress axis : x y z
#
# Youngs Moduli (GPa) = 102.81931 34.52420 59.22402
#
# Poissons Ratio (x) = 0.13433 0.00607
# Poissons Ratio (y) = 0.40004 -0.18374
# Poissons Ratio (z) = 0.01054 -0.10711
#
# Static dielectric constant tensor:
#      x y z
#    x 1.753270 0.000000 0.016820 
#    y 0.000000 1.632290 0.000000 
#    z 0.016820 0.000000 1.668600 
# 
# From -- ./inp_files/67864.got.cif
#   From: 2010.05.17/outbox.cif.g08.bks.cpg/sg10_34_cif.got.tgz:67864.got - 2010.06.03 11:33:40.
