data_PCOD9146615
_publ_section_title
;
Structure prediction by ZEFSAII (Michael W. Deem and Ramdas Pophale) SiO2 
 PCOD9146615
Probable space group: P 2/M
;
_chemical_formula_sum "Si O2"
_cell_formula_units_Z 28
_cell_length_a 10.016004
_cell_length_b 8.643958
_cell_length_c 28.756082
_cell_angle_alpha 90.000000
_cell_angle_beta 37.986343
_cell_angle_gamma 90.000000
_cell_volume 1532.308813
_symmetry_space_group_name_H-M "P 2/M"
_symmetry_group_IT_number 10
_symmetry_cell_setting 'monoclinic'
loop_
_space_group_symop_operation_xyz
x,y,z
-x,y,-z
-x,-y,-z
x,-y,z
loop_
_atom_site_type_symbol
_atom_site_label
_atom_site_fract_x
_atom_site_fract_y
_atom_site_fract_z
Si Si1 0.258059 0.316902 0.051690
Si Si2 0.957883 0.184476 0.803129
Si Si3 0.970529 0.187216 0.361054
Si Si4 0.646645 0.187565 0.368778
Si Si5 0.849207 0.810873 0.498479
Si Si6 0.763062 0.821883 0.043124
Si Si7 0.659008 0.683673 0.804827
O O1 0.240374 0.500000 0.064119
O O2 0.086915 0.232754 0.132005
O O3 0.500000 0.266783 0.000000
O O4 0.234019 0.276127 0.004675
O O5 0.779173 0.265863 0.819581
O O6 0.191008 0.229605 0.717736
O O7 0.935253 0.000000 0.803917
O O8 0.187133 0.253227 0.278222
O O9 0.768614 0.234676 0.383081
O O10 0.937682 0.234222 0.423358
O O11 0.980611 0.000000 0.356468
O O12 0.401121 0.242246 0.429893
O O13 0.636815 0.000000 0.372926
O O14 0.000000 0.759957 0.500000
O O15 0.847642 0.000000 0.499876
O O16 0.578246 0.757719 0.127945
O O17 0.709898 0.000000 0.046219
O O18 0.000000 0.815972 0.000000
O O19 0.644404 0.500000 0.806759
#
# Coordination Sequence:
#
# PCOD9146615 Si02
#       7
#     4   4   4   4   4   4   4
#     4  11  22  36  58  86 115 149 185 225 278 336
#     4  10  19  33  56  83 111 143 185 235 278 318
#     4   9  17  31  53  78 103 138 178 219 268 322
#     4   8  15  28  48  75 105 136 174 221 270 317
#     4   9  16  28  49  78 108 135 171 222 273 319
#     4  11  24  41  60  83 110 145 190 235 277 325
#     4  11  21  35  56  81 111 144 182 227 278 332
#
# _framework density 18.273081000000001
#
# number of rings (size 3 to 8) (size 9 to 14) (size 15 to 20)
#    0.000    2.143    1.429    3.857    0.000    3.429 
#    2.571    0.000    0.000    8.143    0.000    0.000 
#    0.000    0.000    0.000    0.000    0.000    0.000 
#
# Total GULP energy -156250.942672 kJ/mol
# GULP energy per Si atom -5580.390810 kJ/mol
# Density = 1.823149 g / cm^3
# Si number density = 18.273081 Si / 1000 Ang^3
#
#
#
# Elastic Constant Matrix: (Units=GPa)
#
#
# Indices 1 2 3 4 5 6 
#
# 1 79.3864 7.2681 67.7486 0.0000 -2.5137 0.0000
# 2 7.2681 21.3258 19.0205 0.0000 -7.0293 0.0000
# 3 67.7486 19.0205 142.9047 0.0000 -6.7498 0.0000
# 4 0.0000 0.0000 0.0000 2.3779 0.0000 9.5535
# 5 -2.5137 -7.0293 -6.7498 0.0000 25.5161 0.0000
# 6 0.0000 0.0000 0.0000 9.5535 0.0000 3.1882
#
#
#
# Elastic Compliance Matrix: (Units=1/GPa)
#
#
# Indices 1 2 3 4 5 6 
#
# 1 0.021229 0.001941 -0.010328 0.000000 -0.000106 0.000000
# 2 0.001941 0.057973 -0.007973 0.000000 0.014053 0.000000
# 3 -0.010328 -0.007973 0.012965 0.000000 0.000216 0.000000
# 4 0.000000 0.000000 0.000000 -0.038096 0.000000 0.114156
# 5 -0.000106 0.014053 0.000216 0.000000 0.043109 0.000000
# 6 0.000000 0.000000 0.000000 0.114156 0.000000 -0.028414
#
#
# Mechanical properties :
#
#
# Convention : Reuss Voigt Hill
#
# Bulk Modulus (GPa) = 16.82115 47.96573 32.39344
# Shear Modulus (GPa) = 41.21973 16.18842 28.70407
#
# Velocity S-wave (km/s) = 4.75464 2.97966 3.96768
# Velocity P-wave (km/s) = 6.27436 6.17610 6.22542
#
# Compressibility (1/GPa) = 0.05944895
#
# Stress axis : x y z
#
# Youngs Moduli (GPa) = 47.10461 17.24944 77.12904
#
# Poissons Ratio (x) = -0.03349 0.79658
# Poissons Ratio (y) = -0.09144 0.61493
# Poissons Ratio (z) = 0.48649 0.13752
#
# Static dielectric constant tensor:
#      x y z
#    x 1.611360 0.000000 -0.003560 
#    y 0.000000 1.614450 0.000000 
#    z -0.003560 0.000000 1.630540 
# 
# From -- ./inp_files/37033.got.cif
#   From: 2010.05.17/outbox.cif.g08.bks.cpg/sg10_19_cif.got.tgz:37033.got - 2010.06.03 11:33:40.
