data_PCOD9146795
_publ_section_title
;
Structure prediction by ZEFSAII (Michael W. Deem and Ramdas Pophale) SiO2 
 PCOD9146795
Probable space group: P 2/M
;
_chemical_formula_sum "Si O2"
_cell_formula_units_Z 28
_cell_length_a 14.587971
_cell_length_b 8.561025
_cell_length_c 18.279086
_cell_angle_alpha 90.000000
_cell_angle_beta 43.044685
_cell_angle_gamma 90.000000
_cell_volume 1558.193533
_symmetry_space_group_name_H-M "P 2/M"
_symmetry_group_IT_number 10
_symmetry_cell_setting 'monoclinic'
loop_
_space_group_symop_operation_xyz
x,y,z
-x,y,-z
-x,-y,-z
x,-y,z
loop_
_atom_site_type_symbol
_atom_site_label
_atom_site_fract_x
_atom_site_fract_y
_atom_site_fract_z
Si Si1 0.315750 0.311263 0.235622
Si Si2 0.823050 0.690860 0.834483
Si Si3 0.645073 0.811195 0.382939
Si Si4 0.416726 0.811888 0.742210
Si Si5 0.375470 0.688268 0.922195
Si Si6 0.872052 0.313127 0.358472
Si Si7 0.272094 0.186801 0.417353
O O1 0.311749 0.500000 0.241319
O O2 0.243341 0.260843 0.203628
O O3 0.472792 0.263271 0.144387
O O4 0.250266 0.245304 0.347653
O O5 0.821151 0.500000 0.836243
O O6 0.977405 0.741244 0.747819
O O7 0.732327 0.743380 0.955518
O O8 0.500000 0.764468 0.500000
O O9 0.648590 0.761452 0.296080
O O10 0.763993 0.747004 0.363093
O O11 0.650047 0.000000 0.382697
O O12 0.351854 0.746593 0.853754
O O13 0.574551 0.765638 0.651147
O O14 0.413403 0.000000 0.746826
O O15 0.373879 0.500000 0.922857
O O16 0.871130 0.500000 0.358739
O O17 0.827089 0.255755 0.464699
O O18 0.265613 0.000000 0.423589
#
# Coordination Sequence:
#
# PCOD9146795 Si02
#       7
#     4   4   4   4   4   4   4
#     4   9  17  32  56  80 100 132 179 219 252 300
#     4   9  19  35  52  74 108 142 169 210 264 304
#     4  10  19  36  57  76 101 137 170 208 263 310
#     4   9  18  33  54  77 102 131 165 211 265 306
#     4   9  17  32  56  80 101 132 176 216 252 298
#     4  11  22  34  51  77 107 138 173 211 254 309
#     4  10  19  34  52  75 107 138 169 212 264 309
#
# _framework density 17.969526999999999
#
# number of rings (size 3 to 8) (size 9 to 14) (size 15 to 20)
#    0.000    2.429    1.429    1.286    0.000    3.714 
#    0.000    7.143    0.000    7.714    0.000    0.000 
#    0.000    0.000    0.000    0.000    0.000    0.000 
#
# Total GULP energy -156228.458054 kJ/mol
# GULP energy per Si atom -5579.587788 kJ/mol
# Density = 1.792863 g / cm^3
# Si number density = 17.969527 Si / 1000 Ang^3
#
#
#
# Elastic Constant Matrix: (Units=GPa)
#
#
# Indices 1 2 3 4 5 6 
#
# 1 132.8828 25.7606 114.0353 0.0000 18.6361 0.0000
# 2 25.7606 11.7975 23.1943 0.0000 2.2033 0.0000
# 3 114.0353 23.1943 120.3261 0.0000 9.3962 0.0000
# 4 0.0000 0.0000 0.0000 -24.7612 0.0000 -26.1177
# 5 18.6361 2.2033 9.3962 0.0000 23.0937 0.0000
# 6 0.0000 0.0000 0.0000 -26.1177 0.0000 -4.8567
#
#
#
# Elastic Compliance Matrix: (Units=1/GPa)
#
#
# Indices 1 2 3 4 5 6 
#
# 1 0.053203 -0.026227 -0.043594 0.000000 -0.022694 0.000000
# 2 -0.026227 0.149547 -0.004658 0.000000 0.008792 0.000000
# 3 -0.043594 -0.004658 0.049308 0.000000 0.015562 0.000000
# 4 0.000000 0.000000 0.000000 0.008644 0.000000 -0.046483
# 5 -0.022694 0.008792 0.015562 0.000000 0.054445 0.000000
# 6 0.000000 0.000000 0.000000 -0.046483 0.000000 0.044069
#
#
# Mechanical properties :
#
#
# Convention : Reuss Voigt Hill
#
# Bulk Modulus (GPa) = 9.69921 65.66521 37.68221
# Shear Modulus (GPa) = 9.21588 5.49625 7.35607
#
# Velocity S-wave (km/s) = 2.26710 1.75080 2.02547
# Velocity P-wave (km/s) = 3.50176 6.38035 5.14642
#
# Compressibility (1/GPa) = 0.10310115
#
# Stress axis : x y z
#
# Youngs Moduli (GPa) = 18.79577 6.68685 20.28049
#
# Poissons Ratio (x) = 0.17537 0.88411
# Poissons Ratio (y) = 0.49295 0.09447
# Poissons Ratio (z) = 0.81939 0.03115
#
# Static dielectric constant tensor:
#      x y z
#    x 1.601670 0.000000 0.001060 
#    y 0.000000 1.615190 0.000000 
#    z 0.001060 0.000000 1.604020 
# 
# From -- ./inp_files/48737.got.cif
#   From: 2010.05.17/outbox.cif.g08.bks.cpg/sg10_25_cif.got.tgz:48737.got - 2010.06.03 11:33:40.
