data_PCOD9146753
_publ_section_title
;
Structure prediction by ZEFSAII (Michael W. Deem and Ramdas Pophale) SiO2 
 PCOD9146753
Probable space group: P 2/M
;
_chemical_formula_sum "Si O2"
_cell_formula_units_Z 32
_cell_length_a 25.002652
_cell_length_b 14.898985
_cell_length_c 8.963052
_cell_angle_alpha 90.000000
_cell_angle_beta 150.637204
_cell_angle_gamma 90.000000
_cell_volume 1637.171500
_symmetry_space_group_name_H-M "P 2/M"
_symmetry_group_IT_number 10
_symmetry_cell_setting 'monoclinic'
loop_
_space_group_symop_operation_xyz
x,y,z
-x,y,-z
-x,-y,-z
x,-y,z
loop_
_atom_site_type_symbol
_atom_site_label
_atom_site_fract_x
_atom_site_fract_y
_atom_site_fract_z
Si Si1 0.322766 0.671943 0.869426
Si Si2 0.778742 0.902623 0.652671
Si Si3 0.442252 0.843239 0.018899
Si Si4 0.665137 0.098433 0.698309
Si Si5 0.299716 0.297498 0.154145
Si Si6 0.892123 0.395249 0.137063
Si Si7 0.891189 0.282913 0.833734
Si Si8 0.523749 0.401247 0.229811
O O1 0.208729 0.676968 0.506036
O O2 0.391063 0.760663 0.985778
O O3 0.306778 0.664225 0.005974
O O4 0.405684 0.596674 0.017655
O O5 0.737344 0.897921 0.722835
O O6 0.850728 0.816072 0.787882
O O7 0.831983 0.000000 0.757495
O O8 0.665357 0.898694 0.285231
O O9 0.538020 0.891464 0.342968
O O10 0.500000 0.819085 0.000000
O O11 0.697004 0.189907 0.857967
O O12 0.681802 0.000000 0.809097
O O13 0.400100 0.330266 0.501084
O O14 0.196683 0.336578 0.990455
O O15 0.859376 0.500000 0.038104
O O16 0.000000 0.394277 0.500000
O O17 0.909192 0.346592 0.020216
O O18 0.000000 0.276677 0.000000
O O19 0.575868 0.500000 0.364849
O O20 0.500000 0.379972 0.000000
#
# Coordination Sequence:
#
# PCOD9146753 Si02
#       8
#     4   4   4   4   4   4   4   4
#     4  11  23  37  60  89 130 165 204 250 312 366
#     4   9  18  34  59  91 125 163 209 252 301 362
#     4   9  17  32  55  87 126 170 210 248 294 356
#     4  10  19  33  59  90 126 169 209 249 298 360
#     4  12  23  40  62  93 129 164 205 255 306 369
#     4  11  25  46  70  92 118 158 206 259 316 370
#     4  11  23  42  66  94 122 160 204 258 310 370
#     4  11  24  40  62  90 123 164 206 252 312 376
#
# _framework density 19.545907
#
# number of rings (size 3 to 8) (size 9 to 14) (size 15 to 20)
#    0.000    1.500    2.500    3.000    1.750    5.000 
#    0.000    3.750    0.000    3.000    0.000    0.000 
#    0.000    0.000    0.000    0.000    0.000    0.000 
#
# Total GULP energy -178579.725740 kJ/mol
# GULP energy per Si atom -5580.616429 kJ/mol
# Density = 1.950142 g / cm^3
# Si number density = 19.545907 Si / 1000 Ang^3
#
#
#
# Elastic Constant Matrix: (Units=GPa)
#
#
# Indices 1 2 3 4 5 6 
#
# 1 104.1159 28.7370 45.5874 0.0000 -0.0056 0.0000
# 2 28.7370 125.7142 35.3120 0.0000 2.6257 0.0000
# 3 45.5874 35.3120 87.2433 0.0000 11.2729 0.0000
# 4 0.0000 0.0000 0.0000 15.2855 0.0000 1.7103
# 5 -0.0056 2.6257 11.2729 0.0000 31.8443 0.0000
# 6 0.0000 0.0000 0.0000 1.7103 0.0000 22.4751
#
#
#
# Elastic Compliance Matrix: (Units=1/GPa)
#
#
# Indices 1 2 3 4 5 6 
#
# 1 0.012776 -0.001138 -0.006527 0.000000 0.002406 0.000000
# 2 -0.001138 0.009086 -0.003130 0.000000 0.000358 0.000000
# 3 -0.006527 -0.003130 0.016878 0.000000 -0.005718 0.000000
# 4 0.000000 0.000000 0.000000 0.065983 0.000000 -0.005021
# 5 0.002406 0.000358 -0.005718 0.000000 0.033398 0.000000
# 6 0.000000 0.000000 0.000000 -0.005021 0.000000 0.044876
#
#
# Mechanical properties :
#
#
# Convention : Reuss Voigt Hill
#
# Bulk Modulus (GPa) = 58.29802 59.59402 58.94602
# Shear Modulus (GPa) = 23.77523 27.75012 25.76267
#
# Velocity S-wave (km/s) = 3.49145 3.77203 3.63445
# Velocity P-wave (km/s) = 6.79298 7.03750 6.91632
#
# Compressibility (1/GPa) = 0.01715324
#
# Stress axis : x y z
#
# Youngs Moduli (GPa) = 78.26870 110.05744 59.24834
#
# Poissons Ratio (x) = 0.12520 0.38669
# Poissons Ratio (y) = 0.08904 0.18542
# Poissons Ratio (z) = 0.51083 0.34443
#
# Static dielectric constant tensor:
#      x y z
#    x 1.372650 0.000000 0.207110 
#    y 0.000000 1.741510 0.000000 
#    z 0.207110 0.000000 1.515510 
# 
# From -- ./inp_files/36404.got.cif
#   From: 2010.05.17/outbox.cif.g08.bks.cpg/sg10_19_cif.got.tgz:36404.got - 2010.06.03 11:33:40.
