data_PCOD9146199
_publ_section_title
;
Structure prediction by ZEFSAII (Michael W. Deem and Ramdas Pophale) SiO2 
 PCOD9146199
Probable space group: P 2/M
;
_chemical_formula_sum "Si O2"
_cell_formula_units_Z 28
_cell_length_a 23.847909
_cell_length_b 8.817327
_cell_length_c 19.241778
_cell_angle_alpha 90.000000
_cell_angle_beta 23.654923
_cell_angle_gamma 90.000000
_cell_volume 1623.390077
_symmetry_space_group_name_H-M "P 2/M"
_symmetry_group_IT_number 10
_symmetry_cell_setting 'monoclinic'
loop_
_space_group_symop_operation_xyz
x,y,z
-x,y,-z
-x,-y,-z
x,-y,z
loop_
_atom_site_type_symbol
_atom_site_label
_atom_site_fract_x
_atom_site_fract_y
_atom_site_fract_z
Si Si1 0.987929 0.682332 0.737927
Si Si2 0.711643 0.817886 0.567441
Si Si3 0.581167 0.182323 0.567794
Si Si4 0.264429 0.181189 0.888165
Si Si5 0.936636 0.684015 0.499915
Si Si6 0.373235 0.316862 0.193986
Si Si7 0.335411 0.674417 0.666321
O O1 0.992408 0.500000 0.736144
O O2 0.133658 0.747621 0.601653
O O3 0.983461 0.728338 0.661423
O O4 0.857373 0.744233 0.928723
O O5 0.639812 0.774192 0.576356
O O6 0.625707 0.757336 0.731311
O O7 0.720847 0.000000 0.559972
O O8 0.418217 0.225523 0.742635
O O9 0.669004 0.253955 0.405023
O O10 0.588065 0.000000 0.553440
O O11 0.259026 0.235293 0.814283
O O12 0.253265 0.000000 0.903913
O O13 0.940796 0.500000 0.497702
O O14 0.774936 0.726113 0.672431
O O15 0.000000 0.741861 0.500000
O O16 0.374745 0.500000 0.200414
O O17 0.500000 0.273521 0.000000
O O18 0.500000 0.678918 0.500000
O O19 0.290068 0.500000 0.717214
#
# Coordination Sequence:
#
# PCOD9146199 Si02
#       7
#     4   4   4   4   4   4   4
#     4  10  20  34  52  75 103 133 168 209 252 299
#     4  10  20  35  53  73 102 138 171 204 248 301
#     4   9  19  34  52  75 102 134 170 206 248 299
#     4  10  19  33  53  75 102 134 167 205 250 300
#     4   8  15  29  48  69  94 125 160 200 246 292
#     4   9  18  32  50  72  98 129 166 207 250 295
#     4   9  17  30  50  76 103 130 164 207 252 295
#
# _framework density 17.247857
#
# number of rings (size 3 to 8) (size 9 to 14) (size 15 to 20)
#    0.000    2.714    0.000    2.571    0.000    4.857 
#    0.000    2.143    0.000   15.000    0.000    0.000 
#    0.000    0.000    0.000    0.000    0.000    0.000 
#
# Total GULP energy -156101.589295 kJ/mol
# GULP energy per Si atom -5575.056761 kJ/mol
# Density = 1.720860 g / cm^3
# Si number density = 17.247857 Si / 1000 Ang^3
#
#
#
# Elastic Constant Matrix: (Units=GPa)
#
#
# Indices 1 2 3 4 5 6 
#
# 1 145.9678 44.6154 83.0648 0.0000 36.8082 0.0000
# 2 44.6154 45.3667 49.3307 0.0000 11.2365 0.0000
# 3 83.0648 49.3307 156.5773 0.0000 29.8289 0.0000
# 4 0.0000 0.0000 0.0000 21.9923 0.0000 4.3374
# 5 36.8082 11.2365 29.8289 0.0000 18.4603 0.0000
# 6 0.0000 0.0000 0.0000 4.3374 0.0000 23.1282
#
#
#
# Elastic Compliance Matrix: (Units=1/GPa)
#
#
# Indices 1 2 3 4 5 6 
#
# 1 0.016837 -0.008787 -0.001137 0.000000 -0.026386 0.000000
# 2 -0.008787 0.038414 -0.009137 0.000000 0.008902 0.000000
# 3 -0.001137 -0.009137 0.012103 0.000000 -0.011727 0.000000
# 4 0.000000 0.000000 0.000000 0.047217 0.000000 -0.008855
# 5 -0.026386 0.008902 -0.011727 0.000000 0.120313 0.000000
# 6 0.000000 0.000000 0.000000 -0.008855 0.000000 0.044898
#
#
# Mechanical properties :
#
#
# Convention : Reuss Voigt Hill
#
# Bulk Modulus (GPa) = 34.20858 77.99264 56.10061
# Shear Modulus (GPa) = 15.26027 24.10955 19.68491
#
# Velocity S-wave (km/s) = 2.97772 3.74281 3.38197
# Velocity P-wave (km/s) = 5.63019 7.99969 6.91716
#
# Compressibility (1/GPa) = 0.02923243
#
# Stress axis : x y z
#
# Youngs Moduli (GPa) = 59.39162 26.03184 82.62586
#
# Poissons Ratio (x) = 0.22873 0.09397
# Poissons Ratio (y) = 0.52185 0.75498
# Poissons Ratio (z) = 0.06755 0.23786
#
# Static dielectric constant tensor:
#      x y z
#    x 1.580620 0.000000 0.003910 
#    y 0.000000 1.579790 0.000000 
#    z 0.003910 0.000000 1.563810 
# 
# From -- ./inp_files/37900.got.cif
#   From: 2010.05.17/outbox.cif.g08.bks.cpg/sg10_19_cif.got.tgz:37900.got - 2010.06.03 11:33:40.
