data_PCOD9146739
_publ_section_title
;
Structure prediction by ZEFSAII (Michael W. Deem and Ramdas Pophale) SiO2 
 PCOD9146739
Probable space group: P 2/M
;
_chemical_formula_sum "Si O2"
_cell_formula_units_Z 28
_cell_length_a 9.152648
_cell_length_b 14.183913
_cell_length_c 21.519201
_cell_angle_alpha 90.000000
_cell_angle_beta 29.227778
_cell_angle_gamma 90.000000
_cell_volume 1364.081742
_symmetry_space_group_name_H-M "P 2/M"
_symmetry_group_IT_number 10
_symmetry_cell_setting 'monoclinic'
loop_
_space_group_symop_operation_xyz
x,y,z
-x,y,-z
-x,-y,-z
x,-y,z
loop_
_atom_site_type_symbol
_atom_site_label
_atom_site_fract_x
_atom_site_fract_y
_atom_site_fract_z
Si Si1 0.385608 0.394979 0.941259
Si Si2 0.750370 0.394403 0.231174
Si Si3 0.190989 0.789509 0.725723
Si Si4 0.659252 0.186183 0.001971
Si Si5 0.110647 0.205690 0.528546
Si Si6 0.762963 0.608661 0.674327
Si Si7 0.160451 0.890774 0.254838
O O1 0.473137 0.500000 0.933842
O O2 0.444347 0.295788 0.953504
O O3 0.548428 0.387139 0.814546
O O4 0.023142 0.394830 0.079893
O O5 0.721164 0.500000 0.265700
O O6 0.823319 0.323322 0.259455
O O7 0.450321 0.368618 0.305373
O O8 0.537645 0.813540 0.596876
O O9 0.027848 0.829260 0.725516
O O10 0.006852 0.821654 0.855817
O O11 0.509845 0.133815 0.114633
O O12 0.500000 0.145213 0.000000
O O13 0.000000 0.190320 0.500000
O O14 0.019415 0.313071 0.581427
O O15 0.940797 0.139436 0.639870
O O16 0.867175 0.500000 0.629806
O O17 0.105000 0.000000 0.263321
#
# Coordination Sequence:
#
# PCOD9146739 Si02
#       7
#     4   4   4   4   4   4   4
#     4   9  16  29  53  89 126 165 209 249 297 361
#     4   9  17  32  57  93 132 167 205 249 297 358
#     4  10  22  39  64  96 127 164 205 251 308 368
#     4   9  19  37  62  92 119 159 207 257 307 367
#     4  12  24  41  63  96 128 167 205 256 304 368
#     4  10  19  33  58  89 129 175 210 241 296 362
#     4  11  25  47  70  89 117 158 209 266 324 378
#
# _framework density 20.526627999999999
#
# number of rings (size 3 to 8) (size 9 to 14) (size 15 to 20)
#    0.000    2.000    2.857    0.857    0.000    6.857 
#    0.000    3.571    0.000    2.571    0.000    0.000 
#    0.000    0.000    0.000    0.000    0.000    0.000 
#
# Total GULP energy -156082.268153 kJ/mol
# GULP energy per Si atom -5574.366720 kJ/mol
# Density = 2.047991 g / cm^3
# Si number density = 20.526628 Si / 1000 Ang^3
#
#
#
# Elastic Constant Matrix: (Units=GPa)
#
#
# Indices 1 2 3 4 5 6 
#
# 1 34.3738 28.0687 19.0212 0.0000 14.2656 0.0000
# 2 28.0687 70.5446 35.6603 0.0000 7.1936 0.0000
# 3 19.0212 35.6603 121.3896 0.0000 10.4908 0.0000
# 4 0.0000 0.0000 0.0000 -14.2909 0.0000 6.9629
# 5 14.2656 7.1936 10.4908 0.0000 28.7464 0.0000
# 6 0.0000 0.0000 0.0000 6.9629 0.0000 12.9651
#
#
#
# Elastic Compliance Matrix: (Units=1/GPa)
#
#
# Indices 1 2 3 4 5 6 
#
# 1 0.053988 -0.018719 -0.001084 0.000000 -0.021712 0.000000
# 2 -0.018719 0.023308 -0.004350 0.000000 0.005044 0.000000
# 3 -0.001084 -0.004350 0.009856 0.000000 -0.001970 0.000000
# 4 0.000000 0.000000 0.000000 -0.055462 0.000000 0.029786
# 5 -0.021712 0.005044 -0.001970 0.000000 0.045018 0.000000
# 6 0.000000 0.000000 0.000000 0.029786 0.000000 0.061134
#
#
# Mechanical properties :
#
#
# Convention : Reuss Voigt Hill
#
# Bulk Modulus (GPa) = 25.74287 43.53428 34.63857
# Shear Modulus (GPa) = 25.11342 15.05463 20.08403
#
# Velocity S-wave (km/s) = 3.50159 2.71111 3.13139
# Velocity P-wave (km/s) = 5.37741 5.57269 5.47592
#
# Compressibility (1/GPa) = 0.03884571
#
# Stress axis : x y z
#
# Youngs Moduli (GPa) = 18.52263 42.90381 101.46139
#
# Poissons Ratio (x) = 0.80312 0.11001
# Poissons Ratio (y) = 0.34672 0.44134
# Poissons Ratio (z) = 0.02008 0.18663
#
# Static dielectric constant tensor:
#      x y z
#    x 1.703570 0.000000 -0.000170 
#    y 0.000000 1.751300 0.000000 
#    z -0.000170 0.000000 1.784800 
# 
# From -- ./inp_files/82891.got.cif
#   From: 2010.05.17/outbox.cif.g08.bks.cpg/sg10_42_cif.got.tgz:82891.got - 2010.06.03 11:33:40.
