data_PCOD9146111
_publ_section_title
;
Structure prediction by ZEFSAII (Michael W. Deem and Ramdas Pophale) SiO2 
 PCOD9146111
Probable space group: P 2/M
;
_chemical_formula_sum "Si O2"
_cell_formula_units_Z 26
_cell_length_a 9.417777
_cell_length_b 14.177784
_cell_length_c 12.046429
_cell_angle_alpha 90.000000
_cell_angle_beta 57.341489
_cell_angle_gamma 90.000000
_cell_volume 1354.180329
_symmetry_space_group_name_H-M "P 2/M"
_symmetry_group_IT_number 10
_symmetry_cell_setting 'monoclinic'
loop_
_space_group_symop_operation_xyz
x,y,z
-x,y,-z
-x,-y,-z
x,-y,z
loop_
_atom_site_type_symbol
_atom_site_label
_atom_site_fract_x
_atom_site_fract_y
_atom_site_fract_z
Si Si1 0.637002 0.856215 0.727450
Si Si2 0.000000 0.182827 0.500000
Si Si3 0.256333 0.104300 0.073307
Si Si4 0.947644 0.224456 0.270395
Si Si5 0.889654 0.604865 0.936684
Si Si6 0.368351 0.895454 0.655807
Si Si7 0.568798 0.285194 0.092394
O O1 0.823111 0.870674 0.598581
O O2 0.645108 0.894149 0.850146
O O3 0.490700 0.893407 0.710627
O O4 0.587178 0.744965 0.764704
O O5 0.039939 0.233994 0.600888
O O6 0.070685 0.138172 0.185226
O O7 0.260303 0.000000 0.023711
O O8 0.325996 0.187560 0.966943
O O9 0.766743 0.189018 0.300880
O O10 0.028262 0.316892 0.179106
O O11 0.883923 0.500000 0.889113
O O12 0.705208 0.636131 0.057948
O O13 0.000000 0.603131 0.000000
O O14 0.500000 0.886701 0.500000
O O15 0.287142 0.000000 0.683787
O O16 0.500000 0.307978 0.000000
#
# Coordination Sequence:
#
# PCOD9146111 Si02
#       7
#     4   2   4   4   4   4   4
#     4  10  19  33  51  75 110 150 184 223 262 313
#     4  10  20  36  54  76 108 152 186 216 264 322
#     4   9  18  32  52  77 109 147 184 222 268 321
#     4  10  20  37  56  79 111 146 180 227 271 324
#     4  10  21  39  63  86 107 135 175 226 285 339
#     4  11  21  32  48  78 112 147 188 221 255 304
#     4   9  19  34  55  83 109 138 180 224 274 322
#
# _framework density 19.199805999999999
#
# number of rings (size 3 to 8) (size 9 to 14) (size 15 to 20)
#    0.000    2.154    1.538    2.769    0.000    3.692 
#    0.000    2.692    0.000    6.462    0.000    0.000 
#    0.000    0.000    0.000    0.000    0.000    0.000 
#
# Total GULP energy -144783.739459 kJ/mol
# GULP energy per Si atom -5568.605364 kJ/mol
# Density = 1.915611 g / cm^3
# Si number density = 19.199806 Si / 1000 Ang^3
#
#
#
# Elastic Constant Matrix: (Units=GPa)
#
#
# Indices 1 2 3 4 5 6 
#
# 1 87.7466 33.3215 16.5952 0.0000 -12.6103 0.0000
# 2 33.3215 93.4385 11.5363 0.0000 -7.7007 0.0000
# 3 16.5952 11.5363 66.5205 0.0000 -4.1604 0.0000
# 4 0.0000 0.0000 0.0000 42.3596 0.0000 -13.8106
# 5 -12.6103 -7.7007 -4.1604 0.0000 27.5089 0.0000
# 6 0.0000 0.0000 0.0000 -13.8106 0.0000 12.4039
#
#
#
# Elastic Compliance Matrix: (Units=1/GPa)
#
#
# Indices 1 2 3 4 5 6 
#
# 1 0.014231 -0.004362 -0.002486 0.000000 0.004927 0.000000
# 2 -0.004362 0.012492 -0.000994 0.000000 0.001347 0.000000
# 3 -0.002486 -0.000994 0.015887 0.000000 0.000985 0.000000
# 4 0.000000 0.000000 0.000000 0.037061 0.000000 0.041264
# 5 0.004927 0.001347 0.000985 0.000000 0.039136 0.000000
# 6 0.000000 0.000000 0.000000 0.041264 0.000000 0.126563
#
#
# Mechanical properties :
#
#
# Convention : Reuss Voigt Hill
#
# Bulk Modulus (GPa) = 37.13833 41.17908 39.15870
# Shear Modulus (GPa) = 18.51654 28.87130 23.69392
#
# Velocity S-wave (km/s) = 3.10887 3.88200 3.51675
# Velocity P-wave (km/s) = 5.68083 6.44883 6.07698
#
# Compressibility (1/GPa) = 0.02692636
#
# Stress axis : x y z
#
# Youngs Moduli (GPa) = 70.26874 80.05434 62.94432
#
# Poissons Ratio (x) = 0.34920 0.15646
# Poissons Ratio (y) = 0.30652 0.06256
# Poissons Ratio (z) = 0.17467 0.07956
#
# Static dielectric constant tensor:
#      x y z
#    x 1.757660 0.000000 -0.024130 
#    y 0.000000 1.689950 0.000000 
#    z -0.024130 0.000000 1.731900 
# 
# From -- ./inp_files/24799.got.cif
#   From: 2010.05.17/outbox.cif.g08.bks.cpg/sg10_13_cif.got.tgz:24799.got - 2010.06.03 11:33:40.
