data_PCOD9146966
_publ_section_title
;
Structure prediction by ZEFSAII (Michael W. Deem and Ramdas Pophale) SiO2 
 PCOD9146966
Probable space group: P 2/M
;
_chemical_formula_sum "Si O2"
_cell_formula_units_Z 32
_cell_length_a 7.323877
_cell_length_b 14.974734
_cell_length_c 12.896401
_cell_angle_alpha 90.000000
_cell_angle_beta 92.532081
_cell_angle_gamma 90.000000
_cell_volume 1413.007455
_symmetry_space_group_name_H-M "P 2/M"
_symmetry_group_IT_number 10
_symmetry_cell_setting 'monoclinic'
loop_
_space_group_symop_operation_xyz
x,y,z
-x,y,-z
-x,-y,-z
x,-y,z
loop_
_atom_site_type_symbol
_atom_site_label
_atom_site_fract_x
_atom_site_fract_y
_atom_site_fract_z
Si Si1 0.689886 0.899447 0.771863
Si Si2 0.850574 0.399388 0.278965
Si Si3 0.670075 0.710441 0.861633
Si Si4 0.788722 0.709118 0.469710
Si Si5 0.241802 0.283603 0.913648
Si Si6 0.285599 0.903078 0.473743
Si Si7 0.278369 0.600079 0.340220
Si Si8 0.351143 0.901781 0.901068
O O1 0.748481 0.806483 0.826240
O O2 0.732614 0.891486 0.651036
O O3 0.473919 0.899103 0.799164
O O4 0.752603 0.000000 0.806522
O O5 0.777621 0.500000 0.266111
O O6 0.743935 0.341183 0.362130
O O7 0.852265 0.345776 0.172036
O O8 0.058419 0.406440 0.323048
O O9 0.458074 0.717220 0.889572
O O10 0.667365 0.641846 0.767686
O O11 0.775876 0.684656 0.968831
O O12 0.777447 0.815778 0.467138
O O13 0.681900 0.667344 0.564497
O O14 0.000000 0.690470 0.500000
O O15 0.206503 0.177645 0.904243
O O16 0.500000 0.906859 0.500000
O O17 0.208123 0.000000 0.502236
O O18 0.348467 0.500000 0.361086
O O19 0.269036 0.000000 0.907730
O O20 0.500000 0.893351 0.000000
#
# Coordination Sequence:
#
# PCOD9146966 Si02
#       8
#     4   4   4   4   4   4   4   4
#     4   9  16  29  50  76 109 144 177 212 258 320
#     4  10  23  40  57  77 106 145 185 230 283 331
#     4  10  19  34  55  83 111 141 182 223 269 323
#     4  10  21  38  60  81 107 141 185 232 275 322
#     4  10  20  34  54  83 116 141 177 227 277 318
#     4  10  21  34  53  85 117 145 177 219 270 327
#     4  10  21  39  60  79 100 138 190 233 275 332
#     4   9  15  27  50  79 107 139 177 212 254 313
#
# _framework density 22.646729000000001
#
# number of rings (size 3 to 8) (size 9 to 14) (size 15 to 20)
#    0.000    2.250    3.750    0.375    3.500    3.250 
#    0.000    2.500    0.000    3.750    0.000    1.750 
#    0.000    0.000    0.000    0.000    0.000    0.000 
#
# Total GULP energy -178557.808008 kJ/mol
# GULP energy per Si atom -5579.931500 kJ/mol
# Density = 2.259518 g / cm^3
# Si number density = 22.646729 Si / 1000 Ang^3
#
#
#
# Elastic Constant Matrix: (Units=GPa)
#
#
# Indices 1 2 3 4 5 6 
#
# 1 31.5977 0.6850 -3.7506 0.0000 3.5739 0.0000
# 2 0.6850 166.0333 77.9092 0.0000 0.6066 0.0000
# 3 -3.7506 77.9092 94.0274 0.0000 -2.4121 0.0000
# 4 0.0000 0.0000 0.0000 13.5116 0.0000 5.2640
# 5 3.5739 0.6066 -2.4121 0.0000 23.9914 0.0000
# 6 0.0000 0.0000 0.0000 5.2640 0.0000 0.2208
#
#
#
# Elastic Compliance Matrix: (Units=1/GPa)
#
#
# Indices 1 2 3 4 5 6 
#
# 1 0.032439 -0.001094 0.002083 0.000000 -0.004595 0.000000
# 2 -0.001094 0.009919 -0.008286 0.000000 -0.000921 0.000000
# 3 0.002083 -0.008286 0.017627 0.000000 0.001671 0.000000
# 4 0.000000 0.000000 0.000000 -0.008929 0.000000 0.212890
# 5 -0.004595 -0.000921 0.001671 0.000000 0.042558 0.000000
# 6 0.000000 0.000000 0.000000 0.212890 0.000000 -0.546447
#
#
# Mechanical properties :
#
#
# Convention : Reuss Voigt Hill
#
# Bulk Modulus (GPa) = 22.03160 49.03839 35.53499
# Shear Modulus (GPa) = -11.81726 21.99907 5.09090
#
# Velocity S-wave (km/s) = -2.28679 3.12011 1.50095
# Velocity P-wave (km/s) = 1.66642 5.88904 4.32769
#
# Compressibility (1/GPa) = 0.04538936
#
# Stress axis : x y z
#
# Youngs Moduli (GPa) = 30.82744 100.81887 56.73244
#
# Poissons Ratio (x) = 0.11034 -0.11817
# Poissons Ratio (y) = 0.03374 0.47007
# Poissons Ratio (z) = -0.06421 0.83536
#
# Static dielectric constant tensor:
#      x y z
#    x 1.928870 0.000000 -0.029470 
#    y 0.000000 1.880140 0.000000 
#    z -0.029470 0.000000 1.849050 
# 
# From -- ./inp_files/29526.got.cif
#   From: 2010.05.17/outbox.cif.g08.bks.cpg/sg10_15_cif.got.tgz:29526.got - 2010.06.03 11:33:40.
