data_PCOD9146897
_publ_section_title
;
Structure prediction by ZEFSAII (Michael W. Deem and Ramdas Pophale) SiO2 
 PCOD9146897
Probable space group: P 2/M
;
_chemical_formula_sum "Si O2"
_cell_formula_units_Z 24
_cell_length_a 11.575480
_cell_length_b 8.810036
_cell_length_c 24.530352
_cell_angle_alpha 90.000000
_cell_angle_beta 145.061132
_cell_angle_gamma 90.000000
_cell_volume 1432.680193
_symmetry_space_group_name_H-M "P 2/M"
_symmetry_group_IT_number 10
_symmetry_cell_setting 'monoclinic'
loop_
_space_group_symop_operation_xyz
x,y,z
-x,y,-z
-x,-y,-z
x,-y,z
loop_
_atom_site_type_symbol
_atom_site_label
_atom_site_fract_x
_atom_site_fract_y
_atom_site_fract_z
Si Si1 0.751790 0.818629 0.954471
Si Si2 0.634866 0.317463 0.676907
Si Si3 0.428046 0.682824 0.910761
Si Si4 0.964689 0.317414 0.714794
Si Si5 0.327777 0.823937 0.480326
Si Si6 0.190207 0.683031 0.139495
O O1 0.572957 0.765030 0.924253
O O2 0.723417 0.755138 0.882300
O O3 0.770684 0.000000 0.960695
O O4 0.962005 0.744858 0.056115
O O5 0.623935 0.500000 0.669677
O O6 0.820830 0.268811 0.709514
O O7 0.430567 0.250631 0.572683
O O8 0.685882 0.275498 0.758495
O O9 0.442853 0.500000 0.908610
O O10 0.195194 0.728747 0.812869
O O11 0.500000 0.715412 0.000000
O O12 0.958762 0.500000 0.711131
O O13 0.865449 0.255592 0.621034
O O14 0.500000 0.811011 0.500000
O O15 0.286973 0.000000 0.474146
O O16 0.184095 0.500000 0.132342
#
# Coordination Sequence:
#
# PCOD9146897 Si02
#       6
#     4   4   4   4   4   4
#     4  11  22  34  49  73 104 133 162 200 249 297
#     4   9  17  30  51  76  97 123 163 206 244 283
#     4  10  20  35  54  74  98 131 170 205 240 288
#     4   9  17  30  49  72  99 129 162 202 242 284
#     4   9  17  28  44  69 101 132 159 193 241 294
#     4  10  19  34  55  74  96 129 169 208 243 286
#
# _framework density 16.751819999999999
#
# number of rings (size 3 to 8) (size 9 to 14) (size 15 to 20)
#    0.000    2.333    0.000    4.500    0.000    7.000 
#    0.000    3.333    0.000    1.000    0.000    7.000 
#    0.000    0.000    0.000    0.000    0.000    0.000 
#
# Total GULP energy -133872.318845 kJ/mol
# GULP energy per Si atom -5578.013285 kJ/mol
# Density = 1.671369 g / cm^3
# Si number density = 16.751820 Si / 1000 Ang^3
#
#
#
# Elastic Constant Matrix: (Units=GPa)
#
#
# Indices 1 2 3 4 5 6 
#
# 1 69.6079 31.3125 68.4510 0.0000 -7.2478 0.0000
# 2 31.3125 47.0208 47.9364 0.0000 -6.2241 0.0000
# 3 68.4510 47.9364 155.5923 0.0000 -21.5167 0.0000
# 4 0.0000 0.0000 0.0000 -5.8752 0.0000 5.7773
# 5 -7.2478 -6.2241 -21.5167 0.0000 28.8063 0.0000
# 6 0.0000 0.0000 0.0000 5.7773 0.0000 13.0516
#
#
#
# Elastic Compliance Matrix: (Units=1/GPa)
#
#
# Indices 1 2 3 4 5 6 
#
# 1 0.027713 -0.008757 -0.009804 0.000000 -0.002243 0.000000
# 2 -0.008757 0.033779 -0.006524 0.000000 0.000222 0.000000
# 3 -0.009804 -0.006524 0.013621 0.000000 0.006298 0.000000
# 4 0.000000 0.000000 0.000000 -0.118589 0.000000 0.052493
# 5 -0.002243 0.000222 0.006298 0.000000 0.038903 0.000000
# 6 0.000000 0.000000 0.000000 0.052493 0.000000 0.053383
#
#
# Mechanical properties :
#
#
# Convention : Reuss Voigt Hill
#
# Bulk Modulus (GPa) = 40.09039 63.06897 51.57968
# Shear Modulus (GPa) = 46.60087 15.49794 31.04940
#
# Velocity S-wave (km/s) = 5.28004 3.04493 4.30989
# Velocity P-wave (km/s) = 7.82021 7.07763 7.45817
#
# Compressibility (1/GPa) = 0.02494364
#
# Stress axis : x y z
#
# Youngs Moduli (GPa) = 36.08396 29.60446 73.41480
#
# Poissons Ratio (x) = 0.25923 0.71979
# Poissons Ratio (y) = 0.31597 0.47894
# Poissons Ratio (z) = 0.35378 0.19313
#
# Static dielectric constant tensor:
#      x y z
#    x 1.548670 0.000000 -0.007060 
#    y 0.000000 1.559060 0.000000 
#    z -0.007060 0.000000 1.558080 
# 
# From -- ./inp_files/52860.got.cif
#   From: 2010.05.17/outbox.cif.g08.bks.cpg/sg10_27_cif.got.tgz:52860.got - 2010.06.03 11:33:40.
