data_PCOD9146070
_publ_section_title
;
Structure prediction by ZEFSAII (Michael W. Deem and Ramdas Pophale) SiO2 
 PCOD9146070
Probable space group: P 2/M
;
_chemical_formula_sum "Si O2"
_cell_formula_units_Z 32
_cell_length_a 14.775684
_cell_length_b 7.737964
_cell_length_c 14.892158
_cell_angle_alpha 90.000000
_cell_angle_beta 72.641248
_cell_angle_gamma 90.000000
_cell_volume 1625.127944
_symmetry_space_group_name_H-M "P 2/M"
_symmetry_group_IT_number 10
_symmetry_cell_setting 'monoclinic'
loop_
_space_group_symop_operation_xyz
x,y,z
-x,y,-z
-x,-y,-z
x,-y,z
loop_
_atom_site_type_symbol
_atom_site_label
_atom_site_fract_x
_atom_site_fract_y
_atom_site_fract_z
Si Si1 0.895624 0.204908 0.003631
Si Si2 0.203608 0.789211 0.796695
Si Si3 0.957109 0.200366 0.289187
Si Si4 0.629305 0.211321 0.382695
Si Si5 0.155687 0.303798 0.181671
Si Si6 0.585953 0.792194 0.592084
Si Si7 0.259543 0.293355 0.318316
Si Si8 0.103932 0.291530 0.504972
O O1 0.868333 0.226774 0.908051
O O2 0.901551 0.000000 0.018070
O O3 0.814024 0.269066 0.096146
O O4 0.000000 0.275815 0.000000
O O5 0.106472 0.741473 0.774791
O O6 0.291383 0.726766 0.710586
O O7 0.210395 0.000000 0.792698
O O8 0.892597 0.220025 0.395899
O O9 0.055999 0.299445 0.265642
O O10 0.981998 0.000000 0.269240
O O11 0.523573 0.262304 0.382887
O O12 0.638069 0.267824 0.484474
O O13 0.632356 0.000000 0.382681
O O14 0.183544 0.500000 0.154670
O O15 0.232645 0.224649 0.227486
O O16 0.639412 0.737723 0.666223
O O17 0.586447 0.000000 0.589629
O O18 0.245455 0.500000 0.316775
O O19 0.183704 0.226055 0.413790
O O20 0.109288 0.500000 0.508161
O O21 0.000000 0.243667 0.500000
#
# Coordination Sequence:
#
# PCOD9146070 Si02
#       8
#     4   4   4   4   4   4   4   4
#     4  10  19  34  52  74 101 130 170 217 258 295
#     4   9  17  30  50  73 103 132 157 202 265 310
#     4  11  20  31  49  75 101 130 169 210 249 295
#     4   8  15  30  52  79 106 132 158 202 260 305
#     4  11  22  36  50  68  99 140 175 205 250 307
#     4   9  17  31  54  80 104 128 168 210 244 300
#     4  10  21  35  50  68 100 141 172 204 252 301
#     4  10  19  33  46  63  98 139 170 197 240 297
#
# _framework density 19.690759
#
# number of rings (size 3 to 8) (size 9 to 14) (size 15 to 20)
#    0.000    2.250    2.500    2.250    0.000    3.000 
#    0.000    1.250    0.000    3.750    0.000    5.250 
#    0.000    0.000    0.000    0.000    0.000    0.000 
#
# Total GULP energy -178482.910788 kJ/mol
# GULP energy per Si atom -5577.590962 kJ/mol
# Density = 1.964594 g / cm^3
# Si number density = 19.690759 Si / 1000 Ang^3
#
#
#
# Elastic Constant Matrix: (Units=GPa)
#
#
# Indices 1 2 3 4 5 6 
#
# 1 84.0221 4.0485 50.2608 0.0000 14.8685 0.0000
# 2 4.0485 25.5280 3.5668 0.0000 -1.4985 0.0000
# 3 50.2608 3.5668 126.4223 0.0000 13.7889 0.0000
# 4 0.0000 0.0000 0.0000 13.7461 0.0000 3.8639
# 5 14.8685 -1.4985 13.7889 0.0000 29.5335 0.0000
# 6 0.0000 0.0000 0.0000 3.8639 0.0000 15.1688
#
#
#
# Elastic Compliance Matrix: (Units=1/GPa)
#
#
# Indices 1 2 3 4 5 6 
#
# 1 0.016535 -0.002132 -0.005894 0.000000 -0.005681 0.000000
# 2 -0.002132 0.039800 -0.000645 0.000000 0.003394 0.000000
# 3 -0.005894 -0.000645 0.010485 0.000000 -0.001961 0.000000
# 4 0.000000 0.000000 0.000000 0.078359 0.000000 -0.019960
# 5 -0.005681 0.003394 -0.001961 0.000000 0.037808 0.000000
# 6 0.000000 0.000000 0.000000 -0.019960 0.000000 0.071009
#
#
# Mechanical properties :
#
#
# Convention : Reuss Voigt Hill
#
# Bulk Modulus (GPa) = 20.21119 39.08050 29.64585
# Shear Modulus (GPa) = 17.37120 23.56276 20.46698
#
# Velocity S-wave (km/s) = 2.97341 3.46300 3.22750
# Velocity P-wave (km/s) = 4.69838 5.99000 5.38307
#
# Compressibility (1/GPa) = 0.04947754
#
# Stress axis : x y z
#
# Youngs Moduli (GPa) = 60.47618 25.12543 95.37121
#
# Poissons Ratio (x) = 0.05357 0.56213
# Poissons Ratio (y) = 0.12895 0.06155
# Poissons Ratio (z) = 0.35645 0.01622
#
# Static dielectric constant tensor:
#      x y z
#    x 1.689650 0.000000 0.019140 
#    y 0.000000 1.720210 0.000000 
#    z 0.019140 0.000000 1.731760 
# 
# From -- ./inp_files/66045.got.cif
#   From: 2010.05.17/outbox.cif.g08.bks.cpg/sg10_34_cif.got.tgz:66045.got - 2010.06.03 11:33:40.
