data_PCOD9146225
_publ_section_title
;
Structure prediction by ZEFSAII (Michael W. Deem and Ramdas Pophale) SiO2 
 PCOD9146225
Probable space group: P 2/M
;
_chemical_formula_sum "Si O2"
_cell_formula_units_Z 28
_cell_length_a 9.271508
_cell_length_b 7.563202
_cell_length_c 26.295056
_cell_angle_alpha 90.000000
_cell_angle_beta 44.390302
_cell_angle_gamma 90.000000
_cell_volume 1289.864881
_symmetry_space_group_name_H-M "P 2/M"
_symmetry_group_IT_number 10
_symmetry_cell_setting 'monoclinic'
loop_
_space_group_symop_operation_xyz
x,y,z
-x,y,-z
-x,-y,-z
x,-y,z
loop_
_atom_site_type_symbol
_atom_site_label
_atom_site_fract_x
_atom_site_fract_y
_atom_site_fract_z
Si Si1 0.991858 0.795792 0.350543
Si Si2 0.710747 0.716318 0.233335
Si Si3 0.153932 0.295386 0.503002
Si Si4 0.613435 0.285338 0.372838
Si Si5 0.170462 0.715267 0.089953
Si Si6 0.461063 0.283765 0.928260
Si Si7 0.443759 0.292146 0.206706
O O1 0.945975 0.708793 0.416353
O O2 0.794510 0.776291 0.364156
O O3 0.197897 0.724175 0.272377
O O4 0.029196 0.000000 0.351680
O O5 0.708099 0.500000 0.234918
O O6 0.654472 0.770798 0.304510
O O7 0.550643 0.778238 0.230778
O O8 0.940427 0.773596 0.160030
O O9 0.183400 0.500000 0.479890
O O10 0.385766 0.221966 0.446207
O O11 0.000000 0.215107 0.500000
O O12 0.620322 0.500000 0.373610
O O13 0.167874 0.500000 0.090465
O O14 0.333918 0.768216 0.092145
O O15 0.266644 0.770647 0.011630
O O16 0.460683 0.500000 0.927453
O O17 0.473234 0.218726 0.867573
O O18 0.494421 0.500000 0.193049
#
# Coordination Sequence:
#
# PCOD9146225 Si02
#       7
#     4   4   4   4   4   4   4
#     4  12  25  38  54  78 108 142 179 219 262 308
#     4   9  17  29  50  79 108 136 171 218 267 315
#     4  10  21  39  63  87 110 137 171 211 257 312
#     4  10  20  36  58  81 105 137 176 216 258 309
#     4   8  13  23  40  71 110 139 167 209 264 316
#     4   8  14  24  43  71 105 141 172 210 261 315
#     4  10  19  33  53  77 105 140 181 221 264 313
#
# _framework density 21.707699999999999
#
# number of rings (size 3 to 8) (size 9 to 14) (size 15 to 20)
#    0.000    2.429    0.000    4.286    0.000    7.714 
#    0.000    5.000    0.000    0.000    0.000   10.000 
#    0.000    0.000    0.000    0.000    0.000    0.000 
#
# Total GULP energy -156393.118633 kJ/mol
# GULP energy per Si atom -5585.468523 kJ/mol
# Density = 2.165829 g / cm^3
# Si number density = 21.707700 Si / 1000 Ang^3
#
#
#
# Elastic Constant Matrix: (Units=GPa)
#
#
# Indices 1 2 3 4 5 6 
#
# 1 52.9512 1.2006 -15.1056 0.0000 36.0335 0.0000
# 2 1.2006 44.2612 -3.5192 0.0000 -0.7512 0.0000
# 3 -15.1056 -3.5192 53.7978 0.0000 32.9310 0.0000
# 4 0.0000 0.0000 0.0000 -30.5328 0.0000 -31.3135
# 5 36.0335 -0.7512 32.9310 0.0000 6.8174 0.0000
# 6 0.0000 0.0000 0.0000 -31.3135 0.0000 -146.2865
#
#
#
# Elastic Compliance Matrix: (Units=1/GPa)
#
#
# Indices 1 2 3 4 5 6 
#
# 1 0.004954 -0.000558 -0.008903 0.000000 0.016758 0.000000
# 2 -0.000558 0.022698 0.001026 0.000000 0.000494 0.000000
# 3 -0.008903 0.001026 0.006500 0.000000 0.015774 0.000000
# 4 0.000000 0.000000 0.000000 -0.041964 0.000000 0.008983
# 5 0.016758 0.000494 0.015774 0.000000 -0.018029 0.000000
# 6 0.000000 0.000000 0.000000 0.008983 0.000000 -0.008759
#
#
# Mechanical properties :
#
#
# Convention : Reuss Voigt Hill
#
# Bulk Modulus (GPa) = 57.86190 12.90686 35.38438
# Shear Modulus (GPa) = -417.76313 -22.77142 -220.26728
#
# Velocity S-wave (km/s) = -13.88766 -3.24234 -10.08414
# Velocity P-wave (km/s) = 15.18036 2.83873 10.92020
#
# Compressibility (1/GPa) = 0.01728253
#
# Stress axis : x y z
#
# Youngs Moduli (GPa) = 201.83750 44.05624 153.84983
#
# Poissons Ratio (x) = 0.02458 1.36975
# Poissons Ratio (y) = 0.11260 -0.15785
# Poissons Ratio (z) = 1.79699 -0.04520
#
# Static dielectric constant tensor:
#      x y z
#    x 1.756060 0.000000 -0.001910 
#    y 0.000000 1.835570 0.000000 
#    z -0.001910 0.000000 1.766100 
# 
# From -- ./inp_files/91952.got.cif
#   From: 2010.05.17/outbox.cif.g08.bks.cpg/sg10_46_cif.got.tgz:91952.got - 2010.06.03 11:33:40.
