data_PCOD9146852
_publ_section_title
;
Structure prediction by ZEFSAII (Michael W. Deem and Ramdas Pophale) SiO2 
 PCOD9146852
Probable space group: P 2/M
;
_chemical_formula_sum "Si O2"
_cell_formula_units_Z 28
_cell_length_a 27.609983
_cell_length_b 8.732330
_cell_length_c 9.742159
_cell_angle_alpha 90.000000
_cell_angle_beta 138.465782
_cell_angle_gamma 90.000000
_cell_volume 1557.431842
_symmetry_space_group_name_H-M "P 2/M"
_symmetry_group_IT_number 10
_symmetry_cell_setting 'monoclinic'
loop_
_space_group_symop_operation_xyz
x,y,z
-x,y,-z
-x,-y,-z
x,-y,z
loop_
_atom_site_type_symbol
_atom_site_label
_atom_site_fract_x
_atom_site_fract_y
_atom_site_fract_z
Si Si1 0.929776 0.174175 0.755869
Si Si2 0.927751 0.182878 0.429529
Si Si3 0.301528 0.679161 0.387491
Si Si4 0.315317 0.178381 0.869806
Si Si5 0.583273 0.184969 0.154776
Si Si6 0.207942 0.671895 0.443645
Si Si7 0.235518 0.683958 0.961854
O O1 0.942595 0.206374 0.622912
O O2 0.875064 0.297563 0.700889
O O3 0.899167 0.000000 0.697977
O O4 0.000000 0.175316 0.000000
O O5 0.847842 0.253714 0.226524
O O6 0.000000 0.237532 0.500000
O O7 0.921449 0.000000 0.391476
O O8 0.321261 0.500000 0.414983
O O9 0.365217 0.757445 0.611981
O O10 0.230426 0.688237 0.334176
O O11 0.277242 0.739165 0.188006
O O12 0.384544 0.234594 0.925933
O O13 0.251397 0.203674 0.623396
O O14 0.285530 0.265316 0.939559
O O15 0.325123 0.000000 0.924371
O O16 0.586045 0.000000 0.160639
O O17 0.500000 0.234243 0.000000
O O18 0.230333 0.500000 0.534726
O O19 0.230895 0.500000 0.956330
#
# Coordination Sequence:
#
# PCOD9146852 Si02
#       7
#     4   4   4   4   4   4   4
#     4  10  21  35  51  74 105 138 179 227 274 327
#     4  10  22  38  54  76 108 146 187 230 280 332
#     4   9  21  37  54  81 113 145 183 221 266 325
#     4  10  19  34  57  82 108 141 179 220 271 327
#     4   9  19  37  61  88 114 141 179 225 271 323
#     4  10  19  34  54  76 103 138 181 227 270 318
#     4  11  22  37  56  80 113 149 187 230 271 323
#
# _framework density 17.978314999999998
#
# number of rings (size 3 to 8) (size 9 to 14) (size 15 to 20)
#    0.000    2.143    1.429    1.286    2.000    3.143 
#    0.000    0.714    0.000    4.286    0.000    0.000 
#    0.000    0.000    0.000    0.000    0.000    0.000 
#
# Total GULP energy -155966.669105 kJ/mol
# GULP energy per Si atom -5570.238182 kJ/mol
# Density = 1.793740 g / cm^3
# Si number density = 17.978315 Si / 1000 Ang^3
#
#
#
# Elastic Constant Matrix: (Units=GPa)
#
#
# Indices 1 2 3 4 5 6 
#
# 1 143.9517 37.8174 80.3234 0.0000 7.3295 0.0000
# 2 37.8174 25.1810 22.9608 0.0000 2.1199 0.0000
# 3 80.3234 22.9608 93.0031 0.0000 -9.2673 0.0000
# 4 0.0000 0.0000 0.0000 19.6178 0.0000 1.1561
# 5 7.3295 2.1199 -9.2673 0.0000 27.7647 0.0000
# 6 0.0000 0.0000 0.0000 1.1561 0.0000 9.0151
#
#
#
# Elastic Compliance Matrix: (Units=1/GPa)
#
#
# Indices 1 2 3 4 5 6 
#
# 1 0.018838 -0.015510 -0.013259 0.000000 -0.008214 0.000000
# 2 -0.015510 0.065993 -0.003094 0.000000 -0.001977 0.000000
# 3 -0.013259 -0.003094 0.024143 0.000000 0.011795 0.000000
# 4 0.000000 0.000000 0.000000 0.051362 0.000000 -0.006587
# 5 -0.008214 -0.001977 0.011795 0.000000 0.042273 0.000000
# 6 0.000000 0.000000 0.000000 -0.006587 0.000000 0.111769
#
#
# Mechanical properties :
#
#
# Convention : Reuss Voigt Hill
#
# Bulk Modulus (GPa) = 22.10053 60.48212 41.29132
# Shear Modulus (GPa) = 12.71654 19.34847 16.03250
#
# Velocity S-wave (km/s) = 2.66245 3.28413 2.98949
# Velocity P-wave (km/s) = 4.66595 6.93508 5.91043
#
# Compressibility (1/GPa) = 0.04524779
#
# Stress axis : x y z
#
# Youngs Moduli (GPa) = 53.08418 15.15304 41.41985
#
# Poissons Ratio (x) = 0.23502 0.54919
# Poissons Ratio (y) = 0.82332 0.12817
# Poissons Ratio (z) = 0.70385 0.04689
#
# Static dielectric constant tensor:
#      x y z
#    x 1.658210 0.000000 0.010180 
#    y 0.000000 1.640750 0.000000 
#    z 0.010180 0.000000 1.601010 
# 
# From -- ./inp_files/31615.got.cif
#   From: 2010.05.17/outbox.cif.g08.bks.cpg/sg10_16_cif.got.tgz:31615.got - 2010.06.03 11:33:40.
