data_PCOD9146921
_publ_section_title
;
Structure prediction by ZEFSAII (Michael W. Deem and Ramdas Pophale) SiO2 
 PCOD9146921
Probable space group: P 2/M
;
_chemical_formula_sum "Si O2"
_cell_formula_units_Z 28
_cell_length_a 19.175151
_cell_length_b 8.818813
_cell_length_c 23.697106
_cell_angle_alpha 90.000000
_cell_angle_beta 23.395896
_cell_angle_gamma 90.000000
_cell_volume 1591.199394
_symmetry_space_group_name_H-M "P 2/M"
_symmetry_group_IT_number 10
_symmetry_cell_setting 'monoclinic'
loop_
_space_group_symop_operation_xyz
x,y,z
-x,y,-z
-x,-y,-z
x,-y,z
loop_
_atom_site_type_symbol
_atom_site_label
_atom_site_fract_x
_atom_site_fract_y
_atom_site_fract_z
Si Si1 0.700696 0.181699 0.365823
Si Si2 0.002367 0.318381 0.064468
Si Si3 0.827105 0.174317 0.668558
Si Si4 0.610017 0.680598 0.734898
Si Si5 0.763674 0.180995 0.016837
Si Si6 0.055064 0.681736 0.591380
Si Si7 0.932510 0.317566 0.286572
O O1 0.500000 0.216870 0.500000
O O2 0.831016 0.251083 0.222365
O O3 0.766042 0.251726 0.376365
O O4 0.722537 0.000000 0.351225
O O5 0.005974 0.500000 0.069358
O O6 0.166756 0.245909 0.975246
O O7 0.000000 0.284329 0.000000
O O8 0.681641 0.268897 0.742943
O O9 0.000000 0.179270 0.500000
O O10 0.894508 0.241559 0.677369
O O11 0.772274 0.000000 0.714920
O O12 0.583742 0.500000 0.753048
O O13 0.764620 0.719963 0.575486
O O14 0.431606 0.764330 0.851587
O O15 0.897979 0.249934 0.871020
O O16 0.776040 0.000000 0.007402
O O17 0.034125 0.500000 0.602825
O O18 0.066471 0.723689 0.648380
O O19 0.934055 0.500000 0.280535
#
# Coordination Sequence:
#
# PCOD9146921 Si02
#       7
#     4   4   4   4   4   4   4
#     4  10  21  36  54  78 107 138 172 211 259 310
#     4  10  21  37  57  79 103 135 175 215 257 307
#     4   9  17  30  50  77 107 137 170 211 260 308
#     4  10  19  34  55  78 106 138 175 216 256 304
#     4  11  22  36  54  77 107 140 173 211 260 311
#     4   9  19  34  54  79 104 135 174 215 259 306
#     4  10  20  36  56  77 104 138 175 213 257 309
#
# _framework density 17.596789999999999
#
# number of rings (size 3 to 8) (size 9 to 14) (size 15 to 20)
#    0.000    2.143    0.000    5.143    0.000    6.857 
#    0.000    5.000    0.000    4.286    0.000    0.000 
#    0.000    0.000    0.000    0.000    0.000    0.000 
#
# Total GULP energy -156283.221233 kJ/mol
# GULP energy per Si atom -5581.543615 kJ/mol
# Density = 1.755674 g / cm^3
# Si number density = 17.596790 Si / 1000 Ang^3
#
#
#
# Elastic Constant Matrix: (Units=GPa)
#
#
# Indices 1 2 3 4 5 6 
#
# 1 188.3872 75.6844 71.7639 0.0000 -4.1356 0.0000
# 2 75.6844 86.4917 42.0328 0.0000 -8.2071 0.0000
# 3 71.7639 42.0328 55.9814 0.0000 -18.5796 0.0000
# 4 0.0000 0.0000 0.0000 8.5612 0.0000 -29.8186
# 5 -4.1356 -8.2071 -18.5796 0.0000 26.5802 0.0000
# 6 0.0000 0.0000 0.0000 -29.8186 0.0000 4.2005
#
#
#
# Elastic Compliance Matrix: (Units=1/GPa)
#
#
# Indices 1 2 3 4 5 6 
#
# 1 0.013802 -0.004210 -0.018555 0.000000 -0.012123 0.000000
# 2 -0.004210 0.020040 -0.010174 0.000000 -0.001579 0.000000
# 3 -0.018555 -0.010174 0.061571 0.000000 0.037010 0.000000
# 4 0.000000 0.000000 0.000000 -0.004923 0.000000 -0.034950
# 5 -0.012123 -0.001579 0.037010 0.000000 0.061119 0.000000
# 6 0.000000 0.000000 0.000000 -0.034950 0.000000 -0.010034
#
#
# Mechanical properties :
#
#
# Convention : Reuss Voigt Hill
#
# Bulk Modulus (GPa) = 33.85764 78.86919 56.36341
# Shear Modulus (GPa) = 23.00988 17.29365 20.15177
#
# Velocity S-wave (km/s) = 3.62002 3.13832 3.38775
# Velocity P-wave (km/s) = 6.06262 7.61903 6.88494
#
# Compressibility (1/GPa) = 0.02953543
#
# Stress axis : x y z
#
# Youngs Moduli (GPa) = 72.45338 49.89931 16.24132
#
# Poissons Ratio (x) = 0.21009 0.30136
# Poissons Ratio (y) = 0.30505 0.16523
# Poissons Ratio (z) = 1.34439 0.50766
#
# Static dielectric constant tensor:
#      x y z
#    x 1.591590 0.000000 0.002200 
#    y 0.000000 1.588610 0.000000 
#    z 0.002200 0.000000 1.576890 
# 
# From -- ./inp_files/89874.got.cif
#   From: 2010.05.17/outbox.cif.g08.bks.cpg/sg10_45_cif.got.tgz:89874.got - 2010.06.03 11:33:40.
