data_PCOD9146895
_publ_section_title
;
Structure prediction by ZEFSAII (Michael W. Deem and Ramdas Pophale) SiO2 
 PCOD9146895
Probable space group: P 2/M
;
_chemical_formula_sum "Si O2"
_cell_formula_units_Z 32
_cell_length_a 14.699078
_cell_length_b 18.470436
_cell_length_c 11.702088
_cell_angle_alpha 90.000000
_cell_angle_beta 29.606932
_cell_angle_gamma 90.000000
_cell_volume 1569.635890
_symmetry_space_group_name_H-M "P 2/M"
_symmetry_group_IT_number 10
_symmetry_cell_setting 'monoclinic'
loop_
_space_group_symop_operation_xyz
x,y,z
-x,y,-z
-x,-y,-z
x,-y,z
loop_
_atom_site_type_symbol
_atom_site_label
_atom_site_fract_x
_atom_site_fract_y
_atom_site_fract_z
Si Si1 0.920006 0.181455 0.749278
Si Si2 0.352893 0.083285 0.403588
Si Si3 0.252434 0.920248 0.913724
Si Si4 0.943669 0.420697 0.193818
Si Si5 0.220603 0.186213 0.748438
Si Si6 0.296585 0.174006 0.247302
Si Si7 0.483218 0.419882 0.380149
Si Si8 0.764581 0.699819 0.084010
O O1 0.804478 0.161462 0.762910
O O2 0.122812 0.212337 0.501232
O O3 0.921036 0.109814 0.826127
O O4 0.804537 0.236530 0.952319
O O5 0.568890 0.080925 0.201289
O O6 0.277478 0.150087 0.566028
O O7 0.333255 0.106784 0.292651
O O8 0.285245 0.000000 0.498761
O O9 0.292742 0.870525 0.762164
O O10 0.216243 0.000000 0.910854
O O11 0.989788 0.500000 0.195198
O O12 0.725201 0.411631 0.433200
O O13 0.000000 0.425551 0.000000
O O14 0.057854 0.352305 0.110578
O O15 0.272395 0.264302 0.749543
O O16 0.000000 0.186991 0.000000
O O17 0.500000 0.206456 0.000000
O O18 0.500000 0.421618 0.500000
O O19 0.548554 0.500000 0.270486
O O20 0.602465 0.351149 0.217419
#
# Coordination Sequence:
#
# PCOD9146895 Si02
#       8
#     4   4   4   4   4   4   4   4
#     4  10  24  41  62  92 116 156 210 254 320 380
#     4  11  23  40  63  86 114 162 214 264 323 374
#     4  10  21  40  61  85 118 158 202 254 313 381
#     4  10  19  34  54  84 128 172 211 245 282 352
#     4  11  24  38  53  88 128 165 207 247 308 384
#     4  11  23  44  64  83 116 152 202 277 317 367
#     4  10  20  34  57  90 130 177 212 238 289 358
#     4  11  22  38  58  91 131 169 201 248 306 370
#
# _framework density 20.386894000000002
#
# number of rings (size 3 to 8) (size 9 to 14) (size 15 to 20)
#    0.000    1.500    2.500    3.000    0.000    7.250 
#    0.000    1.250    0.000    0.000    0.000    7.000 
#    0.000   16.000    0.000    0.125    0.000    0.000 
#
# Total GULP energy -178297.579374 kJ/mol
# GULP energy per Si atom -5571.799355 kJ/mol
# Density = 2.034049 g / cm^3
# Si number density = 20.386894 Si / 1000 Ang^3
#
#
#
# Elastic Constant Matrix: (Units=GPa)
#
#
# Indices 1 2 3 4 5 6 
#
# 1 87.6704 33.6528 18.9360 0.0000 -1.8642 0.0000
# 2 33.6528 123.2748 30.9586 0.0000 -4.0732 0.0000
# 3 18.9360 30.9586 100.2462 0.0000 -16.5989 0.0000
# 4 0.0000 0.0000 0.0000 75.6175 0.0000 -110.9821
# 5 -1.8642 -4.0732 -16.5989 0.0000 32.5187 0.0000
# 6 0.0000 0.0000 0.0000 -110.9821 0.0000 196.6868
#
#
#
# Elastic Compliance Matrix: (Units=1/GPa)
#
#
# Indices 1 2 3 4 5 6 
#
# 1 0.012943 -0.003161 -0.001542 0.000000 -0.000441 0.000000
# 2 -0.003161 0.009569 -0.002392 0.000000 -0.000203 0.000000
# 3 -0.001542 -0.002392 0.011951 0.000000 0.005712 0.000000
# 4 0.000000 0.000000 0.000000 0.076953 0.000000 0.043421
# 5 -0.000441 -0.000203 0.005712 0.000000 0.033617 0.000000
# 6 0.000000 0.000000 0.000000 0.043421 0.000000 0.029585
#
#
# Mechanical properties :
#
#
# Convention : Reuss Voigt Hill
#
# Bulk Modulus (GPa) = 49.32271 53.14292 51.23282
# Shear Modulus (GPa) = 25.56707 76.14088 50.85398
#
# Velocity S-wave (km/s) = 3.54516 6.11793 4.99986
# Velocity P-wave (km/s) = 6.40339 8.71947 7.64959
#
# Compressibility (1/GPa) = 0.02027463
#
# Stress axis : x y z
#
# Youngs Moduli (GPa) = 77.26020 104.50707 83.67383
#
# Poissons Ratio (x) = 0.33032 0.12901
# Poissons Ratio (y) = 0.24420 0.20012
# Poissons Ratio (z) = 0.11912 0.24995
#
# Static dielectric constant tensor:
#      x y z
#    x 1.744610 0.000000 -0.034130 
#    y 0.000000 1.795280 0.000000 
#    z -0.034130 0.000000 1.789680 
# 
# From -- ./inp_files/51957.got.cif
#   From: 2010.05.17/outbox.cif.g08.bks.cpg/sg10_26_cif.got.tgz:51957.got - 2010.06.03 11:33:40.
