data_PCOD9146212
_publ_section_title
;
Structure prediction by ZEFSAII (Michael W. Deem and Ramdas Pophale) SiO2 
 PCOD9146212
Probable space group: P 2/M
;
_chemical_formula_sum "Si O2"
_cell_formula_units_Z 28
_cell_length_a 30.668476
_cell_length_b 7.921802
_cell_length_c 10.480379
_cell_angle_alpha 90.000000
_cell_angle_beta 141.405990
_cell_angle_gamma 90.000000
_cell_volume 1588.316573
_symmetry_space_group_name_H-M "P 2/M"
_symmetry_group_IT_number 10
_symmetry_cell_setting 'monoclinic'
loop_
_space_group_symop_operation_xyz
x,y,z
-x,y,-z
-x,-y,-z
x,-y,z
loop_
_atom_site_type_symbol
_atom_site_label
_atom_site_fract_x
_atom_site_fract_y
_atom_site_fract_z
Si Si1 0.114581 0.000000 0.319238
Si Si2 0.795887 0.303385 0.370592
Si Si3 0.796916 0.701948 0.073589
Si Si4 0.969141 0.000000 0.132992
Si Si5 0.647271 0.800821 0.004417
Si Si6 0.499292 0.698710 0.352226
Si Si7 0.061035 0.302517 0.745023
Si Si8 0.646108 0.800802 0.708769
O O1 0.159503 0.831637 0.449183
O O2 0.048053 0.000000 0.261229
O O3 0.083265 0.000000 0.106220
O O4 0.817844 0.500000 0.431389
O O5 0.800939 0.247730 0.232269
O O6 0.713802 0.287716 0.218961
O O7 0.793630 0.500000 0.067641
O O8 0.866277 0.749429 0.156167
O O9 0.724879 0.764741 0.845892
O O10 0.956589 0.831578 0.186704
O O11 0.662251 0.000000 0.036169
O O12 0.568337 0.773976 0.872225
O O13 0.645391 0.733710 0.853525
O O14 0.500000 0.770060 0.500000
O O15 0.487321 0.500000 0.331933
O O16 0.577865 0.728982 0.482864
O O17 0.066192 0.500000 0.798869
O O18 0.000000 0.295814 0.500000
O O19 0.635998 0.000000 0.690605
#
# Coordination Sequence:
#
# PCOD9146212 Si02
#       8
#     2   4   4   2   4   4   4   4
#     4  11  24  40  54  78 102 135 177 211 252 307
#     4  10  19  33  53  76 105 139 174 214 257 300
#     4   9  18  30  49  75 103 134 171 212 256 311
#     4  11  25  40  58  78 106 136 170 211 257 306
#     4   9  15  25  40  62  94 130 173 213 245 295
#     4   9  15  22  33  53  89 134 173 205 244 295
#     4  10  21  38  59  84 108 134 168 209 258 311
#     4   9  16  23  36  60  93 133 170 204 249 301
#
# _framework density 17.628727000000001
#
# number of rings (size 3 to 8) (size 9 to 14) (size 15 to 20)
#    0.000    2.429    0.714    2.357    2.000    7.429 
#    0.000    1.429    0.000    0.000    0.000    0.000 
#    0.000    2.286    0.000    6.000    0.000    1.857 
#
# Total GULP energy -155961.829041 kJ/mol
# GULP energy per Si atom -5570.065323 kJ/mol
# Density = 1.758860 g / cm^3
# Si number density = 17.628727 Si / 1000 Ang^3
#
#
#
# Elastic Constant Matrix: (Units=GPa)
#
#
# Indices 1 2 3 4 5 6 
#
# 1 53.6071 29.1548 45.8111 0.0000 22.6104 0.0000
# 2 29.1548 80.9000 47.9983 0.0000 8.0170 0.0000
# 3 45.8111 47.9983 98.2647 0.0000 31.7651 0.0000
# 4 0.0000 0.0000 0.0000 22.0287 0.0000 13.7703
# 5 22.6104 8.0170 31.7651 0.0000 26.6126 0.0000
# 6 0.0000 0.0000 0.0000 13.7703 0.0000 14.0188
#
#
#
# Elastic Compliance Matrix: (Units=1/GPa)
#
#
# Indices 1 2 3 4 5 6 
#
# 1 0.037679 -0.007225 -0.007151 0.000000 -0.021300 0.000000
# 2 -0.007225 0.019899 -0.010418 0.000000 0.012579 0.000000
# 3 -0.007151 -0.010418 0.025434 0.000000 -0.021145 0.000000
# 4 0.000000 0.000000 0.000000 0.117612 0.000000 -0.115528
# 5 -0.021300 0.012579 -0.021145 0.000000 0.077122 0.000000
# 6 0.000000 0.000000 0.000000 -0.115528 0.000000 0.184813
#
#
# Mechanical properties :
#
#
# Convention : Reuss Voigt Hill
#
# Bulk Modulus (GPa) = 29.91852 53.18891 41.55372
# Shear Modulus (GPa) = 9.55493 19.85253 14.70373
#
# Velocity S-wave (km/s) = 2.33063 3.35945 2.89117
# Velocity P-wave (km/s) = 4.92451 6.72942 5.89644
#
# Compressibility (1/GPa) = 0.03342411
#
# Stress axis : x y z
#
# Youngs Moduli (GPa) = 26.54003 50.25357 39.31683
#
# Poissons Ratio (x) = 0.36308 0.28117
# Poissons Ratio (y) = 0.19175 0.40959
# Poissons Ratio (z) = 0.18980 0.52353
#
# Static dielectric constant tensor:
#      x y z
#    x 1.628280 0.000000 0.048640 
#    y 0.000000 1.601010 0.000000 
#    z 0.048640 0.000000 1.619940 
# 
# From -- ./inp_files/37361.got.cif
#   From: 2010.05.17/outbox.cif.g08.bks.cpg/sg10_19_cif.got.tgz:37361.got - 2010.06.03 11:33:40.
