data_PCOD9146567
_publ_section_title
;
Structure prediction by ZEFSAII (Michael W. Deem and Ramdas Pophale) SiO2 
 PCOD9146567
Probable space group: P 2/M
;
_chemical_formula_sum "Si O2"
_cell_formula_units_Z 28
_cell_length_a 28.385060
_cell_length_b 9.034800
_cell_length_c 9.963010
_cell_angle_alpha 90.000000
_cell_angle_beta 141.505780
_cell_angle_gamma 90.000000
_cell_volume 1590.352546
_symmetry_space_group_name_H-M "P 2/M"
_symmetry_group_IT_number 10
_symmetry_cell_setting 'monoclinic'
loop_
_space_group_symop_operation_xyz
x,y,z
-x,y,-z
-x,-y,-z
x,-y,z
loop_
_atom_site_type_symbol
_atom_site_label
_atom_site_fract_x
_atom_site_fract_y
_atom_site_fract_z
Si Si1 0.999097 0.319600 0.153365
Si Si2 0.552683 0.327245 0.736962
Si Si3 0.859919 0.321513 0.031243
Si Si4 0.448191 0.673164 0.764988
Si Si5 0.861952 0.678402 0.347829
Si Si6 0.301018 0.824169 0.327416
Si Si7 0.701386 0.175511 0.994642
O O1 0.999204 0.500000 0.151855
O O2 0.924872 0.274806 0.072152
O O3 0.072411 0.274321 0.403483
O O4 0.000000 0.270397 0.000000
O O5 0.500000 0.267533 0.500000
O O6 0.570105 0.500000 0.746205
O O7 0.501425 0.320340 0.753646
O O8 0.631111 0.240927 0.919257
O O9 0.853583 0.500000 0.011765
O O10 0.879191 0.282984 0.229916
O O11 0.779170 0.250235 0.817811
O O12 0.430567 0.500000 0.753054
O O13 0.370665 0.757848 0.564924
O O14 0.500000 0.732751 0.000000
O O15 0.856175 0.500000 0.340554
O O16 0.781339 0.748673 0.204317
O O17 0.296366 0.000000 0.334051
O O18 0.314442 0.792958 0.198684
O O19 0.707087 0.000000 0.024362
#
# Coordination Sequence:
#
# PCOD9146567 Si02
#       7
#     4   4   4   4   4   4   4
#     4   9  17  31  52  79 105 129 164 212 260 303
#     4  10  19  33  56  80 102 132 173 216 258 303
#     4   9  17  31  54  78 100 131 171 212 254 302
#     4  10  21  37  55  77 104 135 173 216 260 306
#     4   9  17  31  53  77 102 132 170 212 253 302
#     4  10  20  34  53  77 106 138 174 213 255 305
#     4  10  20  33  52  79 107 136 173 215 257 301
#
# _framework density 17.606159999999999
#
# number of rings (size 3 to 8) (size 9 to 14) (size 15 to 20)
#    0.000    2.429    1.429    1.286    0.000    4.000 
#    2.571    0.714    0.000    4.286    0.000    0.000 
#    0.000    0.000    0.000    0.000    0.000    0.000 
#
# Total GULP energy -156162.026278 kJ/mol
# GULP energy per Si atom -5577.215224 kJ/mol
# Density = 1.756609 g / cm^3
# Si number density = 17.606160 Si / 1000 Ang^3
#
#
#
# Elastic Constant Matrix: (Units=GPa)
#
#
# Indices 1 2 3 4 5 6 
#
# 1 77.1924 24.2057 68.7892 0.0000 19.2125 0.0000
# 2 24.2057 22.8142 42.8746 0.0000 9.2638 0.0000
# 3 68.7892 42.8746 161.8516 0.0000 18.2016 0.0000
# 4 0.0000 0.0000 0.0000 -18.0067 0.0000 -5.2808
# 5 19.2125 9.2638 18.2016 0.0000 24.0312 0.0000
# 6 0.0000 0.0000 0.0000 -5.2808 0.0000 -1.2922
#
#
#
# Elastic Compliance Matrix: (Units=1/GPa)
#
#
# Indices 1 2 3 4 5 6 
#
# 1 0.024574 -0.008528 -0.006936 0.000000 -0.011105 0.000000
# 2 -0.008528 0.097665 -0.020528 0.000000 -0.015282 0.000000
# 3 -0.006936 -0.020528 0.014266 0.000000 0.002654 0.000000
# 4 0.000000 0.000000 0.000000 0.279699 0.000000 -1.143089
# 5 -0.011105 -0.015282 0.002654 0.000000 0.054372 0.000000
# 6 0.000000 0.000000 0.000000 -1.143089 0.000000 3.897731
#
#
# Mechanical properties :
#
#
# Convention : Reuss Voigt Hill
#
# Bulk Modulus (GPa) = 15.49923 59.28861 37.39392
# Shear Modulus (GPa) = 1.12062 9.34572 5.23317
#
# Velocity S-wave (km/s) = 0.79867 2.30645 1.72592
# Velocity P-wave (km/s) = 3.11013 6.39070 5.02563
#
# Compressibility (1/GPa) = 0.06451934
#
# Stress axis : x y z
#
# Youngs Moduli (GPa) = 40.69317 10.23912 70.09642
#
# Poissons Ratio (x) = 0.08732 0.48621
# Poissons Ratio (y) = 0.34704 1.43895
# Poissons Ratio (z) = 0.28226 0.21019
#
# Static dielectric constant tensor:
#      x y z
#    x 1.634220 0.000000 -0.025940 
#    y 0.000000 1.585800 0.000000 
#    z -0.025940 0.000000 1.592340 
# 
# From -- ./inp_files/36980.got.cif
#   From: 2010.05.17/outbox.cif.g08.bks.cpg/sg10_19_cif.got.tgz:36980.got - 2010.06.03 11:33:40.
