data_PCOD9146150
_publ_section_title
;
Structure prediction by ZEFSAII (Michael W. Deem and Ramdas Pophale) SiO2 
 PCOD9146150
Probable space group: P 2/M
;
_chemical_formula_sum "Si O2"
_cell_formula_units_Z 28
_cell_length_a 7.800221
_cell_length_b 8.015905
_cell_length_c 24.754389
_cell_angle_alpha 90.000000
_cell_angle_beta 137.892898
_cell_angle_gamma 90.000000
_cell_volume 1037.821109
_symmetry_space_group_name_H-M "P 2/M"
_symmetry_group_IT_number 10
_symmetry_cell_setting 'monoclinic'
loop_
_space_group_symop_operation_xyz
x,y,z
-x,y,-z
-x,-y,-z
x,-y,z
loop_
_atom_site_type_symbol
_atom_site_label
_atom_site_fract_x
_atom_site_fract_y
_atom_site_fract_z
Si Si1 0.733413 0.188316 0.985891
Si Si2 0.098078 0.801563 0.596527
Si Si3 0.994174 0.696585 0.694796
Si Si4 0.557373 0.299497 0.833640
Si Si5 0.807052 0.685696 0.116188
Si Si6 0.552537 0.300914 0.447952
Si Si7 0.654373 0.194233 0.734669
O O1 0.738067 0.250878 0.925443
O O2 0.427112 0.193298 0.926727
O O3 0.827374 0.000000 0.013217
O O4 0.849174 0.298331 0.061341
O O5 0.383354 0.736587 0.648348
O O6 0.040129 0.720380 0.641169
O O7 0.831852 0.774676 0.502696
O O8 0.129273 0.000000 0.610030
O O9 0.972736 0.500000 0.699727
O O10 0.711137 0.769851 0.639593
O O11 0.266059 0.754001 0.781064
O O12 0.559313 0.500000 0.826199
O O13 0.613072 0.212060 0.790051
O O14 0.712848 0.500000 0.106959
O O15 0.074131 0.715094 0.208701
O O16 0.500000 0.274807 0.500000
O O17 0.570437 0.500000 0.443933
O O18 0.686608 0.000000 0.729820
#
# Coordination Sequence:
#
# PCOD9146150 Si02
#       7
#     4   4   4   4   4   4   4
#     4  11  22  38  57  77 102 131 161 200 251 300
#     4   9  16  24  38  62  93 126 160 199 241 287
#     4   8  15  26  40  60  91 128 162 199 241 283
#     4  10  19  33  52  76 104 134 170 209 247 292
#     4  11  22  38  58  78  98 127 168 207 243 292
#     4   8  13  22  36  56  86 125 163 196 236 284
#     4  10  20  34  50  74 106 136 166 205 255 300
#
# _framework density 26.979599
#
# number of rings (size 3 to 8) (size 9 to 14) (size 15 to 20)
#    0.000    2.429    0.000    5.571    0.000    5.429 
#    0.000    2.857    0.000    0.000    0.000    1.000 
#    0.000    8.000    0.000    0.000    0.000    0.000 
#
# Total GULP energy -156723.079171 kJ/mol
# GULP energy per Si atom -5597.252828 kJ/mol
# Density = 2.691819 g / cm^3
# Si number density = 26.979599 Si / 1000 Ang^3
#
#
#
# Elastic Constant Matrix: (Units=GPa)
#
#
# Indices 1 2 3 4 5 6 
#
# 1 101.5759 6.1574 5.6258 0.0000 34.5349 0.0000
# 2 6.1574 81.8325 18.6630 0.0000 0.6886 0.0000
# 3 5.6258 18.6630 213.2288 0.0000 16.9378 0.0000
# 4 0.0000 0.0000 0.0000 31.6989 0.0000 1.7621
# 5 34.5349 0.6886 16.9378 0.0000 59.5875 0.0000
# 6 0.0000 0.0000 0.0000 1.7621 0.0000 21.8691
#
#
#
# Elastic Compliance Matrix: (Units=1/GPa)
#
#
# Indices 1 2 3 4 5 6 
#
# 1 0.012344 -0.000944 0.000332 0.000000 -0.007238 0.000000
# 2 -0.000944 0.012543 -0.001130 0.000000 0.000723 0.000000
# 3 0.000332 -0.001130 0.004905 0.000000 -0.001574 0.000000
# 4 0.000000 0.000000 0.000000 0.031689 0.000000 -0.002553
# 5 -0.007238 0.000723 -0.001574 0.000000 0.021416 0.000000
# 6 0.000000 0.000000 0.000000 -0.002553 0.000000 0.045932
#
#
# Mechanical properties :
#
#
# Convention : Reuss Voigt Hill
#
# Bulk Modulus (GPa) = 38.01134 50.83661 44.42398
# Shear Modulus (GPa) = 35.44015 47.04383 41.24199
#
# Velocity S-wave (km/s) = 3.62828 4.18027 3.91402
# Velocity P-wave (km/s) = 5.62779 6.49485 6.07681
#
# Compressibility (1/GPa) = 0.02630794
#
# Stress axis : x y z
#
# Youngs Moduli (GPa) = 81.00781 79.72699 203.87488
#
# Poissons Ratio (x) = 0.07523 -0.06765
# Poissons Ratio (y) = 0.07644 0.23045
# Poissons Ratio (z) = -0.02688 0.09012
#
# Static dielectric constant tensor:
#      x y z
#    x 2.269150 0.000000 -0.024040 
#    y 0.000000 1.897950 0.000000 
#    z -0.024040 0.000000 2.161450 
# 
# From -- ./inp_files/79324.got.cif
#   From: 2010.05.17/outbox.cif.g08.bks.cpg/sg10_40_cif.got.tgz:79324.got - 2010.06.03 11:33:40.
