data_PCOD9146327
_publ_section_title
;
Structure prediction by ZEFSAII (Michael W. Deem and Ramdas Pophale) SiO2 
 PCOD9146327
Probable space group: P 2/M
;
_chemical_formula_sum "Si O2"
_cell_formula_units_Z 28
_cell_length_a 20.789516
_cell_length_b 7.889059
_cell_length_c 15.025172
_cell_angle_alpha 90.000000
_cell_angle_beta 32.273112
_cell_angle_gamma 90.000000
_cell_volume 1315.813079
_symmetry_space_group_name_H-M "P 2/M"
_symmetry_group_IT_number 10
_symmetry_cell_setting 'monoclinic'
loop_
_space_group_symop_operation_xyz
x,y,z
-x,y,-z
-x,-y,-z
x,-y,z
loop_
_atom_site_type_symbol
_atom_site_label
_atom_site_fract_x
_atom_site_fract_y
_atom_site_fract_z
Si Si1 0.737467 0.293614 0.356267
Si Si2 0.862708 0.792031 0.675776
Si Si3 0.057343 0.705202 0.745809
Si Si4 0.210122 0.699981 0.899892
Si Si5 0.296556 0.803975 0.979710
Si Si6 0.446950 0.301727 0.280300
Si Si7 0.247150 0.800766 0.378185
O O1 0.729007 0.500000 0.366269
O O2 0.860570 0.251868 0.264549
O O3 0.741974 0.231092 0.249942
O O4 0.628152 0.234190 0.546559
O O5 0.782215 0.737137 0.686027
O O6 0.000000 0.739045 0.500000
O O7 0.861237 0.000000 0.678220
O O8 0.805135 0.732123 0.835438
O O9 0.057533 0.500000 0.737151
O O10 0.127570 0.775365 0.578209
O O11 0.921653 0.767496 0.918244
O O12 0.191924 0.500000 0.905827
O O13 0.296407 0.721084 0.883051
O O14 0.425368 0.787627 0.875996
O O15 0.268870 0.000000 0.997057
O O16 0.471639 0.500000 0.264743
O O17 0.357519 0.282583 0.301521
O O18 0.273343 0.000000 0.342738
#
# Coordination Sequence:
#
# PCOD9146327 Si02
#       7
#     4   4   4   4   4   4   4
#     4   8  16  32  55  78 103 141 182 216 254 314
#     4   9  19  36  57  80 107 141 176 208 254 321
#     4   9  17  31  53  82 112 140 174 218 266 315
#     4  10  19  33  54  79 107 142 183 221 261 310
#     4  11  23  38  55  77 107 140 178 223 267 313
#     4  10  21  39  58  78 106 139 179 221 265 316
#     4  10  19  34  58  82 106 140 180 220 262 310
#
# _framework density 21.279619
#
# number of rings (size 3 to 8) (size 9 to 14) (size 15 to 20)
#    0.000    2.429    0.000    3.429    0.000    4.571 
#    0.000   12.143    0.000    9.429    0.000    0.000 
#    0.000    0.000    0.000    0.000    0.000    0.000 
#
# Total GULP energy -156343.945907 kJ/mol
# GULP energy per Si atom -5583.712354 kJ/mol
# Density = 2.123119 g / cm^3
# Si number density = 21.279619 Si / 1000 Ang^3
#
#
#
# Elastic Constant Matrix: (Units=GPa)
#
#
# Indices 1 2 3 4 5 6 
#
# 1 71.4875 -4.2071 17.1465 0.0000 15.9670 0.0000
# 2 -4.2071 23.3370 1.8112 0.0000 2.8189 0.0000
# 3 17.1465 1.8112 37.1311 0.0000 -11.5532 0.0000
# 4 0.0000 0.0000 0.0000 19.4782 0.0000 -2.3780
# 5 15.9670 2.8189 -11.5532 0.0000 31.0291 0.0000
# 6 0.0000 0.0000 0.0000 -2.3780 0.0000 20.6749
#
#
#
# Elastic Compliance Matrix: (Units=1/GPa)
#
#
# Indices 1 2 3 4 5 6 
#
# 1 0.022496 0.007557 -0.016482 0.000000 -0.018399 0.000000
# 2 0.007557 0.046337 -0.009353 0.000000 -0.011581 0.000000
# 3 -0.016482 -0.009353 0.042868 0.000000 0.025292 0.000000
# 4 0.000000 0.000000 0.000000 0.052071 0.000000 0.005989
# 5 -0.018399 -0.011581 0.025292 0.000000 0.052165 0.000000
# 6 0.000000 0.000000 0.000000 0.005989 0.000000 0.049057
#
#
# Mechanical properties :
#
#
# Convention : Reuss Voigt Hill
#
# Bulk Modulus (GPa) = 13.30748 17.93967 15.62357
# Shear Modulus (GPa) = 15.30931 22.05011 18.67971
#
# Velocity S-wave (km/s) = 2.68514 3.22251 2.96602
# Velocity P-wave (km/s) = 3.98503 4.72174 4.36894
#
# Compressibility (1/GPa) = 0.07514572
#
# Stress axis : x y z
#
# Youngs Moduli (GPa) = 44.45251 21.58082 23.32719
#
# Poissons Ratio (x) = -0.16309 0.38447
# Poissons Ratio (y) = -0.33593 0.21819
# Poissons Ratio (z) = 0.73265 0.20185
#
# Static dielectric constant tensor:
#      x y z
#    x 1.748060 0.000000 0.012020 
#    y 0.000000 1.773450 0.000000 
#    z 0.012020 0.000000 1.756710 
# 
# From -- ./inp_files/49142.got.cif
#   From: 2010.05.17/outbox.cif.g08.bks.cpg/sg10_25_cif.got.tgz:49142.got - 2010.06.03 11:33:40.
