data_PCOD9146949
_publ_section_title
;
Structure prediction by ZEFSAII (Michael W. Deem and Ramdas Pophale) SiO2 
 PCOD9146949
Probable space group: P 2/M
;
_chemical_formula_sum "Si O2"
_cell_formula_units_Z 32
_cell_length_a 12.899654
_cell_length_b 8.752863
_cell_length_c 32.428882
_cell_angle_alpha 90.000000
_cell_angle_beta 153.392375
_cell_angle_gamma 90.000000
_cell_volume 1639.909856
_symmetry_space_group_name_H-M "P 2/M"
_symmetry_group_IT_number 10
_symmetry_cell_setting 'monoclinic'
loop_
_space_group_symop_operation_xyz
x,y,z
-x,y,-z
-x,-y,-z
x,-y,z
loop_
_atom_site_type_symbol
_atom_site_label
_atom_site_fract_x
_atom_site_fract_y
_atom_site_fract_z
Si Si1 0.455753 0.315711 0.812918
Si Si2 0.977728 0.681035 0.398926
Si Si3 0.767598 0.181212 0.856768
Si Si4 0.887845 0.316038 0.081178
Si Si5 0.432254 0.180912 0.586563
Si Si6 0.612807 0.685658 0.117021
Si Si7 0.078359 0.685009 0.237386
Si Si8 0.620991 0.318073 0.341759
O O1 0.477910 0.500000 0.818843
O O2 0.221770 0.275159 0.704529
O O3 0.674533 0.245381 0.866985
O O4 0.424565 0.268315 0.848947
O O5 0.020911 0.500000 0.409901
O O6 0.859144 0.705222 0.401541
O O7 0.217817 0.769080 0.481909
O O8 0.574038 0.236472 0.755001
O O9 0.001728 0.249159 0.921009
O O10 0.780333 0.000000 0.862924
O O11 0.897591 0.500000 0.081933
O O12 0.030288 0.271100 0.172574
O O13 0.619674 0.270311 0.989942
O O14 0.681424 0.245431 0.662068
O O15 0.382594 0.254656 0.613705
O O16 0.442003 0.000000 0.593702
O O17 0.621124 0.500000 0.119189
O O18 0.854197 0.736435 0.183425
O O19 0.093173 0.500000 0.244125
O O20 0.573603 0.500000 0.325413
#
# Coordination Sequence:
#
# PCOD9146949 Si02
#       8
#     4   4   4   4   4   4   4   4
#     4   9  19  38  60  81 111 146 189 238 279 323
#     4   9  19  34  54  78 106 144 185 227 278 329
#     4  11  21  33  53  83 119 152 184 222 274 337
#     4  10  19  34  59  87 115 144 181 232 287 334
#     4  12  23  33  51  81 115 148 182 223 275 336
#     4   9  19  37  62  87 105 140 196 242 278 325
#     4  10  20  36  59  84 114 146 184 234 283 330
#     4  10  19  34  55  80 111 146 183 226 278 329
#
# _framework density 19.513268
#
# number of rings (size 3 to 8) (size 9 to 14) (size 15 to 20)
#    0.000    2.000    1.250    4.125    0.000    6.000 
#    0.000    5.000    0.000    5.250    0.000    0.000 
#    0.000    0.000    0.000    0.000    0.000    0.000 
#
# Total GULP energy -178710.348890 kJ/mol
# GULP energy per Si atom -5584.698403 kJ/mol
# Density = 1.946885 g / cm^3
# Si number density = 19.513268 Si / 1000 Ang^3
#
#
#
# Elastic Constant Matrix: (Units=GPa)
#
#
# Indices 1 2 3 4 5 6 
#
# 1 87.1635 23.1343 23.7818 0.0000 19.8318 0.0000
# 2 23.1343 35.1957 13.4883 0.0000 10.1782 0.0000
# 3 23.7818 13.4883 52.5387 0.0000 26.0647 0.0000
# 4 0.0000 0.0000 0.0000 -23.1429 0.0000 -22.3470
# 5 19.8318 10.1782 26.0647 0.0000 28.6051 0.0000
# 6 0.0000 0.0000 0.0000 -22.3470 0.0000 -11.9290
#
#
#
# Elastic Compliance Matrix: (Units=1/GPa)
#
#
# Indices 1 2 3 4 5 6 
#
# 1 0.015438 -0.007601 -0.001950 0.000000 -0.006222 0.000000
# 2 -0.007601 0.036045 -0.003768 0.000000 -0.004122 0.000000
# 3 -0.001950 -0.003768 0.035674 0.000000 -0.029813 0.000000
# 4 0.000000 0.000000 0.000000 0.053417 0.000000 -0.100069
# 5 -0.006222 -0.004122 -0.029813 0.000000 0.067904 0.000000
# 6 0.000000 0.000000 0.000000 -0.100069 0.000000 0.103633
#
#
# Mechanical properties :
#
#
# Convention : Reuss Voigt Hill
#
# Bulk Modulus (GPa) = 16.52389 32.85632 24.69011
# Shear Modulus (GPa) = 13.93062 6.33953 10.13508
#
# Velocity S-wave (km/s) = 2.67480 1.80441 2.28149
# Velocity P-wave (km/s) = 4.24568 4.60605 4.42953
#
# Compressibility (1/GPa) = 0.06051843
#
# Stress axis : x y z
#
# Youngs Moduli (GPa) = 64.77679 27.74331 28.03155
#
# Poissons Ratio (x) = 0.21087 0.05466
# Poissons Ratio (y) = 0.49235 0.10563
# Poissons Ratio (z) = 0.12632 0.10454
#
# Static dielectric constant tensor:
#      x y z
#    x 1.682550 0.000000 0.010880 
#    y 0.000000 1.646730 0.000000 
#    z 0.010880 0.000000 1.700250 
# 
# From -- ./inp_files/95090.got.cif
#   From: 2010.05.17/outbox.cif.g08.bks.cpg/sg10_48_cif.got.tgz:95090.got - 2010.06.03 11:33:40.
