data_PCOD9146014
_publ_section_title
;
Structure prediction by ZEFSAII (Michael W. Deem and Ramdas Pophale) SiO2 
 PCOD9146014
Probable space group: P 2/M
;
_chemical_formula_sum "Si O2"
_cell_formula_units_Z 28
_cell_length_a 22.261697
_cell_length_b 10.604706
_cell_length_c 19.410866
_cell_angle_alpha 90.000000
_cell_angle_beta 160.844968
_cell_angle_gamma 90.000000
_cell_volume 1503.632177
_symmetry_space_group_name_H-M "P 2/M"
_symmetry_group_IT_number 10
_symmetry_cell_setting 'monoclinic'
loop_
_space_group_symop_operation_xyz
x,y,z
-x,y,-z
-x,-y,-z
x,-y,z
loop_
_atom_site_type_symbol
_atom_site_label
_atom_site_fract_x
_atom_site_fract_y
_atom_site_fract_z
Si Si1 0.264524 0.356804 0.335528
Si Si2 0.282278 0.136801 0.250812
Si Si3 0.034679 0.151757 0.614206
Si Si4 0.205710 0.853096 0.516657
Si Si5 0.620078 0.851384 0.923647
Si Si6 0.943243 0.361377 0.745696
Si Si7 0.339335 0.275693 0.179605
O O1 0.244465 0.500000 0.287610
O O2 0.217642 0.252738 0.227610
O O3 0.140428 0.341273 0.268909
O O4 0.476037 0.335053 0.588458
O O5 0.500000 0.130463 0.500000
O O6 0.270246 0.167638 0.157336
O O7 0.202630 0.000000 0.181699
O O8 0.000000 0.202084 0.500000
O O9 0.870065 0.173647 0.489243
O O10 0.055102 0.000000 0.629873
O O11 0.218550 0.196159 0.851834
O O12 0.423376 0.841256 0.746261
O O13 0.117626 0.753462 0.368792
O O14 0.157491 0.000000 0.447830
O O15 0.617862 0.778900 0.849040
O O16 0.653302 0.000000 0.945193
O O17 0.875566 0.500000 0.648954
O O18 0.162578 0.363273 0.984449
#
# Coordination Sequence:
#
# PCOD9146014 Si02
#       7
#     4   4   4   4   4   4   4
#     4  10  22  39  56  78 111 148 188 238 288 337
#     4   9  20  36  56  81 110 146 188 237 289 337
#     4   9  18  33  55  87 123 150 180 226 280 336
#     4  10  20  35  57  85 114 150 187 229 282 334
#     4  10  19  32  55  85 115 148 188 231 279 332
#     4  11  23  37  56  85 113 146 193 240 282 336
#     4  11  20  35  58  80 109 148 193 235 284 334
#
# _framework density 18.621575
#
# number of rings (size 3 to 8) (size 9 to 14) (size 15 to 20)
#    0.000    2.000    2.857    0.857    0.000    6.000 
#    0.000    5.000    0.000    0.429    0.000    1.000 
#    0.000    0.000    0.000    0.000    0.000    0.000 
#
# Total GULP energy -156216.401484 kJ/mol
# GULP energy per Si atom -5579.157196 kJ/mol
# Density = 1.857919 g / cm^3
# Si number density = 18.621575 Si / 1000 Ang^3
#
#
#
# Elastic Constant Matrix: (Units=GPa)
#
#
# Indices 1 2 3 4 5 6 
#
# 1 118.7630 67.2101 50.1889 0.0000 -1.9867 0.0000
# 2 67.2101 105.7784 27.9106 0.0000 -4.4523 0.0000
# 3 50.1889 27.9106 69.6875 0.0000 5.9733 0.0000
# 4 0.0000 0.0000 0.0000 4.1907 0.0000 1.1147
# 5 -1.9867 -4.4523 5.9733 0.0000 31.5729 0.0000
# 6 0.0000 0.0000 0.0000 1.1147 0.0000 10.1826
#
#
#
# Elastic Compliance Matrix: (Units=1/GPa)
#
#
# Indices 1 2 3 4 5 6 
#
# 1 0.016982 -0.008341 -0.009027 0.000000 0.001600 0.000000
# 2 -0.008341 0.014839 -0.000072 0.000000 0.001581 0.000000
# 3 -0.009027 -0.000072 0.021274 0.000000 -0.004603 0.000000
# 4 0.000000 0.000000 0.000000 0.245781 0.000000 -0.026906
# 5 0.001600 0.001581 -0.004603 0.000000 0.032867 0.000000
# 6 0.000000 0.000000 0.000000 -0.026906 0.000000 0.101152
#
#
# Mechanical properties :
#
#
# Convention : Reuss Voigt Hill
#
# Bulk Modulus (GPa) = 54.89612 64.98313 59.93963
# Shear Modulus (GPa) = 10.55196 19.11719 14.83458
#
# Velocity S-wave (km/s) = 2.38303 3.20756 2.82553
# Velocity P-wave (km/s) = 6.09226 6.97785 6.55004
#
# Compressibility (1/GPa) = 0.01821622
#
# Stress axis : x y z
#
# Youngs Moduli (GPa) = 58.88622 67.39072 47.00537
#
# Poissons Ratio (x) = 0.56210 0.42431
# Poissons Ratio (y) = 0.49116 0.00336
# Poissons Ratio (z) = 0.53156 0.00482
#
# Static dielectric constant tensor:
#      x y z
#    x 1.621440 0.000000 0.008680 
#    y 0.000000 1.659080 0.000000 
#    z 0.008680 0.000000 1.658970 
# 
# From -- ./inp_files/79560.got.cif
#   From: 2010.05.17/outbox.cif.g08.bks.cpg/sg10_40_cif.got.tgz:79560.got - 2010.06.03 11:33:40.
