data_PCOD9146687
_publ_section_title
;
Structure prediction by ZEFSAII (Michael W. Deem and Ramdas Pophale) SiO2 
 PCOD9146687
Probable space group: P 2/M
;
_chemical_formula_sum "Si O2"
_cell_formula_units_Z 28
_cell_length_a 16.313356
_cell_length_b 7.699988
_cell_length_c 20.919336
_cell_angle_alpha 90.000000
_cell_angle_beta 150.146249
_cell_angle_gamma 90.000000
_cell_volume 1308.053551
_symmetry_space_group_name_H-M "P 2/M"
_symmetry_group_IT_number 10
_symmetry_cell_setting 'monoclinic'
loop_
_space_group_symop_operation_xyz
x,y,z
-x,y,-z
-x,-y,-z
x,-y,z
loop_
_atom_site_type_symbol
_atom_site_label
_atom_site_fract_x
_atom_site_fract_y
_atom_site_fract_z
Si Si1 0.558089 0.804245 0.973425
Si Si2 0.598603 0.792590 0.628400
Si Si3 0.782617 0.708108 0.302316
Si Si4 0.117701 0.294348 0.482834
Si Si5 0.971000 0.707788 0.907538
Si Si6 0.301587 0.792560 0.057000
Si Si7 0.465654 0.796105 0.672777
O O1 0.384773 0.808311 0.819733
O O2 0.677224 0.722137 0.000891
O O3 0.616656 0.000000 0.029296
O O4 0.500000 0.715882 0.000000
O O5 0.500000 0.723875 0.500000
O O6 0.794476 0.764344 0.760989
O O7 0.530986 0.720991 0.650238
O O8 0.569799 0.000000 0.609875
O O9 0.759134 0.500000 0.277679
O O10 0.835680 0.731797 0.411392
O O11 0.928474 0.767196 0.353078
O O12 0.114900 0.500000 0.468622
O O13 0.269142 0.219640 0.545791
O O14 0.970669 0.500000 0.909994
O O15 0.000000 0.773494 0.000000
O O16 0.123735 0.763787 0.967290
O O17 0.437255 0.722756 0.199644
O O18 0.327932 0.000000 0.068061
O O19 0.507791 0.000000 0.701178
#
# Coordination Sequence:
#
# PCOD9146687 Si02
#       7
#     4   4   4   4   4   4   4
#     4  10  21  37  55  78 109 144 185 236 286 327
#     4  10  22  41  62  84 115 153 189 233 291 347
#     4   9  18  33  52  75 105 142 180 217 268 330
#     4   9  18  32  52  78 107 139 176 223 273 322
#     4  11  23  38  61  92 120 150 193 241 289 345
#     4  10  20  36  59  84 111 147 192 238 284 338
#     4  10  19  33  57  85 107 138 187 233 278 336
#
# _framework density 21.405851999999999
#
# number of rings (size 3 to 8) (size 9 to 14) (size 15 to 20)
#    0.000    2.143    2.857    1.286    0.000    3.429 
#    2.571    1.429    0.000    0.000    0.000    0.000 
#    0.000    0.000    0.000    0.000    0.000    0.000 
#
# Total GULP energy -156128.856698 kJ/mol
# GULP energy per Si atom -5576.030596 kJ/mol
# Density = 2.135713 g / cm^3
# Si number density = 21.405852 Si / 1000 Ang^3
#
#
#
# Elastic Constant Matrix: (Units=GPa)
#
#
# Indices 1 2 3 4 5 6 
#
# 1 183.5822 1.4134 42.4915 0.0000 11.9205 0.0000
# 2 1.4134 28.6778 -6.5928 0.0000 -12.2658 0.0000
# 3 42.4915 -6.5928 62.3343 0.0000 12.1606 0.0000
# 4 0.0000 0.0000 0.0000 42.0238 0.0000 31.9558
# 5 11.9205 -12.2658 12.1606 0.0000 35.0473 0.0000
# 6 0.0000 0.0000 0.0000 31.9558 0.0000 34.0251
#
#
#
# Elastic Compliance Matrix: (Units=1/GPa)
#
#
# Indices 1 2 3 4 5 6 
#
# 1 0.006574 -0.001929 -0.004416 0.000000 -0.001379 0.000000
# 2 -0.001929 0.041733 0.002951 0.000000 0.014238 0.000000
# 3 -0.004416 0.002951 0.020241 0.000000 -0.004488 0.000000
# 4 0.000000 0.000000 0.000000 0.083254 0.000000 -0.078191
# 5 -0.001379 0.014238 -0.004488 0.000000 0.035542 0.000000
# 6 0.000000 0.000000 0.000000 -0.078191 0.000000 0.102826
#
#
# Mechanical properties :
#
#
# Convention : Reuss Voigt Hill
#
# Bulk Modulus (GPa) = 16.19173 38.80207 27.49690
# Shear Modulus (GPa) = 15.74589 38.03805 26.89197
#
# Velocity S-wave (km/s) = 2.71511 4.22001 3.54826
# Velocity P-wave (km/s) = 4.17249 6.47386 5.44613
#
# Compressibility (1/GPa) = 0.06175993
#
# Stress axis : x y z
#
# Youngs Moduli (GPa) = 152.12207 23.96165 49.40569
#
# Poissons Ratio (x) = 0.04622 0.21818
# Poissons Ratio (y) = 0.29343 -0.14580
# Poissons Ratio (z) = 0.67179 -0.07072
#
# Static dielectric constant tensor:
#      x y z
#    x 1.817700 0.000000 -0.013990 
#    y 0.000000 1.789590 0.000000 
#    z -0.013990 0.000000 1.767470 
# 
# From -- ./inp_files/84788.got.cif
#   From: 2010.05.17/outbox.cif.g08.bks.cpg/sg10_43_cif.got.tgz:84788.got - 2010.06.03 11:33:40.
