data_PCOD9146779
_publ_section_title
;
Structure prediction by ZEFSAII (Michael W. Deem and Ramdas Pophale) SiO2 
 PCOD9146779
Probable space group: P 2/M
;
_chemical_formula_sum "Si O2"
_cell_formula_units_Z 30
_cell_length_a 20.969656
_cell_length_b 13.986163
_cell_length_c 5.504416
_cell_angle_alpha 90.000000
_cell_angle_beta 112.042853
_cell_angle_gamma 90.000000
_cell_volume 1496.358391
_symmetry_space_group_name_H-M "P 2/M"
_symmetry_group_IT_number 10
_symmetry_cell_setting 'monoclinic'
loop_
_space_group_symop_operation_xyz
x,y,z
-x,y,-z
-x,-y,-z
x,-y,z
loop_
_atom_site_type_symbol
_atom_site_label
_atom_site_fract_x
_atom_site_fract_y
_atom_site_fract_z
Si Si1 0.075992 0.108020 0.097318
Si Si2 0.420595 0.803162 0.958956
Si Si3 0.649427 0.608926 0.008888
Si Si4 0.544617 0.000000 0.808588
Si Si5 0.187903 0.103802 0.640851
Si Si6 0.684806 0.891947 0.551357
Si Si7 0.798130 0.220225 0.948225
Si Si8 0.736620 0.393806 0.632147
O O1 0.113693 0.100927 0.409837
O O2 0.134163 0.162423 0.030893
O O3 0.068238 0.000000 0.988917
O O4 0.000000 0.150933 0.000000
O O5 0.415011 0.899300 0.116294
O O6 0.500000 0.793906 0.000000
O O7 0.397762 0.702926 0.041492
O O8 0.374513 0.830074 0.658344
O O9 0.619405 0.500000 0.987162
O O10 0.698558 0.618958 0.318793
O O11 0.686341 0.611224 0.797995
O O12 0.500000 0.000000 0.500000
O O13 0.500000 0.000000 0.000000
O O14 0.251336 0.099760 0.545609
O O15 0.194499 0.000000 0.788640
O O16 0.194245 0.211197 0.755006
O O17 0.725623 0.836990 0.818514
O O18 0.661406 0.000000 0.571068
O O19 0.791089 0.313463 0.780222
O O20 0.766583 0.500000 0.671976
#
# Coordination Sequence:
#
# PCOD9146779 Si02
#       8
#     4   4   4   2   4   4   4   4
#     4   9  19  34  52  81 124 161 194 235 286 349
#     4  11  22  39  59  84 121 162 203 248 308 369
#     4  10  22  42  64  90 117 152 202 258 314 365
#     4  10  24  44  58  82 120 162 205 238 293 376
#     4   9  18  31  50  80 111 149 195 241 286 343
#     4  10  19  34  51  80 115 150 194 247 296 351
#     4  11  19  32  58  81 114 150 199 243 299 349
#     4  10  22  39  64  90 117 150 195 252 310 362
#
# _framework density 20.048673000000001
#
# number of rings (size 3 to 8) (size 9 to 14) (size 15 to 20)
#    0.000    2.000    2.000    2.800    1.867    2.933 
#    4.800    2.000    0.000    3.200    0.000    0.933 
#    0.000    0.000    0.000    0.000    0.000    0.000 
#
# Total GULP energy -167020.399195 kJ/mol
# GULP energy per Si atom -5567.346640 kJ/mol
# Density = 2.000304 g / cm^3
# Si number density = 20.048673 Si / 1000 Ang^3
#
#
#
# Elastic Constant Matrix: (Units=GPa)
#
#
# Indices 1 2 3 4 5 6 
#
# 1 73.3452 29.7522 24.8511 0.0000 24.4167 0.0000
# 2 29.7522 115.2335 9.4942 0.0000 5.9982 0.0000
# 3 24.8511 9.4942 59.2147 0.0000 2.2867 0.0000
# 4 0.0000 0.0000 0.0000 23.6619 0.0000 -4.8857
# 5 24.4167 5.9982 2.2867 0.0000 27.8692 0.0000
# 6 0.0000 0.0000 0.0000 -4.8857 0.0000 7.5687
#
#
#
# Elastic Compliance Matrix: (Units=1/GPa)
#
#
# Indices 1 2 3 4 5 6 
#
# 1 0.025519 -0.004763 -0.009151 0.000000 -0.020581 0.000000
# 2 -0.004763 0.009773 0.000353 0.000000 0.002041 0.000000
# 3 -0.009151 0.000353 0.020430 0.000000 0.006265 0.000000
# 4 0.000000 0.000000 0.000000 0.048761 0.000000 0.031476
# 5 -0.020581 0.002041 0.006265 0.000000 0.052960 0.000000
# 6 0.000000 0.000000 0.000000 0.031476 0.000000 0.152442
#
#
# Mechanical properties :
#
#
# Convention : Reuss Voigt Hill
#
# Bulk Modulus (GPa) = 34.96676 41.77649 38.37163
# Shear Modulus (GPa) = 14.42840 24.06636 19.24738
#
# Velocity S-wave (km/s) = 2.68557 3.46843 3.10180
# Velocity P-wave (km/s) = 5.20531 6.07641 5.65765
#
# Compressibility (1/GPa) = 0.02859859
#
# Stress axis : x y z
#
# Youngs Moduli (GPa) = 39.18717 102.32761 48.94860
#
# Poissons Ratio (x) = 0.48743 0.44793
# Poissons Ratio (y) = 0.18666 -0.01730
# Poissons Ratio (z) = 0.35860 -0.03616
#
# Static dielectric constant tensor:
#      x y z
#    x 1.734200 0.000000 -0.079410 
#    y 0.000000 1.802850 0.000000 
#    z -0.079410 0.000000 1.810300 
# 
# From -- ./inp_files/12729.got.cif
#   From: 2010.05.17/outbox.cif.g08.bks.cpg/sg10_7_cif.got.tgz:12729.got - 2010.06.03 11:33:40.
