data_PCOD9146892
_publ_section_title
;
Structure prediction by ZEFSAII (Michael W. Deem and Ramdas Pophale) SiO2 
 PCOD9146892
Probable space group: P 2/M
;
_chemical_formula_sum "Si O2"
_cell_formula_units_Z 32
_cell_length_a 12.155281
_cell_length_b 18.599749
_cell_length_c 15.448355
_cell_angle_alpha 90.000000
_cell_angle_beta 27.588320
_cell_angle_gamma 90.000000
_cell_volume 1617.497139
_symmetry_space_group_name_H-M "P 2/M"
_symmetry_group_IT_number 10
_symmetry_cell_setting 'monoclinic'
loop_
_space_group_symop_operation_xyz
x,y,z
-x,y,-z
-x,-y,-z
x,-y,z
loop_
_atom_site_type_symbol
_atom_site_label
_atom_site_fract_x
_atom_site_fract_y
_atom_site_fract_z
Si Si1 0.388787 0.916652 0.270149
Si Si2 0.362248 0.581897 0.223080
Si Si3 0.813857 0.830460 0.064795
Si Si4 0.491647 0.269740 0.403454
Si Si5 0.969040 0.215038 0.772856
Si Si6 0.832748 0.633076 0.809522
Si Si7 0.354653 0.583019 0.432896
Si Si8 0.130272 0.916028 0.277221
O O1 0.596948 0.874965 0.173881
O O2 0.318197 0.895372 0.221202
O O3 0.135832 0.912795 0.496409
O O4 0.457834 0.000000 0.218726
O O5 0.277561 0.500000 0.270595
O O6 0.209791 0.630106 0.264129
O O7 0.359141 0.597960 0.326491
O O8 0.627126 0.589524 0.000989
O O9 0.691202 0.770094 0.209517
O O10 0.953158 0.797218 0.886339
O O11 0.000000 0.869358 0.000000
O O12 0.500000 0.258340 0.500000
O O13 0.502406 0.354553 0.375790
O O14 0.234837 0.236127 0.556742
O O15 0.820582 0.285336 0.850461
O O16 0.875639 0.142583 0.793608
O O17 0.085405 0.597192 0.651264
O O18 0.423466 0.500000 0.399057
O O19 0.171366 0.000000 0.224023
#
# Coordination Sequence:
#
# PCOD9146892 Si02
#       8
#     4   4   4   4   4   4   4   4
#     4   9  20  39  64  94 127 163 202 245 299 362
#     4  10  19  34  54  81 123 159 188 237 304 362
#     4  12  24  40  66  88 121 162 207 253 304 357
#     4  11  23  43  61  83 121 156 202 256 309 356
#     4  11  23  38  62  93 118 161 205 250 304 361
#     4  10  20  33  53  84 121 154 195 239 295 359
#     4  10  21  36  58  84 111 152 203 249 295 357
#     4   9  19  40  65  91 129 166 195 244 309 362
#
# _framework density 19.783653000000001
#
# number of rings (size 3 to 8) (size 9 to 14) (size 15 to 20)
#    0.000    1.750    2.500    3.375    0.000    5.500 
#    2.250    1.250    0.000    2.625    0.000    0.000 
#    0.000    0.000    0.000    0.000    0.000    0.000 
#
# Total GULP energy -178612.161843 kJ/mol
# GULP energy per Si atom -5581.630058 kJ/mol
# Density = 1.973862 g / cm^3
# Si number density = 19.783653 Si / 1000 Ang^3
#
#
#
# Elastic Constant Matrix: (Units=GPa)
#
#
# Indices 1 2 3 4 5 6 
#
# 1 98.9390 61.3867 22.0655 0.0000 4.5474 0.0000
# 2 61.3867 89.7595 22.3741 0.0000 7.1561 0.0000
# 3 22.0655 22.3741 66.7267 0.0000 5.2436 0.0000
# 4 0.0000 0.0000 0.0000 10.0010 0.0000 5.6151
# 5 4.5474 7.1561 5.2436 0.0000 34.9189 0.0000
# 6 0.0000 0.0000 0.0000 5.6151 0.0000 24.3838
#
#
#
# Elastic Compliance Matrix: (Units=1/GPa)
#
#
# Indices 1 2 3 4 5 6 
#
# 1 0.017796 -0.011705 -0.001990 0.000000 0.000380 0.000000
# 2 -0.011705 0.019982 -0.002659 0.000000 -0.002171 0.000000
# 3 -0.001990 -0.002659 0.016670 0.000000 -0.001699 0.000000
# 4 0.000000 0.000000 0.000000 0.114837 0.000000 -0.026445
# 5 0.000380 -0.002171 -0.001699 0.000000 0.029288 0.000000
# 6 0.000000 0.000000 0.000000 -0.026445 0.000000 0.047101
#
#
# Mechanical properties :
#
#
# Convention : Reuss Voigt Hill
#
# Bulk Modulus (GPa) = 45.99830 51.89757 48.94793
# Shear Modulus (GPa) = 17.50534 23.83402 20.66968
#
# Velocity S-wave (km/s) = 2.97785 3.47469 3.23582
# Velocity P-wave (km/s) = 5.92660 6.51057 6.22543
#
# Compressibility (1/GPa) = 0.02173993
#
# Stress axis : x y z
#
# Youngs Moduli (GPa) = 56.19278 50.04565 59.98950
#
# Poissons Ratio (x) = 0.58578 0.11938
# Poissons Ratio (y) = 0.65773 0.15950
# Poissons Ratio (z) = 0.11182 0.13306
#
# Static dielectric constant tensor:
#      x y z
#    x 1.709510 0.000000 -0.017610 
#    y 0.000000 1.676230 0.000000 
#    z -0.017610 0.000000 1.724120 
# 
# From -- ./inp_files/65400.got.cif
#   From: 2010.05.17/outbox.cif.g08.bks.cpg/sg10_33_cif.got.tgz:65400.got - 2010.06.03 11:33:40.
