data_PCOD9146215
_publ_section_title
;
Structure prediction by ZEFSAII (Michael W. Deem and Ramdas Pophale) SiO2 
 PCOD9146215
Probable space group: P 2/M
;
_chemical_formula_sum "Si O2"
_cell_formula_units_Z 32
_cell_length_a 27.368374
_cell_length_b 7.432334
_cell_length_c 21.421920
_cell_angle_alpha 90.000000
_cell_angle_beta 161.120037
_cell_angle_gamma 90.000000
_cell_volume 1410.012807
_symmetry_space_group_name_H-M "P 2/M"
_symmetry_group_IT_number 10
_symmetry_cell_setting 'monoclinic'
loop_
_space_group_symop_operation_xyz
x,y,z
-x,y,-z
-x,-y,-z
x,-y,z
loop_
_atom_site_type_symbol
_atom_site_label
_atom_site_fract_x
_atom_site_fract_y
_atom_site_fract_z
Si Si1 0.147226 0.204270 0.598700
Si Si2 0.467537 0.280527 0.532172
Si Si3 0.909514 0.279609 0.719993
Si Si4 0.835358 0.782434 0.169687
Si Si5 0.622583 0.781861 0.019312
Si Si6 0.722457 0.292952 0.374190
Si Si7 0.217624 0.290284 0.037660
Si Si8 0.157804 0.280254 0.222096
O O1 0.258634 0.283524 0.784865
O O2 0.232294 0.200018 0.635318
O O3 0.983713 0.284263 0.385734
O O4 0.118455 0.000000 0.585421
O O5 0.500000 0.229289 0.500000
O O6 0.460725 0.500000 0.525735
O O7 0.614434 0.218091 0.748435
O O8 0.307652 0.219389 0.366829
O O9 0.909296 0.500000 0.719530
O O10 0.808958 0.221368 0.539568
O O11 0.845820 0.224357 0.709866
O O12 0.081000 0.217412 0.914578
O O13 0.688709 0.730673 0.031951
O O14 0.844017 0.000000 0.178855
O O15 0.830034 0.722766 0.091995
O O16 0.616304 0.000000 0.015055
O O17 0.455440 0.715401 0.829823
O O18 0.769655 0.500000 0.423206
O O19 0.227362 0.500000 0.066544
O O20 0.158977 0.500000 0.222359
O O21 0.000000 0.224454 0.000000
#
# Coordination Sequence:
#
# PCOD9146215 Si02
#       8
#     4   4   4   4   4   4   4   4
#     4  10  20  38  60  78 101 139 185 228 272 322
#     4   9  17  28  47  77 108 140 177 216 258 308
#     4   9  18  31  46  70 105 142 173 212 262 313
#     4  10  21  37  57  80 106 138 182 227 275 325
#     4  10  22  38  56  78 105 139 182 230 273 321
#     4  11  22  35  53  80 114 144 177 220 274 329
#     4  10  19  33  53  76 109 143 176 219 268 317
#     4   9  16  27  45  70 104 142 177 212 255 307
#
# _framework density 22.694828000000001
#
# number of rings (size 3 to 8) (size 9 to 14) (size 15 to 20)
#    0.000    2.250    1.250    1.875    1.750    7.000 
#    0.000    0.000    0.000    2.625    0.000    0.000 
#    0.000    4.000    0.000    0.000    0.000    0.000 
#
# Total GULP energy -178842.343812 kJ/mol
# GULP energy per Si atom -5588.823244 kJ/mol
# Density = 2.264317 g / cm^3
# Si number density = 22.694828 Si / 1000 Ang^3
#
#
#
# Elastic Constant Matrix: (Units=GPa)
#
#
# Indices 1 2 3 4 5 6 
#
# 1 155.5374 -0.3952 60.1097 0.0000 23.1886 0.0000
# 2 -0.3952 71.0110 0.4107 0.0000 2.5749 0.0000
# 3 60.1097 0.4107 142.3533 0.0000 18.2930 0.0000
# 4 0.0000 0.0000 0.0000 7.1956 0.0000 -4.3684
# 5 23.1886 2.5749 18.2930 0.0000 38.6570 0.0000
# 6 0.0000 0.0000 0.0000 -4.3684 0.0000 4.0299
#
#
#
# Elastic Compliance Matrix: (Units=1/GPa)
#
#
# Indices 1 2 3 4 5 6 
#
# 1 0.008095 0.000188 -0.002974 0.000000 -0.003461 0.000000
# 2 0.000188 0.014122 0.000016 0.000000 -0.001061 0.000000
# 3 -0.002974 0.000016 0.008573 0.000000 -0.002274 0.000000
# 4 0.000000 0.000000 0.000000 0.406464 0.000000 0.440607
# 5 -0.003461 -0.001061 -0.002274 0.000000 0.029091 0.000000
# 6 0.000000 0.000000 0.000000 0.440607 0.000000 0.725764
#
#
# Mechanical properties :
#
#
# Convention : Reuss Voigt Hill
#
# Bulk Modulus (GPa) = 39.60433 54.35021 46.97727
# Shear Modulus (GPa) = 4.14571 30.56159 17.35365
#
# Velocity S-wave (km/s) = 1.35303 3.67363 2.76823
# Velocity P-wave (km/s) = 4.46426 6.48030 5.56435
#
# Compressibility (1/GPa) = 0.02524977
#
# Stress axis : x y z
#
# Youngs Moduli (GPa) = 123.53073 70.81271 116.64902
#
# Poissons Ratio (x) = -0.01330 0.34692
# Poissons Ratio (y) = -0.02319 -0.00190
# Poissons Ratio (z) = 0.36738 -0.00116
#
# Static dielectric constant tensor:
#      x y z
#    x 1.783210 0.000000 -0.001120 
#    y 0.000000 1.940060 0.000000 
#    z -0.001120 0.000000 1.816740 
# 
# From -- ./inp_files/86845.got.cif
#   From: 2010.05.17/outbox.cif.g08.bks.cpg/sg10_44_cif.got.tgz:86845.got - 2010.06.03 11:33:40.
