data_PCOD9146632
_publ_section_title
;
Structure prediction by ZEFSAII (Michael W. Deem and Ramdas Pophale) SiO2 
 PCOD9146632
Probable space group: P 2/M
;
_chemical_formula_sum "Si O2"
_cell_formula_units_Z 32
_cell_length_a 14.936190
_cell_length_b 7.654783
_cell_length_c 12.810479
_cell_angle_alpha 90.000000
_cell_angle_beta 84.468627
_cell_angle_gamma 90.000000
_cell_volume 1457.844143
_symmetry_space_group_name_H-M "P 2/M"
_symmetry_group_IT_number 10
_symmetry_cell_setting 'monoclinic'
loop_
_space_group_symop_operation_xyz
x,y,z
-x,y,-z
-x,-y,-z
x,-y,z
loop_
_atom_site_type_symbol
_atom_site_label
_atom_site_fract_x
_atom_site_fract_y
_atom_site_fract_z
Si Si1 0.264962 0.212982 0.361087
Si Si2 0.955912 0.795265 0.900555
Si Si3 0.243999 0.785413 0.129039
Si Si4 0.405523 0.793139 0.966668
Si Si5 0.875165 0.703616 0.248788
Si Si6 0.601349 0.210816 0.474265
Si Si7 0.678564 0.707355 0.237257
Si Si8 0.900400 0.211604 0.483547
O O1 0.274151 0.269839 0.241288
O O2 0.338206 0.274277 0.436286
O O3 0.168848 0.264069 0.419220
O O4 0.268019 0.000000 0.360091
O O5 0.857832 0.724260 0.882162
O O6 0.032414 0.784117 0.803597
O O7 0.939805 0.000000 0.923513
O O8 0.000000 0.717179 0.000000
O O9 0.242382 0.000000 0.128942
O O10 0.317472 0.724773 0.037034
O O11 0.387712 0.771232 0.845817
O O12 0.407410 0.000000 0.988042
O O13 0.500000 0.721254 0.000000
O O14 0.879887 0.500000 0.221197
O O15 0.781111 0.778075 0.214475
O O16 0.870489 0.723279 0.373897
O O17 0.500000 0.274865 0.500000
O O18 0.642511 0.254324 0.357090
O O19 0.600217 0.000000 0.480143
O O20 0.684645 0.500000 0.226012
O O21 0.000000 0.271339 0.500000
O O22 0.900417 0.000000 0.478124
#
# Coordination Sequence:
#
# PCOD9146632 Si02
#       8
#     4   4   4   4   4   4   4   4
#     4   9  17  31  53  83 117 146 179 235 292 341
#     4  10  20  35  58  84 112 152 198 244 294 348
#     4   9  18  34  56  87 121 148 186 242 301 353
#     4  10  22  39  65  94 118 149 195 250 298 345
#     4  11  23  37  55  82 117 156 195 239 288 343
#     4  10  21  36  61  90 113 146 195 248 296 342
#     4  11  24  41  60  84 122 162 196 238 293 358
#     4  10  19  33  56  84 112 149 193 236 287 344
#
# _framework density 21.950220999999999
#
# number of rings (size 3 to 8) (size 9 to 14) (size 15 to 20)
#    0.000    2.000    1.250    2.250    1.750    5.500 
#    0.000    0.625    0.000    0.750    0.000    0.000 
#    0.000    0.000    0.000    0.000    0.000    0.000 
#
# Total GULP energy -178791.722589 kJ/mol
# GULP energy per Si atom -5587.241331 kJ/mol
# Density = 2.190026 g / cm^3
# Si number density = 21.950221 Si / 1000 Ang^3
#
#
#
# Elastic Constant Matrix: (Units=GPa)
#
#
# Indices 1 2 3 4 5 6 
#
# 1 168.8781 9.5618 54.4771 0.0000 15.7354 0.0000
# 2 9.5618 37.7370 -7.0622 0.0000 1.2208 0.0000
# 3 54.4771 -7.0622 120.5688 0.0000 12.2805 0.0000
# 4 0.0000 0.0000 0.0000 -69.0175 0.0000 25.8198
# 5 15.7354 1.2208 12.2805 0.0000 37.2258 0.0000
# 6 0.0000 0.0000 0.0000 25.8198 0.0000 -9.2527
#
#
#
# Elastic Compliance Matrix: (Units=1/GPa)
#
#
# Indices 1 2 3 4 5 6 
#
# 1 0.007279 -0.002387 -0.003232 0.000000 -0.001932 0.000000
# 2 -0.002387 0.027651 0.002781 0.000000 -0.000815 0.000000
# 3 -0.003232 0.002781 0.010128 0.000000 -0.002066 0.000000
# 4 0.000000 0.000000 0.000000 0.329704 0.000000 0.920043
# 5 -0.001932 -0.000815 -0.002066 0.000000 0.028388 0.000000
# 6 0.000000 0.000000 0.000000 0.920043 0.000000 2.459317
#
#
# Mechanical properties :
#
#
# Convention : Reuss Voigt Hill
#
# Bulk Modulus (GPa) = 25.39201 49.01527 37.20364
# Shear Modulus (GPa) = 1.73535 9.80494 5.77014
#
# Velocity S-wave (km/s) = 0.89011 2.11580 1.62310
# Velocity P-wave (km/s) = 3.55662 5.32423 4.52753
#
# Compressibility (1/GPa) = 0.03938246
#
# Stress axis : x y z
#
# Youngs Moduli (GPa) = 137.37773 36.16530 98.73939
#
# Poissons Ratio (x) = 0.08632 0.31912
# Poissons Ratio (y) = 0.32788 -0.27460
# Poissons Ratio (z) = 0.44400 -0.10058
#
# Static dielectric constant tensor:
#      x y z
#    x 2.149000 0.000000 0.014240 
#    y 0.000000 1.813730 0.000000 
#    z 0.014240 0.000000 1.764430 
# 
# From -- ./inp_files/49927.got.cif
#   From: 2010.05.17/outbox.cif.g08.bks.cpg/sg10_25_cif.got.tgz:49927.got - 2010.06.03 11:33:40.
