data_PCOD9146059
_publ_section_title
;
Structure prediction by ZEFSAII (Michael W. Deem and Ramdas Pophale) SiO2 
 PCOD9146059
Probable space group: P 2/M
;
_chemical_formula_sum "Si O2"
_cell_formula_units_Z 12
_cell_length_a 6.557693
_cell_length_b 13.827161
_cell_length_c 5.506148
_cell_angle_alpha 90.000000
_cell_angle_beta 100.499813
_cell_angle_gamma 90.000000
_cell_volume 490.906030
_symmetry_space_group_name_H-M "P 2/M"
_symmetry_group_IT_number 10
_symmetry_cell_setting 'monoclinic'
loop_
_space_group_symop_operation_xyz
x,y,z
-x,y,-z
-x,-y,-z
x,-y,z
loop_
_atom_site_type_symbol
_atom_site_label
_atom_site_fract_x
_atom_site_fract_y
_atom_site_fract_z
Si Si1 0.780828 0.291336 0.711201
Si Si2 0.256187 0.213685 0.804353
Si Si3 0.636337 0.500000 0.777105
Si Si4 0.864581 0.000000 0.224785
O O1 0.687940 0.272635 0.425485
O O2 0.773340 0.403500 0.783453
O O3 0.009957 0.245061 0.757960
O O4 0.668566 0.238877 0.909582
O O5 0.264564 0.098568 0.784265
O O6 0.500000 0.500000 0.500000
O O7 0.500000 0.500000 0.000000
O O8 0.000000 0.000000 0.500000
O O9 0.000000 0.000000 0.000000
#
# Coordination Sequence:
#
# PCOD9146059 Si02
#       4
#     4   4   2   2
#     4  10  20  35  54  80 112 139 183 224 275 324
#     4  10  19  32  57  92 113 139 163 220 286 332
#     4  12  26  42  56  74 102 154 202 234 264 308
#     4  12  16  30  52  92 128 136 162 196 282 368
#
# _framework density 24.444595
#
# number of rings (size 3 to 8) (size 9 to 14) (size 15 to 20)
#    0.000    1.333    6.667    2.000    0.000    5.333 
#    0.000    0.000    0.000    0.000    0.000   39.667 
#    0.000    0.000    0.000    0.000    0.000    0.000 
#
# Total GULP energy -67046.519518 kJ/mol
# GULP energy per Si atom -5587.209960 kJ/mol
# Density = 2.438896 g / cm^3
# Si number density = 24.444595 Si / 1000 Ang^3
#
#
#
# Elastic Constant Matrix: (Units=GPa)
#
#
# Indices 1 2 3 4 5 6 
#
# 1 49.6079 -13.2431 21.1981 0.0000 -32.4385 0.0000
# 2 -13.2431 232.4331 29.3724 0.0000 -18.2032 0.0000
# 3 21.1981 29.3724 244.7519 0.0000 -18.0123 0.0000
# 4 0.0000 0.0000 0.0000 44.4060 0.0000 -3.3121
# 5 -32.4385 -18.2032 -18.0123 0.0000 62.8929 0.0000
# 6 0.0000 0.0000 0.0000 -3.3121 0.0000 -1.3849
#
#
#
# Elastic Compliance Matrix: (Units=1/GPa)
#
#
# Indices 1 2 3 4 5 6 
#
# 1 0.033605 0.003564 -0.002030 0.000000 0.017783 0.000000
# 2 0.003564 0.004828 -0.000664 0.000000 0.003045 0.000000
# 3 -0.002030 -0.000664 0.004342 0.000000 0.000004 0.000000
# 4 0.000000 0.000000 0.000000 0.019110 0.000000 -0.045706
# 5 0.017783 0.003045 0.000004 0.000000 0.025955 0.000000
# 6 0.000000 0.000000 0.000000 -0.045706 0.000000 -0.612779
#
#
# Mechanical properties :
#
#
# Convention : Reuss Voigt Hill
#
# Bulk Modulus (GPa) = 22.46444 66.82754 44.64599
# Shear Modulus (GPa) = -9.76863 53.81383 22.02260
#
# Velocity S-wave (km/s) = -2.00123 4.69706 3.00479
# Velocity P-wave (km/s) = 1.96724 7.53752 5.50837
#
# Compressibility (1/GPa) = 0.04451479
#
# Stress axis : x y z
#
# Youngs Moduli (GPa) = 29.75766 207.13554 230.33223
#
# Poissons Ratio (x) = -0.73819 0.46747
# Poissons Ratio (y) = -0.10605 0.15292
# Poissons Ratio (z) = 0.06039 0.13752
#
# Static dielectric constant tensor:
#      x y z
#    x 1.940740 0.000000 -0.024090 
#    y 0.000000 1.864430 0.000000 
#    z -0.024090 0.000000 1.959150 
# 
# From -- ./inp_files/2760.got.cif
#   From: 2010.05.17/outbox.cif.g08.bks.cpg/sg10_2_cif.got.tgz:2760.got - 2010.06.03 11:33:40.
