data_PCOD9146980
_publ_section_title
;
Structure prediction by ZEFSAII (Michael W. Deem and Ramdas Pophale) SiO2 
 PCOD9146980
Probable space group: P 2/M
;
_chemical_formula_sum "Si O2"
_cell_formula_units_Z 28
_cell_length_a 9.399313
_cell_length_b 18.774931
_cell_length_c 15.032810
_cell_angle_alpha 90.000000
_cell_angle_beta 144.768850
_cell_angle_gamma 90.000000
_cell_volume 1530.373612
_symmetry_space_group_name_H-M "P 2/M"
_symmetry_group_IT_number 10
_symmetry_cell_setting 'monoclinic'
loop_
_space_group_symop_operation_xyz
x,y,z
-x,y,-z
-x,-y,-z
x,-y,z
loop_
_atom_site_type_symbol
_atom_site_label
_atom_site_fract_x
_atom_site_fract_y
_atom_site_fract_z
Si Si1 0.613298 0.670056 0.742664
Si Si2 0.869697 0.288021 0.252718
Si Si3 0.705662 0.917011 0.364082
Si Si4 0.847587 0.296492 0.045266
Si Si5 0.139073 0.420904 0.476750
Si Si6 0.646677 0.802183 0.483068
Si Si7 0.522018 0.178012 0.904620
O O1 0.422254 0.606250 0.627583
O O2 0.470722 0.741388 0.640240
O O3 0.871135 0.677465 0.821244
O O4 0.698935 0.669166 0.888547
O O5 0.770455 0.311224 0.106193
O O6 0.663257 0.245610 0.201630
O O7 0.989948 0.358094 0.353565
O O8 0.085306 0.228836 0.354598
O O9 0.650938 0.872547 0.425387
O O10 0.568034 0.882244 0.208718
O O11 0.000000 0.910585 0.500000
O O12 0.642649 0.000000 0.340328
O O13 0.786886 0.211159 0.011064
O O14 0.130052 0.500000 0.431473
O O15 0.000000 0.425130 0.500000
O O16 0.500000 0.809959 0.500000
O O17 0.500000 0.160387 0.000000
#
# Coordination Sequence:
#
# PCOD9146980 Si02
#       7
#     4   4   4   4   4   4   4
#     4  10  20  34  59  82 112 147 195 234 285 342
#     4  10  20  34  59  87 110 145 202 240 284 342
#     4  11  23  38  58  88 119 153 197 244 300 354
#     4  10  19  34  55  88 111 142 191 243 278 336
#     4  10  22  38  57  83 118 154 189 240 294 341
#     4  11  20  35  60  83 116 152 194 247 288 343
#     4  10  20  35  60  87 114 151 197 247 291 342
#
# _framework density 18.296185999999999
#
# number of rings (size 3 to 8) (size 9 to 14) (size 15 to 20)
#    0.000    1.714    4.286    0.857    2.000    0.571 
#    0.000    3.571    0.000    8.143    0.000    0.000 
#    0.000    0.000    0.000    0.000    0.000    0.000 
#
# Total GULP energy -155943.358312 kJ/mol
# GULP energy per Si atom -5569.405654 kJ/mol
# Density = 1.825454 g / cm^3
# Si number density = 18.296186 Si / 1000 Ang^3
#
#
#
# Elastic Constant Matrix: (Units=GPa)
#
#
# Indices 1 2 3 4 5 6 
#
# 1 78.0724 40.6601 22.5824 0.0000 6.4289 0.0000
# 2 40.6601 126.8654 39.9729 0.0000 -5.4068 0.0000
# 3 22.5824 39.9729 73.4731 0.0000 -2.3846 0.0000
# 4 0.0000 0.0000 0.0000 4.2431 0.0000 -8.6015
# 5 6.4289 -5.4068 -2.3846 0.0000 32.3487 0.0000
# 6 0.0000 0.0000 0.0000 -8.6015 0.0000 1.7055
#
#
#
# Elastic Compliance Matrix: (Units=1/GPa)
#
#
# Indices 1 2 3 4 5 6 
#
# 1 0.016302 -0.004565 -0.002663 0.000000 -0.004199 0.000000
# 2 -0.004565 0.010839 -0.004416 0.000000 0.002393 0.000000
# 3 -0.002663 -0.004416 0.016865 0.000000 0.001034 0.000000
# 4 0.000000 0.000000 0.000000 -0.025551 0.000000 -0.128864
# 5 -0.004199 0.002393 0.001034 0.000000 0.032224 0.000000
# 6 0.000000 0.000000 0.000000 -0.128864 0.000000 -0.063569
#
#
# Mechanical properties :
#
#
# Convention : Reuss Voigt Hill
#
# Bulk Modulus (GPa) = 48.26810 53.87131 51.06970
# Shear Modulus (GPa) = 288.94319 19.33916 154.14117
#
# Velocity S-wave (km/s) = 12.58047 3.25469 9.18861
# Velocity P-wave (km/s) = 15.40984 6.60545 11.85527
#
# Compressibility (1/GPa) = 0.02071762
#
# Stress axis : x y z
#
# Youngs Moduli (GPa) = 61.34216 92.26172 59.29356
#
# Poissons Ratio (x) = 0.42113 0.15793
# Poissons Ratio (y) = 0.28000 0.26185
# Poissons Ratio (z) = 0.16338 0.40744
#
# Static dielectric constant tensor:
#      x y z
#    x 1.670870 0.000000 0.034240 
#    y 0.000000 1.619180 0.000000 
#    z 0.034240 0.000000 1.705750 
# 
# From -- ./inp_files/30087.got.cif
#   From: 2010.05.17/outbox.cif.g08.bks.cpg/sg10_16_cif.got.tgz:30087.got - 2010.06.03 11:33:40.
