data_PCOD9146081
_publ_section_title
;
Structure prediction by ZEFSAII (Michael W. Deem and Ramdas Pophale) SiO2 
 PCOD9146081
Probable space group: P 2/M
;
_chemical_formula_sum "Si O2"
_cell_formula_units_Z 32
_cell_length_a 5.403399
_cell_length_b 15.429330
_cell_length_c 21.160417
_cell_angle_alpha 90.000000
_cell_angle_beta 89.624594
_cell_angle_gamma 90.000000
_cell_volume 1764.123583
_symmetry_space_group_name_H-M "P 2/M"
_symmetry_group_IT_number 10
_symmetry_cell_setting 'monoclinic'
loop_
_space_group_symop_operation_xyz
x,y,z
-x,y,-z
-x,-y,-z
x,-y,z
loop_
_atom_site_type_symbol
_atom_site_label
_atom_site_fract_x
_atom_site_fract_y
_atom_site_fract_z
Si Si1 0.074004 0.724393 0.678378
Si Si2 0.762009 0.403542 0.742690
Si Si3 0.055846 0.605628 0.072057
Si Si4 0.443453 0.603816 0.862014
Si Si5 0.795083 0.721202 0.547539
Si Si6 0.463146 0.596535 0.616183
Si Si7 0.248773 0.094184 0.435199
Si Si8 0.250059 0.094908 0.648336
O O1 0.251105 0.651024 0.649761
O O2 0.208559 0.816507 0.687867
O O3 0.943213 0.678337 0.737810
O O4 0.891235 0.738374 0.618926
O O5 0.865340 0.500000 0.761074
O O6 0.535521 0.384212 0.790104
O O7 0.664999 0.412408 0.671567
O O8 0.063542 0.500000 0.074048
O O9 0.825640 0.635410 0.116000
O O10 0.324103 0.635437 0.096172
O O11 0.000000 0.630011 0.000000
O O12 0.431658 0.500000 0.871221
O O13 0.574679 0.655680 0.561311
O O14 0.743612 0.818575 0.523680
O O15 0.000000 0.683455 0.500000
O O16 0.387710 0.500000 0.596497
O O17 0.487882 0.101063 0.388696
O O18 0.987200 0.092197 0.398259
O O19 0.264779 0.000000 0.467702
O O20 0.250104 0.000000 0.681070
#
# Coordination Sequence:
#
# PCOD9146081 Si02
#       8
#     4   4   4   4   4   4   4   4
#     4  10  19  33  50  66  89 116 149 191 238 282
#     4   9  19  31  46  67  90 119 157 203 236 266
#     4   9  16  26  40  60  89 123 157 192 226 261
#     4   9  17  27  41  62  87 118 157 195 228 260
#     4  10  21  35  48  66  90 114 145 187 239 295
#     4  10  20  34  49  64  84 115 156 199 240 277
#     4   9  17  32  51  73  94 114 138 174 222 281
#     4   9  17  31  52  72  93 116 144 177 222 283
#
# _framework density 18.139317999999999
#
# number of rings (size 3 to 8) (size 9 to 14) (size 15 to 20)
#    0.000    2.625    1.250    0.750    1.750    3.000 
#    0.000    0.625    0.000    3.750    0.000    0.000 
#    0.000    0.000    0.000    0.000    0.000    3.750 
#
# Total GULP energy -178250.947736 kJ/mol
# GULP energy per Si atom -5570.342117 kJ/mol
# Density = 1.809803 g / cm^3
# Si number density = 18.139318 Si / 1000 Ang^3
#
#
#
# Elastic Constant Matrix: (Units=GPa)
#
#
# Indices 1 2 3 4 5 6 
#
# 1 68.0856 12.9595 6.9814 0.0000 -14.7158 0.0000
# 2 12.9595 116.0754 10.8863 0.0000 -18.2656 0.0000
# 3 6.9814 10.8863 53.7211 0.0000 -9.4169 0.0000
# 4 0.0000 0.0000 0.0000 -2.2572 0.0000 -11.7534
# 5 -14.7158 -18.2656 -9.4169 0.0000 29.7648 0.0000
# 6 0.0000 0.0000 0.0000 -11.7534 0.0000 15.1315
#
#
#
# Elastic Compliance Matrix: (Units=1/GPa)
#
#
# Indices 1 2 3 4 5 6 
#
# 1 0.016509 -0.000585 -0.000698 0.000000 0.007583 0.000000
# 2 -0.000585 0.009604 -0.000940 0.000000 0.005307 0.000000
# 3 -0.000698 -0.000940 0.019834 0.000000 0.005353 0.000000
# 4 0.000000 0.000000 0.000000 -0.087822 0.000000 -0.068216
# 5 0.007583 0.005307 0.005353 0.000000 0.042296 0.000000
# 6 0.000000 0.000000 0.000000 -0.068216 0.000000 0.013101
#
#
# Mechanical properties :
#
#
# Convention : Reuss Voigt Hill
#
# Bulk Modulus (GPa) = 24.09500 33.28185 28.68843
# Shear Modulus (GPa) = 157.23006 22.33147 89.78076
#
# Velocity S-wave (km/s) = 9.32026 3.51252 7.04291
# Velocity P-wave (km/s) = 11.36377 5.90239 9.05465
#
# Compressibility (1/GPa) = 0.04150238
#
# Stress axis : x y z
#
# Youngs Moduli (GPa) = 60.57269 104.12742 50.41793
#
# Poissons Ratio (x) = 0.06087 0.03518
# Poissons Ratio (y) = 0.03541 0.04739
# Poissons Ratio (z) = 0.04227 0.09787
#
# Static dielectric constant tensor:
#      x y z
#    x 1.750960 0.000000 0.033120 
#    y 0.000000 1.708890 0.000000 
#    z 0.033120 0.000000 1.637970 
# 
# From -- ./inp_files/12692.got.cif
#   From: 2010.05.17/outbox.cif.g08.bks.cpg/sg10_7_cif.got.tgz:12692.got - 2010.06.03 11:33:40.
