data_PCOD9146021
_publ_section_title
;
Structure prediction by ZEFSAII (Michael W. Deem and Ramdas Pophale) SiO2 
 PCOD9146021
Probable space group: P 2/M
;
_chemical_formula_sum "Si O2"
_cell_formula_units_Z 32
_cell_length_a 15.635442
_cell_length_b 7.907461
_cell_length_c 23.855311
_cell_angle_alpha 90.000000
_cell_angle_beta 30.757216
_cell_angle_gamma 90.000000
_cell_volume 1508.322284
_symmetry_space_group_name_H-M "P 2/M"
_symmetry_group_IT_number 10
_symmetry_cell_setting 'monoclinic'
loop_
_space_group_symop_operation_xyz
x,y,z
-x,y,-z
-x,-y,-z
x,-y,z
loop_
_atom_site_type_symbol
_atom_site_label
_atom_site_fract_x
_atom_site_fract_y
_atom_site_fract_z
Si Si1 0.807320 0.793379 0.958746
Si Si2 0.584992 0.305911 0.507664
Si Si3 0.477149 0.198937 0.329532
Si Si4 0.948619 0.201382 0.272317
Si Si5 0.883427 0.201163 0.706146
Si Si6 0.182199 0.792523 0.918548
Si Si7 0.873296 0.306898 0.524924
Si Si8 0.483180 0.793093 0.073867
O O1 0.968454 0.740239 0.832099
O O2 0.808311 0.000000 0.956504
O O3 0.804465 0.741549 0.024303
O O4 0.640482 0.736844 0.021097
O O5 0.500000 0.225727 0.500000
O O6 0.528968 0.500000 0.541780
O O7 0.550011 0.235271 0.589229
O O8 0.781290 0.293044 0.384751
O O9 0.654169 0.269725 0.207277
O O10 0.312786 0.244301 0.385400
O O11 0.491623 0.000000 0.315917
O O12 0.081302 0.222026 0.247796
O O13 0.911784 0.000000 0.289454
O O14 0.695179 0.258634 0.800566
O O15 0.021697 0.292777 0.591580
O O16 0.898942 0.000000 0.685569
O O17 0.182155 0.000000 0.916321
O O18 0.000000 0.737583 0.000000
O O19 0.849752 0.500000 0.555785
O O20 0.000000 0.226023 0.500000
O O21 0.481914 0.000000 0.074049
O O22 0.500000 0.738744 0.000000
#
# Coordination Sequence:
#
# PCOD9146021 Si02
#       8
#     4   4   4   4   4   4   4   4
#     4   9  17  30  51  81 118 154 187 233 295 351
#     4  11  25  42  61  85 118 159 198 242 302 364
#     4  11  23  40  65  95 122 153 202 257 303 353
#     4  10  19  33  58  90 117 148 193 243 296 351
#     4  10  19  32  55  86 116 146 190 244 292 345
#     4   9  20  36  54  83 121 155 189 240 301 353
#     4  11  25  42  59  81 118 167 205 242 300 362
#     4   9  15  26  46  78 114 144 178 226 284 343
#
# _framework density 21.215623999999998
#
# number of rings (size 3 to 8) (size 9 to 14) (size 15 to 20)
#    0.000    2.000    2.500    1.125    3.500    2.000 
#    0.000    0.000    0.000    4.125    0.000    0.000 
#    0.000    0.000    0.000    0.000    0.000    0.000 
#
# Total GULP energy -178583.658923 kJ/mol
# GULP energy per Si atom -5580.739341 kJ/mol
# Density = 2.116734 g / cm^3
# Si number density = 21.215624 Si / 1000 Ang^3
#
#
#
# Elastic Constant Matrix: (Units=GPa)
#
#
# Indices 1 2 3 4 5 6 
#
# 1 152.9858 15.7244 79.1380 0.0000 -10.2045 0.0000
# 2 15.7244 18.1354 6.7560 0.0000 -2.0946 0.0000
# 3 79.1380 6.7560 173.7500 0.0000 -4.5166 0.0000
# 4 0.0000 0.0000 0.0000 573.6789 0.0000 45.6990
# 5 -10.2045 -2.0946 -4.5166 0.0000 21.0294 0.0000
# 6 0.0000 0.0000 0.0000 45.6990 0.0000 13.5313
#
#
#
# Elastic Compliance Matrix: (Units=1/GPa)
#
#
# Indices 1 2 3 4 5 6 
#
# 1 0.009455 -0.006358 -0.003979 0.000000 0.003100 0.000000
# 2 -0.006358 0.060783 0.000613 0.000000 0.003101 0.000000
# 3 -0.003979 0.000613 0.007537 0.000000 -0.000251 0.000000
# 4 0.000000 0.000000 0.000000 0.002385 0.000000 -0.008054
# 5 0.003100 0.003101 -0.000251 0.000000 0.049312 0.000000
# 6 0.000000 0.000000 0.000000 -0.008054 0.000000 0.101103
#
#
# Mechanical properties :
#
#
# Convention : Reuss Voigt Hill
#
# Bulk Modulus (GPa) = 17.14432 60.90087 39.02260
# Shear Modulus (GPa) = 18.55536 137.86478 78.21007
#
# Velocity S-wave (km/s) = 2.96059 8.06993 6.07819
# Velocity P-wave (km/s) = 4.44807 10.75173 8.22754
#
# Compressibility (1/GPa) = 0.05832836
#
# Stress axis : x y z
#
# Youngs Moduli (GPa) = 105.76502 16.45193 132.67525
#
# Poissons Ratio (x) = 0.10460 0.52787
# Poissons Ratio (y) = 0.67242 -0.08131
# Poissons Ratio (z) = 0.42080 -0.01008
#
# Static dielectric constant tensor:
#      x y z
#    x 1.797410 0.000000 -0.016720 
#    y 0.000000 1.768490 0.000000 
#    z -0.016720 0.000000 1.748440 
# 
# From -- ./inp_files/89571.got.cif
#   From: 2010.05.17/outbox.cif.g08.bks.cpg/sg10_45_cif.got.tgz:89571.got - 2010.06.03 11:33:40.
