data_PCOD9146579
_publ_section_title
;
Structure prediction by ZEFSAII (Michael W. Deem and Ramdas Pophale) SiO2 
 PCOD9146579
Probable space group: P 2/M
;
_chemical_formula_sum "Si O2"
_cell_formula_units_Z 24
_cell_length_a 15.264141
_cell_length_b 9.220606
_cell_length_c 16.925540
_cell_angle_alpha 90.000000
_cell_angle_beta 143.595867
_cell_angle_gamma 90.000000
_cell_volume 1413.768238
_symmetry_space_group_name_H-M "P 2/M"
_symmetry_group_IT_number 10
_symmetry_cell_setting 'monoclinic'
loop_
_space_group_symop_operation_xyz
x,y,z
-x,y,-z
-x,-y,-z
x,-y,z
loop_
_atom_site_type_symbol
_atom_site_label
_atom_site_fract_x
_atom_site_fract_y
_atom_site_fract_z
Si Si1 0.658023 0.173961 0.077321
Si Si2 0.898082 0.328955 0.659877
Si Si3 0.174885 0.828399 0.113670
Si Si4 0.962624 0.825830 0.384095
Si Si5 0.208947 0.328478 0.974087
Si Si6 0.325225 0.327820 0.369529
O O1 0.795413 0.210223 0.235080
O O2 0.687847 0.256509 0.017290
O O3 0.662524 0.000000 0.067125
O O4 0.500000 0.210198 0.000000
O O5 0.887950 0.500000 0.634466
O O6 0.756651 0.284882 0.608657
O O7 0.929445 0.242664 0.602707
O O8 0.041796 0.307892 0.820006
O O9 0.257986 0.760473 0.248412
O O10 0.201898 0.000000 0.127180
O O11 0.221559 0.748957 0.067171
O O12 0.000000 0.805991 0.000000
O O13 0.000000 0.777589 0.500000
O O14 0.976410 0.000000 0.391405
O O15 0.235848 0.500000 0.000372
O O16 0.500000 0.307894 0.500000
O O17 0.294261 0.500000 0.335670
#
# Coordination Sequence:
#
# PCOD9146579 Si02
#       6
#     4   4   4   4   4   4
#     4   9  18  34  54  75 106 139 170 216 270 317
#     4   9  18  33  54  78 103 137 176 217 262 311
#     4  11  22  35  56  83 109 140 183 226 267 321
#     4   9  18  33  53  75  99 134 175 213 257 312
#     4  10  19  33  56  81 106 139 181 223 265 316
#     4  10  21  38  57  78 111 147 179 219 272 323
#
# _framework density 16.975909000000001
#
# number of rings (size 3 to 8) (size 9 to 14) (size 15 to 20)
#    0.000    2.333    1.667    1.000    0.000    3.000 
#    3.000    0.000    0.000    0.000    0.000    0.000 
#    0.000    0.000    0.000    0.000    0.000    0.000 
#
# Total GULP energy -133898.208315 kJ/mol
# GULP energy per Si atom -5579.092013 kJ/mol
# Density = 1.693727 g / cm^3
# Si number density = 16.975909 Si / 1000 Ang^3
#
#
#
# Elastic Constant Matrix: (Units=GPa)
#
#
# Indices 1 2 3 4 5 6 
#
# 1 182.8424 72.2724 78.2214 0.0000 -11.3742 0.0000
# 2 72.2724 57.2647 56.0195 0.0000 -8.3982 0.0000
# 3 78.2214 56.0195 83.1480 0.0000 -21.7027 0.0000
# 4 0.0000 0.0000 0.0000 20.5408 0.0000 -8.6252
# 5 -11.3742 -8.3982 -21.7027 0.0000 31.2840 0.0000
# 6 0.0000 0.0000 0.0000 -8.6252 0.0000 31.8856
#
#
#
# Elastic Compliance Matrix: (Units=1/GPa)
#
#
# Indices 1 2 3 4 5 6 
#
# 1 0.011198 -0.010803 -0.003603 0.000000 -0.001328 0.000000
# 2 -0.010803 0.065945 -0.037452 0.000000 -0.012207 0.000000
# 3 -0.003603 -0.037452 0.046015 0.000000 0.020558 0.000000
# 4 0.000000 0.000000 0.000000 0.054922 0.000000 0.014857
# 5 -0.001328 -0.012207 0.020558 0.000000 0.042467 0.000000
# 6 0.000000 0.000000 0.000000 0.014857 0.000000 0.035381
#
#
# Mechanical properties :
#
#
# Convention : Reuss Voigt Hill
#
# Bulk Modulus (GPa) = 51.43688 81.80907 66.62297
# Shear Modulus (GPa) = 13.65656 24.52486 19.09071
#
# Velocity S-wave (km/s) = 2.83939 3.80503 3.35711
# Velocity P-wave (km/s) = 6.41211 8.22193 7.37277
#
# Compressibility (1/GPa) = 0.01944130
#
# Stress axis : x y z
#
# Youngs Moduli (GPa) = 89.30148 15.16421 21.73217
#
# Poissons Ratio (x) = 0.16382 0.07830
# Poissons Ratio (y) = 0.96473 0.81392
# Poissons Ratio (z) = 0.32173 0.56793
#
# Static dielectric constant tensor:
#      x y z
#    x 1.555190 0.000000 0.009690 
#    y 0.000000 1.563300 0.000000 
#    z 0.009690 0.000000 1.555220 
# 
# From -- ./inp_files/54599.got.cif
#   From: 2010.05.17/outbox.cif.g08.bks.cpg/sg10_28_cif.got.tgz:54599.got - 2010.06.03 11:33:40.
