data_PCOD9146390
_publ_section_title
;
Structure prediction by ZEFSAII (Michael W. Deem and Ramdas Pophale) SiO2 
 PCOD9146390
Probable space group: P 2/M
;
_chemical_formula_sum "Si O2"
_cell_formula_units_Z 24
_cell_length_a 15.140165
_cell_length_b 13.271162
_cell_length_c 13.609452
_cell_angle_alpha 90.000000
_cell_angle_beta 29.285481
_cell_angle_gamma 90.000000
_cell_volume 1337.618974
_symmetry_space_group_name_H-M "P 2/M"
_symmetry_group_IT_number 10
_symmetry_cell_setting 'monoclinic'
loop_
_space_group_symop_operation_xyz
x,y,z
-x,y,-z
-x,-y,-z
x,-y,z
loop_
_atom_site_type_symbol
_atom_site_label
_atom_site_fract_x
_atom_site_fract_y
_atom_site_fract_z
Si Si1 0.680527 0.735517 0.863682
Si Si2 0.660523 0.881121 0.158351
Si Si3 0.390462 0.380762 0.253229
Si Si4 0.288375 0.791281 0.476097
Si Si5 0.206683 0.882210 0.763622
Si Si6 0.053537 0.881365 0.287667
O O1 0.720255 0.660834 0.734284
O O2 0.837472 0.809331 0.744041
O O3 0.500000 0.794422 0.000000
O O4 0.591481 0.664067 0.034300
O O5 0.488752 0.835675 0.271562
O O6 0.682460 0.844990 0.249007
O O7 0.633740 0.000000 0.192288
O O8 0.838099 0.867256 0.920456
O O9 0.392244 0.500000 0.256476
O O10 0.306354 0.324911 0.428391
O O11 0.232534 0.817452 0.641205
O O12 0.148463 0.845247 0.538562
O O13 0.253241 0.000000 0.696178
O O14 0.000000 0.882240 0.000000
O O15 0.060036 0.000000 0.307328
#
# Coordination Sequence:
#
# PCOD9146390 Si02
#       6
#     4   4   4   4   4   4
#     4   8  18  40  61  81 111 148 186 237 289 338
#     4  10  19  34  54  81 120 158 187 221 275 338
#     4   9  20  40  63  82 106 143 198 251 289 332
#     4  12  21  34  57  87 115 148 197 234 280 333
#     4  10  19  33  54  83 119 158 191 225 270 335
#     4  11  21  34  55  88 124 150 182 227 279 348
#
# _framework density 17.942329000000001
#
# number of rings (size 3 to 8) (size 9 to 14) (size 15 to 20)
#    1.000    0.833    3.333    3.000    0.000    2.333 
#    0.000    5.833    0.000    2.500    0.000    0.000 
#    0.000    0.000    0.000    0.000    0.000    0.000 
#
# Total GULP energy -133689.581427 kJ/mol
# GULP energy per Si atom -5570.399226 kJ/mol
# Density = 1.790149 g / cm^3
# Si number density = 17.942329 Si / 1000 Ang^3
#
#
#
# Elastic Constant Matrix: (Units=GPa)
#
#
# Indices 1 2 3 4 5 6 
#
# 1 89.3812 57.7486 32.2631 0.0000 -15.4844 0.0000
# 2 57.7486 101.3278 41.8568 0.0000 -2.3479 0.0000
# 3 32.2631 41.8568 58.7496 0.0000 -3.4466 0.0000
# 4 0.0000 0.0000 0.0000 11.8126 0.0000 9.5554
# 5 -15.4844 -2.3479 -3.4466 0.0000 39.3996 0.0000
# 6 0.0000 0.0000 0.0000 9.5554 0.0000 10.8823
#
#
#
# Elastic Compliance Matrix: (Units=1/GPa)
#
#
# Indices 1 2 3 4 5 6 
#
# 1 0.019994 -0.009731 -0.003639 0.000000 0.006960 0.000000
# 2 -0.009731 0.018720 -0.008195 0.000000 -0.003425 0.000000
# 3 -0.003639 -0.008195 0.024873 0.000000 0.000257 0.000000
# 4 0.000000 0.000000 0.000000 0.292197 0.000000 -0.256569
# 5 0.006960 -0.003425 0.000257 0.000000 0.027935 0.000000
# 6 0.000000 0.000000 0.000000 -0.256569 0.000000 0.317178
#
#
# Mechanical properties :
#
#
# Convention : Reuss Voigt Hill
#
# Bulk Modulus (GPa) = 48.87831 57.02175 52.95003
# Shear Modulus (GPa) = 6.65915 20.25824 13.45869
#
# Velocity S-wave (km/s) = 1.92859 3.36382 2.74178
# Velocity P-wave (km/s) = 5.67982 6.85103 6.29273
#
# Compressibility (1/GPa) = 0.02045897
#
# Stress axis : x y z
#
# Youngs Moduli (GPa) = 50.01462 53.41785 40.20351
#
# Poissons Ratio (x) = 0.51978 0.14631
# Poissons Ratio (y) = 0.48667 0.32946
# Poissons Ratio (z) = 0.18201 0.43775
#
# Static dielectric constant tensor:
#      x y z
#    x 1.671780 0.000000 0.011330 
#    y 0.000000 1.565920 0.000000 
#    z 0.011330 0.000000 1.678180 
# 
# From -- ./inp_files/67251.got.cif
#   From: 2010.05.17/outbox.cif.g08.bks.cpg/sg10_34_cif.got.tgz:67251.got - 2010.06.03 11:33:40.
