data_PCOD9146287
_publ_section_title
;
Structure prediction by ZEFSAII (Michael W. Deem and Ramdas Pophale) SiO2 
 PCOD9146287
Probable space group: P 2/M
;
_chemical_formula_sum "Si O2"
_cell_formula_units_Z 32
_cell_length_a 17.231388
_cell_length_b 18.328074
_cell_length_c 16.601161
_cell_angle_alpha 90.000000
_cell_angle_beta 17.771908
_cell_angle_gamma 90.000000
_cell_volume 1600.296854
_symmetry_space_group_name_H-M "P 2/M"
_symmetry_group_IT_number 10
_symmetry_cell_setting 'monoclinic'
loop_
_space_group_symop_operation_xyz
x,y,z
-x,y,-z
-x,-y,-z
x,-y,z
loop_
_atom_site_type_symbol
_atom_site_label
_atom_site_fract_x
_atom_site_fract_y
_atom_site_fract_z
Si Si1 0.413018 0.224041 0.993354
Si Si2 0.876532 0.345169 0.346759
Si Si3 0.936432 0.087617 0.243817
Si Si4 0.754820 0.414206 0.299841
Si Si5 0.101477 0.191340 0.577279
Si Si6 0.577436 0.088660 0.335206
Si Si7 0.756193 0.418930 0.776010
Si Si8 0.612056 0.625187 0.082217
O O1 0.628323 0.178794 0.732435
O O2 0.414544 0.299901 0.941797
O O3 0.500000 0.226502 0.000000
O O4 0.121122 0.200972 0.268435
O O5 0.787545 0.360336 0.343725
O O6 0.876326 0.263518 0.386132
O O7 0.667396 0.389583 0.607038
O O8 0.169723 0.369532 0.066357
O O9 0.981684 0.125769 0.283307
O O10 0.654299 0.108312 0.493911
O O11 0.949005 0.000000 0.236321
O O12 0.151040 0.112046 0.967678
O O13 0.500000 0.400143 0.500000
O O14 0.744504 0.500000 0.337374
O O15 0.000000 0.407063 0.000000
O O16 0.500000 0.115421 0.500000
O O17 0.587274 0.000000 0.329927
O O18 0.757001 0.500000 0.736894
O O19 0.000000 0.379014 0.500000
O O20 0.500000 0.383300 0.000000
O O21 0.735333 0.424395 0.891415
#
# Coordination Sequence:
#
# PCOD9146287 Si02
#       8
#     4   4   4   4   4   4   4   4
#     4  10  20  35  56  77 101 137 176 220 269 317
#     4  10  21  36  54  78 105 132 168 222 268 300
#     4  10  19  33  54  76 106 146 178 215 269 325
#     4  10  21  38  59  80 105 141 182 220 259 308
#     4  10  21  36  54  80 109 134 174 222 265 321
#     4   9  17  30  50  77 106 137 176 215 250 303
#     4  10  20  32  46  69 104 138 165 199 246 306
#     4  10  20  33  53  77 101 132 171 213 260 314
#
# _framework density 19.996289000000001
#
# number of rings (size 3 to 8) (size 9 to 14) (size 15 to 20)
#    0.000    2.125    0.000    3.375    0.000    4.500 
#    0.000    1.875    0.000    2.250    0.000    0.000 
#    0.000    0.000    0.000    0.000    0.000    0.000 
#
# Total GULP energy -178272.440729 kJ/mol
# GULP energy per Si atom -5571.013773 kJ/mol
# Density = 1.995078 g / cm^3
# Si number density = 19.996289 Si / 1000 Ang^3
#
#
#
# Elastic Constant Matrix: (Units=GPa)
#
#
# Indices 1 2 3 4 5 6 
#
# 1 105.4191 14.4855 17.6630 0.0000 -12.7462 0.0000
# 2 14.4855 12.9359 11.3411 0.0000 -2.4252 0.0000
# 3 17.6630 11.3411 111.6192 0.0000 -5.6674 0.0000
# 4 0.0000 0.0000 0.0000 8.4293 0.0000 7.6254
# 5 -12.7462 -2.4252 -5.6674 0.0000 33.3579 0.0000
# 6 0.0000 0.0000 0.0000 7.6254 0.0000 16.8187
#
#
#
# Elastic Compliance Matrix: (Units=1/GPa)
#
#
# Indices 1 2 3 4 5 6 
#
# 1 0.011629 -0.011975 -0.000446 0.000000 0.003497 0.000000
# 2 -0.011975 0.097947 -0.007997 0.000000 0.001186 0.000000
# 3 -0.000446 -0.007997 0.009889 0.000000 0.000928 0.000000
# 4 0.000000 0.000000 0.000000 0.201126 0.000000 -0.091188
# 5 0.003497 0.001186 0.000928 0.000000 0.031558 0.000000
# 6 0.000000 0.000000 0.000000 -0.091188 0.000000 0.100801
#
#
# Mechanical properties :
#
#
# Convention : Reuss Voigt Hill
#
# Bulk Modulus (GPa) = 12.71788 35.21707 23.96747
# Shear Modulus (GPa) = 9.61544 24.15349 16.88446
#
# Velocity S-wave (km/s) = 2.19523 3.47925 2.90897
# Velocity P-wave (km/s) = 3.57762 5.81294 4.82647
#
# Compressibility (1/GPa) = 0.07862945
#
# Stress axis : x y z
#
# Youngs Moduli (GPa) = 85.99176 10.20956 101.12003
#
# Poissons Ratio (x) = 0.12226 0.04509
# Poissons Ratio (y) = 1.02979 0.80863
# Poissons Ratio (z) = 0.03834 0.08164
#
# Static dielectric constant tensor:
#      x y z
#    x 1.719450 0.000000 -0.017430 
#    y 0.000000 1.737480 0.000000 
#    z -0.017430 0.000000 1.746610 
# 
# From -- ./inp_files/67932.got.cif
#   From: 2010.05.17/outbox.cif.g08.bks.cpg/sg10_34_cif.got.tgz:67932.got - 2010.06.03 11:33:40.
