data_PCOD9146537
_publ_section_title
;
Structure prediction by ZEFSAII (Michael W. Deem and Ramdas Pophale) SiO2 
 PCOD9146537
Probable space group: P 2/M
;
_chemical_formula_sum "Si O2"
_cell_formula_units_Z 24
_cell_length_a 14.454989
_cell_length_b 11.437180
_cell_length_c 20.175249
_cell_angle_alpha 90.000000
_cell_angle_beta 23.734833
_cell_angle_gamma 90.000000
_cell_volume 1342.536914
_symmetry_space_group_name_H-M "P 2/M"
_symmetry_group_IT_number 10
_symmetry_cell_setting 'monoclinic'
loop_
_space_group_symop_operation_xyz
x,y,z
-x,y,-z
-x,-y,-z
x,-y,z
loop_
_atom_site_type_symbol
_atom_site_label
_atom_site_fract_x
_atom_site_fract_y
_atom_site_fract_z
Si Si1 0.000000 0.720620 0.500000
Si Si2 0.000000 0.305048 0.000000
Si Si3 0.427182 0.133877 0.741950
Si Si4 0.743658 0.132465 0.876353
Si Si5 0.460971 0.867311 0.178848
Si Si6 0.268299 0.500000 0.566789
Si Si7 0.126533 0.291302 0.563800
Si Si8 0.825019 0.500000 0.215431
O O1 0.776127 0.797022 0.665962
O O2 0.919091 0.664362 0.482407
O O3 0.217996 0.219343 0.862526
O O4 0.054449 0.389554 0.901007
O O5 0.444333 0.126423 0.809747
O O6 0.663355 0.199579 0.569782
O O7 0.408332 0.000000 0.728362
O O8 0.907022 0.218800 0.730993
O O9 0.839055 0.000000 0.817834
O O10 0.500000 0.127292 0.000000
O O11 0.667395 0.178454 0.998148
O O12 0.409152 0.000000 0.190027
O O13 0.181844 0.390573 0.580541
O O14 0.548645 0.500000 0.382581
O O15 0.171829 0.500000 0.705923
#
# Coordination Sequence:
#
# PCOD9146537 Si02
#       8
#     2   2   4   4   4   2   4   2
#     4  10  19  33  56  84 120 156 195 243 288 350
#     4  11  21  42  68  92 113 149 196 254 304 363
#     4  10  21  36  60  93 125 153 188 242 303 362
#     4  10  19  33  55  83 120 159 197 238 285 350
#     4   9  18  31  52  84 120 161 194 228 285 357
#     4  11  24  45  63  84 110 159 207 260 295 344
#     4  11  22  38  60  86 122 162 203 242 292 348
#     4  10  24  44  68  84 108 154 211 253 298 353
#
# _framework density 17.876604
#
# number of rings (size 3 to 8) (size 9 to 14) (size 15 to 20)
#    0.000    1.833    3.333    1.000    2.333    1.667 
#    0.000    0.417    0.000    1.000    0.000    0.000 
#    0.000    0.000    0.000    0.000    0.000    0.000 
#
# Total GULP energy -133601.350356 kJ/mol
# GULP energy per Si atom -5566.722932 kJ/mol
# Density = 1.783592 g / cm^3
# Si number density = 17.876604 Si / 1000 Ang^3
#
#
#
# Elastic Constant Matrix: (Units=GPa)
#
#
# Indices 1 2 3 4 5 6 
#
# 1 103.3875 62.1713 47.2634 0.0000 14.1363 0.0000
# 2 62.1713 100.1806 46.7984 0.0000 8.1124 0.0000
# 3 47.2634 46.7984 96.5716 0.0000 13.5002 0.0000
# 4 0.0000 0.0000 0.0000 4.2667 0.0000 6.7384
# 5 14.1363 8.1124 13.5002 0.0000 34.1939 0.0000
# 6 0.0000 0.0000 0.0000 6.7384 0.0000 12.0921
#
#
#
# Elastic Compliance Matrix: (Units=1/GPa)
#
#
# Indices 1 2 3 4 5 6 
#
# 1 0.016962 -0.008522 -0.003677 0.000000 -0.003539 0.000000
# 2 -0.008522 0.017197 -0.004324 0.000000 0.001150 0.000000
# 3 -0.003677 -0.004324 0.014705 0.000000 -0.003260 0.000000
# 4 0.000000 0.000000 0.000000 1.954492 0.000000 -1.089151
# 5 -0.003539 0.001150 -0.003260 0.000000 0.031722 0.000000
# 6 0.000000 0.000000 0.000000 -1.089151 0.000000 0.689634
#
#
# Mechanical properties :
#
#
# Convention : Reuss Voigt Hill
#
# Bulk Modulus (GPa) = 63.21420 68.06732 65.64076
# Shear Modulus (GPa) = 1.80961 19.70432 10.75696
#
# Velocity S-wave (km/s) = 1.00721 3.32360 2.45569
# Velocity P-wave (km/s) = 6.06554 7.27237 6.69620
#
# Compressibility (1/GPa) = 0.01581923
#
# Stress axis : x y z
#
# Youngs Moduli (GPa) = 58.95591 58.14812 68.00179
#
# Poissons Ratio (x) = 0.49555 0.25003
# Poissons Ratio (y) = 0.50244 0.29402
# Poissons Ratio (z) = 0.21677 0.25142
#
# Static dielectric constant tensor:
#      x y z
#    x 2.075190 0.000000 0.286030 
#    y 0.000000 1.621030 0.000000 
#    z 0.286030 0.000000 1.765180 
# 
# From -- ./inp_files/85204.got.cif
#   From: 2010.05.17/outbox.cif.g08.bks.cpg/sg10_43_cif.got.tgz:85204.got - 2010.06.03 11:33:40.
