data_PCOD9146145
_publ_section_title
;
Structure prediction by ZEFSAII (Michael W. Deem and Ramdas Pophale) SiO2 
 PCOD9146145
Probable space group: P 2/M
;
_chemical_formula_sum "Si O2"
_cell_formula_units_Z 32
_cell_length_a 14.515405
_cell_length_b 13.827672
_cell_length_c 15.202521
_cell_angle_alpha 90.000000
_cell_angle_beta 141.572618
_cell_angle_gamma 90.000000
_cell_volume 1896.489810
_symmetry_space_group_name_H-M "P 2/M"
_symmetry_group_IT_number 10
_symmetry_cell_setting 'monoclinic'
loop_
_space_group_symop_operation_xyz
x,y,z
-x,y,-z
-x,-y,-z
x,-y,z
loop_
_atom_site_type_symbol
_atom_site_label
_atom_site_fract_x
_atom_site_fract_y
_atom_site_fract_z
Si Si1 0.363676 0.386656 0.547679
Si Si2 0.817247 0.299461 0.067584
Si Si3 0.802567 0.297605 0.416525
Si Si4 0.326697 0.887749 0.762103
Si Si5 0.113770 0.614711 0.213019
Si Si6 0.693191 0.615653 0.804407
Si Si7 0.118235 0.386144 0.700173
Si Si8 0.323213 0.887889 0.969717
O O1 0.361954 0.500000 0.571488
O O2 0.309659 0.327331 0.591260
O O3 0.248739 0.376300 0.382423
O O4 0.530702 0.361537 0.645885
O O5 0.806925 0.355279 0.152819
O O6 0.779874 0.188513 0.058752
O O7 0.978428 0.323805 0.148793
O O8 0.708490 0.339343 0.911679
O O9 0.773212 0.187777 0.365456
O O10 0.786927 0.360193 0.315225
O O11 0.966482 0.324539 0.574929
O O12 0.302797 0.876156 0.849153
O O13 0.297925 0.000000 0.718442
O O14 0.502648 0.868693 0.879816
O O15 0.071085 0.500000 0.177904
O O16 0.177229 0.644979 0.165831
O O17 0.705202 0.500000 0.820419
O O18 0.081417 0.500000 0.673885
O O19 0.293617 0.000000 0.968917
#
# Coordination Sequence:
#
# PCOD9146145 Si02
#       8
#     4   4   4   4   4   4   4   4
#     4  10  19  33  52  75 107 145 185 221 263 319
#     4  12  20  34  55  80 104 141 182 219 264 325
#     4  11  19  33  51  75 104 146 185 212 258 319
#     4   9  18  35  56  76 103 139 180 225 271 315
#     4  10  20  35  54  75 106 144 181 223 273 317
#     4  10  21  34  52  79 106 137 183 234 268 310
#     4  11  22  33  48  74 114 153 179 207 257 323
#     4   9  19  36  56  78 104 136 175 225 278 321
#
# _framework density 16.873277999999999
#
# number of rings (size 3 to 8) (size 9 to 14) (size 15 to 20)
#    0.000    1.750    2.500    4.875    0.000    2.500 
#    0.000    1.875    0.000    4.500    0.000    0.000 
#    0.000    5.000    0.000    0.000    0.000    0.000 
#
# Total GULP energy -178557.411751 kJ/mol
# GULP energy per Si atom -5579.919117 kJ/mol
# Density = 1.683487 g / cm^3
# Si number density = 16.873278 Si / 1000 Ang^3
#
#
#
# Elastic Constant Matrix: (Units=GPa)
#
#
# Indices 1 2 3 4 5 6 
#
# 1 72.5691 34.6774 12.3469 0.0000 -5.2310 0.0000
# 2 34.6774 86.9158 32.8110 0.0000 5.1778 0.0000
# 3 12.3469 32.8110 52.7328 0.0000 -1.8048 0.0000
# 4 0.0000 0.0000 0.0000 36.2447 0.0000 20.1996
# 5 -5.2310 5.1778 -1.8048 0.0000 24.7223 0.0000
# 6 0.0000 0.0000 0.0000 20.1996 0.0000 45.8817
#
#
#
# Elastic Compliance Matrix: (Units=1/GPa)
#
#
# Indices 1 2 3 4 5 6 
#
# 1 0.017710 -0.007703 0.000832 0.000000 0.005421 0.000000
# 2 -0.007703 0.018761 -0.010085 0.000000 -0.006295 0.000000
# 3 0.000832 -0.010085 0.025185 0.000000 0.004127 0.000000
# 4 0.000000 0.000000 0.000000 0.036561 0.000000 -0.016096
# 5 0.005421 -0.006295 0.004127 0.000000 0.043216 0.000000
# 6 0.000000 0.000000 0.000000 -0.016096 0.000000 0.028881
#
#
# Mechanical properties :
#
#
# Convention : Reuss Voigt Hill
#
# Bulk Modulus (GPa) = 36.04447 41.32090 38.68268
# Shear Modulus (GPa) = 23.42198 30.19524 26.80861
#
# Velocity S-wave (km/s) = 3.72978 4.23487 3.99033
# Velocity P-wave (km/s) = 6.32112 6.96091 6.64872
#
# Compressibility (1/GPa) = 0.02774351
#
# Stress axis : x y z
#
# Youngs Moduli (GPa) = 56.46512 53.30258 39.70596
#
# Poissons Ratio (x) = 0.41058 -0.03302
# Poissons Ratio (y) = 0.43494 0.40044
# Poissons Ratio (z) = -0.04696 0.53756
#
# Static dielectric constant tensor:
#      x y z
#    x 1.576670 0.000000 0.010730 
#    y 0.000000 1.544470 0.000000 
#    z 0.010730 0.000000 1.595170 
# 
# From -- ./inp_files/67333.got.cif
#   From: 2010.05.17/outbox.cif.g08.bks.cpg/sg10_34_cif.got.tgz:67333.got - 2010.06.03 11:33:40.
