data_PCOD9146098
_publ_section_title
;
Structure prediction by ZEFSAII (Michael W. Deem and Ramdas Pophale) SiO2 
 PCOD9146098
Probable space group: P 2/M
;
_chemical_formula_sum "Si O2"
_cell_formula_units_Z 32
_cell_length_a 12.681384
_cell_length_b 8.827366
_cell_length_c 24.313560
_cell_angle_alpha 90.000000
_cell_angle_beta 46.113886
_cell_angle_gamma 90.000000
_cell_volume 1961.608779
_symmetry_space_group_name_H-M "P 2/M"
_symmetry_group_IT_number 10
_symmetry_cell_setting 'monoclinic'
loop_
_space_group_symop_operation_xyz
x,y,z
-x,y,-z
-x,-y,-z
x,-y,z
loop_
_atom_site_type_symbol
_atom_site_label
_atom_site_fract_x
_atom_site_fract_y
_atom_site_fract_z
Si Si1 0.033513 0.680594 0.595213
Si Si2 0.280494 0.180228 0.316452
Si Si3 0.124021 0.680998 0.688734
Si Si4 0.634403 0.674373 0.995115
Si Si5 0.833248 0.179796 0.837905
Si Si6 0.557676 0.181339 0.417768
Si Si7 0.399385 0.317498 0.164142
Si Si8 0.678700 0.318532 0.579385
O O1 0.002134 0.500000 0.602804
O O2 0.085477 0.712724 0.638588
O O3 0.165822 0.716220 0.506065
O O4 0.887105 0.770192 0.634105
O O5 0.375057 0.254321 0.233477
O O6 0.325192 0.244136 0.359473
O O7 0.293094 0.000000 0.310182
O O8 0.130860 0.500000 0.692688
O O9 0.279120 0.754567 0.646512
O O10 0.992407 0.749189 0.771942
O O11 0.684212 0.500000 0.981681
O O12 0.555118 0.723006 0.079987
O O13 0.500000 0.675380 0.000000
O O14 0.759527 0.774548 0.922506
O O15 0.728282 0.250107 0.828568
O O16 0.837572 0.000000 0.829960
O O17 0.500000 0.218236 0.500000
O O18 0.448749 0.255567 0.413392
O O19 0.557181 0.000000 0.411829
O O20 0.386780 0.500000 0.167576
O O21 0.667851 0.500000 0.587627
#
# Coordination Sequence:
#
# PCOD9146098 Si02
#       8
#     4   4   4   4   4   4   4   4
#     4  10  21  36  55  76 103 141 182 220 259 315
#     4  12  24  35  52  79 110 141 177 222 272 316
#     4  11  21  35  56  78 105 142 182 219 261 316
#     4   8  16  30  48  70 100 139 176 210 253 312
#     4  11  20  30  48  77 109 138 172 217 267 313
#     4  11  23  38  57  80 107 134 172 226 277 316
#     4  10  19  33  51  72 103 143 180 212 256 316
#     4  11  23  40  58  75 101 140 186 223 262 318
#
# _framework density 16.313141000000002
#
# number of rings (size 3 to 8) (size 9 to 14) (size 15 to 20)
#    0.000    1.500    2.500    4.875    0.000    6.250 
#    0.000    0.000    0.000    0.000    0.000    0.875 
#    0.000    7.000    0.000    0.000    0.000    0.000 
#
# Total GULP energy -178741.643426 kJ/mol
# GULP energy per Si atom -5585.676357 kJ/mol
# Density = 1.627601 g / cm^3
# Si number density = 16.313141 Si / 1000 Ang^3
#
#
#
# Elastic Constant Matrix: (Units=GPa)
#
#
# Indices 1 2 3 4 5 6 
#
# 1 60.0565 36.0937 54.8409 0.0000 12.1910 0.0000
# 2 36.0937 73.2962 61.7813 0.0000 4.6119 0.0000
# 3 54.8409 61.7813 151.6844 0.0000 1.5740 0.0000
# 4 0.0000 0.0000 0.0000 32.5408 0.0000 -7.7604
# 5 12.1910 4.6119 1.5740 0.0000 17.3480 0.0000
# 6 0.0000 0.0000 0.0000 -7.7604 0.0000 30.8862
#
#
#
# Elastic Compliance Matrix: (Units=1/GPa)
#
#
# Indices 1 2 3 4 5 6 
#
# 1 0.033524 -0.007876 -0.008698 0.000000 -0.020676 0.000000
# 2 -0.007876 0.023027 -0.006531 0.000000 0.000006 0.000000
# 3 -0.008698 -0.006531 0.012328 0.000000 0.006730 0.000000
# 4 0.000000 0.000000 0.000000 0.032689 0.000000 0.008213
# 5 -0.020676 0.000006 0.006730 0.000000 0.071561 0.000000
# 6 0.000000 0.000000 0.000000 0.008213 0.000000 0.034441
#
#
# Mechanical properties :
#
#
# Convention : Reuss Voigt Hill
#
# Bulk Modulus (GPa) = 44.11552 65.60765 54.86158
# Shear Modulus (GPa) = 19.13247 24.97639 22.05443
#
# Velocity S-wave (km/s) = 3.42837 3.91712 3.68087
# Velocity P-wave (km/s) = 6.54013 7.79509 7.19502
#
# Compressibility (1/GPa) = 0.02266776
#
# Stress axis : x y z
#
# Youngs Moduli (GPa) = 29.82932 43.42812 81.11770
#
# Poissons Ratio (x) = 0.34204 0.70557
# Poissons Ratio (y) = 0.23493 0.52980
# Poissons Ratio (z) = 0.25946 0.28364
#
# Static dielectric constant tensor:
#      x y z
#    x 1.509210 0.000000 0.004390 
#    y 0.000000 1.540370 0.000000 
#    z 0.004390 0.000000 1.563310 
# 
# From -- ./inp_files/83524.got.cif
#   From: 2010.05.17/outbox.cif.g08.bks.cpg/sg10_42_cif.got.tgz:83524.got - 2010.06.03 11:33:40.
