data_PCOD9146148
_publ_section_title
;
Structure prediction by ZEFSAII (Michael W. Deem and Ramdas Pophale) SiO2 
 PCOD9146148
Probable space group: P 2/M
;
_chemical_formula_sum "Si O2"
_cell_formula_units_Z 26
_cell_length_a 5.098156
_cell_length_b 31.239893
_cell_length_c 9.050491
_cell_angle_alpha 90.000000
_cell_angle_beta 120.378709
_cell_angle_gamma 90.000000
_cell_volume 1243.527598
_symmetry_space_group_name_H-M "P 2/M"
_symmetry_group_IT_number 10
_symmetry_cell_setting 'monoclinic'
loop_
_space_group_symop_operation_xyz
x,y,z
-x,y,-z
-x,-y,-z
x,-y,z
loop_
_atom_site_type_symbol
_atom_site_label
_atom_site_fract_x
_atom_site_fract_y
_atom_site_fract_z
Si Si1 0.363113 0.000000 0.124695
Si Si2 0.076687 0.322413 0.695205
Si Si3 0.156734 0.774514 0.708167
Si Si4 0.309831 0.630189 0.179884
Si Si5 0.639070 0.092866 0.876047
Si Si6 0.653247 0.178656 0.705134
Si Si7 0.647922 0.451692 0.380774
O O1 0.454343 0.953805 0.215734
O O2 0.500000 0.000000 0.000000
O O3 0.000000 0.000000 0.000000
O O4 0.093838 0.272948 0.748387
O O5 0.412054 0.342454 0.806168
O O6 0.000000 0.323285 0.500000
O O7 0.813012 0.348246 0.704143
O O8 0.501918 0.786350 0.769964
O O9 0.000000 0.776638 0.500000
O O10 0.000738 0.809162 0.770788
O O11 0.454144 0.583279 0.239511
O O12 0.000000 0.628670 0.000000
O O13 0.579542 0.132892 0.754011
O O14 0.500000 0.097950 0.000000
O O15 0.000000 0.091893 0.000000
O O16 0.500000 0.180977 0.500000
O O17 0.500000 0.453616 0.500000
O O18 0.644902 0.500000 0.316207
O O19 0.000000 0.438401 0.500000
#
# Coordination Sequence:
#
# PCOD9146148 Si02
#       7
#     2   4   4   4   4   4   4
#     4   8  16  30  49  70  99 136 174 214 256 316
#     4  11  22  40  63  82 107 153 203 233 265 334
#     4   9  19  35  56  78 103 140 185 226 268 322
#     4  12  24  38  58  89 124 150 180 234 297 337
#     4  10  19  33  52  76 103 137 178 217 264 322
#     4  10  19  34  54  78 106 136 174 225 278 324
#     4  10  21  39  63  88 114 150 196 235 269 328
#
# _framework density 20.908262000000001
#
# number of rings (size 3 to 8) (size 9 to 14) (size 15 to 20)
#    0.000    1.846    0.000    5.077    0.000    2.769 
#    0.000    8.077    0.000    4.615    0.000    9.692 
#    0.000    0.000    0.000    0.000    0.000    0.000 
#
# Total GULP energy -145119.155222 kJ/mol
# GULP energy per Si atom -5581.505970 kJ/mol
# Density = 2.086067 g / cm^3
# Si number density = 20.908262 Si / 1000 Ang^3
#
#
#
# Elastic Constant Matrix: (Units=GPa)
#
#
# Indices 1 2 3 4 5 6 
#
# 1 147.4001 31.2662 17.8896 0.0000 -1.5589 0.0000
# 2 31.2662 130.4730 20.5493 0.0000 -5.2011 0.0000
# 3 17.8896 20.5493 33.6031 0.0000 4.1047 0.0000
# 4 0.0000 0.0000 0.0000 25.5558 0.0000 -9.1386
# 5 -1.5589 -5.2011 4.1047 0.0000 23.0148 0.0000
# 6 0.0000 0.0000 0.0000 -9.1386 0.0000 39.6671
#
#
#
# Elastic Compliance Matrix: (Units=1/GPa)
#
#
# Indices 1 2 3 4 5 6 
#
# 1 0.007457 -0.001232 -0.003316 0.000000 0.000818 0.000000
# 2 -0.001232 0.008879 -0.005120 0.000000 0.002836 0.000000
# 3 -0.003316 -0.005120 0.035600 0.000000 -0.007731 0.000000
# 4 0.000000 0.000000 0.000000 0.042643 0.000000 0.009824
# 5 0.000818 0.002836 -0.007731 0.000000 0.045526 0.000000
# 6 0.000000 0.000000 0.000000 0.009824 0.000000 0.027473
#
#
# Mechanical properties :
#
#
# Convention : Reuss Voigt Hill
#
# Bulk Modulus (GPa) = 30.67606 50.09847 40.38727
# Shear Modulus (GPa) = 25.28034 33.76560 29.52297
#
# Velocity S-wave (km/s) = 3.48100 4.02299 3.76177
# Velocity P-wave (km/s) = 5.55518 6.75221 6.18273
#
# Compressibility (1/GPa) = 0.03259871
#
# Stress axis : x y z
#
# Youngs Moduli (GPa) = 134.10703 112.62302 28.08958
#
# Poissons Ratio (x) = 0.13875 0.09315
# Poissons Ratio (y) = 0.16522 0.14383
# Poissons Ratio (z) = 0.44475 0.57668
#
# Static dielectric constant tensor:
#      x y z
#    x 1.711680 0.000000 -0.004730 
#    y 0.000000 1.805120 0.000000 
#    z -0.004730 0.000000 1.742980 
# 
# From -- ./inp_files/15855.got.cif
#   From: 2010.05.17/outbox.cif.g08.bks.cpg/sg10_8_cif.got.tgz:15855.got - 2010.06.03 11:33:40.
