data_PCOD9146101
_publ_section_title
;
Structure prediction by ZEFSAII (Michael W. Deem and Ramdas Pophale) SiO2 
 PCOD9146101
Probable space group: P 2/M
;
_chemical_formula_sum "Si O2"
_cell_formula_units_Z 32
_cell_length_a 5.364229
_cell_length_b 21.261360
_cell_length_c 12.520137
_cell_angle_alpha 90.000000
_cell_angle_beta 84.797134
_cell_angle_gamma 90.000000
_cell_volume 1422.048417
_symmetry_space_group_name_H-M "P 2/M"
_symmetry_group_IT_number 10
_symmetry_cell_setting 'monoclinic'
loop_
_space_group_symop_operation_xyz
x,y,z
-x,y,-z
-x,-y,-z
x,-y,z
loop_
_atom_site_type_symbol
_atom_site_label
_atom_site_fract_x
_atom_site_fract_y
_atom_site_fract_z
Si Si1 0.702861 0.432635 0.611119
Si Si2 0.019982 0.833728 0.799258
Si Si3 0.719582 0.932246 0.905006
Si Si4 0.219629 0.703194 0.752070
Si Si5 0.423370 0.929395 0.695862
Si Si6 0.777272 0.163448 0.580419
Si Si7 0.828105 0.432106 0.244458
Si Si8 0.748584 0.702216 0.609521
O O1 0.731886 0.500000 0.552169
O O2 0.920838 0.432167 0.692756
O O3 0.733953 0.365636 0.552431
O O4 0.426963 0.432212 0.674819
O O5 0.870701 0.867473 0.899255
O O6 0.851643 0.822596 0.700641
O O7 0.161351 0.768464 0.815372
O O8 0.196407 0.889519 0.750441
O O9 0.605180 0.934740 0.790767
O O10 0.855057 0.000000 0.911914
O O11 0.500000 0.930339 0.000000
O O12 0.500856 0.705703 0.694244
O O13 0.184279 0.635920 0.812274
O O14 0.007356 0.700944 0.667051
O O15 0.554956 0.885326 0.603975
O O16 0.360340 0.000000 0.662110
O O17 0.736266 0.234374 0.540468
O O18 0.000000 0.136084 0.500000
O O19 0.827473 0.500000 0.186095
#
# Coordination Sequence:
#
# PCOD9146101 Si02
#       8
#     4   4   4   4   4   4   4   4
#     4   8  13  21  37  59  86 117 157 206 255 300
#     4  10  19  33  51  73 101 132 169 212 257 304
#     4   9  19  35  55  79 104 130 161 200 252 316
#     4   9  16  27  46  66  96 130 167 209 256 301
#     4  10  20  35  54  74  98 129 165 208 258 307
#     4  10  21  35  49  68  97 134 177 219 257 300
#     4   8  13  21  35  60  89 121 159 203 248 295
#     4   9  16  29  44  66  91 128 171 213 257 302
#
# _framework density 22.502752000000001
#
# number of rings (size 3 to 8) (size 9 to 14) (size 15 to 20)
#    0.000    2.875    1.250    0.375    0.000    1.750 
#    0.000    2.500    0.000    0.375    0.000    0.000 
#    0.000   15.500    0.000    1.750    0.000    5.500 
#
# Total GULP energy -178302.893115 kJ/mol
# GULP energy per Si atom -5571.965410 kJ/mol
# Density = 2.245153 g / cm^3
# Si number density = 22.502752 Si / 1000 Ang^3
#
#
#
# Elastic Constant Matrix: (Units=GPa)
#
#
# Indices 1 2 3 4 5 6 
#
# 1 72.8031 -2.6082 1.1914 0.0000 0.3295 0.0000
# 2 -2.6082 235.6114 20.1517 0.0000 -25.1958 0.0000
# 3 1.1914 20.1517 40.7039 0.0000 -5.0769 0.0000
# 4 0.0000 0.0000 0.0000 7.5576 0.0000 -15.3708
# 5 0.3295 -25.1958 -5.0769 0.0000 27.3006 0.0000
# 6 0.0000 0.0000 0.0000 -15.3708 0.0000 28.4199
#
#
#
# Elastic Compliance Matrix: (Units=1/GPa)
#
#
# Indices 1 2 3 4 5 6 
#
# 1 0.013751 0.000186 -0.000506 0.000000 -0.000088 0.000000
# 2 0.000186 0.004849 -0.001892 0.000000 0.004121 0.000000
# 3 -0.000506 -0.001892 0.025903 0.000000 0.003077 0.000000
# 4 0.000000 0.000000 0.000000 -1.323494 0.000000 -0.715804
# 5 -0.000088 0.004121 0.003077 0.000000 0.041006 0.000000
# 6 0.000000 0.000000 0.000000 -0.715804 0.000000 -0.351952
#
#
# Mechanical properties :
#
#
# Convention : Reuss Voigt Hill
#
# Bulk Modulus (GPa) = 24.95036 42.95424 33.95230
# Shear Modulus (GPa) = -3.18035 34.68120 15.75042
#
# Velocity S-wave (km/s) = -1.19012 3.93007 2.64850
# Velocity P-wave (km/s) = 3.03698 6.30268 4.94707
#
# Compressibility (1/GPa) = 0.04007958
#
# Stress axis : x y z
#
# Youngs Moduli (GPa) = 72.72185 206.23488 38.60567
#
# Poissons Ratio (x) = -0.03836 0.01952
# Poissons Ratio (y) = -0.01353 0.07304
# Poissons Ratio (z) = 0.03677 0.39020
#
# Static dielectric constant tensor:
#      x y z
#    x 1.898390 0.000000 -0.023220 
#    y 0.000000 1.978170 0.000000 
#    z -0.023220 0.000000 1.746900 
# 
# From -- ./inp_files/10059.got.cif
#   From: 2010.05.17/outbox.cif.g08.bks.cpg/sg10_6_cif.got.tgz:10059.got - 2010.06.03 11:33:40.
