data_PCOD9146582
_publ_section_title
;
Structure prediction by ZEFSAII (Michael W. Deem and Ramdas Pophale) SiO2 
 PCOD9146582
Probable space group: P 2/M
;
_chemical_formula_sum "Si O2"
_cell_formula_units_Z 32
_cell_length_a 12.809449
_cell_length_b 7.867091
_cell_length_c 15.125897
_cell_angle_alpha 90.000000
_cell_angle_beta 90.437438
_cell_angle_gamma 90.000000
_cell_volume 1524.239121
_symmetry_space_group_name_H-M "P 2/M"
_symmetry_group_IT_number 10
_symmetry_cell_setting 'monoclinic'
loop_
_space_group_symop_operation_xyz
x,y,z
-x,y,-z
-x,-y,-z
x,-y,z
loop_
_atom_site_type_symbol
_atom_site_label
_atom_site_fract_x
_atom_site_fract_y
_atom_site_fract_z
Si Si1 0.837291 0.196869 0.512679
Si Si2 0.385621 0.704667 0.465484
Si Si3 0.118372 0.795683 0.289722
Si Si4 0.710522 0.704331 0.853939
Si Si5 0.460521 0.704538 0.279211
Si Si6 0.110255 0.791435 0.677208
Si Si7 0.383720 0.704272 0.971987
Si Si8 0.681679 0.800429 0.226243
O O1 0.713748 0.209331 0.491944
O O2 0.851703 0.271301 0.611351
O O3 0.892062 0.268045 0.425361
O O4 0.869556 0.000000 0.519151
O O5 0.500000 0.751116 0.500000
O O6 0.374496 0.500000 0.474577
O O7 0.391336 0.752883 0.362652
O O8 0.194030 0.747527 0.209868
O O9 0.997741 0.745131 0.276310
O O10 0.123710 0.000000 0.294373
O O11 0.707596 0.500000 0.855107
O O12 0.603404 0.763674 0.806092
O O13 0.700102 0.764214 0.954841
O O14 0.466386 0.500000 0.278074
O O15 0.578414 0.766481 0.283325
O O16 0.213460 0.728388 0.728487
O O17 0.114558 0.000000 0.673552
O O18 0.389665 0.500000 0.977575
O O19 0.347903 0.741656 0.872494
O O20 0.500000 0.767374 0.000000
O O21 0.697830 0.000000 0.220712
#
# Coordination Sequence:
#
# PCOD9146582 Si02
#       8
#     4   4   4   4   4   4   4   4
#     4  10  19  33  56  81 106 143 189 227 262 315
#     4  10  20  32  48  74 110 148 180 216 268 325
#     4  10  20  36  59  82 108 146 190 228 266 316
#     4  10  20  36  58  81 108 141 178 223 274 325
#     4  10  19  34  53  74 110 150 177 212 272 334
#     4   9  20  38  55  78 114 150 181 223 278 323
#     4  10  20  38  60  80 108 147 179 214 277 340
#     4  11  22  35  56  84 112 141 181 231 272 318
#
# _framework density 20.994081000000001
#
# number of rings (size 3 to 8) (size 9 to 14) (size 15 to 20)
#    0.000    2.000    2.500    1.500    0.000    3.500 
#    0.000    3.125    0.000    5.250    0.000    0.000 
#    0.000    0.000    0.000    0.000    0.000    0.000 
#
# Total GULP energy -178548.150524 kJ/mol
# GULP energy per Si atom -5579.629704 kJ/mol
# Density = 2.094630 g / cm^3
# Si number density = 20.994081 Si / 1000 Ang^3
#
#
#
# Elastic Constant Matrix: (Units=GPa)
#
#
# Indices 1 2 3 4 5 6 
#
# 1 130.8539 2.4485 41.3138 0.0000 -19.5784 0.0000
# 2 2.4485 20.0540 7.3823 0.0000 -3.3014 0.0000
# 3 41.3138 7.3823 88.0970 0.0000 -18.5246 0.0000
# 4 0.0000 0.0000 0.0000 15.6675 0.0000 -4.5664
# 5 -19.5784 -3.3014 -18.5246 0.0000 27.8678 0.0000
# 6 0.0000 0.0000 0.0000 -4.5664 0.0000 25.0264
#
#
#
# Elastic Compliance Matrix: (Units=1/GPa)
#
#
# Indices 1 2 3 4 5 6 
#
# 1 0.009402 0.000880 -0.003571 0.000000 0.004336 0.000000
# 2 0.000880 0.051875 -0.003880 0.000000 0.004185 0.000000
# 3 -0.003571 -0.003880 0.014795 0.000000 0.006866 0.000000
# 4 0.000000 0.000000 0.000000 0.067411 0.000000 0.012300
# 5 0.004336 0.004185 0.006866 0.000000 0.043989 0.000000
# 6 0.000000 0.000000 0.000000 0.012300 0.000000 0.042202
#
#
# Mechanical properties :
#
#
# Convention : Reuss Voigt Hill
#
# Bulk Modulus (GPa) = 15.89054 37.92157 26.90605
# Shear Modulus (GPa) = 18.95428 26.23636 22.59532
#
# Velocity S-wave (km/s) = 3.00799 3.53895 3.28422
# Velocity P-wave (km/s) = 4.43277 5.89924 5.21778
#
# Compressibility (1/GPa) = 0.06293054
#
# Stress axis : x y z
#
# Youngs Moduli (GPa) = 106.36209 19.27703 67.59159
#
# Poissons Ratio (x) = -0.01697 0.24138
# Poissons Ratio (y) = -0.09365 0.26225
# Poissons Ratio (z) = 0.37984 0.07479
#
# Static dielectric constant tensor:
#      x y z
#    x 1.758390 0.000000 0.014650 
#    y 0.000000 1.769860 0.000000 
#    z 0.014650 0.000000 1.798970 
# 
# From -- ./inp_files/63767.got.cif
#   From: 2010.05.17/outbox.cif.g08.bks.cpg/sg10_32_cif.got.tgz:63767.got - 2010.06.03 11:33:40.
