data_PCOD9146311
_publ_section_title
;
Structure prediction by ZEFSAII (Michael W. Deem and Ramdas Pophale) SiO2 
 PCOD9146311
Probable space group: P 2/M
;
_chemical_formula_sum "Si O2"
_cell_formula_units_Z 32
_cell_length_a 25.508255
_cell_length_b 7.658515
_cell_length_c 16.744810
_cell_angle_alpha 90.000000
_cell_angle_beta 153.386269
_cell_angle_gamma 90.000000
_cell_volume 1465.405204
_symmetry_space_group_name_H-M "P 2/M"
_symmetry_group_IT_number 10
_symmetry_cell_setting 'monoclinic'
loop_
_space_group_symop_operation_xyz
x,y,z
-x,y,-z
-x,-y,-z
x,-y,z
loop_
_atom_site_type_symbol
_atom_site_label
_atom_site_fract_x
_atom_site_fract_y
_atom_site_fract_z
Si Si1 0.827192 0.713521 0.952381
Si Si2 0.263878 0.203724 0.861152
Si Si3 0.507004 0.210871 0.261814
Si Si4 0.280213 0.796257 0.552938
Si Si5 0.587749 0.709747 0.550888
Si Si6 0.952418 0.288590 0.848980
Si Si7 0.167269 0.212242 0.563030
Si Si8 0.894757 0.706132 0.214018
O O1 0.827586 0.500000 0.952798
O O2 0.718122 0.772447 0.750590
O O3 0.823252 0.770738 0.038987
O O4 0.950535 0.767850 0.082866
O O5 0.231234 0.277348 0.730240
O O6 0.154221 0.215284 0.771434
O O7 0.288613 0.000000 0.880753
O O8 0.378748 0.276583 0.061641
O O9 0.604523 0.278055 0.332138
O O10 0.543826 0.252310 0.402347
O O11 0.506955 0.000000 0.257828
O O12 0.173830 0.781885 0.345605
O O13 0.230637 0.722765 0.568821
O O14 0.304763 0.000000 0.601892
O O15 0.500000 0.775283 0.500000
O O16 0.591348 0.500000 0.562564
O O17 0.944631 0.500000 0.837212
O O18 0.000000 0.236241 0.000000
O O19 0.031275 0.262959 0.383354
O O20 0.168998 0.000000 0.564084
O O21 0.875862 0.500000 0.194967
#
# Coordination Sequence:
#
# PCOD9146311 Si02
#       8
#     4   4   4   4   4   4   4   4
#     4   9  18  32  51  79 110 142 179 220 273 331
#     4  10  22  39  58  80 111 150 190 232 283 341
#     4  10  22  39  57  82 115 149 188 235 282 330
#     4  10  21  37  57  82 113 146 187 235 279 328
#     4  10  20  36  58  82 111 149 191 231 273 330
#     4  10  19  33  54  78 107 145 185 223 271 331
#     4  10  21  38  59  83 112 149 189 231 283 339
#     4  11  21  36  59  86 116 145 183 236 286 336
#
# _framework density 21.836964999999999
#
# number of rings (size 3 to 8) (size 9 to 14) (size 15 to 20)
#    0.000    2.000    1.250    2.250    0.000    6.000 
#    0.000    4.375    0.000    0.000    0.000    3.500 
#    0.000    0.000    0.000    0.000    0.000    0.000 
#
# Total GULP energy -178787.735534 kJ/mol
# GULP energy per Si atom -5587.116735 kJ/mol
# Density = 2.178726 g / cm^3
# Si number density = 21.836965 Si / 1000 Ang^3
#
#
#
# Elastic Constant Matrix: (Units=GPa)
#
#
# Indices 1 2 3 4 5 6 
#
# 1 132.2528 -9.2673 54.1683 0.0000 -8.0631 0.0000
# 2 -9.2673 35.8347 -1.9348 0.0000 0.1605 0.0000
# 3 54.1683 -1.9348 121.7257 0.0000 -12.3694 0.0000
# 4 0.0000 0.0000 0.0000 26.3214 0.0000 -10.0424
# 5 -8.0631 0.1605 -12.3694 0.0000 42.0735 0.0000
# 6 0.0000 0.0000 0.0000 -10.0424 0.0000 6.4084
#
#
#
# Elastic Compliance Matrix: (Units=1/GPa)
#
#
# Indices 1 2 3 4 5 6 
#
# 1 0.009433 0.002215 -0.004102 0.000000 0.000593 0.000000
# 2 0.002215 0.028450 -0.000517 0.000000 0.000164 0.000000
# 3 -0.004102 -0.000517 0.010259 0.000000 0.002232 0.000000
# 4 0.000000 0.000000 0.000000 0.094480 0.000000 0.148056
# 5 0.000593 0.000164 0.002232 0.000000 0.024537 0.000000
# 6 0.000000 0.000000 0.000000 0.148056 0.000000 0.388060
#
#
# Mechanical properties :
#
#
# Convention : Reuss Voigt Hill
#
# Bulk Modulus (GPa) = 23.07617 41.74951 32.41284
# Shear Modulus (GPa) = 8.70365 31.41713 20.06039
#
# Velocity S-wave (km/s) = 1.99860 3.79715 3.03420
# Velocity P-wave (km/s) = 3.98952 6.19554 5.21061
#
# Compressibility (1/GPa) = 0.04333474
#
# Stress axis : x y z
#
# Youngs Moduli (GPa) = 106.01256 35.14915 97.47299
#
# Poissons Ratio (x) = -0.07787 0.39985
# Poissons Ratio (y) = -0.23485 0.05039
# Poissons Ratio (z) = 0.43488 0.01817
#
# Static dielectric constant tensor:
#      x y z
#    x 1.787770 0.000000 -0.005240 
#    y 0.000000 1.822930 0.000000 
#    z -0.005240 0.000000 1.777760 
# 
# From -- ./inp_files/71703.got.cif
#   From: 2010.05.17/outbox.cif.g08.bks.cpg/sg10_36_cif.got.tgz:71703.got - 2010.06.03 11:33:40.
