data_PCOD9146184
_publ_section_title
;
Structure prediction by ZEFSAII (Michael W. Deem and Ramdas Pophale) SiO2 
 PCOD9146184
Probable space group: P 2/M
;
_chemical_formula_sum "Si O2"
_cell_formula_units_Z 28
_cell_length_a 9.840812
_cell_length_b 7.736679
_cell_length_c 18.646034
_cell_angle_alpha 90.000000
_cell_angle_beta 97.999331
_cell_angle_gamma 90.000000
_cell_volume 1405.806260
_symmetry_space_group_name_H-M "P 2/M"
_symmetry_group_IT_number 10
_symmetry_cell_setting 'monoclinic'
loop_
_space_group_symop_operation_xyz
x,y,z
-x,y,-z
-x,-y,-z
x,-y,z
loop_
_atom_site_type_symbol
_atom_site_label
_atom_site_fract_x
_atom_site_fract_y
_atom_site_fract_z
Si Si1 0.343846 0.705081 0.991651
Si Si2 0.418093 0.711289 0.602163
Si Si3 0.132326 0.290857 0.853852
Si Si4 0.997695 0.799562 0.418540
Si Si5 0.105685 0.795110 0.068101
Si Si6 0.703683 0.290817 0.558884
Si Si7 0.771761 0.300699 0.292143
O O1 0.354387 0.500000 0.980412
O O2 0.242117 0.773094 0.921576
O O3 0.500000 0.774184 0.000000
O O4 0.257217 0.729985 0.058843
O O5 0.414163 0.500000 0.602745
O O6 0.329190 0.762743 0.525751
O O7 0.573254 0.761645 0.596522
O O8 0.353472 0.776430 0.671199
O O9 0.135193 0.500000 0.854008
O O10 0.179281 0.225033 0.779551
O O11 0.977292 0.242764 0.865362
O O12 0.153944 0.784668 0.404905
O O13 0.000000 0.728451 0.500000
O O14 0.896601 0.704529 0.357621
O O15 0.955179 0.000000 0.418498
O O16 0.112435 0.000000 0.060430
O O17 0.000000 0.721900 0.000000
O O18 0.711892 0.500000 0.560179
O O19 0.735071 0.500000 0.274276
#
# Coordination Sequence:
#
# PCOD9146184 Si02
#       7
#     4   4   4   4   4   4   4
#     4   9  17  31  52  78 107 135 164 206 251 291
#     4   8  15  28  49  73  93 119 160 209 253 294
#     4   9  18  32  51  75 100 130 168 206 249 298
#     4  11  22  33  46  70 100 129 164 207 252 300
#     4   9  17  30  50  74 101 135 170 201 237 289
#     4   9  16  30  51  71  92 122 163 209 253 296
#     4  10  19  33  53  73  95 128 169 211 253 299
#
# _framework density 19.917397000000001
#
# number of rings (size 3 to 8) (size 9 to 14) (size 15 to 20)
#    0.000    2.714    1.429    1.714    0.000    3.143 
#    0.000    3.571    0.000    5.143    0.000    0.000 
#    0.000    0.000    0.000    0.000    0.000    0.000 
#
# Total GULP energy -156030.526423 kJ/mol
# GULP energy per Si atom -5572.518801 kJ/mol
# Density = 1.987206 g / cm^3
# Si number density = 19.917397 Si / 1000 Ang^3
#
#
#
# Elastic Constant Matrix: (Units=GPa)
#
#
# Indices 1 2 3 4 5 6 
#
# 1 137.4023 -1.8575 47.9792 0.0000 -34.4393 0.0000
# 2 -1.8575 33.1763 -1.0139 0.0000 0.2223 0.0000
# 3 47.9792 -1.0139 96.9647 0.0000 -38.2838 0.0000
# 4 0.0000 0.0000 0.0000 1.6451 0.0000 6.5963
# 5 -34.4393 0.2223 -38.2838 0.0000 32.9096 0.0000
# 6 0.0000 0.0000 0.0000 6.5963 0.0000 16.4187
#
#
#
# Elastic Compliance Matrix: (Units=1/GPa)
#
#
# Indices 1 2 3 4 5 6 
#
# 1 0.009990 0.000455 -0.001502 0.000000 0.008704 0.000000
# 2 0.000455 0.030174 0.000366 0.000000 0.000698 0.000000
# 3 -0.001502 0.000366 0.019305 0.000000 0.020884 0.000000
# 4 0.000000 0.000000 0.000000 -0.995003 0.000000 0.399748
# 5 0.008704 0.000698 0.020884 0.000000 0.063785 0.000000
# 6 0.000000 0.000000 0.000000 0.399748 0.000000 -0.099695
#
#
# Mechanical properties :
#
#
# Convention : Reuss Voigt Hill
#
# Bulk Modulus (GPa) = 17.20929 39.75098 28.48013
# Shear Modulus (GPa) = -5.25921 25.02371 9.88225
#
# Velocity S-wave (km/s) = -1.62673 3.54838 2.22989
# Velocity P-wave (km/s) = 2.26512 6.06542 4.57821
#
# Compressibility (1/GPa) = 0.05810815
#
# Stress axis : x y z
#
# Youngs Moduli (GPa) = 100.09830 33.14111 51.79887
#
# Poissons Ratio (x) = -0.01508 0.07779
# Poissons Ratio (y) = -0.04556 -0.01895
# Poissons Ratio (z) = 0.15033 -0.01213
#
# Static dielectric constant tensor:
#      x y z
#    x 1.730600 0.000000 -0.038640 
#    y 0.000000 1.728490 0.000000 
#    z -0.038640 0.000000 1.719610 
# 
# From -- ./inp_files/33476.got.cif
#   From: 2010.05.17/outbox.cif.g08.bks.cpg/sg10_17_cif.got.tgz:33476.got - 2010.06.03 11:33:40.
