data_PCOD9146331
_publ_section_title
;
Structure prediction by ZEFSAII (Michael W. Deem and Ramdas Pophale) SiO2 
 PCOD9146331
Probable space group: P 2/M
;
_chemical_formula_sum "Si O2"
_cell_formula_units_Z 28
_cell_length_a 30.065428
_cell_length_b 8.180268
_cell_length_c 9.447494
_cell_angle_alpha 90.000000
_cell_angle_beta 141.856673
_cell_angle_gamma 90.000000
_cell_volume 1435.094425
_symmetry_space_group_name_H-M "P 2/M"
_symmetry_group_IT_number 10
_symmetry_cell_setting 'monoclinic'
loop_
_space_group_symop_operation_xyz
x,y,z
-x,y,-z
-x,-y,-z
x,-y,z
loop_
_atom_site_type_symbol
_atom_site_label
_atom_site_fract_x
_atom_site_fract_y
_atom_site_fract_z
Si Si1 0.497613 0.699874 0.157256
Si Si2 0.642665 0.697762 0.019711
Si Si3 0.227433 0.693502 0.169712
Si Si4 0.062115 0.692136 0.048853
Si Si5 0.783241 0.809018 0.537280
Si Si6 0.361378 0.300265 0.315605
Si Si7 0.070789 0.191360 0.755086
O O1 0.497416 0.500000 0.155765
O O2 0.568262 0.751292 0.420780
O O3 0.500000 0.753253 0.000000
O O4 0.425450 0.753129 0.057395
O O5 0.641208 0.500000 0.015099
O O6 0.716545 0.752144 0.276716
O O7 0.636903 0.754071 0.842815
O O8 0.236676 0.500000 0.215801
O O9 0.233299 0.775653 0.338382
O O10 0.289234 0.750685 0.217514
O O11 0.146920 0.725053 0.911617
O O12 0.051773 0.500000 0.992548
O O13 0.059654 0.786786 0.894867
O O14 0.142238 0.717189 0.309915
O O15 0.000000 0.746103 0.000000
O O16 0.795784 0.000000 0.548770
O O17 0.361595 0.500000 0.314200
O O18 0.000000 0.257645 0.500000
O O19 0.077801 0.000000 0.738034
#
# Coordination Sequence:
#
# PCOD9146331 Si02
#       7
#     4   4   4   4   4   4   4
#     4   9  16  28  51  81 109 138 174 217 264 313
#     4  10  19  33  54  79 109 140 175 220 264 311
#     4  10  19  34  56  78 103 136 178 224 266 313
#     4  10  21  37  58  82 106 135 176 223 267 312
#     4  11  22  36  54  76 106 142 179 216 261 318
#     4   9  18  31  51  82 110 135 172 220 271 314
#     4  10  21  36  54  78 109 143 178 215 261 318
#
# _framework density 19.510912000000001
#
# number of rings (size 3 to 8) (size 9 to 14) (size 15 to 20)
#    0.000    2.143    0.000    5.571    0.000    7.429 
#    0.000    5.714    0.000    6.429    0.000    0.000 
#    0.000    0.000    0.000    0.000    0.000    0.000 
#
# Total GULP energy -156358.418819 kJ/mol
# GULP energy per Si atom -5584.229244 kJ/mol
# Density = 1.946650 g / cm^3
# Si number density = 19.510912 Si / 1000 Ang^3
#
#
#
# Elastic Constant Matrix: (Units=GPa)
#
#
# Indices 1 2 3 4 5 6 
#
# 1 151.9030 -2.6336 81.0599 0.0000 13.8135 0.0000
# 2 -2.6336 13.3693 -9.4208 0.0000 -2.8603 0.0000
# 3 81.0599 -9.4208 172.8097 0.0000 4.8961 0.0000
# 4 0.0000 0.0000 0.0000 -44.0756 0.0000 16.4540
# 5 13.8135 -2.8603 4.8961 0.0000 24.9403 0.0000
# 6 0.0000 0.0000 0.0000 16.4540 0.0000 -50.3835
#
#
#
# Elastic Compliance Matrix: (Units=1/GPa)
#
#
# Indices 1 2 3 4 5 6 
#
# 1 0.009275 -0.002203 -0.004342 0.000000 -0.004537 0.000000
# 2 -0.002203 0.079986 0.005128 0.000000 0.009387 0.000000
# 3 -0.004342 0.005128 0.008063 0.000000 0.001410 0.000000
# 4 0.000000 0.000000 0.000000 -0.025838 0.000000 -0.008438
# 5 -0.004537 0.009387 0.001410 0.000000 0.043408 0.000000
# 6 0.000000 0.000000 0.000000 -0.008438 0.000000 -0.022603
#
#
# Mechanical properties :
#
#
# Convention : Reuss Voigt Hill
#
# Bulk Modulus (GPa) = 10.58327 52.89923 31.74125
# Shear Modulus (GPa) = 39.48806 4.03469 21.76137
#
# Velocity S-wave (km/s) = 4.50365 1.43958 3.34330
# Velocity P-wave (km/s) = 5.69912 5.47126 5.58635
#
# Compressibility (1/GPa) = 0.09448875
#
# Stress axis : x y z
#
# Youngs Moduli (GPa) = 107.82194 12.50223 124.02308
#
# Poissons Ratio (x) = 0.02755 0.53851
# Poissons Ratio (y) = 0.23756 -0.63599
# Poissons Ratio (z) = 0.46816 -0.06411
#
# Static dielectric constant tensor:
#      x y z
#    x 1.663340 0.000000 0.008540 
#    y 0.000000 1.672530 0.000000 
#    z 0.008540 0.000000 1.664160 
# 
# From -- ./inp_files/37333.got.cif
#   From: 2010.05.17/outbox.cif.g08.bks.cpg/sg10_19_cif.got.tgz:37333.got - 2010.06.03 11:33:40.
