data_PCOD9146534
_publ_section_title
;
Structure prediction by ZEFSAII (Michael W. Deem and Ramdas Pophale) SiO2 
 PCOD9146534
Probable space group: P 2/M
;
_chemical_formula_sum "Si O2"
_cell_formula_units_Z 32
_cell_length_a 11.934527
_cell_length_b 7.659808
_cell_length_c 29.060655
_cell_angle_alpha 90.000000
_cell_angle_beta 31.101812
_cell_angle_gamma 90.000000
_cell_volume 1372.301729
_symmetry_space_group_name_H-M "P 2/M"
_symmetry_group_IT_number 10
_symmetry_cell_setting 'monoclinic'
loop_
_space_group_symop_operation_xyz
x,y,z
-x,y,-z
-x,-y,-z
x,-y,z
loop_
_atom_site_type_symbol
_atom_site_label
_atom_site_fract_x
_atom_site_fract_y
_atom_site_fract_z
Si Si1 0.658621 0.200505 0.405402
Si Si2 0.173224 0.287021 0.321024
Si Si3 0.270984 0.711878 0.483741
Si Si4 0.684522 0.300182 0.630308
Si Si5 0.919844 0.209365 0.978464
Si Si6 0.800972 0.797033 0.206103
Si Si7 0.416041 0.289382 0.144576
Si Si8 0.052349 0.701197 0.208436
O O1 0.500000 0.280879 0.500000
O O2 0.497443 0.206793 0.418585
O O3 0.879059 0.289106 0.311517
O O4 0.705624 0.000000 0.401181
O O5 0.185069 0.500000 0.315593
O O6 0.274345 0.224026 0.333794
O O7 0.300751 0.223439 0.231752
O O8 0.919589 0.241113 0.413850
O O9 0.292282 0.500000 0.475924
O O10 0.212249 0.771464 0.452902
O O11 0.762303 0.500000 0.606494
O O12 0.427954 0.298938 0.710475
O O13 0.668479 0.247534 0.057484
O O14 0.943312 0.000000 0.971197
O O15 0.000000 0.276882 0.000000
O O16 0.064947 0.272255 0.884832
O O17 0.944550 0.786085 0.201748
O O18 0.747799 0.000000 0.217029
O O19 0.395271 0.500000 0.151250
O O20 0.276645 0.225318 0.149869
O O21 0.084122 0.500000 0.184606
#
# Coordination Sequence:
#
# PCOD9146534 Si02
#       8
#     4   4   4   4   4   4   4   4
#     4  11  23  37  55  82 118 160 204 248 292 342
#     4   9  18  34  56  85 119 153 194 242 296 352
#     4  10  19  33  55  83 116 156 197 239 290 350
#     4  10  19  33  57  87 117 153 195 239 291 353
#     4  10  23  43  65  90 120 156 195 236 295 365
#     4  11  23  39  61  87 119 157 196 245 299 353
#     4  10  22  39  61  88 117 152 196 248 295 342
#     4  11  23  40  61  87 119 156 200 245 295 351
#
# _framework density 23.318486
#
# number of rings (size 3 to 8) (size 9 to 14) (size 15 to 20)
#    0.000    1.750    1.250    3.000    0.000    6.250 
#    0.000    3.750    0.000    1.500    0.000    0.000 
#    0.000    0.000    0.000    0.000    0.000    0.000 
#
# Total GULP energy -178876.954497 kJ/mol
# GULP energy per Si atom -5589.904828 kJ/mol
# Density = 2.326541 g / cm^3
# Si number density = 23.318486 Si / 1000 Ang^3
#
#
#
# Elastic Constant Matrix: (Units=GPa)
#
#
# Indices 1 2 3 4 5 6 
#
# 1 98.1946 0.5938 22.1712 0.0000 -7.7050 0.0000
# 2 0.5938 54.6914 -3.1858 0.0000 3.1937 0.0000
# 3 22.1712 -3.1858 101.8007 0.0000 2.1828 0.0000
# 4 0.0000 0.0000 0.0000 11.2653 0.0000 5.2587
# 5 -7.7050 3.1937 2.1828 0.0000 41.0224 0.0000
# 6 0.0000 0.0000 0.0000 5.2587 0.0000 10.4932
#
#
#
# Elastic Compliance Matrix: (Units=1/GPa)
#
#
# Indices 1 2 3 4 5 6 
#
# 1 0.010909 -0.000389 -0.002436 0.000000 0.002209 0.000000
# 2 -0.000389 0.018419 0.000694 0.000000 -0.001544 0.000000
# 3 -0.002436 0.000694 0.010398 0.000000 -0.001065 0.000000
# 4 0.000000 0.000000 0.000000 0.115876 0.000000 -0.058072
# 5 0.002209 -0.001544 -0.001065 0.000000 0.024969 0.000000
# 6 0.000000 0.000000 0.000000 -0.058072 0.000000 0.124403
#
#
# Mechanical properties :
#
#
# Convention : Reuss Voigt Hill
#
# Bulk Modulus (GPa) = 28.19617 32.64944 30.42281
# Shear Modulus (GPa) = 15.57354 28.23002 21.90178
#
# Velocity S-wave (km/s) = 2.58711 3.48318 3.06804
# Velocity P-wave (km/s) = 4.58718 5.49624 5.06216
#
# Compressibility (1/GPa) = 0.03546580
#
# Stress axis : x y z
#
# Youngs Moduli (GPa) = 91.66364 54.29102 96.17133
#
# Poissons Ratio (x) = 0.02114 0.23423
# Poissons Ratio (y) = 0.03569 -0.06677
# Poissons Ratio (z) = 0.22325 -0.03770
#
# Static dielectric constant tensor:
#      x y z
#    x 1.921530 0.000000 0.018650 
#    y 0.000000 1.875590 0.000000 
#    z 0.018650 0.000000 1.848420 
# 
# From -- ./inp_files/58276.got.cif
#   From: 2010.05.17/outbox.cif.g08.bks.cpg/sg10_30_cif.got.tgz:58276.got - 2010.06.03 11:33:40.
