data_PCOD9146073
_publ_section_title
;
Structure prediction by ZEFSAII (Michael W. Deem and Ramdas Pophale) SiO2 
 PCOD9146073
Probable space group: P 2/M
;
_chemical_formula_sum "Si O2"
_cell_formula_units_Z 24
_cell_length_a 22.874222
_cell_length_b 15.775176
_cell_length_c 25.164966
_cell_angle_alpha 90.000000
_cell_angle_beta 168.673043
_cell_angle_gamma 90.000000
_cell_volume 1783.507497
_symmetry_space_group_name_H-M "P 2/M"
_symmetry_group_IT_number 10
_symmetry_cell_setting 'monoclinic'
loop_
_space_group_symop_operation_xyz
x,y,z
-x,y,-z
-x,-y,-z
x,-y,z
loop_
_atom_site_type_symbol
_atom_site_label
_atom_site_fract_x
_atom_site_fract_y
_atom_site_fract_z
Si Si1 0.852531 0.103442 0.924118
Si Si2 0.140303 0.687994 0.684408
Si Si3 0.144094 0.500000 0.686615
Si Si4 0.854171 0.000000 0.312431
Si Si5 0.074726 0.155476 0.438382
Si Si6 0.829345 0.897210 0.684697
Si Si7 0.756134 0.896744 0.046007
O O1 0.510680 0.131041 0.624116
O O2 0.854606 0.000000 0.925963
O O3 0.000000 0.129972 0.000000
O O4 0.035459 0.131292 0.138715
O O5 0.067244 0.592811 0.640425
O O6 0.000000 0.697886 0.500000
O O7 0.008953 0.757119 0.607377
O O8 0.500000 0.697266 0.000000
O O9 0.000000 0.500000 0.500000
O O10 0.500000 0.500000 0.000000
O O11 0.000000 0.000000 0.500000
O O12 0.961206 0.917915 0.376427
O O13 0.500000 0.000000 0.000000
O O14 0.906530 0.140515 0.232942
O O15 0.426463 0.140367 0.745005
O O16 0.038711 0.875513 0.821794
O O17 0.822874 0.000000 0.680358
O O18 0.738010 0.000000 0.034503
#
# Coordination Sequence:
#
# PCOD9146073 Si02
#       7
#     4   4   2   2   4   4   4
#     4   9  15  24  37  56  74  92 123 169 213 239
#     4  10  19  33  48  66  82 100 128 166 217 260
#     4   8  16  30  50  66  82  98 118 158 209 264
#     4  12  22  32  42  56  76 102 129 168 211 240
#     4  12  21  32  45  59  80 107 138 174 203 249
#     4   9  17  26  39  52  71 101 131 165 202 234
#     4  11  20  33  42  56  79 111 146 172 198 234
#
# _framework density 13.456630000000001
#
# number of rings (size 3 to 8) (size 9 to 14) (size 15 to 20)
#    0.000    1.833    1.667    4.500    0.000    4.667 
#    0.000    0.000    0.000    0.000    0.000    0.000 
#    0.000    0.000    0.000    0.000    0.000    0.000 
#
# Total GULP energy -133801.255302 kJ/mol
# GULP energy per Si atom -5575.052304 kJ/mol
# Density = 1.342600 g / cm^3
# Si number density = 13.456630 Si / 1000 Ang^3
#
#
#
# Elastic Constant Matrix: (Units=GPa)
#
#
# Indices 1 2 3 4 5 6 
#
# 1 23.6752 7.0183 -15.0515 0.0000 2.4032 0.0000
# 2 7.0183 71.9834 -2.1699 0.0000 9.0889 0.0000
# 3 -15.0515 -2.1699 61.3449 0.0000 0.2233 0.0000
# 4 0.0000 0.0000 0.0000 10.7163 0.0000 0.1835
# 5 2.4032 9.0889 0.2233 0.0000 28.2493 0.0000
# 6 0.0000 0.0000 0.0000 0.1835 0.0000 12.7502
#
#
#
# Elastic Compliance Matrix: (Units=1/GPa)
#
#
# Indices 1 2 3 4 5 6 
#
# 1 0.051818 -0.004278 0.012574 0.000000 -0.003131 0.000000
# 2 -0.004278 0.014851 -0.000508 0.000000 -0.004410 0.000000
# 3 0.012574 -0.000508 0.019372 0.000000 -0.001059 0.000000
# 4 0.000000 0.000000 0.000000 0.093339 0.000000 -0.001344
# 5 -0.003131 -0.004410 -0.001059 0.000000 0.037093 0.000000
# 6 0.000000 0.000000 0.000000 -0.001344 0.000000 0.078449
#
#
# Mechanical properties :
#
#
# Convention : Reuss Voigt Hill
#
# Bulk Modulus (GPa) = 9.84081 15.17747 12.50914
# Shear Modulus (GPa) = 15.96328 21.49026 18.72677
#
# Velocity S-wave (km/s) = 3.44797 4.00059 3.73452
# Velocity P-wave (km/s) = 4.81458 5.71339 5.28314
#
# Compressibility (1/GPa) = 0.10161764
#
# Stress axis : x y z
#
# Youngs Moduli (GPa) = 19.29818 67.33699 51.62001
#
# Poissons Ratio (x) = 0.28805 -0.64908
# Poissons Ratio (y) = 0.08255 0.02624
# Poissons Ratio (z) = -0.24266 0.03422
#
# Static dielectric constant tensor:
#      x y z
#    x 1.435230 0.000000 -0.034670 
#    y 0.000000 1.429560 0.000000 
#    z -0.034670 0.000000 1.526650 
# 
# From -- ./inp_files/13350.got.cif
#   From: 2010.05.17/outbox.cif.g08.bks.cpg/sg10_7_cif.got.tgz:13350.got - 2010.06.03 11:33:40.
