data_PCOD9146460
_publ_section_title
;
Structure prediction by ZEFSAII (Michael W. Deem and Ramdas Pophale) SiO2 
 PCOD9146460
Probable space group: P 2/M
;
_chemical_formula_sum "Si O2"
_cell_formula_units_Z 32
_cell_length_a 14.049341
_cell_length_b 13.742482
_cell_length_c 15.093059
_cell_angle_alpha 90.000000
_cell_angle_beta 41.644425
_cell_angle_gamma 90.000000
_cell_volume 1936.409454
_symmetry_space_group_name_H-M "P 2/M"
_symmetry_group_IT_number 10
_symmetry_cell_setting 'monoclinic'
loop_
_space_group_symop_operation_xyz
x,y,z
-x,y,-z
-x,-y,-z
x,-y,z
loop_
_atom_site_type_symbol
_atom_site_label
_atom_site_fract_x
_atom_site_fract_y
_atom_site_fract_z
Si Si1 0.389816 0.888339 0.851144
Si Si2 0.322993 0.793389 0.389610
Si Si3 0.168763 0.388115 0.404837
Si Si4 0.329320 0.395533 0.104257
Si Si5 0.659362 0.116890 0.430348
Si Si6 0.154447 0.116748 0.865176
Si Si7 0.661412 0.813601 0.927895
Si Si8 0.150544 0.888203 0.363653
O O1 0.512106 0.806959 0.754263
O O2 0.266593 0.868468 0.866103
O O3 0.441888 0.000000 0.798454
O O4 0.333285 0.881116 0.990435
O O5 0.243609 0.693318 0.415397
O O6 0.318134 0.822954 0.495511
O O7 0.248187 0.875473 0.381491
O O8 0.182219 0.500000 0.429247
O O9 0.253657 0.384077 0.252333
O O10 0.000000 0.372601 0.500000
O O11 0.283931 0.500000 0.097747
O O12 0.303714 0.297122 0.068800
O O13 0.500000 0.398838 0.000000
O O14 0.500000 0.130445 0.500000
O O15 0.774222 0.148685 0.276411
O O16 0.673219 0.000000 0.437802
O O17 0.139269 0.000000 0.865737
O O18 0.000000 0.157011 0.000000
O O19 0.770717 0.840436 0.774001
O O20 0.500000 0.818922 0.000000
O O21 0.000000 0.845180 0.500000
O O22 0.128136 0.000000 0.355644
#
# Coordination Sequence:
#
# PCOD9146460 Si02
#       8
#     4   4   4   4   4   4   4   4
#     4  11  21  33  53  78 108 149 187 219 263 325
#     4  12  20  33  56  80 104 139 185 224 265 321
#     4  10  21  38  58  79 109 144 178 224 279 329
#     4   9  17  32  52  73  98 131 175 221 260 304
#     4  10  19  33  55  80 106 142 183 223 269 320
#     4   9  19  36  53  74 104 138 181 230 268 305
#     4  11  20  32  50  74 104 144 178 214 261 322
#     4  11  23  34  45  71 112 144 172 215 264 319
#
# _framework density 16.525431000000001
#
# number of rings (size 3 to 8) (size 9 to 14) (size 15 to 20)
#    0.000    1.625    3.750    2.625    0.000    1.500 
#    0.000    2.500    0.000    0.375    0.000    0.000 
#    0.000    2.500    0.000    0.000    0.000    0.000 
#
# Total GULP energy -178258.042967 kJ/mol
# GULP energy per Si atom -5570.563843 kJ/mol
# Density = 1.648782 g / cm^3
# Si number density = 16.525431 Si / 1000 Ang^3
#
#
#
# Elastic Constant Matrix: (Units=GPa)
#
#
# Indices 1 2 3 4 5 6 
#
# 1 69.3408 28.8669 48.9491 0.0000 9.6059 0.0000
# 2 28.8669 95.2082 27.7113 0.0000 -4.2851 0.0000
# 3 48.9491 27.7113 143.2593 0.0000 -2.6911 0.0000
# 4 0.0000 0.0000 0.0000 19.3491 0.0000 -1.3718
# 5 9.6059 -4.2851 -2.6911 0.0000 22.4221 0.0000
# 6 0.0000 0.0000 0.0000 -1.3718 0.0000 16.3267
#
#
#
# Elastic Compliance Matrix: (Units=1/GPa)
#
#
# Indices 1 2 3 4 5 6 
#
# 1 0.023452 -0.005565 -0.007162 0.000000 -0.011970 0.000000
# 2 -0.005565 0.012529 -0.000433 0.000000 0.004727 0.000000
# 3 -0.007162 -0.000433 0.009589 0.000000 0.004136 0.000000
# 4 0.000000 0.000000 0.000000 0.051992 0.000000 0.004368
# 5 -0.011970 0.004727 0.004136 0.000000 0.051127 0.000000
# 6 0.000000 0.000000 0.000000 0.004368 0.000000 0.061616
#
#
# Mechanical properties :
#
#
# Convention : Reuss Voigt Hill
#
# Bulk Modulus (GPa) = 51.94652 57.65143 54.79897
# Shear Modulus (GPa) = 20.57261 25.10498 22.83879
#
# Velocity S-wave (km/s) = 3.53215 3.90188 3.72161
# Velocity P-wave (km/s) = 6.93811 7.43383 7.19024
#
# Compressibility (1/GPa) = 0.01925057
#
# Stress axis : x y z
#
# Youngs Moduli (GPa) = 42.64045 79.81205 104.28788
#
# Poissons Ratio (x) = 0.44415 0.74686
# Poissons Ratio (y) = 0.23729 0.04520
# Poissons Ratio (z) = 0.30537 0.03459
#
# Static dielectric constant tensor:
#      x y z
#    x 1.529210 0.000000 -0.019900 
#    y 0.000000 1.584170 0.000000 
#    z -0.019900 0.000000 1.600800 
# 
# From -- ./inp_files/65093.got.cif
#   From: 2010.05.17/outbox.cif.g08.bks.cpg/sg10_33_cif.got.tgz:65093.got - 2010.06.03 11:33:40.
