data_PCOD9146504
_publ_section_title
;
Structure prediction by ZEFSAII (Michael W. Deem and Ramdas Pophale) SiO2 
 PCOD9146504
Probable space group: P 2/M
;
_chemical_formula_sum "Si O2"
_cell_formula_units_Z 24
_cell_length_a 10.328283
_cell_length_b 7.414866
_cell_length_c 14.022286
_cell_angle_alpha 90.000000
_cell_angle_beta 89.676794
_cell_angle_gamma 90.000000
_cell_volume 1073.849322
_symmetry_space_group_name_H-M "P 2/M"
_symmetry_group_IT_number 10
_symmetry_cell_setting 'monoclinic'
loop_
_space_group_symop_operation_xyz
x,y,z
-x,y,-z
-x,-y,-z
x,-y,z
loop_
_atom_site_type_symbol
_atom_site_label
_atom_site_fract_x
_atom_site_fract_y
_atom_site_fract_z
Si Si1 0.090762 0.792035 0.581352
Si Si2 0.727963 0.780086 0.074302
Si Si3 0.616919 0.707906 0.436915
Si Si4 0.484046 0.781513 0.772229
Si Si5 0.036294 0.220614 0.793778
Si Si6 0.249655 0.220074 0.143885
O O1 0.241133 0.789936 0.552542
O O2 0.075237 0.716173 0.687908
O O3 0.000000 0.710339 0.500000
O O4 0.048292 0.000000 0.591239
O O5 0.606075 0.724939 0.138978
O O6 0.857938 0.722941 0.128757
O O7 0.726919 0.000000 0.072592
O O8 0.725917 0.721669 0.965000
O O9 0.500000 0.787266 0.500000
O O10 0.631432 0.500000 0.465702
O O11 0.574902 0.718445 0.326968
O O12 0.630995 0.723398 0.790440
O O13 0.481049 0.000000 0.769316
O O14 0.891394 0.277002 0.820413
O O15 0.039794 0.000000 0.795080
O O16 0.249488 0.000000 0.143909
#
# Coordination Sequence:
#
# PCOD9146504 Si02
#       6
#     4   4   4   4   4   4
#     4  10  21  37  60  88 113 137 178 234 283 329
#     4   9  15  27  47  76 114 146 175 216 269 325
#     4  11  25  42  58  78 108 147 189 228 275 333
#     4  10  19  33  55  82 110 140 181 228 274 320
#     4   9  16  28  46  77 113 142 172 213 270 328
#     4   9  17  26  46  81 116 145 173 216 271 324
#
# _framework density 22.349505000000001
#
# number of rings (size 3 to 8) (size 9 to 14) (size 15 to 20)
#    0.000    2.333    1.667    1.500    2.333    5.667 
#    0.000    0.000    0.000    2.000    0.000    1.167 
#    0.000    0.000    0.000    0.000    0.000    0.000 
#
# Total GULP energy -134132.048893 kJ/mol
# GULP energy per Si atom -5588.835371 kJ/mol
# Density = 2.229864 g / cm^3
# Si number density = 22.349505 Si / 1000 Ang^3
#
#
#
# Elastic Constant Matrix: (Units=GPa)
#
#
# Indices 1 2 3 4 5 6 
#
# 1 124.9658 -10.3665 27.6238 0.0000 5.9459 0.0000
# 2 -10.3665 68.0708 -7.9108 0.0000 0.9217 0.0000
# 3 27.6238 -7.9108 81.3497 0.0000 4.5305 0.0000
# 4 0.0000 0.0000 0.0000 73.9688 0.0000 102.6060
# 5 5.9459 0.9217 4.5305 0.0000 47.1994 0.0000
# 6 0.0000 0.0000 0.0000 102.6060 0.0000 169.6388
#
#
#
# Elastic Compliance Matrix: (Units=1/GPa)
#
#
# Indices 1 2 3 4 5 6 
#
# 1 0.008752 0.001016 -0.002826 0.000000 -0.000851 0.000000
# 2 0.001016 0.014985 0.001142 0.000000 -0.000530 0.000000
# 3 -0.002826 0.001142 0.013416 0.000000 -0.000954 0.000000
# 4 0.000000 0.000000 0.000000 0.083980 0.000000 -0.050795
# 5 -0.000851 -0.000530 -0.000954 0.000000 0.021396 0.000000
# 6 0.000000 0.000000 0.000000 -0.050795 0.000000 0.036618
#
#
# Mechanical properties :
#
#
# Convention : Reuss Voigt Hill
#
# Bulk Modulus (GPa) = 27.91950 32.56436 30.24193
# Shear Modulus (GPa) = 25.98464 75.83074 50.90769
#
# Velocity S-wave (km/s) = 3.41346 5.83122 4.77781
# Velocity P-wave (km/s) = 5.29670 7.74207 6.63305
#
# Compressibility (1/GPa) = 0.03581726
#
# Stress axis : x y z
#
# Youngs Moduli (GPa) = 114.26546 66.73267 74.53645
#
# Poissons Ratio (x) = -0.06780 0.21061
# Poissons Ratio (y) = -0.11608 -0.08510
# Poissons Ratio (z) = 0.32286 -0.07619
#
# Static dielectric constant tensor:
#      x y z
#    x 1.775040 0.000000 -0.005630 
#    y 0.000000 1.888360 0.000000 
#    z -0.005630 0.000000 1.778820 
# 
# From -- ./inp_files/60283.got.cif
#   From: 2010.05.17/outbox.cif.g08.bks.cpg/sg10_31_cif.got.tgz:60283.got - 2010.06.03 11:33:40.
