data_PCOD9146765
_publ_section_title
;
Structure prediction by ZEFSAII (Michael W. Deem and Ramdas Pophale) SiO2 
 PCOD9146765
Probable space group: P 2/M
;
_chemical_formula_sum "Si O2"
_cell_formula_units_Z 30
_cell_length_a 9.528641
_cell_length_b 13.968415
_cell_length_c 11.758640
_cell_angle_alpha 90.000000
_cell_angle_beta 65.396845
_cell_angle_gamma 90.000000
_cell_volume 1422.986938
_symmetry_space_group_name_H-M "P 2/M"
_symmetry_group_IT_number 10
_symmetry_cell_setting 'monoclinic'
loop_
_space_group_symop_operation_xyz
x,y,z
-x,y,-z
-x,-y,-z
x,-y,z
loop_
_atom_site_type_symbol
_atom_site_label
_atom_site_fract_x
_atom_site_fract_y
_atom_site_fract_z
Si Si1 0.258019 0.109541 0.331927
Si Si2 0.378618 0.112320 0.836737
Si Si3 0.544029 0.610315 0.645722
Si Si4 0.227924 0.276465 0.747469
Si Si5 0.000000 0.731886 0.000000
Si Si6 0.352617 0.604938 0.130253
Si Si7 0.219422 0.805894 0.104303
Si Si8 0.852393 0.282949 0.477898
O O1 0.442847 0.123752 0.258784
O O2 0.199780 0.133102 0.224365
O O3 0.189845 0.183071 0.445900
O O4 0.226070 0.000000 0.372864
O O5 0.278185 0.173805 0.782095
O O6 0.341034 0.000000 0.849260
O O7 0.349281 0.153971 0.973434
O O8 0.521027 0.500000 0.623346
O O9 0.389493 0.669152 0.672569
O O10 0.578782 0.617274 0.767870
O O11 0.701799 0.651006 0.541199
O O12 0.131318 0.271910 0.663325
O O13 0.131037 0.323561 0.884693
O O14 0.925629 0.798415 0.929232
O O15 0.274143 0.500000 0.149789
O O16 0.254615 0.697319 0.131006
O O17 0.500000 0.603763 0.000000
O O18 0.000000 0.320313 0.500000
#
# Coordination Sequence:
#
# PCOD9146765 Si02
#       8
#     4   4   4   4   2   4   4   4
#     4  11  22  38  64  96 129 171 221 275 331 394
#     4  10  21  37  64  99 129 172 225 274 328 389
#     4  11  24  45  72 101 130 173 226 273 331 401
#     4  11  23  44  68  96 133 175 219 276 329 390
#     4  10  24  40  66  94 132 178 218 266 334 388
#     4  10  19  33  62  96 127 164 212 268 325 382
#     4  11  19  38  59  91 135 174 216 272 325 391
#     4  12  26  44  66  97 136 177 219 273 333 396
#
# _framework density 21.082415999999998
#
# number of rings (size 3 to 8) (size 9 to 14) (size 15 to 20)
#    0.000    1.200    2.667    4.400    0.000    3.200 
#    0.000   13.667    0.000    0.000    0.000    0.000 
#    0.000    0.000    0.000    0.000    0.000    0.000 
#
# Total GULP energy -167590.924629 kJ/mol
# GULP energy per Si atom -5586.364154 kJ/mol
# Density = 2.103443 g / cm^3
# Si number density = 21.082416 Si / 1000 Ang^3
#
#
#
# Elastic Constant Matrix: (Units=GPa)
#
#
# Indices 1 2 3 4 5 6 
#
# 1 114.6708 36.3276 41.1701 0.0000 11.7570 0.0000
# 2 36.3276 97.5373 21.3318 0.0000 7.8043 0.0000
# 3 41.1701 21.3318 124.7261 0.0000 20.9239 0.0000
# 4 0.0000 0.0000 0.0000 28.3710 0.0000 6.7063
# 5 11.7570 7.8043 20.9239 0.0000 38.0801 0.0000
# 6 0.0000 0.0000 0.0000 6.7063 0.0000 -4.3890
#
#
#
# Elastic Compliance Matrix: (Units=1/GPa)
#
#
# Indices 1 2 3 4 5 6 
#
# 1 0.010919 -0.003355 -0.002842 0.000000 -0.001122 0.000000
# 2 -0.003355 0.011741 -0.000739 0.000000 -0.000964 0.000000
# 3 -0.002842 -0.000739 0.009814 0.000000 -0.004364 0.000000
# 4 0.000000 0.000000 0.000000 0.025895 0.000000 0.039566
# 5 -0.001122 -0.000964 -0.004364 0.000000 0.029202 0.000000
# 6 0.000000 0.000000 0.000000 0.039566 0.000000 -0.167385
#
#
# Mechanical properties :
#
#
# Convention : Reuss Voigt Hill
#
# Bulk Modulus (GPa) = 53.75887 59.39924 56.57906
# Shear Modulus (GPa) = -83.69427 28.28607 -27.70410
#
# Velocity S-wave (km/s) = -6.30752 3.66688 -3.62896
# Velocity P-wave (km/s) = 5.24325 6.79441 3.05551
#
# Compressibility (1/GPa) = 0.01860158
#
# Stress axis : x y z
#
# Youngs Moduli (GPa) = 91.58315 85.17215 101.89432
#
# Poissons Ratio (x) = 0.28579 0.28960
# Poissons Ratio (y) = 0.30730 0.07527
# Poissons Ratio (z) = 0.26029 0.06292
#
# Static dielectric constant tensor:
#      x y z
#    x 1.788140 0.000000 -0.047040 
#    y 0.000000 1.748840 0.000000 
#    z -0.047040 0.000000 1.872900 
# 
# From -- ./inp_files/42936.got.cif
#   From: 2010.05.17/outbox.cif.g08.bks.cpg/sg10_22_cif.got.tgz:42936.got - 2010.06.03 11:33:40.
