data_PCOD9146769
_publ_section_title
;
Structure prediction by ZEFSAII (Michael W. Deem and Ramdas Pophale) SiO2 
 PCOD9146769
Probable space group: P 2/M
;
_chemical_formula_sum "Si O2"
_cell_formula_units_Z 28
_cell_length_a 5.441388
_cell_length_b 21.966051
_cell_length_c 11.775704
_cell_angle_alpha 90.000000
_cell_angle_beta 88.643568
_cell_angle_gamma 90.000000
_cell_volume 1407.106105
_symmetry_space_group_name_H-M "P 2/M"
_symmetry_group_IT_number 10
_symmetry_cell_setting 'monoclinic'
loop_
_space_group_symop_operation_xyz
x,y,z
-x,y,-z
-x,-y,-z
x,-y,z
loop_
_atom_site_type_symbol
_atom_site_label
_atom_site_fract_x
_atom_site_fract_y
_atom_site_fract_z
Si Si1 0.658666 0.367347 0.382646
Si Si2 0.912405 0.759799 0.881942
Si Si3 0.000000 0.276738 0.500000
Si Si4 0.657450 0.855237 0.300587
Si Si5 0.155468 0.170810 0.354158
Si Si6 0.245126 0.500000 0.574858
Si Si7 0.415643 0.720347 0.803252
Si Si8 0.740822 0.072521 0.068391
O O1 0.500000 0.368288 0.500000
O O2 0.876397 0.320655 0.410295
O O3 0.748336 0.435841 0.359667
O O4 0.523184 0.335507 0.279982
O O5 0.885317 0.806214 0.776533
O O6 0.643249 0.729973 0.885544
O O7 0.140357 0.714212 0.855590
O O8 0.000000 0.788406 0.000000
O O9 0.819849 0.231197 0.569073
O O10 0.392965 0.871059 0.355079
O O11 0.613190 0.784009 0.266516
O O12 0.718518 0.893148 0.187813
O O13 0.889825 0.858413 0.380683
O O14 0.500000 0.500000 0.500000
O O15 0.000000 0.500000 0.500000
O O16 0.717867 0.000000 0.087378
O O17 0.500000 0.092871 0.000000
O O18 0.000000 0.081066 0.000000
#
# Coordination Sequence:
#
# PCOD9146769 Si02
#       8
#     4   4   2   4   4   2   4   4
#     4  11  21  35  56  80 120 151 187 237 288 353
#     4  10  19  34  49  75 109 138 180 230 276 341
#     4  12  20  35  58  78 125 150 186 250 282 358
#     4  10  19  34  48  77 112 139 186 226 271 347
#     4  10  22  32  51  83 108 152 187 225 300 330
#     4  10  22  34  52  82 111 154 191 224 292 353
#     4  10  21  33  50  80 107 144 188 217 289 332
#     4  10  21  36  56  82 112 152 190 230 288 345
#
# _framework density 19.898997000000001
#
# number of rings (size 3 to 8) (size 9 to 14) (size 15 to 20)
#    0.000    1.714    3.571    3.000    0.000    6.857 
#    0.000    0.000    0.000    0.000    0.000    6.000 
#    0.000    0.000    0.000    0.000    0.000    0.000 
#
# Total GULP energy -156103.805746 kJ/mol
# GULP energy per Si atom -5575.135920 kJ/mol
# Density = 1.985371 g / cm^3
# Si number density = 19.898997 Si / 1000 Ang^3
#
#
#
# Elastic Constant Matrix: (Units=GPa)
#
#
# Indices 1 2 3 4 5 6 
#
# 1 169.7586 21.6368 18.2518 0.0000 4.9810 0.0000
# 2 21.6368 77.2616 29.3321 0.0000 1.5100 0.0000
# 3 18.2518 29.3321 54.5429 0.0000 5.6431 0.0000
# 4 0.0000 0.0000 0.0000 43.4737 0.0000 14.6837
# 5 4.9810 1.5100 5.6431 0.0000 33.7014 0.0000
# 6 0.0000 0.0000 0.0000 14.6837 0.0000 19.6254
#
#
#
# Elastic Compliance Matrix: (Units=1/GPa)
#
#
# Indices 1 2 3 4 5 6 
#
# 1 0.006210 -0.001210 -0.001362 0.000000 -0.000636 0.000000
# 2 -0.001210 0.016518 -0.008569 0.000000 0.000873 0.000000
# 3 -0.001362 -0.008569 0.023749 0.000000 -0.003391 0.000000
# 4 0.000000 0.000000 0.000000 0.030781 0.000000 -0.023031
# 5 -0.000636 0.000873 -0.003391 0.000000 0.030295 0.000000
# 6 0.000000 0.000000 0.000000 -0.023031 0.000000 0.068186
#
#
# Mechanical properties :
#
#
# Convention : Reuss Voigt Hill
#
# Bulk Modulus (GPa) = 41.32814 48.88940 45.10877
# Shear Modulus (GPa) = 24.26194 34.84958 29.55576
#
# Velocity S-wave (km/s) = 3.49557 4.18942 3.85813
# Velocity P-wave (km/s) = 6.09147 6.92992 6.52418
#
# Compressibility (1/GPa) = 0.02419659
#
# Stress axis : x y z
#
# Youngs Moduli (GPa) = 161.03164 60.54101 42.10747
#
# Poissons Ratio (x) = 0.07323 0.05734
# Poissons Ratio (y) = 0.19479 0.36080
# Poissons Ratio (z) = 0.21929 0.51875
#
# Static dielectric constant tensor:
#      x y z
#    x 1.861320 0.000000 -0.047790 
#    y 0.000000 1.678660 0.000000 
#    z -0.047790 0.000000 1.800650 
# 
# From -- ./inp_files/39622.got.cif
#   From: 2010.05.17/outbox.cif.g08.bks.cpg/sg10_20_cif.got.tgz:39622.got - 2010.06.03 11:33:40.
