data_PCOD9146716
_publ_section_title
;
Structure prediction by ZEFSAII (Michael W. Deem and Ramdas Pophale) SiO2 
 PCOD9146716
Probable space group: P 2/M
;
_chemical_formula_sum "Si O2"
_cell_formula_units_Z 28
_cell_length_a 11.975669
_cell_length_b 8.661195
_cell_length_c 15.396317
_cell_angle_alpha 90.000000
_cell_angle_beta 53.391703
_cell_angle_gamma 90.000000
_cell_volume 1281.930701
_symmetry_space_group_name_H-M "P 2/M"
_symmetry_group_IT_number 10
_symmetry_cell_setting 'monoclinic'
loop_
_space_group_symop_operation_xyz
x,y,z
-x,y,-z
-x,-y,-z
x,-y,z
loop_
_atom_site_type_symbol
_atom_site_label
_atom_site_fract_x
_atom_site_fract_y
_atom_site_fract_z
Si Si1 0.948134 0.314220 0.325149
Si Si2 0.518005 0.168675 0.389621
Si Si3 0.602477 0.683298 0.790399
Si Si4 0.299176 0.183962 0.906378
Si Si5 0.788618 0.677284 0.224211
Si Si6 0.759393 0.185833 0.870890
Si Si7 0.780376 0.822143 0.561877
O O1 0.940688 0.500000 0.333082
O O2 0.861282 0.262685 0.278857
O O3 0.889759 0.247485 0.442996
O O4 0.101921 0.255745 0.234772
O O5 0.500000 0.167300 0.500000
O O6 0.624317 0.302884 0.318214
O O7 0.365809 0.180428 0.421561
O O8 0.578159 0.000000 0.334816
O O9 0.589289 0.500000 0.798786
O O10 0.458134 0.755848 0.822645
O O11 0.633543 0.752727 0.870538
O O12 0.734641 0.730110 0.668914
O O13 0.199978 0.239016 0.873981
O O14 0.302443 0.000000 0.906512
O O15 0.250761 0.236893 0.024204
O O16 0.829429 0.500000 0.194973
O O17 0.762156 0.000000 0.865889
O O18 0.815474 0.000000 0.566935
#
# Coordination Sequence:
#
# PCOD9146716 Si02
#       7
#     4   4   4   4   4   4   4
#     4  11  25  43  63  94 134 172 211 258 315 379
#     4  10  19  33  57  89 125 165 207 255 310 370
#     4  12  25  42  68  99 129 162 206 264 325 378
#     4  11  24  43  68  96 126 163 213 267 315 372
#     4  11  23  37  61  95 131 167 205 257 318 378
#     4  11  26  47  68  90 122 169 220 265 312 373
#     4  11  22  38  64  96 130 168 211 258 311 375
#
# _framework density 21.842054999999998
#
# number of rings (size 3 to 8) (size 9 to 14) (size 15 to 20)
#    0.000    1.000    2.857    3.857    0.000    7.714 
#    0.000    5.714    0.000    0.000    0.000    0.000 
#    0.000    0.000    0.000    0.000    0.000    0.000 
#
# Total GULP energy -156489.547461 kJ/mol
# GULP energy per Si atom -5588.912409 kJ/mol
# Density = 2.179234 g / cm^3
# Si number density = 21.842055 Si / 1000 Ang^3
#
#
#
# Elastic Constant Matrix: (Units=GPa)
#
#
# Indices 1 2 3 4 5 6 
#
# 1 28.9949 -0.9509 14.3541 0.0000 -3.1450 0.0000
# 2 -0.9509 65.5570 16.1557 0.0000 1.8732 0.0000
# 3 14.3541 16.1557 117.2606 0.0000 13.2537 0.0000
# 4 0.0000 0.0000 0.0000 23.6212 0.0000 6.3829
# 5 -3.1450 1.8732 13.2537 0.0000 30.1053 0.0000
# 6 0.0000 0.0000 0.0000 6.3829 0.0000 36.6864
#
#
#
# Elastic Compliance Matrix: (Units=1/GPa)
#
#
# Indices 1 2 3 4 5 6 
#
# 1 0.038010 0.001753 -0.005610 0.000000 0.006332 0.000000
# 2 0.001753 0.015871 -0.002431 0.000000 0.000266 0.000000
# 3 -0.005610 -0.002431 0.010102 0.000000 -0.004882 0.000000
# 4 0.000000 0.000000 0.000000 0.044423 0.000000 -0.007729
# 5 0.006332 0.000266 -0.004882 0.000000 0.036011 0.000000
# 6 0.000000 0.000000 0.000000 -0.007729 0.000000 0.028603
#
#
# Mechanical properties :
#
#
# Convention : Reuss Voigt Hill
#
# Bulk Modulus (GPa) = 19.45298 30.10338 24.77818
# Shear Modulus (GPa) = 24.66311 30.23283 27.44797
#
# Velocity S-wave (km/s) = 3.36394 3.72446 3.54878
# Velocity P-wave (km/s) = 4.90037 5.68399 5.30666
#
# Compressibility (1/GPa) = 0.05140601
#
# Stress axis : x y z
#
# Youngs Moduli (GPa) = 26.30858 63.00844 98.99498
#
# Poissons Ratio (x) = -0.11045 0.55537
# Poissons Ratio (y) = -0.04612 0.24068
# Poissons Ratio (z) = 0.14759 0.15319
#
# Static dielectric constant tensor:
#      x y z
#    x 1.804720 0.000000 0.042200 
#    y 0.000000 1.830500 0.000000 
#    z 0.042200 0.000000 1.827980 
# 
# From -- ./inp_files/63665.got.cif
#   From: 2010.05.17/outbox.cif.g08.bks.cpg/sg10_32_cif.got.tgz:63665.got - 2010.06.03 11:33:40.
