data_PCOD9146375
_publ_section_title
;
Structure prediction by ZEFSAII (Michael W. Deem and Ramdas Pophale) SiO2 
 PCOD9146375
Probable space group: P 2/M
;
_chemical_formula_sum "Si O2"
_cell_formula_units_Z 26
_cell_length_a 9.738469
_cell_length_b 27.364442
_cell_length_c 5.289371
_cell_angle_alpha 90.000000
_cell_angle_beta 111.333599
_cell_angle_gamma 90.000000
_cell_volume 1312.967388
_symmetry_space_group_name_H-M "P 2/M"
_symmetry_group_IT_number 10
_symmetry_cell_setting 'monoclinic'
loop_
_space_group_symop_operation_xyz
x,y,z
-x,y,-z
-x,-y,-z
x,-y,z
loop_
_atom_site_type_symbol
_atom_site_label
_atom_site_fract_x
_atom_site_fract_y
_atom_site_fract_z
Si Si1 0.603286 0.713803 0.319163
Si Si2 0.863561 0.944712 0.253926
Si Si3 0.175071 0.142688 0.110774
Si Si4 0.398476 0.394868 0.681760
Si Si5 0.820031 0.197315 0.387731
Si Si6 0.441233 0.056469 0.710808
Si Si7 0.603401 0.500000 0.319198
O O1 0.500000 0.719830 0.500000
O O2 0.672098 0.658850 0.369161
O O3 0.732829 0.753349 0.390369
O O4 0.500000 0.717944 0.000000
O O5 0.815102 0.912838 0.982920
O O6 0.731003 0.947120 0.363330
O O7 0.000000 0.922460 0.500000
O O8 0.900927 0.000000 0.202136
O O9 0.230802 0.175876 0.916487
O O10 0.225073 0.159395 0.419512
O O11 0.000000 0.151489 0.000000
O O12 0.500000 0.395558 0.500000
O O13 0.315537 0.447306 0.626982
O O14 0.500000 0.395090 0.000000
O O15 0.000000 0.203013 0.500000
O O16 0.500000 0.080564 0.500000
O O17 0.502566 0.000000 0.751657
O O18 0.500000 0.081673 0.000000
O O19 0.500000 0.500000 0.500000
O O20 0.500000 0.500000 0.000000
#
# Coordination Sequence:
#
# PCOD9146375 Si02
#       7
#     4   4   4   4   4   4   2
#     4  10  19  33  54  82 110 134 172 230 275 297
#     4  10  21  38  63  90 110 133 171 215 256 306
#     4  10  21  38  57  79 107 136 168 209 259 313
#     4   8  14  23  39  65 100 136 168 209 259 304
#     4  10  21  38  58  75 101 142 178 208 256 321
#     4   9  19  36  55  77 109 143 167 194 240 296
#     4   8  12  20  34  58  95 138 173 198 244 314
#
# _framework density 19.80247
#
# number of rings (size 3 to 8) (size 9 to 14) (size 15 to 20)
#    0.000    2.615    0.000    2.308    0.000    2.769 
#    0.000    8.462    0.000    0.462    0.000    0.538 
#    0.000    0.615    0.000   41.385    0.000    1.538 
#
# Total GULP energy -144899.029979 kJ/mol
# GULP energy per Si atom -5573.039615 kJ/mol
# Density = 1.975740 g / cm^3
# Si number density = 19.802470 Si / 1000 Ang^3
#
#
#
# Elastic Constant Matrix: (Units=GPa)
#
#
# Indices 1 2 3 4 5 6 
#
# 1 51.6985 24.8516 36.6190 0.0000 -8.6654 0.0000
# 2 24.8516 170.3734 29.1389 0.0000 -11.8608 0.0000
# 3 36.6190 29.1389 138.7720 0.0000 -33.2324 0.0000
# 4 0.0000 0.0000 0.0000 18.1622 0.0000 2.5910
# 5 -8.6654 -11.8608 -33.2324 0.0000 23.4161 0.0000
# 6 0.0000 0.0000 0.0000 2.5910 0.0000 10.2395
#
#
#
# Elastic Compliance Matrix: (Units=1/GPa)
#
#
# Indices 1 2 3 4 5 6 
#
# 1 0.024865 -0.002628 -0.006248 0.000000 -0.000997 0.000000
# 2 -0.002628 0.006423 -0.000165 0.000000 0.002047 0.000000
# 3 -0.006248 -0.000165 0.012597 0.000000 0.015482 0.000000
# 4 0.000000 0.000000 0.000000 0.057121 0.000000 -0.014454
# 5 -0.000997 0.002047 0.015482 0.000000 0.065346 0.000000
# 6 0.000000 0.000000 0.000000 -0.014454 0.000000 0.101318
#
#
# Mechanical properties :
#
#
# Convention : Reuss Voigt Hill
#
# Bulk Modulus (GPa) = 38.75545 60.22919 49.49232
# Shear Modulus (GPa) = 16.98633 28.37918 22.68276
#
# Velocity S-wave (km/s) = 2.93198 3.78976 3.38812
# Velocity P-wave (km/s) = 5.57454 7.04490 6.35241
#
# Compressibility (1/GPa) = 0.02580282
#
# Stress axis : x y z
#
# Youngs Moduli (GPa) = 40.21767 155.67847 79.38319
#
# Poissons Ratio (x) = 0.40907 0.49601
# Poissons Ratio (y) = 0.10568 0.01312
# Poissons Ratio (z) = 0.25129 0.02573
#
# Static dielectric constant tensor:
#      x y z
#    x 1.707650 0.000000 -0.008740 
#    y 0.000000 1.781400 0.000000 
#    z -0.008740 0.000000 1.771970 
# 
# From -- ./inp_files/5367.got.cif
#   From: 2010.05.17/outbox.cif.g08.bks.cpg/sg10_3_cif.got.tgz:5367.got - 2010.06.03 11:33:40.
