data_PCOD9146568
_publ_section_title
;
Structure prediction by ZEFSAII (Michael W. Deem and Ramdas Pophale) SiO2 
 PCOD9146568
Probable space group: P 2/M
;
_chemical_formula_sum "Si O2"
_cell_formula_units_Z 32
_cell_length_a 15.485476
_cell_length_b 7.607348
_cell_length_c 23.325223
_cell_angle_alpha 90.000000
_cell_angle_beta 30.879089
_cell_angle_gamma 90.000000
_cell_volume 1410.243267
_symmetry_space_group_name_H-M "P 2/M"
_symmetry_group_IT_number 10
_symmetry_cell_setting 'monoclinic'
loop_
_space_group_symop_operation_xyz
x,y,z
-x,y,-z
-x,-y,-z
x,-y,z
loop_
_atom_site_type_symbol
_atom_site_label
_atom_site_fract_x
_atom_site_fract_y
_atom_site_fract_z
Si Si1 0.014742 0.702064 0.736161
Si Si2 0.972829 0.715203 0.634671
Si Si3 0.111952 0.711357 0.801102
Si Si4 0.635193 0.205512 0.969952
Si Si5 0.605058 0.300156 0.274508
Si Si6 0.154995 0.801543 0.956667
Si Si7 0.615034 0.712710 0.791730
Si Si8 0.703928 0.715708 0.613717
O O1 0.072947 0.500000 0.699335
O O2 0.033272 0.779014 0.662365
O O3 0.814712 0.703491 0.862670
O O4 0.103525 0.781533 0.741421
O O5 0.969075 0.500000 0.638173
O O6 0.783051 0.770642 0.729762
O O7 0.106788 0.766246 0.510079
O O8 0.127835 0.500000 0.790376
O O9 0.265021 0.780268 0.753594
O O10 0.934157 0.744659 0.934209
O O11 0.664058 0.000000 0.941585
O O12 0.500000 0.272923 0.000000
O O13 0.548092 0.224656 0.081368
O O14 0.575373 0.500000 0.310454
O O15 0.702005 0.304197 0.157827
O O16 0.425185 0.221338 0.361698
O O17 0.216117 0.000000 0.927610
O O18 0.000000 0.796926 0.000000
O O19 0.609819 0.500000 0.794761
O O20 0.640948 0.772525 0.711854
O O21 0.699548 0.500000 0.616382
#
# Coordination Sequence:
#
# PCOD9146568 Si02
#       8
#     4   4   4   4   4   4   4   4
#     4  10  20  34  54  77 103 138 178 210 249 308
#     4   9  17  32  53  77 103 131 171 220 256 297
#     4   9  18  31  48  71 101 137 172 206 252 305
#     4  11  23  37  53  77 110 139 166 209 264 313
#     4   9  17  31  48  70 103 136 168 212 257 298
#     4   9  17  29  46  68  96 131 169 210 255 301
#     4  10  19  33  56  80 103 134 172 211 256 309
#     4   9  18  31  52  80 104 131 172 217 259 300
#
# _framework density 22.691123000000001
#
# number of rings (size 3 to 8) (size 9 to 14) (size 15 to 20)
#    0.000    2.500    1.250    1.125    1.750    4.000 
#    0.000    0.625    0.000    7.500    0.000    0.000 
#    0.000    5.000    0.000    0.000    0.000    0.000 
#
# Total GULP energy -178628.866324 kJ/mol
# GULP energy per Si atom -5582.152073 kJ/mol
# Density = 2.263948 g / cm^3
# Si number density = 22.691123 Si / 1000 Ang^3
#
#
#
# Elastic Constant Matrix: (Units=GPa)
#
#
# Indices 1 2 3 4 5 6 
#
# 1 102.8395 -1.7014 8.2120 0.0000 17.3833 0.0000
# 2 -1.7014 54.2229 -9.7490 0.0000 -1.8771 0.0000
# 3 8.2120 -9.7490 57.6121 0.0000 11.8296 0.0000
# 4 0.0000 0.0000 0.0000 -144.2154 0.0000 -47.9501
# 5 17.3833 -1.8771 11.8296 0.0000 29.4020 0.0000
# 6 0.0000 0.0000 0.0000 -47.9501 0.0000 -17.0648
#
#
#
# Elastic Compliance Matrix: (Units=1/GPa)
#
#
# Indices 1 2 3 4 5 6 
#
# 1 0.010807 0.000079 -0.000236 0.000000 -0.006290 0.000000
# 2 0.000079 0.019022 0.003235 0.000000 -0.000134 0.000000
# 3 -0.000236 0.003235 0.019476 0.000000 -0.007490 0.000000
# 4 0.000000 0.000000 0.000000 -0.105470 0.000000 0.296359
# 5 -0.006290 -0.000134 -0.007490 0.000000 0.040735 0.000000
# 6 0.000000 0.000000 0.000000 0.296359 0.000000 -0.891333
#
#
# Mechanical properties :
#
#
# Convention : Reuss Voigt Hill
#
# Bulk Modulus (GPa) = 18.03022 23.13309 20.58165
# Shear Modulus (GPa) = -5.59014 -11.84812 -8.71913
#
# Velocity S-wave (km/s) = -1.57128 -2.28753 -1.96236
# Velocity P-wave (km/s) = 2.16131 1.79995 1.98886
#
# Compressibility (1/GPa) = 0.05546245
#
# Stress axis : x y z
#
# Youngs Moduli (GPa) = 92.53108 52.57108 51.34399
#
# Poissons Ratio (x) = -0.00415 0.01210
# Poissons Ratio (y) = -0.00731 -0.16610
# Poissons Ratio (z) = 0.02180 -0.17007
#
# Static dielectric constant tensor:
#      x y z
#    x 1.888040 0.000000 -0.004770 
#    y 0.000000 1.865760 0.000000 
#    z -0.004770 0.000000 1.804080 
# 
# From -- ./inp_files/89494.got.cif
#   From: 2010.05.17/outbox.cif.g08.bks.cpg/sg10_45_cif.got.tgz:89494.got - 2010.06.03 11:33:40.
