data_PCOD9146609
_publ_section_title
;
Structure prediction by ZEFSAII (Michael W. Deem and Ramdas Pophale) SiO2 
 PCOD9146609
Probable space group: P 2/M
;
_chemical_formula_sum "Si O2"
_cell_formula_units_Z 32
_cell_length_a 14.855850
_cell_length_b 7.488137
_cell_length_c 12.788516
_cell_angle_alpha 90.000000
_cell_angle_beta 87.688105
_cell_angle_gamma 90.000000
_cell_volume 1421.470322
_symmetry_space_group_name_H-M "P 2/M"
_symmetry_group_IT_number 10
_symmetry_cell_setting 'monoclinic'
loop_
_space_group_symop_operation_xyz
x,y,z
-x,y,-z
-x,-y,-z
x,-y,z
loop_
_atom_site_type_symbol
_atom_site_label
_atom_site_fract_x
_atom_site_fract_y
_atom_site_fract_z
Si Si1 0.227070 0.283116 0.946269
Si Si2 0.964649 0.284641 0.114138
Si Si3 0.259123 0.706039 0.171681
Si Si4 0.175711 0.209570 0.396345
Si Si5 0.633834 0.795368 0.229024
Si Si6 0.533322 0.217256 0.882799
Si Si7 0.012811 0.205899 0.660756
Si Si8 0.216343 0.781429 0.617900
O O1 0.233661 0.500000 0.947324
O O2 0.140247 0.233960 0.882787
O O3 0.313278 0.208026 0.883879
O O4 0.217721 0.219203 0.065812
O O5 0.972575 0.500000 0.117818
O O6 0.010684 0.211391 0.214976
O O7 0.000000 0.226691 0.000000
O O8 0.231954 0.500000 0.175219
O O9 0.227052 0.776378 0.284384
O O10 0.365984 0.723105 0.148296
O O11 0.229055 0.271920 0.496159
O O12 0.074047 0.286618 0.392590
O O13 0.162276 0.000000 0.415123
O O14 0.537051 0.718214 0.202444
O O15 0.704329 0.715684 0.309246
O O16 0.618085 0.000000 0.262355
O O17 0.532524 0.000000 0.882983
O O18 0.500000 0.274961 0.000000
O O19 0.113849 0.281418 0.646962
O O20 0.021041 0.000000 0.627140
O O21 0.216804 0.000000 0.629255
#
# Coordination Sequence:
#
# PCOD9146609 Si02
#       8
#     4   4   4   4   4   4   4   4
#     4  10  20  33  51  76 108 145 180 219 271 324
#     4  10  20  33  48  71 110 151 182 218 268 325
#     4  11  23  38  57  81 112 149 186 226 273 330
#     4  10  21  37  57  81 111 147 186 231 278 321
#     4  10  19  34  58  84 109 138 176 224 273 325
#     4  10  20  35  58  87 114 141 177 225 280 333
#     4  10  19  33  56  83 108 140 186 233 273 319
#     4   9  18  35  58  83 111 144 185 230 275 323
#
# _framework density 22.511901000000002
#
# number of rings (size 3 to 8) (size 9 to 14) (size 15 to 20)
#    0.000    2.000    2.500    1.500    0.000    4.500 
#    0.000    1.875    0.000    5.250    0.000    0.000 
#    0.000    0.000    0.000    0.000    0.000    0.000 
#
# Total GULP energy -178664.333291 kJ/mol
# GULP energy per Si atom -5583.260415 kJ/mol
# Density = 2.246066 g / cm^3
# Si number density = 22.511901 Si / 1000 Ang^3
#
#
#
# Elastic Constant Matrix: (Units=GPa)
#
#
# Indices 1 2 3 4 5 6 
#
# 1 78.5856 -6.9219 37.7643 0.0000 23.6546 0.0000
# 2 -6.9219 61.0005 -1.6998 0.0000 4.6036 0.0000
# 3 37.7643 -1.6998 148.6566 0.0000 25.0359 0.0000
# 4 0.0000 0.0000 0.0000 28.0818 0.0000 -10.5141
# 5 23.6546 4.6036 25.0359 0.0000 38.9211 0.0000
# 6 0.0000 0.0000 0.0000 -10.5141 0.0000 0.0575
#
#
#
# Elastic Compliance Matrix: (Units=1/GPa)
#
#
# Indices 1 2 3 4 5 6 
#
# 1 0.016934 0.002507 -0.002793 0.000000 -0.008792 0.000000
# 2 0.002507 0.016957 0.000170 0.000000 -0.003639 0.000000
# 3 -0.002793 0.000170 0.008025 0.000000 -0.003485 0.000000
# 4 0.000000 0.000000 0.000000 -0.000528 0.000000 -0.096521
# 5 -0.008792 -0.003639 -0.003485 0.000000 0.033709 0.000000
# 6 0.000000 0.000000 0.000000 -0.096521 0.000000 -0.257794
#
#
# Mechanical properties :
#
#
# Convention : Reuss Voigt Hill
#
# Bulk Modulus (GPa) = 23.98906 38.50311 31.24608
# Shear Modulus (GPa) = -29.66119 30.68542 0.51212
#
# Velocity S-wave (km/s) = -3.63378 3.69599 0.47747
# Velocity P-wave (km/s) = 2.63183 5.94595 3.77013
#
# Compressibility (1/GPa) = 0.04168567
#
# Stress axis : x y z
#
# Youngs Moduli (GPa) = 59.05183 58.97217 124.60752
#
# Poissons Ratio (x) = -0.14786 0.34797
# Poissons Ratio (y) = -0.14806 -0.02115
# Poissons Ratio (z) = 0.16490 -0.01001
#
# Static dielectric constant tensor:
#      x y z
#    x 1.841100 0.000000 0.020600 
#    y 0.000000 1.855280 0.000000 
#    z 0.020600 0.000000 1.848390 
# 
# From -- ./inp_files/49810.got.cif
#   From: 2010.05.17/outbox.cif.g08.bks.cpg/sg10_25_cif.got.tgz:49810.got - 2010.06.03 11:33:40.
