data_PCOD9146703
_publ_section_title
;
Structure prediction by ZEFSAII (Michael W. Deem and Ramdas Pophale) SiO2 
 PCOD9146703
Probable space group: P 2/M
;
_chemical_formula_sum "Si O2"
_cell_formula_units_Z 28
_cell_length_a 14.851079
_cell_length_b 7.543166
_cell_length_c 12.741359
_cell_angle_alpha 90.000000
_cell_angle_beta 55.223934
_cell_angle_gamma 90.000000
_cell_volume 1172.399263
_symmetry_space_group_name_H-M "P 2/M"
_symmetry_group_IT_number 10
_symmetry_cell_setting 'monoclinic'
loop_
_space_group_symop_operation_xyz
x,y,z
-x,y,-z
-x,-y,-z
x,-y,z
loop_
_atom_site_type_symbol
_atom_site_label
_atom_site_fract_x
_atom_site_fract_y
_atom_site_fract_z
Si Si1 0.241823 0.798626 0.058535
Si Si2 0.276937 0.703864 0.264669
Si Si3 0.196935 0.217277 0.650290
Si Si4 0.127231 0.783810 0.924786
Si Si5 0.920747 0.798581 0.466838
Si Si6 0.516069 0.296670 0.154113
Si Si7 0.559658 0.785308 0.567628
O O1 0.181765 0.720458 0.996490
O O2 0.371525 0.797937 0.948111
O O3 0.202583 0.000000 0.097567
O O4 0.228462 0.710169 0.180174
O O5 0.283659 0.500000 0.295433
O O6 0.197039 0.802178 0.397312
O O7 0.401819 0.773886 0.182181
O O8 0.183960 0.274126 0.778943
O O9 0.102056 0.277860 0.633179
O O10 0.314402 0.270390 0.526992
O O11 0.193747 0.000000 0.651589
O O12 0.135277 0.000000 0.921659
O O13 0.000000 0.737393 0.000000
O O14 0.000000 0.710960 0.500000
O O15 0.961657 0.000000 0.423570
O O16 0.529895 0.500000 0.109300
O O17 0.496839 0.289132 0.291556
O O18 0.500000 0.735579 0.500000
O O19 0.555777 0.000000 0.578967
#
# Coordination Sequence:
#
# PCOD9146703 Si02
#       7
#     4   4   4   4   4   4   4
#     4  11  23  38  62  91 119 154 202 248 295 353
#     4  11  24  41  60  85 122 161 199 243 301 359
#     4   9  17  32  54  84 120 149 180 236 294 342
#     4   9  19  35  58  89 121 151 188 240 299 350
#     4  10  21  36  61  92 118 149 198 248 294 350
#     4  11  23  39  58  84 120 158 197 242 300 362
#     4  10  19  33  57  86 117 152 195 243 292 347
#
# _framework density 23.882652
#
# number of rings (size 3 to 8) (size 9 to 14) (size 15 to 20)
#    0.000    1.857    1.429    2.571    2.000    6.286 
#    0.000    0.000    0.000    2.571    0.000    0.000 
#    0.000    0.000    0.000    0.000    0.000    0.000 
#
# Total GULP energy -156597.250457 kJ/mol
# GULP energy per Si atom -5592.758945 kJ/mol
# Density = 2.382829 g / cm^3
# Si number density = 23.882652 Si / 1000 Ang^3
#
#
#
# Elastic Constant Matrix: (Units=GPa)
#
#
# Indices 1 2 3 4 5 6 
#
# 1 131.1987 0.8485 15.4486 0.0000 38.5915 0.0000
# 2 0.8485 64.1360 -4.1420 0.0000 2.2755 0.0000
# 3 15.4486 -4.1420 87.8105 0.0000 27.6454 0.0000
# 4 0.0000 0.0000 0.0000 604.5428 0.0000 102.0001
# 5 38.5915 2.2755 27.6454 0.0000 47.9901 0.0000
# 6 0.0000 0.0000 0.0000 102.0001 0.0000 23.7349
#
#
#
# Elastic Compliance Matrix: (Units=1/GPa)
#
#
# Indices 1 2 3 4 5 6 
#
# 1 0.010051 0.000236 0.000966 0.000000 -0.008651 0.000000
# 2 0.000236 0.015725 0.001215 0.000000 -0.001636 0.000000
# 3 0.000966 0.001215 0.014094 0.000000 -0.008954 0.000000
# 4 0.000000 0.000000 0.000000 0.006017 0.000000 -0.025857
# 5 -0.008651 -0.001636 -0.008954 0.000000 0.033030 0.000000
# 6 0.000000 0.000000 0.000000 -0.025857 0.000000 0.153254
#
#
# Mechanical properties :
#
#
# Convention : Reuss Voigt Hill
#
# Bulk Modulus (GPa) = 22.36804 34.16169 28.26486
# Shear Modulus (GPa) = 20.64088 153.31956 86.98022
#
# Velocity S-wave (km/s) = 2.94302 8.02100 6.04143
# Velocity P-wave (km/s) = 4.57544 10.00584 7.77983
#
# Compressibility (1/GPa) = 0.04470665
#
# Stress axis : x y z
#
# Youngs Moduli (GPa) = 99.48987 63.59196 70.94979
#
# Poissons Ratio (x) = -0.01503 -0.06856
# Poissons Ratio (y) = -0.02352 -0.08621
# Poissons Ratio (z) = -0.09614 -0.07727
#
# Static dielectric constant tensor:
#      x y z
#    x 1.917590 0.000000 0.010540 
#    y 0.000000 1.919440 0.000000 
#    z 0.010540 0.000000 1.856850 
# 
# From -- ./inp_files/49551.got.cif
#   From: 2010.05.17/outbox.cif.g08.bks.cpg/sg10_25_cif.got.tgz:49551.got - 2010.06.03 11:33:40.
