data_PCOD9146091
_publ_section_title
;
Structure prediction by ZEFSAII (Michael W. Deem and Ramdas Pophale) SiO2 
 PCOD9146091
Probable space group: P 2/M
;
_chemical_formula_sum "Si O2"
_cell_formula_units_Z 32
_cell_length_a 18.898850
_cell_length_b 7.692422
_cell_length_c 12.124429
_cell_angle_alpha 90.000000
_cell_angle_beta 90.034290
_cell_angle_gamma 90.000000
_cell_volume 1762.624069
_symmetry_space_group_name_H-M "P 2/M"
_symmetry_group_IT_number 10
_symmetry_cell_setting 'monoclinic'
loop_
_space_group_symop_operation_xyz
x,y,z
-x,y,-z
-x,-y,-z
x,-y,z
loop_
_atom_site_type_symbol
_atom_site_label
_atom_site_fract_x
_atom_site_fract_y
_atom_site_fract_z
Si Si1 0.638514 0.706458 0.766728
Si Si2 0.769200 0.707031 0.626639
Si Si3 0.582499 0.286621 0.000081
Si Si4 0.231140 0.293015 0.625763
Si Si5 0.923650 0.790693 0.371343
Si Si6 0.923997 0.209281 0.628943
Si Si7 0.499961 0.791250 0.373585
Si Si8 0.361630 0.293704 0.766479
O O1 0.649827 0.500000 0.780154
O O2 0.707236 0.778580 0.704017
O O3 0.569881 0.731342 0.690343
O O4 0.620215 0.774510 0.888351
O O5 0.758610 0.500000 0.618107
O O6 0.765658 0.777306 0.500436
O O7 0.848169 0.734190 0.673720
O O8 0.582523 0.500000 0.000108
O O9 0.620203 0.225398 0.111877
O O10 0.500000 0.234768 0.000000
O O11 0.241848 0.500000 0.617107
O O12 0.152258 0.266086 0.673112
O O13 0.293156 0.221308 0.703106
O O14 0.923266 0.735154 0.500148
O O15 0.999774 0.731753 0.324133
O O16 0.923915 0.000000 0.369665
O O17 0.924350 0.000000 0.630556
O O18 0.500000 0.729364 0.500000
O O19 0.569534 0.730387 0.309442
O O20 0.500225 0.000000 0.374112
O O21 0.349992 0.500000 0.780126
#
# Coordination Sequence:
#
# PCOD9146091 Si02
#       8
#     4   4   4   4   4   4   4   4
#     4  10  19  33  51  68  89 119 155 191 229 274
#     4   9  17  27  41  65  93 118 145 180 223 268
#     4   9  16  30  52  72  85 110 155 199 232 266
#     4   9  17  27  41  65  93 118 145 180 223 268
#     4   8  14  25  41  61  87 120 151 176 211 263
#     4   8  14  25  41  61  87 120 151 176 211 263
#     4  11  23  34  45  66  94 121 150 185 228 275
#     4  10  19  33  51  68  89 119 155 191 229 274
#
# _framework density 18.154751000000001
#
# number of rings (size 3 to 8) (size 9 to 14) (size 15 to 20)
#    0.000    2.750    1.250    1.875    0.000    3.500 
#    0.000    6.250    0.000    0.000    0.000    0.875 
#    0.000    7.000    0.000    0.000    0.000    0.000 
#
# Total GULP energy -178290.807169 kJ/mol
# GULP energy per Si atom -5571.587724 kJ/mol
# Density = 1.811343 g / cm^3
# Si number density = 18.154751 Si / 1000 Ang^3
#
#
#
# Elastic Constant Matrix: (Units=GPa)
#
#
# Indices 1 2 3 4 5 6 
#
# 1 196.1813 -3.0483 81.4718 0.0000 -1.1959 0.0000
# 2 -3.0483 26.4613 2.6816 0.0000 0.0034 0.0000
# 3 81.4718 2.6816 119.1499 0.0000 -0.7242 0.0000
# 4 0.0000 0.0000 0.0000 8.9828 0.0000 -0.1178
# 5 -1.1959 0.0034 -0.7242 0.0000 2.5091 0.0000
# 6 0.0000 0.0000 0.0000 -0.1178 0.0000 26.6496
#
#
#
# Elastic Compliance Matrix: (Units=1/GPa)
#
#
# Indices 1 2 3 4 5 6 
#
# 1 0.007175 0.001325 -0.004924 0.000000 0.001997 0.000000
# 2 0.001325 0.038122 -0.001764 0.000000 0.000072 0.000000
# 3 -0.004924 -0.001764 0.011806 0.000000 0.001063 0.000000
# 4 0.000000 0.000000 0.000000 0.111331 0.000000 0.000492
# 5 0.001997 0.000072 0.001063 0.000000 0.399805 0.000000
# 6 0.000000 0.000000 0.000000 0.000492 0.000000 0.037526
#
#
# Mechanical properties :
#
#
# Convention : Reuss Voigt Hill
#
# Bulk Modulus (GPa) = 21.56165 56.00031 38.78098
# Shear Modulus (GPa) = 7.91203 25.00746 16.45975
#
# Velocity S-wave (km/s) = 2.08987 3.71544 3.01431
# Velocity P-wave (km/s) = 4.21020 7.02275 5.78986
#
# Compressibility (1/GPa) = 0.04637864
#
# Stress axis : x y z
#
# Youngs Moduli (GPa) = 139.37616 26.23125 84.70538
#
# Poissons Ratio (x) = -0.03476 0.41706
# Poissons Ratio (y) = -0.18471 0.14940
# Poissons Ratio (z) = 0.68624 0.04626
#
# Static dielectric constant tensor:
#      x y z
#    x 1.652710 0.000000 -0.000060 
#    y 0.000000 1.662660 0.000000 
#    z -0.000060 0.000000 1.610270 
# 
# From -- ./inp_files/52783.got.cif
#   From: 2010.05.17/outbox.cif.g08.bks.cpg/sg10_27_cif.got.tgz:52783.got - 2010.06.03 11:33:40.
