data_PCOD9146952
_publ_section_title
;
Structure prediction by ZEFSAII (Michael W. Deem and Ramdas Pophale) SiO2 
 PCOD9146952
Probable space group: P 2/M
;
_chemical_formula_sum "Si O2"
_cell_formula_units_Z 22
_cell_length_a 8.258068
_cell_length_b 14.779266
_cell_length_c 16.641039
_cell_angle_alpha 90.000000
_cell_angle_beta 34.731901
_cell_angle_gamma 90.000000
_cell_volume 1157.141116
_symmetry_space_group_name_H-M "P 2/M"
_symmetry_group_IT_number 10
_symmetry_cell_setting 'monoclinic'
loop_
_space_group_symop_operation_xyz
x,y,z
-x,y,-z
-x,-y,-z
x,-y,z
loop_
_atom_site_type_symbol
_atom_site_label
_atom_site_fract_x
_atom_site_fract_y
_atom_site_fract_z
Si Si1 0.500000 0.643845 0.500000
Si Si2 0.140344 0.601649 0.231630
Si Si3 0.419813 0.747950 0.219473
Si Si4 0.217894 0.768935 0.078002
Si Si5 0.582603 0.205234 0.335572
Si Si6 0.039158 0.100457 0.580901
O O1 0.801766 0.595619 0.381142
O O2 0.479663 0.707646 0.585602
O O3 0.251338 0.500000 0.173578
O O4 0.279839 0.652169 0.251613
O O5 0.190446 0.673180 0.137880
O O6 0.507159 0.767213 0.275037
O O7 0.175840 0.823060 0.299337
O O8 0.692803 0.755903 0.050635
O O9 0.915250 0.816988 0.208129
O O10 0.500000 0.814586 0.000000
O O11 0.365511 0.130171 0.456563
O O12 0.000000 0.098844 0.500000
O O13 0.980942 0.000000 0.635914
#
# Coordination Sequence:
#
# PCOD9146952 Si02
#       6
#     2   4   4   4   4   4
#     4  10  19  34  55  80 114 150 183 224 279 326
#     4  10  20  35  57  81 112 149 185 224 274 329
#     4  10  19  35  57  84 112 144 185 231 273 321
#     4   9  20  35  56  77 111 150 180 220 277 328
#     4  10  19  35  59  80 110 146 187 227 273 327
#     4   9  18  34  59  85 110 142 182 227 277 329
#
# _framework density 19.012374999999999
#
# number of rings (size 3 to 8) (size 9 to 14) (size 15 to 20)
#    0.000    2.364    1.818    0.818    0.000    3.273 
#    0.000    6.818    0.000   18.545    0.000    0.000 
#    0.000    0.000    0.000    0.000    0.000    0.000 
#
# Total GULP energy -122525.975768 kJ/mol
# GULP energy per Si atom -5569.362535 kJ/mol
# Density = 1.896910 g / cm^3
# Si number density = 19.012375 Si / 1000 Ang^3
#
#
#
# Elastic Constant Matrix: (Units=GPa)
#
#
# Indices 1 2 3 4 5 6 
#
# 1 77.5538 14.3499 30.0052 0.0000 -7.0726 0.0000
# 2 14.3499 67.5145 19.5565 0.0000 -16.4830 0.0000
# 3 30.0052 19.5565 111.5585 0.0000 -24.9779 0.0000
# 4 0.0000 0.0000 0.0000 6.4366 0.0000 15.2294
# 5 -7.0726 -16.4830 -24.9779 0.0000 41.2524 0.0000
# 6 0.0000 0.0000 0.0000 15.2294 0.0000 -7.1471
#
#
#
# Elastic Compliance Matrix: (Units=1/GPa)
#
#
# Indices 1 2 3 4 5 6 
#
# 1 0.014676 -0.002195 -0.003697 0.000000 -0.000599 0.000000
# 2 -0.002195 0.017001 -0.001103 0.000000 0.005749 0.000000
# 3 -0.003697 -0.001103 0.011465 0.000000 0.005868 0.000000
# 4 0.000000 0.000000 0.000000 0.025715 0.000000 0.054794
# 5 -0.000599 0.005749 0.005868 0.000000 0.029988 0.000000
# 6 0.000000 0.000000 0.000000 0.054794 0.000000 -0.023159
#
#
# Mechanical properties :
#
#
# Convention : Reuss Voigt Hill
#
# Bulk Modulus (GPa) = 34.30088 42.71669 38.50879
# Shear Modulus (GPa) = 50.30528 20.95608 35.63068
#
# Velocity S-wave (km/s) = 5.14943 3.32359 4.33376
# Velocity P-wave (km/s) = 7.31000 6.10287 6.73354
#
# Compressibility (1/GPa) = 0.02915377
#
# Stress axis : x y z
#
# Youngs Moduli (GPa) = 68.13856 58.81963 87.21979
#
# Poissons Ratio (x) = 0.12910 0.32243
# Poissons Ratio (y) = 0.14955 0.09619
# Poissons Ratio (z) = 0.25189 0.06487
#
# Static dielectric constant tensor:
#      x y z
#    x 1.701970 0.000000 -0.020830 
#    y 0.000000 1.646260 0.000000 
#    z -0.020830 0.000000 1.698500 
# 
# From -- ./inp_files/75243.got.cif
#   From: 2010.05.17/outbox.cif.g08.bks.cpg/sg10_38_cif.got.tgz:75243.got - 2010.06.03 11:33:40.
