data_PCOD9146467
_publ_section_title
;
Structure prediction by ZEFSAII (Michael W. Deem and Ramdas Pophale) SiO2 
 PCOD9146467
Probable space group: P 2/M
;
_chemical_formula_sum "Si O2"
_cell_formula_units_Z 28
_cell_length_a 23.903545
_cell_length_b 7.660154
_cell_length_c 20.872286
_cell_angle_alpha 90.000000
_cell_angle_beta 160.570514
_cell_angle_gamma 90.000000
_cell_volume 1271.313869
_symmetry_space_group_name_H-M "P 2/M"
_symmetry_group_IT_number 10
_symmetry_cell_setting 'monoclinic'
loop_
_space_group_symop_operation_xyz
x,y,z
-x,y,-z
-x,-y,-z
x,-y,z
loop_
_atom_site_type_symbol
_atom_site_label
_atom_site_fract_x
_atom_site_fract_y
_atom_site_fract_z
Si Si1 0.163277 0.699415 0.877902
Si Si2 0.087717 0.798943 0.657309
Si Si3 0.762019 0.214632 0.608943
Si Si4 0.481907 0.786448 0.406771
Si Si5 0.452022 0.211125 0.742531
Si Si6 0.122035 0.800405 0.972176
Si Si7 0.516636 0.797147 0.947884
O O1 0.150333 0.500000 0.882872
O O2 0.068741 0.725495 0.708199
O O3 0.102521 0.803330 0.874121
O O4 0.359111 0.744125 0.076317
O O5 0.000000 0.717973 0.500000
O O6 0.029453 0.000000 0.598344
O O7 0.286339 0.797303 0.856887
O O8 0.637362 0.270330 0.530690
O O9 0.679379 0.270135 0.452344
O O10 0.953153 0.277862 0.819384
O O11 0.764754 0.000000 0.611370
O O12 0.500000 0.735364 0.500000
O O13 0.483451 0.000000 0.405551
O O14 0.303530 0.724202 0.185743
O O15 0.427674 0.278422 0.788745
O O16 0.445932 0.000000 0.739037
O O17 0.128927 0.000000 0.003030
O O18 0.459420 0.000000 0.891913
O O19 0.500000 0.715774 0.000000
#
# Coordination Sequence:
#
# PCOD9146467 Si02
#       7
#     4   4   4   4   4   4   4
#     4  11  21  33  51  74 104 143 183 223 273 323
#     4   9  18  32  51  73  99 135 179 224 270 321
#     4   9  17  29  51  81 106 138 179 220 271 322
#     4   9  17  30  51  82 117 143 169 219 277 323
#     4   9  16  31  52  72 100 135 177 224 268 321
#     4  10  19  33  55  80 108 141 181 224 265 321
#     4   8  14  24  42  68  94 122 159 210 260 302
#
# _framework density 22.024457999999999
#
# number of rings (size 3 to 8) (size 9 to 14) (size 15 to 20)
#    0.000    2.714    1.429    2.143    0.000    2.000 
#    0.000    7.857    0.000    7.286    0.000    1.000 
#    0.000    0.000    0.000    0.000    0.000    0.000 
#
# Total GULP energy -156192.313214 kJ/mol
# GULP energy per Si atom -5578.296900 kJ/mol
# Density = 2.197433 g / cm^3
# Si number density = 22.024458 Si / 1000 Ang^3
#
#
#
# Elastic Constant Matrix: (Units=GPa)
#
#
# Indices 1 2 3 4 5 6 
#
# 1 151.3339 0.7939 70.6585 0.0000 -2.9661 0.0000
# 2 0.7939 46.3922 2.8457 0.0000 0.1183 0.0000
# 3 70.6585 2.8457 93.5081 0.0000 7.0134 0.0000
# 4 0.0000 0.0000 0.0000 -26.7338 0.0000 8.6786
# 5 -2.9661 0.1183 7.0134 0.0000 29.5424 0.0000
# 6 0.0000 0.0000 0.0000 8.6786 0.0000 -28.3837
#
#
#
# Elastic Compliance Matrix: (Units=1/GPa)
#
#
# Indices 1 2 3 4 5 6 
#
# 1 0.010466 0.000313 -0.008142 0.000000 0.002982 0.000000
# 2 0.000313 0.021605 -0.000906 0.000000 0.000160 0.000000
# 3 -0.008142 -0.000906 0.017242 0.000000 -0.004907 0.000000
# 4 0.000000 0.000000 0.000000 -0.041528 0.000000 -0.012698
# 5 0.002982 0.000160 -0.004907 0.000000 0.035313 0.000000
# 6 0.000000 0.000000 0.000000 -0.012698 0.000000 -0.039114
#
#
# Mechanical properties :
#
#
# Convention : Reuss Voigt Hill
#
# Bulk Modulus (GPa) = 31.40349 48.87007 40.13678
# Shear Modulus (GPa) = 155.91002 9.34739 82.62871
#
# Velocity S-wave (km/s) = 8.42278 2.06236 6.13174
# Velocity P-wave (km/s) = 10.43457 5.28283 8.27008
#
# Compressibility (1/GPa) = 0.03184359
#
# Stress axis : x y z
#
# Youngs Moduli (GPa) = 95.54556 46.28530 57.99713
#
# Poissons Ratio (x) = -0.01447 0.47221
# Poissons Ratio (y) = -0.02988 0.05253
# Poissons Ratio (z) = 0.77792 0.04193
#
# Static dielectric constant tensor:
#      x y z
#    x 1.800570 0.000000 -0.021600 
#    y 0.000000 1.798090 0.000000 
#    z -0.021600 0.000000 1.809030 
# 
# From -- ./inp_files/86437.got.cif
#   From: 2010.05.17/outbox.cif.g08.bks.cpg/sg10_44_cif.got.tgz:86437.got - 2010.06.03 11:33:40.
