data_PCOD9146210
_publ_section_title
;
Structure prediction by ZEFSAII (Michael W. Deem and Ramdas Pophale) SiO2 
 PCOD9146210
Probable space group: P 2/M
;
_chemical_formula_sum "Si O2"
_cell_formula_units_Z 26
_cell_length_a 19.315999
_cell_length_b 9.803380
_cell_length_c 10.891249
_cell_angle_alpha 90.000000
_cell_angle_beta 45.239590
_cell_angle_gamma 90.000000
_cell_volume 1464.415067
_symmetry_space_group_name_H-M "P 2/M"
_symmetry_group_IT_number 10
_symmetry_cell_setting 'monoclinic'
loop_
_space_group_symop_operation_xyz
x,y,z
-x,y,-z
-x,-y,-z
x,-y,z
loop_
_atom_site_type_symbol
_atom_site_label
_atom_site_fract_x
_atom_site_fract_y
_atom_site_fract_z
Si Si1 0.500000 0.252386 0.000000
Si Si2 0.727308 0.339450 0.142284
Si Si3 0.457533 0.347905 0.783439
Si Si4 0.297927 0.848933 0.348584
Si Si5 0.084209 0.334908 0.230489
Si Si6 0.377149 0.841013 0.522859
Si Si7 0.869459 0.335755 0.546477
O O1 0.475189 0.334123 0.906710
O O2 0.596762 0.168045 0.846874
O O3 0.730587 0.500000 0.175344
O O4 0.654765 0.333212 0.115466
O O5 0.679870 0.245287 0.304572
O O6 0.834582 0.291646 0.968064
O O7 0.489296 0.500000 0.704108
O O8 0.521125 0.234506 0.634498
O O9 0.318234 0.835735 0.468134
O O10 0.223311 0.736472 0.394996
O O11 0.259288 0.000000 0.370513
O O12 0.084645 0.500000 0.228024
O O13 0.117642 0.297711 0.326398
O O14 0.971742 0.294201 0.354556
O O15 0.390677 0.000000 0.539002
O O16 0.860142 0.500000 0.551168
#
# Coordination Sequence:
#
# PCOD9146210 Si02
#       7
#     2   4   4   4   4   4   4
#     4  10  20  34  54  78 106 136 166 198 250 312
#     4  10  19  33  53  76 102 132 170 213 251 292
#     4  10  20  33  53  80 105 131 166 210 253 297
#     4  10  21  36  52  72 103 137 170 210 252 295
#     4   8  16  32  54  80 106 130 161 207 257 305
#     4  10  22  37  50  69 102 142 176 207 250 301
#     4   9  17  33  57  80 103 132 165 203 255 309
#
# _framework density 17.754529999999999
#
# number of rings (size 3 to 8) (size 9 to 14) (size 15 to 20)
#    0.000    2.462    0.000    3.231    0.000    8.000 
#    0.000    5.385    0.000    4.615    0.000    0.000 
#    0.000    0.000    0.000    0.000    0.000    0.000 
#
# Total GULP energy -144964.478089 kJ/mol
# GULP energy per Si atom -5575.556850 kJ/mol
# Density = 1.771412 g / cm^3
# Si number density = 17.754530 Si / 1000 Ang^3
#
#
#
# Elastic Constant Matrix: (Units=GPa)
#
#
# Indices 1 2 3 4 5 6 
#
# 1 57.0837 31.6432 35.4494 0.0000 -14.6071 0.0000
# 2 31.6432 80.4858 41.1350 0.0000 -4.5008 0.0000
# 3 35.4494 41.1350 116.1034 0.0000 -5.9385 0.0000
# 4 0.0000 0.0000 0.0000 6.2968 0.0000 6.5222
# 5 -14.6071 -4.5008 -5.9385 0.0000 20.2407 0.0000
# 6 0.0000 0.0000 0.0000 6.5222 0.0000 -4.7005
#
#
#
# Elastic Compliance Matrix: (Units=1/GPa)
#
#
# Indices 1 2 3 4 5 6 
#
# 1 0.029977 -0.008015 -0.005379 0.000000 0.018273 0.000000
# 2 -0.008015 0.017381 -0.003867 0.000000 -0.003054 0.000000
# 3 -0.005379 -0.003867 0.011556 0.000000 -0.001351 0.000000
# 4 0.000000 0.000000 0.000000 0.065161 0.000000 0.090414
# 5 0.018273 -0.003054 -0.001351 0.000000 0.061517 0.000000
# 6 0.000000 0.000000 0.000000 0.090414 0.000000 -0.087290
#
#
# Mechanical properties :
#
#
# Convention : Reuss Voigt Hill
#
# Bulk Modulus (GPa) = 40.99448 52.23645 46.61546
# Shear Modulus (GPa) = 35.47231 14.06376 24.76803
#
# Velocity S-wave (km/s) = 4.47467 2.81752 3.73906
# Velocity P-wave (km/s) = 7.05950 6.33008 6.70472
#
# Compressibility (1/GPa) = 0.02439353
#
# Stress axis : x y z
#
# Youngs Moduli (GPa) = 33.35886 57.53316 86.53329
#
# Poissons Ratio (x) = 0.46112 0.46542
# Poissons Ratio (y) = 0.26737 0.33464
# Poissons Ratio (z) = 0.17942 0.22249
#
# Static dielectric constant tensor:
#      x y z
#    x 1.595570 0.000000 0.000240 
#    y 0.000000 1.600460 0.000000 
#    z 0.000240 0.000000 1.611400 
# 
# From -- ./inp_files/55130.got.cif
#   From: 2010.05.17/outbox.cif.g08.bks.cpg/sg10_28_cif.got.tgz:55130.got - 2010.06.03 11:33:40.
