data_PCOD9146815
_publ_section_title
;
Structure prediction by ZEFSAII (Michael W. Deem and Ramdas Pophale) SiO2 
 PCOD9146815
Probable space group: P 2/M
;
_chemical_formula_sum "Si O2"
_cell_formula_units_Z 32
_cell_length_a 17.480842
_cell_length_b 12.758524
_cell_length_c 23.700259
_cell_angle_alpha 90.000000
_cell_angle_beta 20.678379
_cell_angle_gamma 90.000000
_cell_volume 1866.553450
_symmetry_space_group_name_H-M "P 2/M"
_symmetry_group_IT_number 10
_symmetry_cell_setting 'monoclinic'
loop_
_space_group_symop_operation_xyz
x,y,z
-x,y,-z
-x,-y,-z
x,-y,z
loop_
_atom_site_type_symbol
_atom_site_label
_atom_site_fract_x
_atom_site_fract_y
_atom_site_fract_z
Si Si1 0.019672 0.293600 0.396689
Si Si2 0.969184 0.114789 0.190423
Si Si3 0.412816 0.241179 0.496977
Si Si4 0.929920 0.375036 0.335310
Si Si5 0.193916 0.119542 0.824501
Si Si6 0.702129 0.618279 0.700540
Si Si7 0.694587 0.730615 0.993903
Si Si8 0.627798 0.878366 0.852466
O O1 0.198692 0.366225 0.305091
O O2 0.144278 0.183910 0.301724
O O3 0.931800 0.338505 0.398901
O O4 0.824002 0.298849 0.576432
O O5 0.147390 0.202786 0.076225
O O6 0.755821 0.147502 0.372551
O O7 0.904956 0.111832 0.169759
O O8 0.045976 0.000000 0.155815
O O9 0.500000 0.273015 0.500000
O O10 0.270018 0.327590 0.562895
O O11 0.603520 0.196969 0.325316
O O12 0.931355 0.500000 0.330577
O O13 0.150662 0.325813 0.157777
O O14 0.260297 0.000000 0.795524
O O15 0.000000 0.153379 0.000000
O O16 0.746334 0.500000 0.650958
O O17 0.450672 0.644196 0.875476
O O18 0.526014 0.812685 0.083112
O O19 0.655798 0.000000 0.817237
O O20 0.500000 0.874998 0.000000
#
# Coordination Sequence:
#
# PCOD9146815 Si02
#       8
#     4   4   4   4   4   4   4   4
#     4  10  20  36  52  77  99 134 175 208 253 301
#     4   9  17  31  51  73 101 133 165 204 250 305
#     4   9  19  34  51  73 100 131 164 202 257 308
#     4  11  21  34  54  76 100 127 173 219 250 294
#     4   9  17  31  52  76 100 128 163 203 247 298
#     4  10  20  35  54  71 105 142 171 213 259 299
#     4  10  20  33  50  79 100 133 173 209 253 298
#     4  10  19  34  53  74 105 136 165 205 254 300
#
# _framework density 17.143896999999999
#
# number of rings (size 3 to 8) (size 9 to 14) (size 15 to 20)
#    0.000    2.250    1.250    2.625    0.000    2.750 
#    0.000    8.125    0.000    0.375    0.000    0.000 
#    0.000    0.000    0.000    0.000    0.000    0.000 
#
# Total GULP energy -178203.485462 kJ/mol
# GULP energy per Si atom -5568.858921 kJ/mol
# Density = 1.710488 g / cm^3
# Si number density = 17.143897 Si / 1000 Ang^3
#
#
#
# Elastic Constant Matrix: (Units=GPa)
#
#
# Indices 1 2 3 4 5 6 
#
# 1 55.1625 40.3254 33.0683 0.0000 -4.3647 0.0000
# 2 40.3254 97.3268 36.1071 0.0000 0.7094 0.0000
# 3 33.0683 36.1071 95.6429 0.0000 3.2643 0.0000
# 4 0.0000 0.0000 0.0000 19.2372 0.0000 -3.1496
# 5 -4.3647 0.7094 3.2643 0.0000 19.1900 0.0000
# 6 0.0000 0.0000 0.0000 -3.1496 0.0000 14.2104
#
#
#
# Elastic Compliance Matrix: (Units=1/GPa)
#
#
# Indices 1 2 3 4 5 6 
#
# 1 0.030317 -0.010032 -0.006983 0.000000 0.008454 0.000000
# 2 -0.010032 0.015270 -0.002212 0.000000 -0.002470 0.000000
# 3 -0.006983 -0.002212 0.013837 0.000000 -0.003860 0.000000
# 4 0.000000 0.000000 0.000000 0.053940 0.000000 0.011955
# 5 0.008454 -0.002470 -0.003860 0.000000 0.054781 0.000000
# 6 0.000000 0.000000 0.000000 0.011955 0.000000 0.073021
#
#
# Mechanical properties :
#
#
# Convention : Reuss Voigt Hill
#
# Bulk Modulus (GPa) = 47.68871 51.90374 49.79623
# Shear Modulus (GPa) = 17.44528 19.76963 18.60745
#
# Velocity S-wave (km/s) = 3.19341 3.39950 3.29807
# Velocity P-wave (km/s) = 6.44005 6.76387 6.60395
#
# Compressibility (1/GPa) = 0.02096932
#
# Stress axis : x y z
#
# Youngs Moduli (GPa) = 32.98433 65.48844 72.27130
#
# Poissons Ratio (x) = 0.65700 0.50469
# Poissons Ratio (y) = 0.33091 0.15984
# Poissons Ratio (z) = 0.23034 0.14484
#
# Static dielectric constant tensor:
#      x y z
#    x 1.574180 0.000000 -0.003520 
#    y 0.000000 1.584730 0.000000 
#    z -0.003520 0.000000 1.593970 
# 
# From -- ./inp_files/38261.got.cif
#   From: 2010.05.17/outbox.cif.g08.bks.cpg/sg10_20_cif.got.tgz:38261.got - 2010.06.03 11:33:40.
