data_PCOD9146095
_publ_section_title
;
Structure prediction by ZEFSAII (Michael W. Deem and Ramdas Pophale) SiO2 
 PCOD9146095
Probable space group: P 2/M
;
_chemical_formula_sum "Si O2"
_cell_formula_units_Z 32
_cell_length_a 28.086469
_cell_length_b 9.208255
_cell_length_c 14.420087
_cell_angle_alpha 90.000000
_cell_angle_beta 150.692581
_cell_angle_gamma 90.000000
_cell_volume 1825.538299
_symmetry_space_group_name_H-M "P 2/M"
_symmetry_group_IT_number 10
_symmetry_cell_setting 'monoclinic'
loop_
_space_group_symop_operation_xyz
x,y,z
-x,y,-z
-x,-y,-z
x,-y,z
loop_
_atom_site_type_symbol
_atom_site_label
_atom_site_fract_x
_atom_site_fract_y
_atom_site_fract_z
Si Si1 0.599570 0.672023 0.288922
Si Si2 0.808769 0.329516 0.959644
Si Si3 0.991548 0.325566 0.595356
Si Si4 0.514083 0.666612 0.414636
Si Si5 0.795201 0.828255 0.291896
Si Si6 0.685081 0.172042 0.603599
Si Si7 0.291322 0.334259 0.019469
Si Si8 0.376671 0.672293 0.890411
O O1 0.606214 0.500000 0.320635
O O2 0.669166 0.759538 0.475229
O O3 0.623401 0.691500 0.220998
O O4 0.485727 0.714009 0.108384
O O5 0.812433 0.500000 0.941195
O O6 0.910254 0.290185 0.181524
O O7 0.774774 0.237881 0.814063
O O8 0.729093 0.313635 0.906553
O O9 0.978530 0.500000 0.577004
O O10 0.899540 0.245959 0.483761
O O11 0.000000 0.287337 0.500000
O O12 0.500000 0.690718 0.500000
O O13 0.549359 0.500000 0.461502
O O14 0.588873 0.775218 0.495604
O O15 0.405049 0.675559 0.190000
O O16 0.709943 0.760142 0.209841
O O17 0.799834 0.000000 0.310345
O O18 0.765949 0.780859 0.138084
O O19 0.690984 0.000000 0.609596
O O20 0.257728 0.500000 0.940784
O O21 0.364797 0.500000 0.889587
#
# Coordination Sequence:
#
# PCOD9146095 Si02
#       8
#     4   4   4   4   4   4   4   4
#     4   9  19  38  63  86 109 143 190 235 271 318
#     4  10  20  37  58  76 100 142 193 234 268 314
#     4  10  20  38  61  80 102 141 195 242 276 319
#     4  10  19  33  51  70  99 143 190 227 258 305
#     4  12  24  34  52  83 119 148 173 220 287 346
#     4  12  24  34  50  79 117 151 178 219 279 342
#     4  10  19  34  54  74 101 142 191 232 264 311
#     4   9  19  38  63  87 109 141 189 237 273 317
#
# _framework density 17.529077000000001
#
# number of rings (size 3 to 8) (size 9 to 14) (size 15 to 20)
#    0.000    1.750    2.500    3.750    0.000    6.000 
#    0.000    1.250    0.000    0.750    0.000    5.250 
#    0.000    0.000    0.000    0.000    0.000    0.000 
#
# Total GULP energy -178695.104472 kJ/mol
# GULP energy per Si atom -5584.222015 kJ/mol
# Density = 1.748918 g / cm^3
# Si number density = 17.529077 Si / 1000 Ang^3
#
#
#
# Elastic Constant Matrix: (Units=GPa)
#
#
# Indices 1 2 3 4 5 6 
#
# 1 55.3767 37.4666 31.9396 0.0000 -3.4194 0.0000
# 2 37.4666 77.9967 58.6906 0.0000 -5.5770 0.0000
# 3 31.9396 58.6906 116.1504 0.0000 -9.7895 0.0000
# 4 0.0000 0.0000 0.0000 11.2421 0.0000 -9.3593
# 5 -3.4194 -5.5770 -9.7895 0.0000 29.2798 0.0000
# 6 0.0000 0.0000 0.0000 -9.3593 0.0000 -123.5388
#
#
#
# Elastic Compliance Matrix: (Units=1/GPa)
#
#
# Indices 1 2 3 4 5 6 
#
# 1 0.026898 -0.011862 -0.001367 0.000000 0.000425 0.000000
# 2 -0.011862 0.025924 -0.009814 0.000000 0.000271 0.000000
# 3 -0.001367 -0.009814 0.014173 0.000000 0.002710 0.000000
# 4 0.000000 0.000000 0.000000 0.083674 0.000000 -0.006339
# 5 0.000425 0.000271 0.002710 0.000000 0.035160 0.000000
# 6 0.000000 0.000000 0.000000 -0.006339 0.000000 -0.007614
#
#
# Mechanical properties :
#
#
# Convention : Reuss Voigt Hill
#
# Bulk Modulus (GPa) = 47.82813 56.19082 52.00947
# Shear Modulus (GPa) = 21.61965 -8.50826 6.55569
#
# Velocity S-wave (km/s) = 3.51573 -2.20552 1.93598
# Velocity P-wave (km/s) = 6.62003 5.06355 5.89340
#
# Compressibility (1/GPa) = 0.02090820
#
# Stress axis : x y z
#
# Youngs Moduli (GPa) = 37.17709 38.57496 70.55648
#
# Poissons Ratio (x) = 0.45757 0.09645
# Poissons Ratio (y) = 0.44099 0.69247
# Poissons Ratio (z) = 0.05082 0.37859
#
# Static dielectric constant tensor:
#      x y z
#    x 1.598480 0.000000 -0.011120 
#    y 0.000000 1.572950 0.000000 
#    z -0.011120 0.000000 1.626330 
# 
# From -- ./inp_files/72210.got.cif
#   From: 2010.05.17/outbox.cif.g08.bks.cpg/sg10_37_cif.got.tgz:72210.got - 2010.06.03 11:33:40.
