data_PCOD9146003
_publ_section_title
;
Structure prediction by ZEFSAII (Michael W. Deem and Ramdas Pophale) SiO2 
 PCOD9146003
Probable space group: P 2/M
;
_chemical_formula_sum "Si O2"
_cell_formula_units_Z 28
_cell_length_a 26.324701
_cell_length_b 9.134971
_cell_length_c 11.960468
_cell_angle_alpha 90.000000
_cell_angle_beta 33.147915
_cell_angle_gamma 90.000000
_cell_volume 1572.711825
_symmetry_space_group_name_H-M "P 2/M"
_symmetry_group_IT_number 10
_symmetry_cell_setting 'monoclinic'
loop_
_space_group_symop_operation_xyz
x,y,z
-x,y,-z
-x,-y,-z
x,-y,z
loop_
_atom_site_type_symbol
_atom_site_label
_atom_site_fract_x
_atom_site_fract_y
_atom_site_fract_z
Si Si1 0.658056 0.326100 0.276856
Si Si2 0.990214 0.824174 0.148664
Si Si3 0.470304 0.825620 0.304199
Si Si4 0.302646 0.174499 0.457098
Si Si5 0.172561 0.673232 0.877896
Si Si6 0.341876 0.325407 0.985232
Si Si7 0.215223 0.174883 0.385269
O O1 0.636743 0.500000 0.329378
O O2 0.586790 0.234658 0.483637
O O3 0.760557 0.301133 0.139072
O O4 0.653845 0.289274 0.154411
O O5 0.888704 0.787584 0.383146
O O6 0.000555 0.000000 0.133707
O O7 0.073137 0.749740 0.063716
O O8 0.000000 0.780704 0.000000
O O9 0.404562 0.794416 0.318401
O O10 0.482692 0.000000 0.289185
O O11 0.568473 0.746254 0.122191
O O12 0.229406 0.259701 0.668928
O O13 0.283243 0.208888 0.364341
O O14 0.285677 0.000000 0.502744
O O15 0.161731 0.500000 0.883531
O O16 0.344149 0.500000 0.991792
O O17 0.251366 0.260266 0.211442
O O18 0.218915 0.000000 0.359048
#
# Coordination Sequence:
#
# PCOD9146003 Si02
#       7
#     4   4   4   4   4   4   4
#     4   9  20  38  56  77 108 146 180 217 267 316
#     4  10  19  35  58  81 108 141 174 213 269 324
#     4  10  20  34  58  85 106 135 182 228 265 312
#     4   9  18  35  55  78 109 143 174 215 271 321
#     4  10  19  32  55  84 109 134 176 225 263 310
#     4  11  23  38  54  74 109 149 181 218 268 318
#     4  10  21  37  56  77 107 143 180 217 260 321
#
# _framework density 17.803643000000001
#
# number of rings (size 3 to 8) (size 9 to 14) (size 15 to 20)
#    0.000    2.143    1.429    1.714    0.000    6.000 
#    0.000    3.571    0.000    4.286    0.000    0.000 
#    0.000    0.000    0.000    0.000    0.000    0.000 
#
# Total GULP energy -156305.704351 kJ/mol
# GULP energy per Si atom -5582.346584 kJ/mol
# Density = 1.776312 g / cm^3
# Si number density = 17.803643 Si / 1000 Ang^3
#
#
#
# Elastic Constant Matrix: (Units=GPa)
#
#
# Indices 1 2 3 4 5 6 
#
# 1 37.2725 17.3061 16.7069 0.0000 -13.5668 0.0000
# 2 17.3061 21.2949 23.3195 0.0000 -8.3602 0.0000
# 3 16.7069 23.3195 71.2398 0.0000 -15.8729 0.0000
# 4 0.0000 0.0000 0.0000 -8.1010 0.0000 15.0118
# 5 -13.5668 -8.3602 -15.8729 0.0000 17.7354 0.0000
# 6 0.0000 0.0000 0.0000 15.0118 0.0000 18.8229
#
#
#
# Elastic Compliance Matrix: (Units=1/GPa)
#
#
# Indices 1 2 3 4 5 6 
#
# 1 0.051675 -0.038461 0.006544 0.000000 0.027256 0.000000
# 2 -0.038461 0.105809 -0.026303 0.000000 -0.003085 0.000000
# 3 0.006544 -0.026303 0.024314 0.000000 0.014368 0.000000
# 4 0.000000 0.000000 0.000000 -0.049817 0.000000 0.039731
# 5 0.027256 -0.003085 0.014368 0.000000 0.088639 0.000000
# 6 0.000000 0.000000 0.000000 0.039731 0.000000 0.021440
#
#
# Mechanical properties :
#
#
# Convention : Reuss Voigt Hill
#
# Bulk Modulus (GPa) = 15.30055 27.16357 21.23206
# Shear Modulus (GPa) = 13.14804 10.52309 11.83556
#
# Velocity S-wave (km/s) = 2.72049 2.43382 2.58114
# Velocity P-wave (km/s) = 4.29893 4.81543 4.56449
#
# Compressibility (1/GPa) = 0.06535711
#
# Stress axis : x y z
#
# Youngs Moduli (GPa) = 19.35166 9.45103 41.12934
#
# Poissons Ratio (x) = 0.36350 -0.26915
# Poissons Ratio (y) = 0.74429 1.08182
# Poissons Ratio (z) = -0.12664 0.24859
#
# Static dielectric constant tensor:
#      x y z
#    x 1.615470 0.000000 -0.012540 
#    y 0.000000 1.590180 0.000000 
#    z -0.012540 0.000000 1.589900 
# 
# From -- ./inp_files/49159.got.cif
#   From: 2010.05.17/outbox.cif.g08.bks.cpg/sg10_25_cif.got.tgz:49159.got - 2010.06.03 11:33:40.
