data_PCOD9146963
_publ_section_title
;
Structure prediction by ZEFSAII (Michael W. Deem and Ramdas Pophale) SiO2 
 PCOD9146963
Probable space group: P 2/M
;
_chemical_formula_sum "Si O2"
_cell_formula_units_Z 28
_cell_length_a 10.309823
_cell_length_b 11.483899
_cell_length_c 15.850095
_cell_angle_alpha 90.000000
_cell_angle_beta 129.631234
_cell_angle_gamma 90.000000
_cell_volume 1445.295284
_symmetry_space_group_name_H-M "P 2/M"
_symmetry_group_IT_number 10
_symmetry_cell_setting 'monoclinic'
loop_
_space_group_symop_operation_xyz
x,y,z
-x,y,-z
-x,-y,-z
x,-y,z
loop_
_atom_site_type_symbol
_atom_site_label
_atom_site_fract_x
_atom_site_fract_y
_atom_site_fract_z
Si Si1 0.715005 0.367853 0.967746
Si Si2 0.281213 0.126105 0.761793
Si Si3 0.538547 0.302688 0.283350
Si Si4 0.147838 0.370843 0.490509
Si Si5 0.109000 0.865099 0.365860
Si Si6 0.500000 0.213810 0.000000
Si Si7 0.734744 0.868314 0.755419
Si Si8 0.000000 0.781459 0.000000
O O1 0.751687 0.500000 0.006161
O O2 0.579688 0.364775 0.834840
O O3 0.878528 0.300237 0.004271
O O4 0.634767 0.296718 0.010947
O O5 0.334977 0.221787 0.717688
O O6 0.093828 0.138124 0.719403
O O7 0.295531 0.000000 0.726796
O O8 0.410637 0.138121 0.892148
O O9 0.666679 0.376069 0.391618
O O10 0.411869 0.223401 0.285372
O O11 0.116562 0.500000 0.436534
O O12 0.152319 0.250553 0.438261
O O13 0.000000 0.358767 0.500000
O O14 0.186961 0.852470 0.304987
O O15 0.153107 0.000000 0.413512
O O16 0.668814 0.000000 0.734097
O O17 0.880032 0.852240 0.886652
#
# Coordination Sequence:
#
# PCOD9146963 Si02
#       8
#     4   4   4   4   4   2   4   2
#     4  10  20  35  53  78 111 150 192 242 291 348
#     4  10  19  34  55  82 114 148 191 240 292 354
#     4  10  21  37  58  85 112 149 199 242 296 353
#     4  11  23  42  65  89 117 156 203 251 305 359
#     4  10  22  39  60  89 122 154 197 248 299 354
#     4  10  20  32  52  80 112 146 188 238 296 350
#     4  10  21  38  60  89 123 156 192 242 296 353
#     4  10  20  36  60  82 116 156 200 228 282 358
#
# _framework density 19.373203
#
# number of rings (size 3 to 8) (size 9 to 14) (size 15 to 20)
#    0.000    1.857    1.429    2.571    0.000    2.000 
#    0.000   12.857    0.000    0.000    0.000    0.000 
#    0.000    0.000    0.000    0.000    0.000    0.000 
#
# Total GULP energy -156128.719093 kJ/mol
# GULP energy per Si atom -5576.025682 kJ/mol
# Density = 1.932911 g / cm^3
# Si number density = 19.373203 Si / 1000 Ang^3
#
#
#
# Elastic Constant Matrix: (Units=GPa)
#
#
# Indices 1 2 3 4 5 6 
#
# 1 110.2082 35.6804 2.8550 0.0000 -3.4786 0.0000
# 2 35.6804 115.3886 23.0858 0.0000 -3.3810 0.0000
# 3 2.8550 23.0858 34.7581 0.0000 2.9685 0.0000
# 4 0.0000 0.0000 0.0000 -6.8593 0.0000 8.9376
# 5 -3.4786 -3.3810 2.9685 0.0000 14.6866 0.0000
# 6 0.0000 0.0000 0.0000 8.9376 0.0000 59.4996
#
#
#
# Elastic Compliance Matrix: (Units=1/GPa)
#
#
# Indices 1 2 3 4 5 6 
#
# 1 0.010172 -0.003361 0.001279 0.000000 0.001377 0.000000
# 2 -0.003361 0.011307 -0.007518 0.000000 0.003327 0.000000
# 3 0.001279 -0.007518 0.034374 0.000000 -0.008375 0.000000
# 4 0.000000 0.000000 0.000000 -0.121924 0.000000 0.018315
# 5 0.001377 0.003327 -0.008375 0.000000 0.070874 0.000000
# 6 0.000000 0.000000 0.000000 0.018315 0.000000 0.014056
#
#
# Mechanical properties :
#
#
# Convention : Reuss Voigt Hill
#
# Bulk Modulus (GPa) = 27.28255 42.62192 34.95224
# Shear Modulus (GPa) = 99.44889 26.71431 63.08160
#
# Velocity S-wave (km/s) = 7.17249 3.71742 5.71244
# Velocity P-wave (km/s) = 9.09429 6.36191 7.84793
#
# Compressibility (1/GPa) = 0.03665346
#
# Stress axis : x y z
#
# Youngs Moduli (GPa) = 98.30709 88.43860 29.09186
#
# Poissons Ratio (x) = 0.29724 -0.03721
# Poissons Ratio (y) = 0.33041 0.21872
# Poissons Ratio (z) = -0.12576 0.66489
#
# Static dielectric constant tensor:
#      x y z
#    x 1.628380 0.000000 0.002880 
#    y 0.000000 1.690180 0.000000 
#    z 0.002880 0.000000 1.675670 
# 
# From -- ./inp_files/61315.got.cif
#   From: 2010.05.17/outbox.cif.g08.bks.cpg/sg10_31_cif.got.tgz:61315.got - 2010.06.03 11:33:40.
