data_PCOD9146516
_publ_section_title
;
Structure prediction by ZEFSAII (Michael W. Deem and Ramdas Pophale) SiO2 
 PCOD9146516
Probable space group: P 2/M
;
_chemical_formula_sum "Si O2"
_cell_formula_units_Z 28
_cell_length_a 10.441664
_cell_length_b 8.874523
_cell_length_c 31.120935
_cell_angle_alpha 90.000000
_cell_angle_beta 147.025761
_cell_angle_gamma 90.000000
_cell_volume 1569.550540
_symmetry_space_group_name_H-M "P 2/M"
_symmetry_group_IT_number 10
_symmetry_cell_setting 'monoclinic'
loop_
_space_group_symop_operation_xyz
x,y,z
-x,y,-z
-x,-y,-z
x,-y,z
loop_
_atom_site_type_symbol
_atom_site_label
_atom_site_fract_x
_atom_site_fract_y
_atom_site_fract_z
Si Si1 0.427907 0.819985 0.673890
Si Si2 0.432348 0.321662 0.834553
Si Si3 0.941491 0.819985 0.673753
Si Si4 0.155709 0.826159 0.000042
Si Si5 0.492073 0.678771 0.396855
Si Si6 0.259256 0.321662 0.165364
Si Si7 0.035706 0.678680 0.414356
O O1 0.472927 0.753974 0.639491
O O2 0.629646 0.764626 0.763324
O O3 0.184132 0.753278 0.623510
O O4 0.417437 0.000000 0.669987
O O5 0.395507 0.500000 0.829485
O O6 0.186858 0.235363 0.763206
O O7 0.605328 0.257964 0.919803
O O8 0.566866 0.299293 0.826721
O O9 0.724326 0.753979 0.639286
O O10 0.933637 0.753256 0.623461
O O11 0.932442 0.000000 0.669841
O O12 0.197439 0.000000 0.000056
O O13 0.000000 0.825449 0.000000
O O14 0.994006 0.742043 0.919907
O O15 0.451081 0.500000 0.380479
O O16 0.728909 0.697992 0.491494
O O17 0.247708 0.500000 0.170414
O O18 0.990383 0.500000 0.396231
#
# Coordination Sequence:
#
# PCOD9146516 Si02
#       7
#     4   4   4   4   4   4   4
#     4  12  24  38  60  88 119 152 193 244 294 342
#     4  10  19  33  55  82 115 153 194 234 283 344
#     4  12  24  38  60  88 119 152 193 244 294 342
#     4   9  17  29  49  80 117 148 185 238 290 333
#     4  11  25  43  61  82 115 156 197 239 291 353
#     4  10  19  33  55  82 115 153 194 234 283 344
#     4  11  23  41  63  86 113 152 197 241 291 349
#
# _framework density 17.839503000000001
#
# number of rings (size 3 to 8) (size 9 to 14) (size 15 to 20)
#    0.000    1.286    1.429    5.571    0.000    8.571 
#    0.000    0.000    0.000    0.857    0.000    6.000 
#    0.000    0.000    0.000    0.000    0.000    0.000 
#
# Total GULP energy -156543.403804 kJ/mol
# GULP energy per Si atom -5590.835850 kJ/mol
# Density = 1.779890 g / cm^3
# Si number density = 17.839503 Si / 1000 Ang^3
#
#
#
# Elastic Constant Matrix: (Units=GPa)
#
#
# Indices 1 2 3 4 5 6 
#
# 1 129.5900 85.2661 80.4029 0.0000 -3.3784 0.0000
# 2 85.2661 180.6709 116.7141 0.0000 1.6938 0.0000
# 3 80.4029 116.7141 157.6476 0.0000 4.7705 0.0000
# 4 0.0000 0.0000 0.0000 79.8856 0.0000 2.4501
# 5 -3.3784 1.6938 4.7705 0.0000 -3.7197 0.0000
# 6 0.0000 0.0000 0.0000 2.4501 0.0000 36.5394
#
#
#
# Elastic Compliance Matrix: (Units=1/GPa)
#
#
# Indices 1 2 3 4 5 6 
#
# 1 0.011263 -0.003375 -0.002782 0.000000 -0.015335 0.000000
# 2 -0.003375 0.011522 -0.006797 0.000000 -0.000405 0.000000
# 3 -0.002782 -0.006797 0.012333 0.000000 0.015248 0.000000
# 4 0.000000 0.000000 0.000000 0.012544 0.000000 -0.000841
# 5 -0.015335 -0.000405 0.015248 0.000000 -0.235539 0.000000
# 6 0.000000 0.000000 0.000000 -0.000841 0.000000 0.027424
#
#
# Mechanical properties :
#
#
# Convention : Reuss Voigt Hill
#
# Bulk Modulus (GPa) = 108.56605 114.74163 111.65384
# Shear Modulus (GPa) = -38.03031 34.90940 -1.56045
#
# Velocity S-wave (km/s) = -4.62215 4.42844 -0.93628
# Velocity P-wave (km/s) = 5.70118 9.51875 7.84570
#
# Compressibility (1/GPa) = 0.00921098
#
# Stress axis : x y z
#
# Youngs Moduli (GPa) = 88.78295 86.78768 81.08314
#
# Poissons Ratio (x) = 0.29288 0.22558
# Poissons Ratio (y) = 0.29961 0.55114
# Poissons Ratio (z) = 0.24700 0.58991
#
# Static dielectric constant tensor:
#      x y z
#    x 1.573850 0.000000 0.001380 
#    y 0.000000 1.591810 0.000000 
#    z 0.001380 0.000000 1.598050 
# 
# From -- ./inp_files/92075.got.cif
#   From: 2010.05.17/outbox.cif.g08.bks.cpg/sg10_47_cif.got.tgz:92075.got - 2010.06.03 11:33:40.
