data_PCOD9146587
_publ_section_title
;
Structure prediction by ZEFSAII (Michael W. Deem and Ramdas Pophale) SiO2 
 PCOD9146587
Probable space group: P 2/M
;
_chemical_formula_sum "Si O2"
_cell_formula_units_Z 30
_cell_length_a 5.340036
_cell_length_b 9.887206
_cell_length_c 29.084915
_cell_angle_alpha 90.000000
_cell_angle_beta 78.953694
_cell_angle_gamma 90.000000
_cell_volume 1507.175305
_symmetry_space_group_name_H-M "P 2/M"
_symmetry_group_IT_number 10
_symmetry_cell_setting 'monoclinic'
loop_
_space_group_symop_operation_xyz
x,y,z
-x,y,-z
-x,-y,-z
x,-y,z
loop_
_atom_site_type_symbol
_atom_site_label
_atom_site_fract_x
_atom_site_fract_y
_atom_site_fract_z
Si Si1 0.118073 0.348239 0.196834
Si Si2 0.421051 0.342480 0.317006
Si Si3 0.114096 0.356757 0.894651
Si Si4 0.140753 0.656750 0.621547
Si Si5 0.442895 0.149067 0.850040
Si Si6 0.781448 0.161009 0.470207
Si Si7 0.779966 0.500000 0.968971
Si Si8 0.255698 0.847989 0.753505
O O1 0.184363 0.500000 0.209986
O O2 0.944945 0.363313 0.157359
O O3 0.974549 0.259852 0.240273
O O4 0.346634 0.259194 0.169640
O O5 0.447261 0.500000 0.300328
O O6 0.625922 0.324868 0.351117
O O7 0.507356 0.231085 0.276971
O O8 0.133630 0.321999 0.344688
O O9 0.256208 0.500000 0.900568
O O10 0.266555 0.219107 0.894612
O O11 0.855990 0.373762 0.933184
O O12 0.146304 0.500000 0.605998
O O13 0.171517 0.755289 0.577513
O O14 0.299207 0.133837 0.806377
O O15 0.540581 0.000000 0.859226
O O16 0.500000 0.190861 0.500000
O O17 0.000000 0.192346 0.500000
O O18 0.793373 0.000000 0.460387
O O19 0.500000 0.500000 0.000000
O O20 0.000000 0.500000 0.000000
O O21 0.213327 0.000000 0.735929
#
# Coordination Sequence:
#
# PCOD9146587 Si02
#       8
#     4   4   4   4   4   4   2   4
#     4  10  19  33  56  81 113 145 195 241 294 341
#     4  10  22  39  57  81 117 155 199 240 288 348
#     4   8  19  34  55  83 111 144 194 235 294 342
#     4  10  22  39  59  84 114 152 194 239 291 352
#     4  10  20  34  55  82 116 152 192 246 295 351
#     4  10  21  37  59  87 116 144 186 239 295 356
#     4  10  22  36  64  94 120 150 196 254 298 354
#     4  10  22  37  52  80 112 151 200 243 291 345
#
# _framework density 19.904782999999998
#
# number of rings (size 3 to 8) (size 9 to 14) (size 15 to 20)
#    0.400    1.867    0.000    2.000    3.733    3.733 
#    0.000    0.000    0.000    0.800    0.000    0.000 
#    0.000    0.000    0.000    0.000    0.000    0.000 
#
# Total GULP energy -167129.327323 kJ/mol
# GULP energy per Si atom -5570.977577 kJ/mol
# Density = 1.985948 g / cm^3
# Si number density = 19.904783 Si / 1000 Ang^3
#
#
#
# Elastic Constant Matrix: (Units=GPa)
#
#
# Indices 1 2 3 4 5 6 
#
# 1 86.1084 35.4508 25.5777 0.0000 -14.1917 0.0000
# 2 35.4508 143.9563 45.7133 0.0000 -23.5091 0.0000
# 3 25.5777 45.7133 78.5174 0.0000 -12.7529 0.0000
# 4 0.0000 0.0000 0.0000 413.1196 0.0000 -147.8382
# 5 -14.1917 -23.5091 -12.7529 0.0000 31.3022 0.0000
# 6 0.0000 0.0000 0.0000 -147.8382 0.0000 61.9566
#
#
#
# Elastic Compliance Matrix: (Units=1/GPa)
#
#
# Indices 1 2 3 4 5 6 
#
# 1 0.013842 -0.001918 -0.002792 0.000000 0.003697 0.000000
# 2 -0.001918 0.009483 -0.004156 0.000000 0.004559 0.000000
# 3 -0.002792 -0.004156 0.016440 0.000000 0.002311 0.000000
# 4 0.000000 0.000000 0.000000 0.016569 0.000000 0.039536
# 5 0.003697 0.004559 0.002311 0.000000 0.037989 0.000000
# 6 0.000000 0.000000 0.000000 0.039536 0.000000 0.110479
#
#
# Mechanical properties :
#
#
# Convention : Reuss Voigt Hill
#
# Bulk Modulus (GPa) = 45.38487 58.00729 51.69608
# Shear Modulus (GPa) = 21.75067 114.73171 68.24119
#
# Velocity S-wave (km/s) = 3.30924 7.60036 5.86159
# Velocity P-wave (km/s) = 6.11980 10.30661 8.47579
#
# Compressibility (1/GPa) = 0.02203378
#
# Stress axis : x y z
#
# Youngs Moduli (GPa) = 72.24574 105.44962 60.82615
#
# Poissons Ratio (x) = 0.20229 0.16980
# Poissons Ratio (y) = 0.13859 0.25278
# Poissons Ratio (z) = 0.20168 0.43822
#
# Static dielectric constant tensor:
#      x y z
#    x 1.784160 0.000000 0.004250 
#    y 0.000000 1.763800 0.000000 
#    z 0.004250 0.000000 1.701080 
# 
# From -- ./inp_files/94318.got.cif
#   From: 2010.05.17/outbox.cif.g08.bks.cpg/sg10_48_cif.got.tgz:94318.got - 2010.06.03 11:33:40.
