data_PCOD9146995
_publ_section_title
;
Structure prediction by ZEFSAII (Michael W. Deem and Ramdas Pophale) SiO2 
 PCOD9146995
Probable space group: P 2/M
;
_chemical_formula_sum "Si O2"
_cell_formula_units_Z 28
_cell_length_a 14.471441
_cell_length_b 8.420106
_cell_length_c 20.929745
_cell_angle_alpha 90.000000
_cell_angle_beta 150.503212
_cell_angle_gamma 90.000000
_cell_volume 1255.709161
_symmetry_space_group_name_H-M "P 2/M"
_symmetry_group_IT_number 10
_symmetry_cell_setting 'monoclinic'
loop_
_space_group_symop_operation_xyz
x,y,z
-x,y,-z
-x,-y,-z
x,-y,z
loop_
_atom_site_type_symbol
_atom_site_label
_atom_site_fract_x
_atom_site_fract_y
_atom_site_fract_z
Si Si1 0.285125 0.691614 0.209802
Si Si2 0.173455 0.184551 0.516841
Si Si3 0.648584 0.317273 0.499184
Si Si4 0.868766 0.310756 0.015052
Si Si5 0.776774 0.684394 0.329642
Si Si6 0.310354 0.686579 0.862779
Si Si7 0.010521 0.186679 0.777692
O O1 0.315243 0.500000 0.224332
O O2 0.447441 0.754324 0.355388
O O3 0.080957 0.717056 0.117258
O O4 0.266099 0.748337 0.124246
O O5 0.241242 0.296116 0.501339
O O6 0.293482 0.214821 0.653083
O O7 0.971721 0.243224 0.420070
O O8 0.172791 0.000000 0.497733
O O9 0.619461 0.500000 0.499188
O O10 0.796078 0.248959 0.639428
O O11 0.837903 0.500000 0.000583
O O12 0.877506 0.246869 0.092412
O O13 0.795965 0.500000 0.360865
O O14 0.661433 0.688968 0.196031
O O15 0.298089 0.500000 0.874021
O O16 0.130486 0.765121 0.787160
O O17 0.500000 0.765359 0.000000
O O18 0.998334 0.000000 0.773973
#
# Coordination Sequence:
#
# PCOD9146995 Si02
#       7
#     4   4   4   4   4   4   4
#     4   8  18  37  66  94 114 147 198 250 293 342
#     4  11  21  33  52  79 112 146 182 231 289 342
#     4  11  21  37  60  88 119 154 200 248 293 346
#     4   9  18  40  67  90 117 151 195 245 295 350
#     4  10  19  34  56  78 104 143 191 234 278 336
#     4  10  22  40  61  83 109 148 197 245 290 339
#     4  12  25  39  57  87 124 161 195 236 296 357
#
# _framework density 22.298157
#
# number of rings (size 3 to 8) (size 9 to 14) (size 15 to 20)
#    0.000    1.857    1.429    5.143    0.000    2.571 
#    0.000   12.857    0.000    0.000    0.000    0.000 
#    0.000    0.000    0.000    0.000    0.000    0.000 
#
# Total GULP energy -156052.330725 kJ/mol
# GULP energy per Si atom -5573.297526 kJ/mol
# Density = 2.224740 g / cm^3
# Si number density = 22.298157 Si / 1000 Ang^3
#
#
#
# Elastic Constant Matrix: (Units=GPa)
#
#
# Indices 1 2 3 4 5 6 
#
# 1 36.8602 -3.3696 5.9338 0.0000 -20.3735 0.0000
# 2 -3.3696 50.0814 15.1616 0.0000 -4.5636 0.0000
# 3 5.9338 15.1616 84.2207 0.0000 7.0289 0.0000
# 4 0.0000 0.0000 0.0000 -30.7451 0.0000 31.3317
# 5 -20.3735 -4.5636 7.0289 0.0000 27.3319 0.0000
# 6 0.0000 0.0000 0.0000 31.3317 0.0000 -67.0590
#
#
#
# Elastic Compliance Matrix: (Units=1/GPa)
#
#
# Indices 1 2 3 4 5 6 
#
# 1 0.054329 0.010594 -0.009466 0.000000 0.044700 0.000000
# 2 0.010594 0.023767 -0.006147 0.000000 0.013446 0.000000
# 3 -0.009466 -0.006147 0.014636 0.000000 -0.011846 0.000000
# 4 0.000000 0.000000 0.000000 -0.062088 0.000000 -0.029009
# 5 0.044700 0.013446 -0.011846 0.000000 0.075199 0.000000
# 6 0.000000 0.000000 0.000000 -0.029009 0.000000 -0.028466
#
#
# Mechanical properties :
#
#
# Convention : Reuss Voigt Hill
#
# Bulk Modulus (GPa) = 12.09275 22.95711 17.52493
# Shear Modulus (GPa) = 43.48686 -3.86533 19.81077
#
# Velocity S-wave (km/s) = 4.42095 -1.31804 2.98392
# Velocity P-wave (km/s) = 5.61201 2.82870 4.44389
#
# Compressibility (1/GPa) = 0.08269415
#
# Stress axis : x y z
#
# Youngs Moduli (GPa) = 18.40645 42.07597 68.32595
#
# Poissons Ratio (x) = -0.44576 0.64675
# Poissons Ratio (y) = -0.19500 0.42001
# Poissons Ratio (z) = 0.17423 0.25865
#
# Static dielectric constant tensor:
#      x y z
#    x 1.863020 0.000000 -0.029930 
#    y 0.000000 1.772090 0.000000 
#    z -0.029930 0.000000 2.021300 
# 
# From -- ./inp_files/84952.got.cif
#   From: 2010.05.17/outbox.cif.g08.bks.cpg/sg10_43_cif.got.tgz:84952.got - 2010.06.03 11:33:40.
