data_PCOD9146422
_publ_section_title
;
Structure prediction by ZEFSAII (Michael W. Deem and Ramdas Pophale) SiO2 
 PCOD9146422
Probable space group: P 2/M
;
_chemical_formula_sum "Si O2"
_cell_formula_units_Z 32
_cell_length_a 14.523444
_cell_length_b 9.124154
_cell_length_c 20.035274
_cell_angle_alpha 90.000000
_cell_angle_beta 32.055413
_cell_angle_gamma 90.000000
_cell_volume 1409.089798
_symmetry_space_group_name_H-M "P 2/M"
_symmetry_group_IT_number 10
_symmetry_cell_setting 'monoclinic'
loop_
_space_group_symop_operation_xyz
x,y,z
-x,y,-z
-x,-y,-z
x,-y,z
loop_
_atom_site_type_symbol
_atom_site_label
_atom_site_fract_x
_atom_site_fract_y
_atom_site_fract_z
Si Si1 0.353823 0.173546 0.033916
Si Si2 0.116051 0.328945 0.784622
Si Si3 0.204402 0.166657 0.353463
Si Si4 0.790826 0.168426 0.142711
Si Si5 0.114399 0.330500 0.277717
Si Si6 0.290755 0.328494 0.430776
Si Si7 0.706080 0.671572 0.062333
Si Si8 0.628561 0.677249 0.479144
O O1 0.180707 0.238088 0.174414
O O2 0.386305 0.247243 0.942233
O O3 0.339293 0.000000 0.033749
O O4 0.500000 0.203626 0.000000
O O5 0.158258 0.500000 0.770316
O O6 0.215149 0.239205 0.780631
O O7 0.185462 0.291809 0.668724
O O8 0.911278 0.313434 0.918483
O O9 0.208070 0.265541 0.285647
O O10 0.301420 0.238001 0.356494
O O11 0.000000 0.161477 0.500000
O O12 0.260618 0.000000 0.305039
O O13 0.735118 0.000000 0.175832
O O14 0.697103 0.258464 0.141505
O O15 0.000000 0.171762 0.000000
O O16 0.159526 0.500000 0.238517
O O17 0.910566 0.324158 0.420797
O O18 0.331924 0.500000 0.393308
O O19 0.390111 0.266838 0.434429
O O20 0.662586 0.500000 0.090501
O O21 0.500000 0.726494 0.500000
O O22 0.612677 0.500000 0.494938
#
# Coordination Sequence:
#
# PCOD9146422 Si02
#       8
#     4   4   4   4   4   4   4   4
#     4  11  24  39  53  73 104 137 168 208 258 311
#     4   9  17  31  52  78 104 132 171 215 255 297
#     4   9  17  30  50  77 105 132 166 210 259 306
#     4   9  17  30  50  77 105 132 166 210 259 306
#     4  10  19  33  55  79 102 131 169 212 255 303
#     4   9  17  31  52  78 104 132 171 215 255 297
#     4  10  19  33  55  79 102 131 169 212 255 303
#     4   9  17  30  49  73 102 135 170 208 248 291
#
# _framework density 22.709693999999999
#
# number of rings (size 3 to 8) (size 9 to 14) (size 15 to 20)
#    0.000    2.500    0.000    2.625    0.000    7.000 
#    0.000    1.875    0.000    6.000    0.000    0.000 
#    0.000    0.000    0.000    0.000    0.000    0.000 
#
# Total GULP energy -178909.821455 kJ/mol
# GULP energy per Si atom -5590.931920 kJ/mol
# Density = 2.265801 g / cm^3
# Si number density = 22.709694 Si / 1000 Ang^3
#
#
#
# Elastic Constant Matrix: (Units=GPa)
#
#
# Indices 1 2 3 4 5 6 
#
# 1 164.4724 72.2534 26.9784 0.0000 28.8340 0.0000
# 2 72.2534 90.2071 8.0873 0.0000 8.0924 0.0000
# 3 26.9784 8.0873 75.3330 0.0000 9.6481 0.0000
# 4 0.0000 0.0000 0.0000 1.1710 0.0000 3.3287
# 5 28.8340 8.0924 9.6481 0.0000 39.5066 0.0000
# 6 0.0000 0.0000 0.0000 3.3287 0.0000 27.5911
#
#
#
# Elastic Compliance Matrix: (Units=1/GPa)
#
#
# Indices 1 2 3 4 5 6 
#
# 1 0.011054 -0.008121 -0.002340 0.000000 -0.005833 0.000000
# 2 -0.008121 0.017325 0.000768 0.000000 0.002191 0.000000
# 3 -0.002340 0.000768 0.014278 0.000000 -0.001936 0.000000
# 4 0.000000 0.000000 0.000000 1.299673 0.000000 -0.156799
# 5 -0.005833 0.002191 -0.001936 0.000000 0.029594 0.000000
# 6 0.000000 0.000000 0.000000 -0.156799 0.000000 0.055161
#
#
# Mechanical properties :
#
#
# Convention : Reuss Voigt Hill
#
# Bulk Modulus (GPa) = 42.97216 60.51675 51.74445
# Shear Modulus (GPa) = 3.43825 28.49996 15.96911
#
# Velocity S-wave (km/s) = 1.23178 3.54640 2.65464
# Velocity P-wave (km/s) = 4.58110 6.59356 5.67722
#
# Compressibility (1/GPa) = 0.02327088
#
# Stress axis : x y z
#
# Youngs Moduli (GPa) = 90.46528 57.72060 70.03826
#
# Poissons Ratio (x) = 0.46874 0.16388
# Poissons Ratio (y) = 0.73466 -0.05377
# Poissons Ratio (z) = 0.21167 -0.04432
#
# Static dielectric constant tensor:
#      x y z
#    x 1.846350 0.000000 -0.063520 
#    y 0.000000 1.761770 0.000000 
#    z -0.063520 0.000000 1.907260 
# 
# From -- ./inp_files/84727.got.cif
#   From: 2010.05.17/outbox.cif.g08.bks.cpg/sg10_43_cif.got.tgz:84727.got - 2010.06.03 11:33:40.
