data_PCOD9146010
_publ_section_title
;
Structure prediction by ZEFSAII (Michael W. Deem and Ramdas Pophale) SiO2 
 PCOD9146010
Probable space group: P 2/M
;
_chemical_formula_sum "Si O2"
_cell_formula_units_Z 28
_cell_length_a 18.777717
_cell_length_b 7.644288
_cell_length_c 13.068481
_cell_angle_alpha 90.000000
_cell_angle_beta 140.887600
_cell_angle_gamma 90.000000
_cell_volume 1183.386860
_symmetry_space_group_name_H-M "P 2/M"
_symmetry_group_IT_number 10
_symmetry_cell_setting 'monoclinic'
loop_
_space_group_symop_operation_xyz
x,y,z
-x,y,-z
-x,-y,-z
x,-y,z
loop_
_atom_site_type_symbol
_atom_site_label
_atom_site_fract_x
_atom_site_fract_y
_atom_site_fract_z
Si Si1 0.028553 0.201168 0.146298
Si Si2 0.513621 0.286922 0.751538
Si Si3 0.658028 0.287695 0.730233
Si Si4 0.382630 0.290051 0.924588
Si Si5 0.126362 0.193304 0.648288
Si Si6 0.851724 0.301638 0.102661
Si Si7 0.282420 0.287525 0.431169
O O1 0.160713 0.211141 0.313786
O O2 0.967244 0.300448 0.168901
O O3 0.989616 0.000000 0.104937
O O4 0.000000 0.270688 0.000000
O O5 0.516869 0.500000 0.754452
O O6 0.554066 0.229697 0.684233
O O7 0.383337 0.237458 0.619736
O O8 0.595328 0.230487 0.933435
O O9 0.650302 0.500000 0.714364
O O10 0.680642 0.228837 0.641363
O O11 0.763121 0.241820 0.919062
O O12 0.388415 0.500000 0.927019
O O13 0.251845 0.250630 0.747985
O O14 0.500000 0.228782 0.000000
O O15 0.143065 0.193867 0.788976
O O16 0.000000 0.282335 0.500000
O O17 0.110455 0.000000 0.586028
O O18 0.820082 0.500000 0.098091
O O19 0.272822 0.500000 0.420869
#
# Coordination Sequence:
#
# PCOD9146010 Si02
#       7
#     4   4   4   4   4   4   4
#     4  11  23  37  53  79 122 166 202 244 295 352
#     4   9  17  32  55  86 117 147 189 246 301 345
#     4   9  16  29  54  84 111 142 186 242 290 336
#     4  10  21  39  64  93 124 158 204 257 306 363
#     4  11  25  44  65  92 126 162 202 251 314 384
#     4  11  21  37  64  89 112 150 202 251 297 351
#     4  10  19  32  55  84 115 153 201 248 292 348
#
# _framework density 23.660902
#
# number of rings (size 3 to 8) (size 9 to 14) (size 15 to 20)
#    0.000    1.857    2.857    1.714    0.000    4.857 
#    0.000    2.143    0.000    0.857    0.000    0.000 
#    0.000    0.000    0.000    0.000    0.000    0.000 
#
# Total GULP energy -156173.367990 kJ/mol
# GULP energy per Si atom -5577.620285 kJ/mol
# Density = 2.360705 g / cm^3
# Si number density = 23.660902 Si / 1000 Ang^3
#
#
#
# Elastic Constant Matrix: (Units=GPa)
#
#
# Indices 1 2 3 4 5 6 
#
# 1 87.2964 1.2202 21.4594 0.0000 38.1028 0.0000
# 2 1.2202 48.7845 4.6430 0.0000 1.8386 0.0000
# 3 21.4594 4.6430 120.2761 0.0000 45.9825 0.0000
# 4 0.0000 0.0000 0.0000 4.8357 0.0000 -3.6384
# 5 38.1028 1.8386 45.9825 0.0000 42.1457 0.0000
# 6 0.0000 0.0000 0.0000 -3.6384 0.0000 -11.4081
#
#
#
# Elastic Compliance Matrix: (Units=1/GPa)
#
#
# Indices 1 2 3 4 5 6 
#
# 1 0.021242 -0.000137 0.006099 0.000000 -0.025852 0.000000
# 2 -0.000137 0.020575 -0.000813 0.000000 0.000114 0.000000
# 3 0.006099 -0.000813 0.016044 0.000000 -0.022983 0.000000
# 4 0.000000 0.000000 0.000000 0.166776 0.000000 -0.053190
# 5 -0.025852 0.000114 -0.022983 0.000000 0.072170 0.000000
# 6 0.000000 0.000000 0.000000 -0.053190 0.000000 -0.070693
#
#
# Mechanical properties :
#
#
# Convention : Reuss Voigt Hill
#
# Bulk Modulus (GPa) = 14.67202 34.55581 24.61392
# Shear Modulus (GPa) = 20.96119 22.38361 21.67240
#
# Velocity S-wave (km/s) = 2.97964 3.07908 3.02976
# Velocity P-wave (km/s) = 4.24877 5.22276 4.76074
#
# Compressibility (1/GPa) = 0.06815692
#
# Stress axis : x y z
#
# Youngs Moduli (GPa) = 47.07707 48.60302 62.32855
#
# Poissons Ratio (x) = 0.00668 -0.38013
# Poissons Ratio (y) = 0.00647 0.05069
# Poissons Ratio (z) = -0.28712 0.03953
#
# Static dielectric constant tensor:
#      x y z
#    x 1.924310 0.000000 0.070460 
#    y 0.000000 1.962540 0.000000 
#    z 0.070460 0.000000 1.949040 
# 
# From -- ./inp_files/70293.got.cif
#   From: 2010.05.17/outbox.cif.g08.bks.cpg/sg10_36_cif.got.tgz:70293.got - 2010.06.03 11:33:40.
