data_PCOD9146754
_publ_section_title
;
Structure prediction by ZEFSAII (Michael W. Deem and Ramdas Pophale) SiO2 
 PCOD9146754
Probable space group: P 2/M
;
_chemical_formula_sum "Si O2"
_cell_formula_units_Z 28
_cell_length_a 13.056363
_cell_length_b 14.012869
_cell_length_c 7.716876
_cell_angle_alpha 90.000000
_cell_angle_beta 122.833883
_cell_angle_gamma 90.000000
_cell_volume 1186.307589
_symmetry_space_group_name_H-M "P 2/M"
_symmetry_group_IT_number 10
_symmetry_cell_setting 'monoclinic'
loop_
_space_group_symop_operation_xyz
x,y,z
-x,y,-z
-x,-y,-z
x,-y,z
loop_
_atom_site_type_symbol
_atom_site_label
_atom_site_fract_x
_atom_site_fract_y
_atom_site_fract_z
Si Si1 0.405149 0.216584 0.760679
Si Si2 0.029269 0.102928 0.730537
Si Si3 0.738299 0.600770 0.914897
Si Si4 0.976936 0.690441 0.185141
Si Si5 0.244229 0.106935 0.406154
Si Si6 0.762051 0.389086 0.514624
Si Si7 0.399413 0.764718 0.298510
O O1 0.293833 0.142886 0.638917
O O2 0.340143 0.318183 0.657759
O O3 0.499460 0.171981 0.702174
O O4 0.500000 0.222877 0.000000
O O5 0.079914 0.207935 0.811815
O O6 0.901221 0.107808 0.717226
O O7 0.000000 0.099144 0.500000
O O8 0.089164 0.000000 0.831364
O O9 0.682895 0.500000 0.912216
O O10 0.747077 0.607133 0.711843
O O11 0.661449 0.692884 0.890630
O O12 0.872808 0.611914 0.113877
O O13 0.104605 0.660091 0.389597
O O14 0.000000 0.695313 0.000000
O O15 0.297518 0.180332 0.313458
O O16 0.284354 0.000000 0.406467
O O17 0.758360 0.500000 0.452753
O O18 0.500000 0.703629 0.500000
#
# Coordination Sequence:
#
# PCOD9146754 Si02
#       7
#     4   4   4   4   4   4   4
#     4  11  23  38  60  88 122 164 208 253 303 360
#     4  10  21  38  64  92 124 166 201 241 310 373
#     4  10  19  33  59  92 118 153 207 255 301 360
#     4  10  19  36  61  89 122 158 202 255 302 363
#     4  10  20  40  64  88 120 158 205 256 305 365
#     4  10  19  36  60  87 122 163 202 252 309 359
#     4  10  20  38  60  88 119 165 207 249 304 353
#
# _framework density 23.602647000000001
#
# number of rings (size 3 to 8) (size 9 to 14) (size 15 to 20)
#    0.000    1.857    4.286    1.286    0.000    7.143 
#    0.000    0.714    0.000    0.857    0.000    0.000 
#    0.000    0.000    0.000    0.000    0.000    0.000 
#
# Total GULP energy -155928.233528 kJ/mol
# GULP energy per Si atom -5568.865483 kJ/mol
# Density = 2.354893 g / cm^3
# Si number density = 23.602647 Si / 1000 Ang^3
#
#
#
# Elastic Constant Matrix: (Units=GPa)
#
#
# Indices 1 2 3 4 5 6 
#
# 1 38.7165 3.3349 1.8822 0.0000 5.5882 0.0000
# 2 3.3349 149.7798 10.1870 0.0000 5.7629 0.0000
# 3 1.8822 10.1870 77.2679 0.0000 16.9710 0.0000
# 4 0.0000 0.0000 0.0000 12.1208 0.0000 6.2957
# 5 5.5882 5.7629 16.9710 0.0000 16.6505 0.0000
# 6 0.0000 0.0000 0.0000 6.2957 0.0000 5.4380
#
#
#
# Elastic Compliance Matrix: (Units=1/GPa)
#
#
# Indices 1 2 3 4 5 6 
#
# 1 0.027338 -0.000311 0.001761 0.000000 -0.010862 0.000000
# 2 -0.000311 0.006784 -0.000508 0.000000 -0.001726 0.000000
# 3 0.001761 -0.000508 0.016823 0.000000 -0.017563 0.000000
# 4 0.000000 0.000000 0.000000 0.206945 0.000000 -0.239586
# 5 -0.010862 -0.001726 -0.017563 0.000000 0.082202 0.000000
# 6 0.000000 0.000000 0.000000 -0.239586 0.000000 0.461265
#
#
# Mechanical properties :
#
#
# Convention : Reuss Voigt Hill
#
# Bulk Modulus (GPa) = 18.92836 32.95249 25.94043
# Shear Modulus (GPa) = 6.11932 23.53253 14.82593
#
# Velocity S-wave (km/s) = 1.61192 3.16100 2.50900
# Velocity P-wave (km/s) = 3.39137 5.22630 4.40543
#
# Compressibility (1/GPa) = 0.05283077
#
# Stress axis : x y z
#
# Youngs Moduli (GPa) = 36.57946 147.39829 59.44082
#
# Poissons Ratio (x) = 0.04577 -0.10466
# Poissons Ratio (y) = 0.01136 0.03018
# Poissons Ratio (z) = -0.06441 0.07483
#
# Static dielectric constant tensor:
#      x y z
#    x 1.975200 0.000000 -0.090270 
#    y 0.000000 1.921410 0.000000 
#    z -0.090270 0.000000 2.040550 
# 
# From -- ./inp_files/29610.got.cif
#   From: 2010.05.17/outbox.cif.g08.bks.cpg/sg10_15_cif.got.tgz:29610.got - 2010.06.03 11:33:40.
