data_PCOD9146944
_publ_section_title
;
Structure prediction by ZEFSAII (Michael W. Deem and Ramdas Pophale) SiO2 
 PCOD9146944
Probable space group: P 2/M
;
_chemical_formula_sum "Si O2"
_cell_formula_units_Z 32
_cell_length_a 15.282277
_cell_length_b 7.527168
_cell_length_c 15.352540
_cell_angle_alpha 90.000000
_cell_angle_beta 60.134960
_cell_angle_gamma 90.000000
_cell_volume 1531.509017
_symmetry_space_group_name_H-M "P 2/M"
_symmetry_group_IT_number 10
_symmetry_cell_setting 'monoclinic'
loop_
_space_group_symop_operation_xyz
x,y,z
-x,y,-z
-x,-y,-z
x,-y,z
loop_
_atom_site_type_symbol
_atom_site_label
_atom_site_fract_x
_atom_site_fract_y
_atom_site_fract_z
Si Si1 0.432462 0.707133 0.788730
Si Si2 0.221106 0.707181 0.211453
Si Si3 0.943007 0.716136 0.114005
Si Si4 0.780878 0.284602 0.438051
Si Si5 0.335797 0.795263 0.328474
Si Si6 0.997848 0.716693 0.722598
Si Si7 0.601979 0.281670 0.999946
Si Si8 0.720353 0.283309 0.277409
O O1 0.403778 0.500000 0.806630
O O2 0.552559 0.716316 0.719449
O O3 0.372164 0.780654 0.735676
O O4 0.402294 0.780649 0.898262
O O5 0.210382 0.500000 0.193621
O O6 0.271874 0.716551 0.280740
O O7 0.107721 0.780652 0.264415
O O8 0.300510 0.780634 0.101896
O O9 0.944489 0.500000 0.111051
O O10 0.825843 0.767581 0.179386
O O11 0.994801 0.767603 0.179343
O O12 0.000000 0.780156 0.000000
O O13 0.780056 0.500000 0.439695
O O14 0.723922 0.223313 0.551974
O O15 0.727460 0.225887 0.374491
O O16 0.897887 0.225900 0.374453
O O17 0.350271 0.000000 0.299651
O O18 0.000719 0.500000 0.717458
O O19 0.602008 0.500000 0.999952
O O20 0.500000 0.229415 0.000000
O O21 0.718066 0.500000 0.282572
#
# Coordination Sequence:
#
# PCOD9146944 Si02
#       8
#     4   4   4   4   4   4   4   4
#     4  10  19  34  55  80 108 140 175 210 252 310
#     4  10  19  34  55  80 108 140 175 210 252 310
#     4   8  13  22  40  76 118 141 158 200 256 303
#     4   9  18  37  57  76 105 138 173 214 259 310
#     4  12  25  38  52  74 100 135 181 228 274 309
#     4   8  16  29  50  78 107 139 172 205 251 309
#     4   9  16  28  50  79 107 135 168 209 251 296
#     4   8  16  29  50  78 107 139 172 205 251 309
#
# _framework density 20.894425999999999
#
# number of rings (size 3 to 8) (size 9 to 14) (size 15 to 20)
#    0.000    2.750    1.250    2.625    1.750    1.000 
#    0.000    7.500    0.000    0.000    0.000    0.000 
#    0.000    3.500    0.000    0.000    0.000    0.000 
#
# Total GULP energy -178567.649804 kJ/mol
# GULP energy per Si atom -5580.239056 kJ/mol
# Density = 2.084687 g / cm^3
# Si number density = 20.894426 Si / 1000 Ang^3
#
#
#
# Elastic Constant Matrix: (Units=GPa)
#
#
# Indices 1 2 3 4 5 6 
#
# 1 184.7090 -8.9328 77.4889 0.0000 0.3187 0.0000
# 2 -8.9328 48.6718 -14.3079 0.0000 -0.0693 0.0000
# 3 77.4889 -14.3079 163.7342 0.0000 0.2384 0.0000
# 4 0.0000 0.0000 0.0000 -94.0088 0.0000 -0.1592
# 5 0.3187 -0.0693 0.2384 0.0000 -5.7128 0.0000
# 6 0.0000 0.0000 0.0000 -0.1592 0.0000 -31.6647
#
#
#
# Elastic Compliance Matrix: (Units=1/GPa)
#
#
# Indices 1 2 3 4 5 6 
#
# 1 0.006759 0.000308 -0.003172 0.000000 0.000241 0.000000
# 2 0.000308 0.021101 0.001698 0.000000 -0.000168 0.000000
# 3 -0.003172 0.001698 0.007757 0.000000 0.000126 0.000000
# 4 0.000000 0.000000 0.000000 -0.010637 0.000000 0.000053
# 5 0.000241 -0.000168 0.000126 0.000000 -0.175024 0.000000
# 6 0.000000 0.000000 0.000000 0.000053 0.000000 -0.031581
#
#
# Mechanical properties :
#
#
# Convention : Reuss Voigt Hill
#
# Bulk Modulus (GPa) = 30.04245 56.17904 43.11075
# Shear Modulus (GPa) = -29.72692 -3.41950 -16.57321
#
# Velocity S-wave (km/s) = -3.77599 -1.28067 -2.81941
# Velocity P-wave (km/s) = 2.14508 4.97581 3.17469
#
# Compressibility (1/GPa) = 0.03328623
#
# Stress axis : x y z
#
# Youngs Moduli (GPa) = 147.94535 47.39028 128.91579
#
# Poissons Ratio (x) = -0.01461 0.40896
# Poissons Ratio (y) = -0.04562 -0.21893
# Poissons Ratio (z) = 0.46933 -0.08048
#
# Static dielectric constant tensor:
#      x y z
#    x 1.778000 0.000000 0.000030 
#    y 0.000000 1.793010 0.000000 
#    z 0.000030 0.000000 1.709540 
# 
# From -- ./inp_files/66522.got.cif
#   From: 2010.05.17/outbox.cif.g08.bks.cpg/sg10_34_cif.got.tgz:66522.got - 2010.06.03 11:33:40.
