data_PCOD9146130
_publ_section_title
;
Structure prediction by ZEFSAII (Michael W. Deem and Ramdas Pophale) SiO2 
 PCOD9146130
Probable space group: P 2/M
;
_chemical_formula_sum "Si O2"
_cell_formula_units_Z 28
_cell_length_a 32.263498
_cell_length_b 8.484862
_cell_length_c 32.262305
_cell_angle_alpha 90.000000
_cell_angle_beta 170.586002
_cell_angle_gamma 90.000000
_cell_volume 1444.598914
_symmetry_space_group_name_H-M "P 2/M"
_symmetry_group_IT_number 10
_symmetry_cell_setting 'monoclinic'
loop_
_space_group_symop_operation_xyz
x,y,z
-x,y,-z
-x,-y,-z
x,-y,z
loop_
_atom_site_type_symbol
_atom_site_label
_atom_site_fract_x
_atom_site_fract_y
_atom_site_fract_z
Si Si1 0.099516 0.810981 0.409109
Si Si2 0.467508 0.689126 0.015693
Si Si3 0.811193 0.807808 0.690834
Si Si4 0.663923 0.191190 0.833996
Si Si5 0.055264 0.810922 0.461403
Si Si6 0.237760 0.192681 0.262343
Si Si7 0.377667 0.312706 0.113503
O O1 0.072553 0.760823 0.430409
O O2 0.354011 0.741101 0.640495
O O3 0.119056 0.000000 0.427186
O O4 0.853014 0.759888 0.140308
O O5 0.462217 0.500000 0.011243
O O6 0.704672 0.747599 0.276480
O O7 0.500000 0.740611 0.000000
O O8 0.205375 0.751895 0.775706
O O9 0.573578 0.758931 0.428464
O O10 0.786298 0.755368 0.713811
O O11 0.810635 0.000000 0.691006
O O12 0.074486 0.759160 0.929665
O O13 0.642253 0.255982 0.858802
O O14 0.662648 0.000000 0.834878
O O15 0.058871 0.000000 0.466105
O O16 0.500000 0.242633 0.500000
O O17 0.237615 0.000000 0.262608
O O18 0.000000 0.242569 0.000000
O O19 0.358994 0.500000 0.093307
#
# Coordination Sequence:
#
# PCOD9146130 Si02
#       7
#     4   4   4   4   4   4   4
#     4  11  24  43  64  88 120 157 196 238 294 357
#     4  11  24  41  62  90 125 163 200 241 293 349
#     4   9  17  28  45  70  99 138 183 220 269 338
#     4  10  19  33  52  73 104 144 183 225 276 337
#     4  11  24  41  64  92 120 155 200 247 291 344
#     4   9  15  23  37  61  97 134 167 214 274 327
#     4  12  25  40  61  90 119 150 195 246 295 346
#
# _framework density 19.382542999999998
#
# number of rings (size 3 to 8) (size 9 to 14) (size 15 to 20)
#    0.000    1.571    0.000    5.571    0.000   13.143 
#    0.000    0.000    0.000    0.000    0.000    0.000 
#    0.000   11.429    0.000    0.000    0.000    0.000 
#
# Total GULP energy -156576.599727 kJ/mol
# GULP energy per Si atom -5592.021419 kJ/mol
# Density = 1.933843 g / cm^3
# Si number density = 19.382543 Si / 1000 Ang^3
#
#
#
# Elastic Constant Matrix: (Units=GPa)
#
#
# Indices 1 2 3 4 5 6 
#
# 1 204.5465 16.2486 91.2669 0.0000 0.8817 0.0000
# 2 16.2486 21.6117 0.7030 0.0000 0.9206 0.0000
# 3 91.2669 0.7030 162.3491 0.0000 1.5261 0.0000
# 4 0.0000 0.0000 0.0000 25.1598 0.0000 14.5647
# 5 0.8817 0.9206 1.5261 0.0000 46.0897 0.0000
# 6 0.0000 0.0000 0.0000 14.5647 0.0000 -159.9299
#
#
#
# Elastic Compliance Matrix: (Units=1/GPa)
#
#
# Indices 1 2 3 4 5 6 
#
# 1 0.007062 -0.005185 -0.003949 0.000000 0.000099 0.000000
# 2 -0.005185 0.050124 0.002707 0.000000 -0.000992 0.000000
# 3 -0.003949 0.002707 0.008370 0.000000 -0.000256 0.000000
# 4 0.000000 0.000000 0.000000 0.037755 0.000000 0.003438
# 5 0.000099 -0.000992 -0.000256 0.000000 0.021723 0.000000
# 6 0.000000 0.000000 0.000000 0.003438 0.000000 -0.005940
#
#
# Mechanical properties :
#
#
# Convention : Reuss Voigt Hill
#
# Bulk Modulus (GPa) = 18.97429 67.21603 43.09516
# Shear Modulus (GPa) = 33.44118 0.94984 17.19551
#
# Velocity S-wave (km/s) = 4.15821 0.70079 2.98176
# Velocity P-wave (km/s) = 5.73279 5.95052 5.84267
#
# Compressibility (1/GPa) = 0.05270288
#
# Stress axis : x y z
#
# Youngs Moduli (GPa) = 141.59934 19.95051 119.47421
#
# Poissons Ratio (x) = 0.10345 0.47175
# Poissons Ratio (y) = 0.73425 -0.32346
# Poissons Ratio (z) = 0.55912 -0.05401
#
# Static dielectric constant tensor:
#      x y z
#    x 1.649040 0.000000 -0.001280 
#    y 0.000000 1.656160 0.000000 
#    z -0.001280 0.000000 1.632610 
# 
# From -- ./inp_files/96005.got.cif
#   From: 2010.05.17/outbox.cif.g08.bks.cpg/sg10_49_cif.got.tgz:96005.got - 2010.06.03 11:33:40.
