data_PCOD9146612
_publ_section_title
;
Structure prediction by ZEFSAII (Michael W. Deem and Ramdas Pophale) SiO2 
 PCOD9146612
Probable space group: P 2/M
;
_chemical_formula_sum "Si O2"
_cell_formula_units_Z 24
_cell_length_a 15.330944
_cell_length_b 8.379931
_cell_length_c 14.808763
_cell_angle_alpha 90.000000
_cell_angle_beta 31.475396
_cell_angle_gamma 90.000000
_cell_volume 993.364751
_symmetry_space_group_name_H-M "P 2/M"
_symmetry_group_IT_number 10
_symmetry_cell_setting 'monoclinic'
loop_
_space_group_symop_operation_xyz
x,y,z
-x,y,-z
-x,-y,-z
x,-y,z
loop_
_atom_site_type_symbol
_atom_site_label
_atom_site_fract_x
_atom_site_fract_y
_atom_site_fract_z
Si Si1 0.071251 0.187919 0.705853
Si Si2 0.319174 0.689091 0.624531
Si Si3 0.533098 0.814258 0.180359
Si Si4 0.815394 0.314135 0.575811
Si Si5 0.690080 0.313987 0.871827
Si Si6 0.201062 0.807257 0.911404
O O1 0.246487 0.226273 0.600507
O O2 0.068282 0.251451 0.606778
O O3 0.048679 0.000000 0.720920
O O4 0.936031 0.252912 0.896236
O O5 0.500000 0.745108 0.500000
O O6 0.325840 0.500000 0.602088
O O7 0.200311 0.729107 0.814490
O O8 0.371484 0.712484 0.298643
O O9 0.623195 0.774318 0.194030
O O10 0.483886 0.000000 0.223378
O O11 0.670631 0.785877 0.980049
O O12 0.847281 0.500000 0.558128
O O13 0.803789 0.249854 0.688843
O O14 0.730555 0.500000 0.855660
O O15 0.500000 0.313556 0.000000
O O16 0.183530 0.000000 0.916683
#
# Coordination Sequence:
#
# PCOD9146612 Si02
#       6
#     4   4   4   4   4   4
#     4  11  23  39  58  80 110 146 182 222 269 322
#     4  11  24  40  60  86 111 138 177 223 269 321
#     4  10  19  33  56  83 110 143 184 227 271 321
#     4  10  20  35  55  81 112 144 183 229 273 320
#     4   8  16  31  51  77 110 144 180 227 274 315
#     4  10  23  40  56  80 113 146 180 221 270 321
#
# _framework density 24.160309000000002
#
# number of rings (size 3 to 8) (size 9 to 14) (size 15 to 20)
#    0.000    2.000    0.000    4.500    0.000   12.333 
#    0.000    0.833    0.000    5.000    0.000    0.000 
#    0.000    0.000    0.000    0.000    0.000    0.000 
#
# Total GULP energy -134269.092611 kJ/mol
# GULP energy per Si atom -5594.545525 kJ/mol
# Density = 2.410532 g / cm^3
# Si number density = 24.160309 Si / 1000 Ang^3
#
#
#
# Elastic Constant Matrix: (Units=GPa)
#
#
# Indices 1 2 3 4 5 6 
#
# 1 98.2842 7.7576 22.6789 0.0000 22.6911 0.0000
# 2 7.7576 18.0064 -3.7418 0.0000 6.9001 0.0000
# 3 22.6789 -3.7418 129.6018 0.0000 19.6302 0.0000
# 4 0.0000 0.0000 0.0000 43.6082 0.0000 23.3171
# 5 22.6911 6.9001 19.6302 0.0000 49.3323 0.0000
# 6 0.0000 0.0000 0.0000 23.3171 0.0000 65.5756
#
#
#
# Elastic Compliance Matrix: (Units=1/GPa)
#
#
# Indices 1 2 3 4 5 6 
#
# 1 0.011816 -0.003759 -0.001525 0.000000 -0.004303 0.000000
# 2 -0.003759 0.061091 0.003675 0.000000 -0.008279 0.000000
# 3 -0.001525 0.003675 0.008577 0.000000 -0.003226 0.000000
# 4 0.000000 0.000000 0.000000 0.028315 0.000000 -0.010068
# 5 -0.004303 -0.008279 -0.003226 0.000000 0.024691 0.000000
# 6 0.000000 0.000000 0.000000 -0.010068 0.000000 0.018830
#
#
# Mechanical properties :
#
#
# Convention : Reuss Voigt Hill
#
# Bulk Modulus (GPa) = 12.77635 33.25353 23.01494
# Shear Modulus (GPa) = 27.37824 46.31638 36.84731
#
# Velocity S-wave (km/s) = 3.36994 4.38316 3.90951
# Velocity P-wave (km/s) = 4.52124 6.27771 5.47043
#
# Compressibility (1/GPa) = 0.07826959
#
# Stress axis : x y z
#
# Youngs Moduli (GPa) = 84.62795 16.36890 116.58462
#
# Poissons Ratio (x) = 0.06153 0.17774
# Poissons Ratio (y) = 0.31810 -0.42850
# Poissons Ratio (z) = 0.12902 -0.06016
#
# Static dielectric constant tensor:
#      x y z
#    x 1.925930 0.000000 -0.054180 
#    y 0.000000 1.813820 0.000000 
#    z -0.054180 0.000000 2.044120 
# 
# From -- ./inp_files/27193.got.cif
#   From: 2010.05.17/outbox.cif.g08.bks.cpg/sg10_14_cif.got.tgz:27193.got - 2010.06.03 11:33:40.
