data_PCOD9146280
_publ_section_title
;
Structure prediction by ZEFSAII (Michael W. Deem and Ramdas Pophale) SiO2 
 PCOD9146280
Probable space group: P 2/M
;
_chemical_formula_sum "Si O2"
_cell_formula_units_Z 28
_cell_length_a 19.117481
_cell_length_b 7.534255
_cell_length_c 23.607226
_cell_angle_alpha 90.000000
_cell_angle_beta 23.063513
_cell_angle_gamma 90.000000
_cell_volume 1332.067897
_symmetry_space_group_name_H-M "P 2/M"
_symmetry_group_IT_number 10
_symmetry_cell_setting 'monoclinic'
loop_
_space_group_symop_operation_xyz
x,y,z
-x,y,-z
-x,-y,-z
x,-y,z
loop_
_atom_site_type_symbol
_atom_site_label
_atom_site_fract_x
_atom_site_fract_y
_atom_site_fract_z
Si Si1 0.815101 0.208183 0.486487
Si Si2 0.132308 0.704639 0.166655
Si Si3 0.195214 0.783365 0.377591
Si Si4 0.869552 0.716957 0.266904
Si Si5 0.511315 0.203757 0.928926
Si Si6 0.160230 0.282732 0.840306
Si Si7 0.551111 0.285660 0.585375
O O1 0.787514 0.277846 0.570373
O O2 0.640069 0.230957 0.578193
O O3 0.981465 0.288893 0.328056
O O4 0.857127 0.000000 0.459135
O O5 0.179025 0.500000 0.121601
O O6 0.034191 0.776154 0.183525
O O7 0.313702 0.796032 0.050151
O O8 0.347720 0.719078 0.220820
O O9 0.000000 0.736721 0.500000
O O10 0.206834 0.000000 0.370567
O O11 0.872569 0.500000 0.265479
O O12 0.869975 0.774068 0.201857
O O13 0.688564 0.771608 0.433841
O O14 0.572109 0.000000 0.892544
O O15 0.500000 0.286850 0.000000
O O16 0.162280 0.500000 0.838375
O O17 0.351967 0.224033 0.720974
O O18 0.000000 0.226089 0.000000
O O19 0.549188 0.500000 0.586244
#
# Coordination Sequence:
#
# PCOD9146280 Si02
#       7
#     4   4   4   4   4   4   4
#     4  10  19  33  54  76 101 133 168 207 251 302
#     4  10  20  34  53  77 105 133 165 209 255 298
#     4   9  18  33  53  76  99 128 169 209 243 288
#     4   8  15  28  45  66  93 127 162 196 240 292
#     4  10  20  35  56  78 101 133 171 207 246 298
#     4   9  16  26  44  70  96 125 164 206 246 292
#     4   9  17  30  49  71  97 128 163 205 249 295
#
# _framework density 21.019947999999999
#
# number of rings (size 3 to 8) (size 9 to 14) (size 15 to 20)
#    0.000    2.714    0.000    3.000    0.000    5.429 
#    0.000    2.857    0.000   11.143    0.000    0.000 
#    0.000    0.000    0.000    0.000    0.000    0.000 
#
# Total GULP energy -156325.157658 kJ/mol
# GULP energy per Si atom -5583.041345 kJ/mol
# Density = 2.097211 g / cm^3
# Si number density = 21.019948 Si / 1000 Ang^3
#
#
#
# Elastic Constant Matrix: (Units=GPa)
#
#
# Indices 1 2 3 4 5 6 
#
# 1 193.8254 -5.7157 129.2641 0.0000 19.4998 0.0000
# 2 -5.7157 52.1536 -5.1358 0.0000 2.5133 0.0000
# 3 129.2641 -5.1358 146.4944 0.0000 2.0837 0.0000
# 4 0.0000 0.0000 0.0000 8.4359 0.0000 -2.8868
# 5 19.4998 2.5133 2.0837 0.0000 34.5925 0.0000
# 6 0.0000 0.0000 0.0000 -2.8868 0.0000 15.8319
#
#
#
# Elastic Compliance Matrix: (Units=1/GPa)
#
#
# Indices 1 2 3 4 5 6 
#
# 1 0.014160 0.000685 -0.012367 0.000000 -0.007287 0.000000
# 2 0.000685 0.019346 0.000099 0.000000 -0.001798 0.000000
# 3 -0.012367 0.000099 0.017658 0.000000 0.005901 0.000000
# 4 0.000000 0.000000 0.000000 0.126430 0.000000 0.023053
# 5 -0.007287 -0.001798 0.005901 0.000000 0.032791 0.000000
# 6 0.000000 0.000000 0.000000 0.023053 0.000000 0.067367
#
#
# Mechanical properties :
#
#
# Convention : Reuss Voigt Hill
#
# Bulk Modulus (GPa) = 35.71592 69.92207 52.81900
# Shear Modulus (GPa) = 16.11596 30.04278 23.07937
#
# Velocity S-wave (km/s) = 2.77194 3.78464 3.31716
# Velocity P-wave (km/s) = 5.22237 7.24119 6.31300
#
# Compressibility (1/GPa) = 0.02799872
#
# Stress axis : x y z
#
# Youngs Moduli (GPa) = 70.61919 51.69126 56.63026
#
# Poissons Ratio (x) = -0.03542 0.70036
# Poissons Ratio (y) = -0.04839 -0.00562
# Poissons Ratio (z) = 0.87337 -0.00513
#
# Static dielectric constant tensor:
#      x y z
#    x 1.731560 0.000000 0.015120 
#    y 0.000000 1.801700 0.000000 
#    z 0.015120 0.000000 1.711610 
# 
# From -- ./inp_files/90368.got.cif
#   From: 2010.05.17/outbox.cif.g08.bks.cpg/sg10_46_cif.got.tgz:90368.got - 2010.06.03 11:33:40.
