data_PCOD9146913
_publ_section_title
;
Structure prediction by ZEFSAII (Michael W. Deem and Ramdas Pophale) SiO2 
 PCOD9146913
Probable space group: P 2/M
;
_chemical_formula_sum "Si O2"
_cell_formula_units_Z 32
_cell_length_a 29.205929
_cell_length_b 8.121283
_cell_length_c 22.738235
_cell_angle_alpha 90.000000
_cell_angle_beta 18.666151
_cell_angle_gamma 90.000000
_cell_volume 1726.135128
_symmetry_space_group_name_H-M "P 2/M"
_symmetry_group_IT_number 10
_symmetry_cell_setting 'monoclinic'
loop_
_space_group_symop_operation_xyz
x,y,z
-x,y,-z
-x,-y,-z
x,-y,z
loop_
_atom_site_type_symbol
_atom_site_label
_atom_site_fract_x
_atom_site_fract_y
_atom_site_fract_z
Si Si1 0.842591 0.802013 0.332061
Si Si2 0.090086 0.800961 0.948646
Si Si3 0.163802 0.298229 0.299667
Si Si4 0.302081 0.301316 0.377455
Si Si5 0.417251 0.305129 0.543550
Si Si6 0.665155 0.298969 0.792974
Si Si7 0.597160 0.697892 0.079723
Si Si8 0.450163 0.195573 0.372643
O O1 0.813554 0.754561 0.434368
O O2 0.704774 0.739893 0.462306
O O3 0.842306 0.000000 0.327557
O O4 0.991093 0.744828 0.123309
O O5 0.248856 0.731729 0.754056
O O6 0.102870 0.000000 0.933878
O O7 0.000000 0.757882 0.000000
O O8 0.162968 0.500000 0.300085
O O9 0.243796 0.245449 0.261889
O O10 0.000000 0.243432 0.500000
O O11 0.259486 0.244591 0.127469
O O12 0.305235 0.500000 0.373378
O O13 0.279765 0.245150 0.337931
O O14 0.457322 0.244589 0.213008
O O15 0.500000 0.236811 0.500000
O O16 0.438747 0.500000 0.516275
O O17 0.469966 0.240378 0.416312
O O18 0.666602 0.500000 0.791802
O O19 0.500000 0.249053 0.000000
O O20 0.597097 0.500000 0.076770
O O21 0.568236 0.745229 0.182280
O O22 0.444316 0.000000 0.375467
#
# Coordination Sequence:
#
# PCOD9146913 Si02
#       8
#     4   4   4   4   4   4   4   4
#     4   9  18  32  51  76 106 134 166 215 261 307
#     4  10  19  36  58  80 106 138 178 218 261 315
#     4   9  16  26  43  69  99 130 164 206 258 306
#     4   9  16  26  45  71  97 129 169 211 252 302
#     4  11  24  39  55  81 113 141 174 220 268 313
#     4   9  14  24  42  65  93 124 161 202 244 296
#     4   9  16  28  47  72  99 128 168 214 257 305
#     4  10  19  34  55  77 103 138 177 213 257 317
#
# _framework density 18.538526000000001
#
# number of rings (size 3 to 8) (size 9 to 14) (size 15 to 20)
#    0.000    2.500    2.500    0.750    0.000    2.250 
#    0.000    1.250    0.000    4.500    0.000    0.000 
#    0.000    0.000    0.000    0.000    0.000    0.000 
#
# Total GULP energy -178437.237513 kJ/mol
# GULP energy per Si atom -5576.163672 kJ/mol
# Density = 1.849633 g / cm^3
# Si number density = 18.538526 Si / 1000 Ang^3
#
#
#
# Elastic Constant Matrix: (Units=GPa)
#
#
# Indices 1 2 3 4 5 6 
#
# 1 131.5785 1.2912 79.0425 0.0000 24.3013 0.0000
# 2 1.2912 3.9167 5.3751 0.0000 3.5921 0.0000
# 3 79.0425 5.3751 136.9536 0.0000 27.7753 0.0000
# 4 0.0000 0.0000 0.0000 58.7600 0.0000 46.4266
# 5 24.3013 3.5921 27.7753 0.0000 36.1500 0.0000
# 6 0.0000 0.0000 0.0000 46.4266 0.0000 54.1079
#
#
#
# Elastic Compliance Matrix: (Units=1/GPa)
#
#
# Indices 1 2 3 4 5 6 
#
# 1 0.012203 0.008677 -0.006568 0.000000 -0.004019 0.000000
# 2 0.008677 0.291830 -0.011132 0.000000 -0.026278 0.000000
# 3 -0.006568 -0.011132 0.012331 0.000000 -0.003953 0.000000
# 4 0.000000 0.000000 0.000000 0.052842 0.000000 -0.045341
# 5 -0.004019 -0.026278 -0.003953 0.000000 0.036012 0.000000
# 6 0.000000 0.000000 0.000000 -0.045341 0.000000 0.057385
#
#
# Mechanical properties :
#
#
# Convention : Reuss Voigt Hill
#
# Bulk Modulus (GPa) = 3.35214 49.31850 26.33532
# Shear Modulus (GPa) = 8.61934 42.25292 25.43613
#
# Velocity S-wave (km/s) = 2.15859 4.77927 3.70816
# Velocity P-wave (km/s) = 2.83281 7.55753 5.70706
#
# Compressibility (1/GPa) = 0.29831671
#
# Stress axis : x y z
#
# Youngs Moduli (GPa) = 81.94769 3.42665 81.09454
#
# Poissons Ratio (x) = -0.02973 0.53266
# Poissons Ratio (y) = -0.71105 0.90277
# Poissons Ratio (z) = 0.53827 0.03815
#
# Static dielectric constant tensor:
#      x y z
#    x 1.643150 0.000000 0.015860 
#    y 0.000000 1.654750 0.000000 
#    z 0.015860 0.000000 1.633640 
# 
# From -- ./inp_files/86742.got.cif
#   From: 2010.05.17/outbox.cif.g08.bks.cpg/sg10_44_cif.got.tgz:86742.got - 2010.06.03 11:33:40.
