data_PCOD9146379
_publ_section_title
;
Structure prediction by ZEFSAII (Michael W. Deem and Ramdas Pophale) SiO2 
 PCOD9146379
Probable space group: P 2/M
;
_chemical_formula_sum "Si O2"
_cell_formula_units_Z 30
_cell_length_a 26.964992
_cell_length_b 12.747746
_cell_length_c 21.320104
_cell_angle_alpha 90.000000
_cell_angle_beta 167.114418
_cell_angle_gamma 90.000000
_cell_volume 1634.320631
_symmetry_space_group_name_H-M "P 2/M"
_symmetry_group_IT_number 10
_symmetry_cell_setting 'monoclinic'
loop_
_space_group_symop_operation_xyz
x,y,z
-x,y,-z
-x,-y,-z
x,-y,z
loop_
_atom_site_type_symbol
_atom_site_label
_atom_site_fract_x
_atom_site_fract_y
_atom_site_fract_z
Si Si1 0.736591 0.625117 0.180777
Si Si2 0.324083 0.880378 0.092948
Si Si3 0.500000 0.747294 0.000000
Si Si4 0.799089 0.874982 0.465553
Si Si5 0.583073 0.258764 0.310778
Si Si6 0.403288 0.229565 0.310473
Si Si7 0.977468 0.617567 0.134500
Si Si8 0.781701 0.616374 0.756312
O O1 0.700813 0.500000 0.135732
O O2 0.642219 0.675137 0.128325
O O3 0.000000 0.645376 0.500000
O O4 0.599318 0.679356 0.955327
O O5 0.459429 0.803137 0.213994
O O6 0.405002 0.865897 0.264576
O O7 0.356644 0.000000 0.112070
O O8 0.059367 0.858632 0.770016
O O9 0.657319 0.820328 0.236079
O O10 0.711126 0.821079 0.421307
O O11 0.762222 0.000000 0.423324
O O12 0.772913 0.340745 0.567520
O O13 0.500000 0.207418 0.500000
O O14 0.565264 0.317481 0.482004
O O15 0.164149 0.286889 0.011291
O O16 0.979326 0.500000 0.166485
O O17 0.838763 0.605114 0.899492
O O18 0.762954 0.500000 0.704687
O O19 0.000000 0.672507 0.000000
#
# Coordination Sequence:
#
# PCOD9146379 Si02
#       8
#     4   4   2   4   4   4   4   4
#     4  10  21  37  57  85 122 157 190 230 284 350
#     4  11  23  39  59  83 114 153 199 248 298 345
#     4  10  20  36  62  86 112 154 192 236 288 348
#     4  10  21  38  59  85 114 148 194 248 294 341
#     4  11  21  37  60  83 116 154 194 241 293 346
#     4  10  20  36  57  81 116 154 192 244 296 350
#     4  10  19  33  54  82 113 145 186 233 284 348
#     4   9  17  30  51  78 109 145 183 230 287 343
#
# _framework density 18.356251
#
# number of rings (size 3 to 8) (size 9 to 14) (size 15 to 20)
#    0.000    1.867    1.333    3.200    0.000    1.867 
#    0.000    2.000    0.000   10.000    0.000    0.000 
#    0.000    0.000    0.000    0.000    0.000    0.000 
#
# Total GULP energy -167126.111066 kJ/mol
# GULP energy per Si atom -5570.870369 kJ/mol
# Density = 1.831447 g / cm^3
# Si number density = 18.356251 Si / 1000 Ang^3
#
#
#
# Elastic Constant Matrix: (Units=GPa)
#
#
# Indices 1 2 3 4 5 6 
#
# 1 72.3216 37.5140 32.7062 0.0000 3.3948 0.0000
# 2 37.5140 83.1941 53.2081 0.0000 -1.5671 0.0000
# 3 32.7062 53.2081 117.8550 0.0000 7.4545 0.0000
# 4 0.0000 0.0000 0.0000 32.9843 0.0000 7.2171
# 5 3.3948 -1.5671 7.4545 0.0000 20.0146 0.0000
# 6 0.0000 0.0000 0.0000 7.2171 0.0000 16.2078
#
#
#
# Elastic Compliance Matrix: (Units=1/GPa)
#
#
# Indices 1 2 3 4 5 6 
#
# 1 0.018533 -0.007385 -0.001612 0.000000 -0.003122 0.000000
# 2 -0.007385 0.020206 -0.007427 0.000000 0.005601 0.000000
# 3 -0.001612 -0.007427 0.012602 0.000000 -0.005002 0.000000
# 4 0.000000 0.000000 0.000000 0.033590 0.000000 -0.014957
# 5 -0.003122 0.005601 -0.005002 0.000000 0.052794 0.000000
# 6 0.000000 0.000000 0.000000 -0.014957 0.000000 0.068359
#
#
# Mechanical properties :
#
#
# Convention : Reuss Voigt Hill
#
# Bulk Modulus (GPa) = 54.07422 57.80301 55.93862
# Shear Modulus (GPa) = 20.40012 23.83750 22.11881
#
# Velocity S-wave (km/s) = 3.33730 3.60752 3.47504
# Velocity P-wave (km/s) = 6.66125 6.99358 6.82944
#
# Compressibility (1/GPa) = 0.01849310
#
# Stress axis : x y z
#
# Youngs Moduli (GPa) = 53.95719 49.49064 79.35405
#
# Poissons Ratio (x) = 0.36549 0.12789
# Poissons Ratio (y) = 0.39848 0.58938
# Poissons Ratio (z) = 0.08696 0.36757
#
# Static dielectric constant tensor:
#      x y z
#    x 1.679590 0.000000 -0.001680 
#    y 0.000000 1.648390 0.000000 
#    z -0.001680 0.000000 1.625430 
# 
# From -- ./inp_files/91482.got.cif
#   From: 2010.05.17/outbox.cif.g08.bks.cpg/sg10_46_cif.got.tgz:91482.got - 2010.06.03 11:33:40.
