data_PCOD9146617
_publ_section_title
;
Structure prediction by ZEFSAII (Michael W. Deem and Ramdas Pophale) SiO2 
 PCOD9146617
Probable space group: P 2/M
;
_chemical_formula_sum "Si O2"
_cell_formula_units_Z 32
_cell_length_a 22.076302
_cell_length_b 8.868397
_cell_length_c 28.596167
_cell_angle_alpha 90.000000
_cell_angle_beta 18.847896
_cell_angle_gamma 90.000000
_cell_volume 1808.665837
_symmetry_space_group_name_H-M "P 2/M"
_symmetry_group_IT_number 10
_symmetry_cell_setting 'monoclinic'
loop_
_space_group_symop_operation_xyz
x,y,z
-x,y,-z
-x,-y,-z
x,-y,z
loop_
_atom_site_type_symbol
_atom_site_label
_atom_site_fract_x
_atom_site_fract_y
_atom_site_fract_z
Si Si1 0.694545 0.319996 0.095681
Si Si2 0.904744 0.818514 0.678009
Si Si3 0.714126 0.818426 0.337208
Si Si4 0.413559 0.818735 0.165283
Si Si5 0.028567 0.819632 0.181725
Si Si6 0.679652 0.181117 0.659474
Si Si7 0.810922 0.320644 0.846464
Si Si8 0.010398 0.318674 0.938794
O O1 0.697368 0.500000 0.087144
O O2 0.483899 0.259902 0.250450
O O3 0.800460 0.241636 0.974853
O O4 0.819849 0.282748 0.049556
O O5 0.750356 0.781170 0.751562
O O6 0.857542 0.739872 0.761092
O O7 0.112281 0.777680 0.508814
O O8 0.899102 0.000000 0.688584
O O9 0.500000 0.768213 0.500000
O O10 0.841406 0.780246 0.289425
O O11 0.819624 0.750340 0.215297
O O12 0.715455 0.000000 0.331781
O O13 0.352160 0.779851 0.262796
O O14 0.443633 0.000000 0.141630
O O15 0.605182 0.738196 0.011241
O O16 0.046852 0.746512 0.219005
O O17 0.042478 0.000000 0.175218
O O18 0.660399 0.000000 0.669428
O O19 0.815656 0.500000 0.844321
O O20 0.030982 0.500000 0.923595
O O21 0.000000 0.267114 0.000000
#
# Coordination Sequence:
#
# PCOD9146617 Si02
#       8
#     4   4   4   4   4   4   4   4
#     4  10  19  33  56  83 112 145 185 227 268 319
#     4  10  22  39  57  81 112 147 185 227 277 331
#     4   9  19  36  58  85 113 139 178 231 277 319
#     4  10  20  37  62  84 106 142 187 230 273 331
#     4  10  19  35  59  81 108 146 187 227 270 325
#     4  10  20  36  59  84 110 143 184 227 274 327
#     4  12  24  37  55  82 114 147 185 229 277 325
#     4   9  19  36  56  80 113 150 185 219 261 322
#
# _framework density 17.692598
#
# number of rings (size 3 to 8) (size 9 to 14) (size 15 to 20)
#    0.000    2.000    1.250    2.625    0.000    5.500 
#    2.250    0.000    0.000    2.250    0.000    0.000 
#    0.000    0.000    0.000    0.000    0.000    0.000 
#
# Total GULP energy -178681.851479 kJ/mol
# GULP energy per Si atom -5583.807859 kJ/mol
# Density = 1.765233 g / cm^3
# Si number density = 17.692598 Si / 1000 Ang^3
#
#
#
# Elastic Constant Matrix: (Units=GPa)
#
#
# Indices 1 2 3 4 5 6 
#
# 1 136.8612 49.8539 86.0180 0.0000 0.4041 0.0000
# 2 49.8539 36.9710 51.5880 0.0000 -0.1111 0.0000
# 3 86.0180 51.5880 141.9040 0.0000 -5.5778 0.0000
# 4 0.0000 0.0000 0.0000 -25.7648 0.0000 -12.5005
# 5 0.4041 -0.1111 -5.5778 0.0000 26.0269 0.0000
# 6 0.0000 0.0000 0.0000 -12.5005 0.0000 20.2955
#
#
#
# Elastic Compliance Matrix: (Units=1/GPa)
#
#
# Indices 1 2 3 4 5 6 
#
# 1 0.015236 -0.015428 -0.003670 0.000000 -0.001089 0.000000
# 2 -0.015428 0.070949 -0.016559 0.000000 -0.003006 0.000000
# 3 -0.003670 -0.016559 0.015421 0.000000 0.003291 0.000000
# 4 0.000000 0.000000 0.000000 -0.029883 0.000000 -0.018405
# 5 -0.001089 -0.003006 0.003291 0.000000 0.039131 0.000000
# 6 0.000000 0.000000 0.000000 -0.018405 0.000000 0.037936
#
#
# Mechanical properties :
#
#
# Convention : Reuss Voigt Hill
#
# Bulk Modulus (GPa) = 33.01165 76.73958 54.87561
# Shear Modulus (GPa) = 21.72004 12.66328 17.19166
#
# Velocity S-wave (km/s) = 3.50756 2.67823 3.12057
# Velocity P-wave (km/s) = 5.92477 7.28230 6.63833
#
# Compressibility (1/GPa) = 0.03029234
#
# Stress axis : x y z
#
# Youngs Moduli (GPa) = 65.63262 14.09458 64.84699
#
# Poissons Ratio (x) = 0.21745 0.23798
# Poissons Ratio (y) = 1.01258 1.07381
# Poissons Ratio (z) = 0.24086 0.23339
#
# Static dielectric constant tensor:
#      x y z
#    x 1.599920 0.000000 -0.016290 
#    y 0.000000 1.590960 0.000000 
#    z -0.016290 0.000000 1.577990 
# 
# From -- ./inp_files/86883.got.cif
#   From: 2010.05.17/outbox.cif.g08.bks.cpg/sg10_44_cif.got.tgz:86883.got - 2010.06.03 11:33:40.
