data_PCOD9146915
_publ_section_title
;
Structure prediction by ZEFSAII (Michael W. Deem and Ramdas Pophale) SiO2 
 PCOD9146915
Probable space group: P 2/M
;
_chemical_formula_sum "Si O2"
_cell_formula_units_Z 32
_cell_length_a 25.559686
_cell_length_b 10.131159
_cell_length_c 9.195764
_cell_angle_alpha 90.000000
_cell_angle_beta 130.228757
_cell_angle_gamma 90.000000
_cell_volume 1818.007046
_symmetry_space_group_name_H-M "P 2/M"
_symmetry_group_IT_number 10
_symmetry_cell_setting 'monoclinic'
loop_
_space_group_symop_operation_xyz
x,y,z
-x,y,-z
-x,-y,-z
x,-y,z
loop_
_atom_site_type_symbol
_atom_site_label
_atom_site_fract_x
_atom_site_fract_y
_atom_site_fract_z
Si Si1 0.937401 0.349312 0.274347
Si Si2 0.001433 0.154493 0.828592
Si Si3 0.851990 0.850341 0.518301
Si Si4 0.580336 0.654222 0.664973
Si Si5 0.793368 0.258868 0.133300
Si Si6 0.332557 0.648571 0.901363
Si Si7 0.688511 0.155290 0.711771
Si Si8 0.281892 0.157793 0.574014
O O1 0.945939 0.500000 0.239318
O O2 0.944155 0.244536 0.156129
O O3 0.862214 0.333888 0.210267
O O4 0.000000 0.322520 0.500000
O O5 0.926872 0.210106 0.648311
O O6 0.010409 0.000000 0.801955
O O7 0.000000 0.160871 0.000000
O O8 0.818693 0.845229 0.299669
O O9 0.795695 0.796083 0.527931
O O10 0.864784 0.000000 0.588904
O O11 0.500000 0.677840 0.500000
O O12 0.594646 0.500000 0.653431
O O13 0.626363 0.753289 0.653930
O O14 0.604738 0.671344 0.875617
O O15 0.735336 0.339825 0.117927
O O16 0.754347 0.196128 0.926518
O O17 0.335995 0.500000 0.848306
O O18 0.327563 0.757118 0.766464
O O19 0.701600 0.176248 0.564571
O O20 0.674511 0.000000 0.710663
O O21 0.286102 0.000000 0.614285
#
# Coordination Sequence:
#
# PCOD9146915 Si02
#       8
#     4   4   4   4   4   4   4   4
#     4  11  23  38  55  77 107 141 181 232 283 330
#     4  10  22  37  54  75 102 137 180 226 278 335
#     4   9  17  32  51  73 100 137 176 218 269 324
#     4   9  19  37  60  85 115 148 181 220 265 315
#     4  10  19  34  55  77 105 139 180 227 275 322
#     4   9  18  34  57  80 105 141 185 221 260 317
#     4  10  21  35  57  87 113 140 180 228 271 317
#     4   9  19  34  52  77 111 143 176 220 271 320
#
# _framework density 17.601693000000001
#
# number of rings (size 3 to 8) (size 9 to 14) (size 15 to 20)
#    0.000    2.375    1.250    0.750    1.750    5.750 
#    0.000    0.625    0.000    3.750    0.000    0.000 
#    0.000    0.000    0.000    0.000    0.000    0.000 
#
# Total GULP energy -178247.695893 kJ/mol
# GULP energy per Si atom -5570.240497 kJ/mol
# Density = 1.756163 g / cm^3
# Si number density = 17.601693 Si / 1000 Ang^3
#
#
#
# Elastic Constant Matrix: (Units=GPa)
#
#
# Indices 1 2 3 4 5 6 
#
# 1 65.6283 47.3202 53.4449 0.0000 -3.0670 0.0000
# 2 47.3202 84.0043 46.1826 0.0000 -12.3797 0.0000
# 3 53.4449 46.1826 101.3628 0.0000 4.7890 0.0000
# 4 0.0000 0.0000 0.0000 20.6299 0.0000 -3.9221
# 5 -3.0670 -12.3797 4.7890 0.0000 29.1401 0.0000
# 6 0.0000 0.0000 0.0000 -3.9221 0.0000 15.4519
#
#
#
# Elastic Compliance Matrix: (Units=1/GPa)
#
#
# Indices 1 2 3 4 5 6 
#
# 1 0.034404 -0.012464 -0.012479 0.000000 0.000377 0.000000
# 2 -0.012464 0.022492 -0.004097 0.000000 0.008917 0.000000
# 3 -0.012479 -0.004097 0.018601 0.000000 -0.006111 0.000000
# 4 0.000000 0.000000 0.000000 0.050931 0.000000 0.012928
# 5 0.000377 0.008917 -0.006111 0.000000 0.039149 0.000000
# 6 0.000000 0.000000 0.000000 0.012928 0.000000 0.067998
#
#
# Mechanical properties :
#
#
# Convention : Reuss Voigt Hill
#
# Bulk Modulus (GPa) = 57.41736 60.54343 58.98039
# Shear Modulus (GPa) = 16.80890 19.98088 18.39489
#
# Velocity S-wave (km/s) = 3.09359 3.37288 3.23625
# Velocity P-wave (km/s) = 6.74178 7.04553 6.89533
#
# Compressibility (1/GPa) = 0.01741634
#
# Stress axis : x y z
#
# Youngs Moduli (GPa) = 29.06597 44.46072 53.76140
#
# Poissons Ratio (x) = 0.55417 0.67090
# Poissons Ratio (y) = 0.36228 0.22026
# Poissons Ratio (z) = 0.36272 0.18216
#
# Static dielectric constant tensor:
#      x y z
#    x 1.599570 0.000000 0.014020 
#    y 0.000000 1.603150 0.000000 
#    z 0.014020 0.000000 1.609060 
# 
# From -- ./inp_files/36039.got.cif
#   From: 2010.05.17/outbox.cif.g08.bks.cpg/sg10_19_cif.got.tgz:36039.got - 2010.06.03 11:33:40.
