data_PCOD9146384
_publ_section_title
;
Structure prediction by ZEFSAII (Michael W. Deem and Ramdas Pophale) SiO2 
 PCOD9146384
Probable space group: P 2/M
;
_chemical_formula_sum "Si O2"
_cell_formula_units_Z 32
_cell_length_a 13.936236
_cell_length_b 10.027656
_cell_length_c 22.419057
_cell_angle_alpha 90.000000
_cell_angle_beta 30.508496
_cell_angle_gamma 90.000000
_cell_volume 1590.524794
_symmetry_space_group_name_H-M "P 2/M"
_symmetry_group_IT_number 10
_symmetry_cell_setting 'monoclinic'
loop_
_space_group_symop_operation_xyz
x,y,z
-x,y,-z
-x,-y,-z
x,-y,z
loop_
_atom_site_type_symbol
_atom_site_label
_atom_site_fract_x
_atom_site_fract_y
_atom_site_fract_z
Si Si1 0.313362 0.147078 0.417280
Si Si2 0.938362 0.653332 0.135550
Si Si3 0.715507 0.653737 0.374333
Si Si4 0.689747 0.155885 0.788474
Si Si5 0.039265 0.152574 0.678302
Si Si6 0.274432 0.151736 0.970893
Si Si7 0.780935 0.351434 0.632452
Si Si8 0.726171 0.147026 0.170428
O O1 0.169907 0.160252 0.548712
O O2 0.296578 0.268500 0.381303
O O3 0.535655 0.146596 0.311866
O O4 0.273899 0.000000 0.410443
O O5 0.986236 0.500000 0.096159
O O6 0.777295 0.653666 0.272523
O O7 0.857183 0.736067 0.123591
O O8 0.117242 0.736382 0.064149
O O9 0.500000 0.699990 0.500000
O O10 0.725739 0.500000 0.390569
O O11 0.866124 0.744568 0.327758
O O12 0.462818 0.170362 0.909564
O O13 0.757041 0.260279 0.703020
O O14 0.822370 0.179007 0.774932
O O15 0.725529 0.000000 0.752287
O O16 0.050633 0.000000 0.694361
O O17 0.324184 0.159226 0.872981
O O18 0.205299 0.000000 0.018434
O O19 0.698498 0.500000 0.683584
O O20 0.000000 0.364355 0.500000
O O21 0.814219 0.000000 0.131408
#
# Coordination Sequence:
#
# PCOD9146384 Si02
#       8
#     4   4   4   4   4   4   4   4
#     4  10  19  33  54  82 117 154 190 234 286 338
#     4  11  24  40  59  84 113 150 192 241 295 345
#     4  10  23  44  65  84 113 152 189 233 294 350
#     4  10  20  37  58  82 117 157 194 236 288 339
#     4  10  21  35  60  91 115 147 195 245 289 333
#     4  10  21  38  60  85 116 156 193 232 286 346
#     4  11  21  30  46  78 118 159 197 231 276 334
#     4  10  20  35  58  87 116 153 194 233 287 345
#
# _framework density 20.119145
#
# number of rings (size 3 to 8) (size 9 to 14) (size 15 to 20)
#    0.000    1.750    2.500    1.875    0.000    5.750 
#    0.000    0.625    0.000    3.750    0.000    0.000 
#    0.000    0.000    0.000    0.000    0.000    0.000 
#
# Total GULP energy -178521.037911 kJ/mol
# GULP energy per Si atom -5578.782435 kJ/mol
# Density = 2.007335 g / cm^3
# Si number density = 20.119145 Si / 1000 Ang^3
#
#
#
# Elastic Constant Matrix: (Units=GPa)
#
#
# Indices 1 2 3 4 5 6 
#
# 1 81.8684 54.8512 15.7695 0.0000 -23.5204 0.0000
# 2 54.8512 131.3601 23.8306 0.0000 -16.5392 0.0000
# 3 15.7695 23.8306 65.3061 0.0000 -21.1161 0.0000
# 4 0.0000 0.0000 0.0000 23.5830 0.0000 3.3647
# 5 -23.5204 -16.5392 -21.1161 0.0000 27.3188 0.0000
# 6 0.0000 0.0000 0.0000 3.3647 0.0000 21.6239
#
#
#
# Elastic Compliance Matrix: (Units=1/GPa)
#
#
# Indices 1 2 3 4 5 6 
#
# 1 0.021164 -0.007328 0.002694 0.000000 0.015868 0.000000
# 2 -0.007328 0.010951 -0.002830 0.000000 -0.001867 0.000000
# 3 0.002694 -0.002830 0.021186 0.000000 0.016982 0.000000
# 4 0.000000 0.000000 0.000000 0.043366 0.000000 -0.006748
# 5 0.015868 -0.001867 0.016982 0.000000 0.062262 0.000000
# 6 0.000000 0.000000 0.000000 -0.006748 0.000000 0.047295
#
#
# Mechanical properties :
#
#
# Convention : Reuss Voigt Hill
#
# Bulk Modulus (GPa) = 26.06058 51.93745 38.99902
# Shear Modulus (GPa) = 21.37268 26.77737 24.07503
#
# Velocity S-wave (km/s) = 3.26284 3.65216 3.46298
# Velocity P-wave (km/s) = 5.21307 6.60722 5.95111
#
# Compressibility (1/GPa) = 0.03837213
#
# Stress axis : x y z
#
# Youngs Moduli (GPa) = 47.24907 91.31500 47.20205
#
# Poissons Ratio (x) = 0.66920 -0.12717
# Poissons Ratio (y) = 0.34626 0.13359
# Poissons Ratio (z) = -0.12730 0.25845
#
# Static dielectric constant tensor:
#      x y z
#    x 1.716960 0.000000 -0.021210 
#    y 0.000000 1.718390 0.000000 
#    z -0.021210 0.000000 1.762230 
# 
# From -- ./inp_files/89510.got.cif
#   From: 2010.05.17/outbox.cif.g08.bks.cpg/sg10_45_cif.got.tgz:89510.got - 2010.06.03 11:33:40.
