data_PCOD9146219
_publ_section_title
;
Structure prediction by ZEFSAII (Michael W. Deem and Ramdas Pophale) SiO2 
 PCOD9146219
Probable space group: P 2/M
;
_chemical_formula_sum "Si O2"
_cell_formula_units_Z 28
_cell_length_a 10.250024
_cell_length_b 12.908609
_cell_length_c 15.864886
_cell_angle_alpha 90.000000
_cell_angle_beta 59.748298
_cell_angle_gamma 90.000000
_cell_volume 1813.279747
_symmetry_space_group_name_H-M "P 2/M"
_symmetry_group_IT_number 10
_symmetry_cell_setting 'monoclinic'
loop_
_space_group_symop_operation_xyz
x,y,z
-x,y,-z
-x,-y,-z
x,-y,z
loop_
_atom_site_type_symbol
_atom_site_label
_atom_site_fract_x
_atom_site_fract_y
_atom_site_fract_z
Si Si1 0.319458 0.695177 0.201158
Si Si2 0.180567 0.500000 0.941542
Si Si3 0.322119 0.881759 0.078467
Si Si4 0.167008 0.624111 0.416693
Si Si5 0.323504 0.500000 0.079275
Si Si6 0.820799 0.877785 0.056272
Si Si7 0.472997 0.624580 0.411941
Si Si8 0.359479 0.305755 0.808200
O O1 0.290466 0.801092 0.161937
O O2 0.213483 0.679447 0.315745
O O3 0.294153 0.601349 0.144651
O O4 0.491212 0.691026 0.180827
O O5 0.251633 0.399559 0.872656
O O6 0.234159 0.500000 0.021108
O O7 0.000000 0.500000 0.000000
O O8 0.286424 0.000000 0.113736
O O9 0.500000 0.875509 0.000000
O O10 0.236086 0.856332 0.020111
O O11 0.830292 0.500000 0.599501
O O12 0.299979 0.645195 0.440559
O O13 0.000000 0.652666 0.500000
O O14 0.500000 0.500000 0.000000
O O15 0.729098 0.801090 0.146891
O O16 0.792384 0.000000 0.083144
O O17 0.000000 0.859735 0.000000
O O18 0.500000 0.655270 0.500000
O O19 0.496883 0.500000 0.397859
O O20 0.580309 0.676362 0.306444
#
# Coordination Sequence:
#
# PCOD9146219 Si02
#       8
#     4   2   4   4   2   4   4   4
#     4  11  19  32  54  78  98 135 172 205 252 301
#     4  12  24  34  43  74 112 134 163 206 254 296
#     4  10  19  33  53  77 102 131 173 211 238 296
#     4   9  18  34  51  72 101 128 167 212 250 298
#     4  12  20  32  51  70 104 138 165 198 250 310
#     4  10  21  36  52  74 105 139 171 206 250 296
#     4   9  18  34  53  71  96 133 171 206 249 302
#     4  11  19  34  54  73 102 137 169 207 252 303
#
# _framework density 15.441634000000001
#
# number of rings (size 3 to 8) (size 9 to 14) (size 15 to 20)
#    0.000    1.714    4.286    1.714    0.000    0.000 
#    5.143    0.000    0.000    0.857    0.000    0.000 
#    0.000    0.000    0.000    0.000    0.000    0.000 
#
# Total GULP energy -156220.842713 kJ/mol
# GULP energy per Si atom -5579.315811 kJ/mol
# Density = 1.540649 g / cm^3
# Si number density = 15.441634 Si / 1000 Ang^3
#
#
#
# Elastic Constant Matrix: (Units=GPa)
#
#
# Indices 1 2 3 4 5 6 
#
# 1 117.7270 44.3782 82.8228 0.0000 0.1823 0.0000
# 2 44.3782 77.0109 73.4643 0.0000 0.1790 0.0000
# 3 82.8228 73.4643 135.6394 0.0000 4.0897 0.0000
# 4 0.0000 0.0000 0.0000 -38.9577 0.0000 53.3327
# 5 0.1823 0.1790 4.0897 0.0000 29.0761 0.0000
# 6 0.0000 0.0000 0.0000 53.3327 0.0000 -33.6022
#
#
#
# Elastic Compliance Matrix: (Units=1/GPa)
#
#
# Indices 1 2 3 4 5 6 
#
# 1 0.014935 0.000259 -0.009296 0.000000 0.001212 0.000000
# 2 0.000259 0.026974 -0.014826 0.000000 0.001918 0.000000
# 3 -0.009296 -0.014826 0.021164 0.000000 -0.002827 0.000000
# 4 0.000000 0.000000 0.000000 0.021886 0.000000 0.034737
# 5 0.001212 0.001918 -0.002827 0.000000 0.034771 0.000000
# 6 0.000000 0.000000 0.000000 0.034737 0.000000 0.025375
#
#
# Mechanical properties :
#
#
# Convention : Reuss Voigt Hill
#
# Bulk Modulus (GPa) = 65.15818 81.30090 73.22954
# Shear Modulus (GPa) = 25.25946 -0.04930 12.60508
#
# Velocity S-wave (km/s) = 4.04889 -0.17888 2.86020
# Velocity P-wave (km/s) = 8.00912 7.26100 7.64422
#
# Compressibility (1/GPa) = 0.01534727
#
# Stress axis : x y z
#
# Youngs Moduli (GPa) = 66.95833 37.07221 47.25062
#
# Poissons Ratio (x) = -0.00960 0.43924
# Poissons Ratio (y) = -0.01733 0.70052
# Poissons Ratio (z) = 0.62245 0.54962
#
# Static dielectric constant tensor:
#      x y z
#    x 1.520030 0.000000 0.011550 
#    y 0.000000 1.520480 0.000000 
#    z 0.011550 0.000000 1.492830 
# 
# From -- ./inp_files/60949.got.cif
#   From: 2010.05.17/outbox.cif.g08.bks.cpg/sg10_31_cif.got.tgz:60949.got - 2010.06.03 11:33:40.
