data_PCOD9146286
_publ_section_title
;
Structure prediction by ZEFSAII (Michael W. Deem and Ramdas Pophale) SiO2 
 PCOD9146286
Probable space group: P 2/M
;
_chemical_formula_sum "Si O2"
_cell_formula_units_Z 28
_cell_length_a 12.682867
_cell_length_b 11.822577
_cell_length_c 24.441296
_cell_angle_alpha 90.000000
_cell_angle_beta 29.377986
_cell_angle_gamma 90.000000
_cell_volume 1797.851867
_symmetry_space_group_name_H-M "P 2/M"
_symmetry_group_IT_number 10
_symmetry_cell_setting 'monoclinic'
loop_
_space_group_symop_operation_xyz
x,y,z
-x,y,-z
-x,-y,-z
x,-y,z
loop_
_atom_site_type_symbol
_atom_site_label
_atom_site_fract_x
_atom_site_fract_y
_atom_site_fract_z
Si Si1 0.630130 0.135686 0.739905
Si Si2 0.344831 0.500000 0.356480
Si Si3 0.408122 0.747871 0.358275
Si Si4 0.821642 0.135651 0.224252
Si Si5 0.854011 0.862843 0.014517
Si Si6 0.069753 0.500000 0.375505
Si Si7 0.979268 0.744345 0.379359
Si Si8 0.242951 0.865629 0.620356
O O1 0.657507 0.187889 0.667313
O O2 0.819142 0.181346 0.692530
O O3 0.636093 0.000000 0.734345
O O4 0.392774 0.172205 0.867577
O O5 0.457076 0.617735 0.320473
O O6 0.269659 0.500000 0.327249
O O7 0.133221 0.500000 0.491007
O O8 0.613862 0.806338 0.291949
O O9 0.210625 0.753633 0.489776
O O10 0.831116 0.159783 0.284343
O O11 0.027985 0.169571 0.094991
O O12 0.794797 0.000000 0.230806
O O13 0.852657 0.000000 0.017051
O O14 0.000000 0.825014 0.000000
O O15 0.053425 0.613732 0.347667
O O16 0.882218 0.790574 0.366949
O O17 0.500000 0.846190 0.500000
O O18 0.208125 0.000000 0.625167
#
# Coordination Sequence:
#
# PCOD9146286 Si02
#       8
#     4   2   4   4   4   2   4   4
#     4  11  21  30  49  80 106 129 166 216 258 305
#     4   9  18  32  47  72 105 140 164 202 260 313
#     4  11  19  31  52  76 105 134 168 207 260 307
#     4  10  19  33  54  76 104 141 170 201 254 310
#     4   9  17  31  49  73 104 136 170 202 247 310
#     4   9  18  34  50  68 102 143 170 201 255 308
#     4  11  21  34  51  76 104 136 173 212 252 304
#     4  10  20  34  51  75 109 139 165 204 258 309
#
# _framework density 15.574142
#
# number of rings (size 3 to 8) (size 9 to 14) (size 15 to 20)
#    0.000    1.857    4.286    1.286    0.000    2.286 
#    0.000    1.786    0.000    6.000    0.000    1.000 
#    0.000    0.000    0.000    0.000    0.000    0.000 
#
# Total GULP energy -156128.577214 kJ/mol
# GULP energy per Si atom -5576.020615 kJ/mol
# Density = 1.553869 g / cm^3
# Si number density = 15.574142 Si / 1000 Ang^3
#
#
#
# Elastic Constant Matrix: (Units=GPa)
#
#
# Indices 1 2 3 4 5 6 
#
# 1 128.3925 54.1548 32.7368 0.0000 7.4724 0.0000
# 2 54.1548 68.0942 9.3688 0.0000 5.8909 0.0000
# 3 32.7368 9.3688 40.3862 0.0000 14.0971 0.0000
# 4 0.0000 0.0000 0.0000 4.5614 0.0000 2.1613
# 5 7.4724 5.8909 14.0971 0.0000 22.1855 0.0000
# 6 0.0000 0.0000 0.0000 2.1613 0.0000 21.8909
#
#
#
# Elastic Compliance Matrix: (Units=1/GPa)
#
#
# Indices 1 2 3 4 5 6 
#
# 1 0.014924 -0.010742 -0.011368 0.000000 0.005049 0.000000
# 2 -0.010742 0.022993 0.005450 0.000000 -0.005951 0.000000
# 3 -0.011368 0.005450 0.040966 0.000000 -0.023649 0.000000
# 4 0.000000 0.000000 0.000000 0.229990 0.000000 -0.022707
# 5 0.005049 -0.005951 -0.023649 0.000000 0.059981 0.000000
# 6 0.000000 0.000000 0.000000 -0.022707 0.000000 0.047923
#
#
# Mechanical properties :
#
#
# Convention : Reuss Voigt Hill
#
# Bulk Modulus (GPa) = 21.94669 47.71040 34.82855
# Shear Modulus (GPa) = 10.74612 19.10173 14.92392
#
# Velocity S-wave (km/s) = 2.62963 3.50595 3.09892
# Velocity P-wave (km/s) = 4.83139 6.86220 5.93431
#
# Compressibility (1/GPa) = 0.04556495
#
# Stress axis : x y z
#
# Youngs Moduli (GPa) = 67.00602 43.49104 24.41037
#
# Poissons Ratio (x) = 0.46717 0.27749
# Poissons Ratio (y) = 0.71976 -0.13304
# Poissons Ratio (z) = 0.76171 -0.23704
#
# Static dielectric constant tensor:
#      x y z
#    x 1.496680 0.000000 0.006960 
#    y 0.000000 1.517140 0.000000 
#    z 0.006960 0.000000 1.519910 
# 
# From -- ./inp_files/46067.got.cif
#   From: 2010.05.17/outbox.cif.g08.bks.cpg/sg10_24_cif.got.tgz:46067.got - 2010.06.03 11:33:40.
