data_PCOD9146067
_publ_section_title
;
Structure prediction by ZEFSAII (Michael W. Deem and Ramdas Pophale) SiO2 
 PCOD9146067
Probable space group: P 2/M
;
_chemical_formula_sum "Si O2"
_cell_formula_units_Z 32
_cell_length_a 10.746205
_cell_length_b 7.445832
_cell_length_c 28.451344
_cell_angle_alpha 90.000000
_cell_angle_beta 30.398737
_cell_angle_gamma 90.000000
_cell_volume 1151.951828
_symmetry_space_group_name_H-M "P 2/M"
_symmetry_group_IT_number 10
_symmetry_cell_setting 'monoclinic'
loop_
_space_group_symop_operation_xyz
x,y,z
-x,y,-z
-x,-y,-z
x,-y,z
loop_
_atom_site_type_symbol
_atom_site_label
_atom_site_fract_x
_atom_site_fract_y
_atom_site_fract_z
Si Si1 0.256158 0.799530 0.745263
Si Si2 0.538610 0.214695 0.779787
Si Si3 0.433522 0.779733 0.118284
Si Si4 0.234699 0.711084 0.449097
Si Si5 0.863712 0.705235 0.317453
Si Si6 0.106197 0.709627 0.589680
Si Si7 0.009194 0.217769 0.943732
Si Si8 0.723657 0.219798 0.945051
O O1 0.527924 0.724528 0.661058
O O2 0.231890 0.805962 0.696742
O O3 0.999786 0.710116 0.844441
O O4 0.257351 0.000000 0.764688
O O5 0.493584 0.255489 0.849623
O O6 0.282574 0.273565 0.837693
O O7 0.809842 0.280777 0.678264
O O8 0.548683 0.000000 0.771823
O O9 0.156585 0.702221 0.215275
O O10 0.424183 0.739144 0.059635
O O11 0.419610 0.000000 0.121143
O O12 0.188995 0.500000 0.470925
O O13 0.241262 0.784561 0.500039
O O14 0.000000 0.791611 0.500000
O O15 0.768036 0.500000 0.345181
O O16 0.825448 0.785804 0.381582
O O17 0.166722 0.500000 0.575344
O O18 0.759816 0.261502 0.994419
O O19 0.003985 0.000000 0.946950
O O20 0.000000 0.283879 0.000000
O O21 0.745258 0.000000 0.936051
#
# Coordination Sequence:
#
# PCOD9146067 Si02
#       8
#     4   4   4   4   4   4   4   4
#     4  12  26  41  63  98 133 167 211 265 322 379
#     4  10  19  32  59  93 121 157 211 266 312 370
#     4   8  18  35  54  85 124 164 209 255 304 362
#     4  10  24  48  71  91 122 166 214 265 324 389
#     4  10  20  41  67  92 124 165 213 259 312 383
#     4   9  21  42  67  91 120 162 208 260 323 383
#     4   8  17  33  54  85 125 163 216 261 310 371
#     4  10  20  40  59  87 134 180 211 251 318 387
#
# _framework density 27.778939000000001
#
# number of rings (size 3 to 8) (size 9 to 14) (size 15 to 20)
#    0.750    1.625    1.250    0.375    1.750    6.750 
#    0.000    5.000    0.000    3.750    0.000    0.000 
#    0.000    0.000    0.000    0.000    0.000    0.000 
#
# Total GULP energy -178677.325701 kJ/mol
# GULP energy per Si atom -5583.666428 kJ/mol
# Density = 2.771571 g / cm^3
# Si number density = 27.778939 Si / 1000 Ang^3
#
#
#
# Elastic Constant Matrix: (Units=GPa)
#
#
# Indices 1 2 3 4 5 6 
#
# 1 149.2135 2.1384 53.5696 0.0000 -2.7936 0.0000
# 2 2.1384 66.6607 10.5327 0.0000 0.4308 0.0000
# 3 53.5696 10.5327 200.6217 0.0000 15.5005 0.0000
# 4 0.0000 0.0000 0.0000 24.3312 0.0000 -14.1360
# 5 -2.7936 0.4308 15.5005 0.0000 54.6371 0.0000
# 6 0.0000 0.0000 0.0000 -14.1360 0.0000 11.6134
#
#
#
# Elastic Compliance Matrix: (Units=1/GPa)
#
#
# Indices 1 2 3 4 5 6 
#
# 1 0.007463 0.000082 -0.002072 0.000000 0.000969 0.000000
# 2 0.000082 0.015128 -0.000825 0.000000 0.000119 0.000000
# 3 -0.002072 -0.000825 0.005714 0.000000 -0.001720 0.000000
# 4 0.000000 0.000000 0.000000 0.140357 0.000000 0.170844
# 5 0.000969 0.000119 -0.001720 0.000000 0.018839 0.000000
# 6 0.000000 0.000000 0.000000 0.170844 0.000000 0.294062
#
#
# Mechanical properties :
#
#
# Convention : Reuss Voigt Hill
#
# Bulk Modulus (GPa) = 44.10295 60.99748 52.55022
# Shear Modulus (GPa) = 10.10609 41.46668 25.78639
#
# Velocity S-wave (km/s) = 1.90943 3.86779 3.05006
# Velocity P-wave (km/s) = 4.55764 6.47705 5.60019
#
# Compressibility (1/GPa) = 0.02267422
#
# Stress axis : x y z
#
# Youngs Moduli (GPa) = 134.00218 66.10108 175.01003
#
# Poissons Ratio (x) = -0.00540 0.36258
# Poissons Ratio (y) = -0.01095 0.14443
# Poissons Ratio (z) = 0.27762 0.05455
#
# Static dielectric constant tensor:
#      x y z
#    x 2.293510 0.000000 0.031830 
#    y 0.000000 2.003720 0.000000 
#    z 0.031830 0.000000 2.228810 
# 
# From -- ./inp_files/93668.got.cif
#   From: 2010.05.17/outbox.cif.g08.bks.cpg/sg10_47_cif.got.tgz:93668.got - 2010.06.03 11:33:40.
