data_PCOD9146462
_publ_section_title
;
Structure prediction by ZEFSAII (Michael W. Deem and Ramdas Pophale) SiO2 
 PCOD9146462
Probable space group: P 2/M
;
_chemical_formula_sum "Si O2"
_cell_formula_units_Z 28
_cell_length_a 9.184934
_cell_length_b 7.562443
_cell_length_c 29.846681
_cell_angle_alpha 90.000000
_cell_angle_beta 141.593065
_cell_angle_gamma 90.000000
_cell_volume 1287.939461
_symmetry_space_group_name_H-M "P 2/M"
_symmetry_group_IT_number 10
_symmetry_cell_setting 'monoclinic'
loop_
_space_group_symop_operation_xyz
x,y,z
-x,y,-z
-x,-y,-z
x,-y,z
loop_
_atom_site_type_symbol
_atom_site_label
_atom_site_fract_x
_atom_site_fract_y
_atom_site_fract_z
Si Si1 0.644339 0.792705 0.216604
Si Si2 0.233243 0.283577 0.927366
Si Si3 0.898845 0.286038 0.927924
Si Si4 0.331608 0.783689 0.499561
Si Si5 0.796910 0.783657 0.351301
Si Si6 0.019945 0.296678 0.782420
Si Si7 0.501222 0.204729 0.363945
O O1 0.368047 0.770450 0.143039
O O2 0.716215 0.722670 0.282828
O O3 0.790822 0.710250 0.211500
O O4 0.703121 0.000000 0.229610
O O5 0.237125 0.500000 0.927694
O O6 0.131743 0.223703 0.855128
O O7 0.063697 0.227815 0.926798
O O8 0.500000 0.226269 0.000000
O O9 0.901772 0.500000 0.928864
O O10 0.000000 0.225572 0.000000
O O11 0.500000 0.724828 0.500000
O O12 0.420484 0.719590 0.569381
O O13 0.063795 0.733557 0.425866
O O14 0.339780 0.000000 0.501556
O O15 0.628923 0.720432 0.350837
O O16 0.785727 0.000000 0.347428
O O17 0.958307 0.500000 0.776578
O O18 0.777387 0.209938 0.709203
O O19 0.576434 0.000000 0.383692
#
# Coordination Sequence:
#
# PCOD9146462 Si02
#       7
#     4   4   4   4   4   4   4
#     4  11  22  36  55  79 109 141 177 222 266 310
#     4   9  18  34  56  80 104 135 177 218 255 305
#     4  10  20  36  59  83 108 140 177 216 261 315
#     4   9  16  28  50  79 108 139 176 216 259 311
#     4   9  18  32  52  80 109 139 177 220 265 312
#     4  11  22  36  55  78 107 141 177 217 264 319
#     4  10  19  33  55  80 107 138 175 220 266 313
#
# _framework density 21.740151999999998
#
# number of rings (size 3 to 8) (size 9 to 14) (size 15 to 20)
#    0.000    2.143    0.000    3.857    0.000    6.571 
#    0.000    1.429    0.000    9.429    0.000    0.000 
#    0.000    0.000    0.000    0.000    0.000    0.000 
#
# Total GULP energy -156527.080492 kJ/mol
# GULP energy per Si atom -5590.252875 kJ/mol
# Density = 2.169067 g / cm^3
# Si number density = 21.740152 Si / 1000 Ang^3
#
#
#
# Elastic Constant Matrix: (Units=GPa)
#
#
# Indices 1 2 3 4 5 6 
#
# 1 195.8386 -6.8793 107.2086 0.0000 -13.4960 0.0000
# 2 -6.8793 49.8684 -6.5332 0.0000 -7.6957 0.0000
# 3 107.2086 -6.5332 208.4617 0.0000 -21.2334 0.0000
# 4 0.0000 0.0000 0.0000 22.9801 0.0000 11.5633
# 5 -13.4960 -7.6957 -21.2334 0.0000 46.3420 0.0000
# 6 0.0000 0.0000 0.0000 11.5633 0.0000 15.0135
#
#
#
# Elastic Compliance Matrix: (Units=1/GPa)
#
#
# Indices 1 2 3 4 5 6 
#
# 1 0.007132 0.000594 -0.003595 0.000000 0.000528 0.000000
# 2 0.000594 0.020848 0.000753 0.000000 0.003980 0.000000
# 3 -0.003595 0.000753 0.006898 0.000000 0.002238 0.000000
# 4 0.000000 0.000000 0.000000 0.071053 0.000000 -0.054725
# 5 0.000528 0.003980 0.002238 0.000000 0.023419 0.000000
# 6 0.000000 0.000000 0.000000 -0.054725 0.000000 0.108756
#
#
# Mechanical properties :
#
#
# Convention : Reuss Voigt Hill
#
# Bulk Modulus (GPa) = 32.91491 71.30678 52.11085
# Shear Modulus (GPa) = 19.78418 40.89195 30.33806
#
# Velocity S-wave (km/s) = 3.01994 4.34169 3.73967
# Velocity P-wave (km/s) = 5.22810 7.61606 6.53213
#
# Compressibility (1/GPa) = 0.03038137
#
# Stress axis : x y z
#
# Youngs Moduli (GPa) = 140.21871 47.96698 144.97683
#
# Poissons Ratio (x) = -0.02851 0.52123
# Poissons Ratio (y) = -0.08334 -0.10919
# Poissons Ratio (z) = 0.50413 -0.03612
#
# Static dielectric constant tensor:
#      x y z
#    x 1.738750 0.000000 -0.028210 
#    y 0.000000 1.859430 0.000000 
#    z -0.028210 0.000000 1.739050 
# 
# From -- ./inp_files/34257.got.cif
#   From: 2010.05.17/outbox.cif.g08.bks.cpg/sg10_18_cif.got.tgz:34257.got - 2010.06.03 11:33:40.
