data_PCOD9146976
_publ_section_title
;
Structure prediction by ZEFSAII (Michael W. Deem and Ramdas Pophale) SiO2 
 PCOD9146976
Probable space group: P 2/M
;
_chemical_formula_sum "Si O2"
_cell_formula_units_Z 32
_cell_length_a 19.252968
_cell_length_b 14.053780
_cell_length_c 14.846911
_cell_angle_alpha 90.000000
_cell_angle_beta 156.866833
_cell_angle_gamma 90.000000
_cell_volume 1578.248086
_symmetry_space_group_name_H-M "P 2/M"
_symmetry_group_IT_number 10
_symmetry_cell_setting 'monoclinic'
loop_
_space_group_symop_operation_xyz
x,y,z
-x,y,-z
-x,-y,-z
x,-y,z
loop_
_atom_site_type_symbol
_atom_site_label
_atom_site_fract_x
_atom_site_fract_y
_atom_site_fract_z
Si Si1 0.323850 0.608147 0.730395
Si Si2 0.854310 0.211586 0.404712
Si Si3 0.039257 0.231188 0.906216
Si Si4 0.690493 0.112891 0.506124
Si Si5 0.749177 0.610546 0.557228
Si Si6 0.416505 0.890582 0.038653
Si Si7 0.878526 0.892103 0.156448
Si Si8 0.367037 0.260584 0.422589
O O1 0.255607 0.500000 0.662167
O O2 0.188533 0.689329 0.598965
O O3 0.357081 0.618613 0.663245
O O4 0.500000 0.617447 0.000000
O O5 0.000000 0.225176 0.500000
O O6 0.942245 0.135438 0.576771
O O7 0.675127 0.171065 0.147215
O O8 0.889262 0.151616 0.744994
O O9 0.927230 0.327144 0.757069
O O10 0.142679 0.188609 0.944021
O O11 0.175574 0.247619 0.148639
O O12 0.597654 0.142416 0.301256
O O13 0.594543 0.165018 0.474725
O O14 0.679038 0.000000 0.499238
O O15 0.787431 0.500000 0.619243
O O16 0.647055 0.657339 0.519201
O O17 0.435466 0.000000 0.031540
O O18 0.276956 0.890004 0.955385
O O19 0.888356 0.000000 0.131944
O O20 0.500000 0.278684 0.500000
#
# Coordination Sequence:
#
# PCOD9146976 Si02
#       8
#     4   4   4   4   4   4   4   4
#     4  10  22  40  62  90 121 158 198 239 299 365
#     4  10  20  34  58  89 122 160 200 248 296 348
#     4  11  22  38  59  89 118 152 199 247 299 351
#     4  10  21  37  58  87 121 159 201 244 295 354
#     4  10  22  43  66  88 119 156 195 246 306 359
#     4   9  19  34  55  85 122 162 203 243 289 349
#     4  10  19  34  55  84 123 163 201 241 292 348
#     4  11  25  41  62  90 119 153 202 251 302 362
#
# _framework density 20.275645999999998
#
# number of rings (size 3 to 8) (size 9 to 14) (size 15 to 20)
#    0.000    1.875    1.250    3.000    3.500    4.750 
#    0.000    0.000    0.000    3.000    0.000    0.000 
#    0.000    0.000    0.000    0.000    0.000    0.000 
#
# Total GULP energy -178776.124437 kJ/mol
# GULP energy per Si atom -5586.753889 kJ/mol
# Density = 2.022950 g / cm^3
# Si number density = 20.275646 Si / 1000 Ang^3
#
#
#
# Elastic Constant Matrix: (Units=GPa)
#
#
# Indices 1 2 3 4 5 6 
#
# 1 64.2912 18.7890 26.7588 0.0000 -3.5901 0.0000
# 2 18.7890 117.3061 23.4846 0.0000 -5.0229 0.0000
# 3 26.7588 23.4846 105.7644 0.0000 -16.5917 0.0000
# 4 0.0000 0.0000 0.0000 18.4133 0.0000 -3.5481
# 5 -3.5901 -5.0229 -16.5917 0.0000 32.7472 0.0000
# 6 0.0000 0.0000 0.0000 -3.5481 0.0000 17.1424
#
#
#
# Elastic Compliance Matrix: (Units=1/GPa)
#
#
# Indices 1 2 3 4 5 6 
#
# 1 0.017848 -0.002051 -0.004131 0.000000 -0.000451 0.000000
# 2 -0.002051 0.009162 -0.001445 0.000000 0.000448 0.000000
# 3 -0.004131 -0.001445 0.011640 0.000000 0.005223 0.000000
# 4 0.000000 0.000000 0.000000 0.056565 0.000000 0.011708
# 5 -0.000451 0.000448 0.005223 0.000000 0.033203 0.000000
# 6 0.000000 0.000000 0.000000 0.011708 0.000000 0.060758
#
#
# Mechanical properties :
#
#
# Convention : Reuss Voigt Hill
#
# Bulk Modulus (GPa) = 42.74251 47.26962 45.00606
# Shear Modulus (GPa) = 23.55961 28.21587 25.88774
#
# Velocity S-wave (km/s) = 3.41246 3.73448 3.57710
# Velocity P-wave (km/s) = 6.05417 6.47760 6.26946
#
# Compressibility (1/GPa) = 0.02339591
#
# Stress axis : x y z
#
# Youngs Moduli (GPa) = 56.02943 109.14979 85.90806
#
# Poissons Ratio (x) = 0.22387 0.35487
# Poissons Ratio (y) = 0.11492 0.12415
# Poissons Ratio (z) = 0.23145 0.15773
#
# Static dielectric constant tensor:
#      x y z
#    x 1.763260 0.000000 0.001820 
#    y 0.000000 1.690600 0.000000 
#    z 0.001820 0.000000 1.727560 
# 
# From -- ./inp_files/70774.got.cif
#   From: 2010.05.17/outbox.cif.g08.bks.cpg/sg10_36_cif.got.tgz:70774.got - 2010.06.03 11:33:40.
