data_PCOD9146907
_publ_section_title
;
Structure prediction by ZEFSAII (Michael W. Deem and Ramdas Pophale) SiO2 
 PCOD9146907
Probable space group: P 2/M
;
_chemical_formula_sum "Si O2"
_cell_formula_units_Z 28
_cell_length_a 9.161182
_cell_length_b 10.419994
_cell_length_c 29.414369
_cell_angle_alpha 90.000000
_cell_angle_beta 146.589258
_cell_angle_gamma 90.000000
_cell_volume 1546.123226
_symmetry_space_group_name_H-M "P 2/M"
_symmetry_group_IT_number 10
_symmetry_cell_setting 'monoclinic'
loop_
_space_group_symop_operation_xyz
x,y,z
-x,y,-z
-x,-y,-z
x,-y,z
loop_
_atom_site_type_symbol
_atom_site_label
_atom_site_fract_x
_atom_site_fract_y
_atom_site_fract_z
Si Si1 0.663834 0.647258 0.683337
Si Si2 0.775034 0.500000 0.869810
Si Si3 0.263455 0.265748 0.834642
Si Si4 0.355293 0.500000 0.056505
Si Si5 0.356932 0.746985 0.222764
Si Si6 0.779437 0.144655 0.085552
Si Si7 0.709874 0.651894 0.595064
Si Si8 0.193781 0.850220 0.720553
O O1 0.589209 0.500000 0.671532
O O2 0.586718 0.721624 0.709121
O O3 0.577555 0.684866 0.609835
O O4 0.982354 0.660641 0.761446
O O5 0.703007 0.500000 0.904321
O O6 0.657381 0.619635 0.811736
O O7 0.096397 0.500000 0.957132
O O8 0.477240 0.370120 0.905813
O O9 0.225215 0.154355 0.861357
O O10 0.315538 0.202381 0.799619
O O11 0.582191 0.835023 0.259555
O O12 0.055557 0.797290 0.141493
O O13 0.773505 0.000000 0.066660
O O14 0.500000 0.208526 0.000000
O O15 0.500000 0.660838 0.500000
O O16 0.796203 0.500000 0.620381
O O17 0.949046 0.751837 0.648808
O O18 0.114147 0.000000 0.703953
#
# Coordination Sequence:
#
# PCOD9146907 Si02
#       8
#     4   2   4   2   4   4   4   4
#     4   9  17  31  56  84 110 142 180 226 279 331
#     4  11  22  31  51  81 112 148 186 246 304 327
#     4  10  19  34  55  76 107 142 190 238 282 340
#     4  11  20  33  51  81 110 143 194 248 294 334
#     4  11  21  35  54  81 113 148 192 238 285 336
#     4  10  21  36  51  70 105 151 194 239 288 336
#     4   9  20  39  65  93 118 145 181 228 281 341
#     4  11  23  37  59  85 114 151 190 232 282 342
#
# _framework density 18.109811000000001
#
# number of rings (size 3 to 8) (size 9 to 14) (size 15 to 20)
#    0.000    1.857    2.857    1.714    2.000    0.286 
#    0.000    3.571    0.000    6.857    0.000    0.000 
#    0.000    0.000    0.000    0.000    0.000    0.000 
#
# Total GULP energy -155900.473992 kJ/mol
# GULP energy per Si atom -5567.874071 kJ/mol
# Density = 1.806859 g / cm^3
# Si number density = 18.109811 Si / 1000 Ang^3
#
#
#
# Elastic Constant Matrix: (Units=GPa)
#
#
# Indices 1 2 3 4 5 6 
#
# 1 88.1974 26.2053 13.9098 0.0000 -10.1791 0.0000
# 2 26.2053 90.9778 23.2773 0.0000 5.3130 0.0000
# 3 13.9098 23.2773 60.7765 0.0000 -14.2770 0.0000
# 4 0.0000 0.0000 0.0000 15.7867 0.0000 4.0686
# 5 -10.1791 5.3130 -14.2770 0.0000 21.2613 0.0000
# 6 0.0000 0.0000 0.0000 4.0686 0.0000 14.3537
#
#
#
# Elastic Compliance Matrix: (Units=1/GPa)
#
#
# Indices 1 2 3 4 5 6 
#
# 1 0.013504 -0.004474 0.000480 0.000000 0.007906 0.000000
# 2 -0.004474 0.014715 -0.007098 0.000000 -0.010586 0.000000
# 3 0.000480 -0.007098 0.023192 0.000000 0.017577 0.000000
# 4 0.000000 0.000000 0.000000 0.068337 0.000000 -0.019370
# 5 0.007906 -0.010586 0.017577 0.000000 0.065267 0.000000
# 6 0.000000 0.000000 0.000000 -0.019370 0.000000 0.075159
#
#
# Mechanical properties :
#
#
# Convention : Reuss Voigt Hill
#
# Bulk Modulus (GPa) = 34.21682 40.74847 37.48264
# Shear Modulus (GPa) = 17.11740 22.05097 19.58418
#
# Velocity S-wave (km/s) = 3.07775 3.49323 3.29205
# Velocity P-wave (km/s) = 5.61829 6.23056 5.93233
#
# Compressibility (1/GPa) = 0.02922539
#
# Stress axis : x y z
#
# Youngs Moduli (GPa) = 74.05032 67.95846 43.11916
#
# Poissons Ratio (x) = 0.30407 -0.02070
# Poissons Ratio (y) = 0.33133 0.30608
# Poissons Ratio (z) = -0.03555 0.48240
#
# Static dielectric constant tensor:
#      x y z
#    x 1.634300 0.000000 -0.011230 
#    y 0.000000 1.632400 0.000000 
#    z -0.011230 0.000000 1.640750 
# 
# From -- ./inp_files/92013.got.cif
#   From: 2010.05.17/outbox.cif.g08.bks.cpg/sg10_47_cif.got.tgz:92013.got - 2010.06.03 11:33:40.
