data_PCOD9146122
_publ_section_title
;
Structure prediction by ZEFSAII (Michael W. Deem and Ramdas Pophale) SiO2 
 PCOD9146122
Probable space group: P 2/M
;
_chemical_formula_sum "Si O2"
_cell_formula_units_Z 30
_cell_length_a 14.843028
_cell_length_b 21.596876
_cell_length_c 14.456805
_cell_angle_alpha 90.000000
_cell_angle_beta 159.820157
_cell_angle_gamma 90.000000
_cell_volume 1598.691214
_symmetry_space_group_name_H-M "P 2/M"
_symmetry_group_IT_number 10
_symmetry_cell_setting 'monoclinic'
loop_
_space_group_symop_operation_xyz
x,y,z
-x,y,-z
-x,-y,-z
x,-y,z
loop_
_atom_site_type_symbol
_atom_site_label
_atom_site_fract_x
_atom_site_fract_y
_atom_site_fract_z
Si Si1 0.570386 0.677520 0.966842
Si Si2 0.633967 0.432098 0.885620
Si Si3 0.827196 0.568086 0.706481
Si Si4 0.771027 0.704745 0.713656
Si Si5 0.729922 0.000000 0.795730
Si Si6 0.572606 0.866231 0.680262
Si Si7 0.066985 0.238346 0.462571
Si Si8 0.941271 0.806572 0.745932
O O1 0.577359 0.623810 0.899055
O O2 0.355595 0.731114 0.740056
O O3 0.500000 0.651988 0.000000
O O4 0.856324 0.706957 0.248089
O O5 0.641476 0.500000 0.939187
O O6 0.405934 0.432506 0.591058
O O7 0.903268 0.424848 0.089414
O O8 0.823174 0.500000 0.749332
O O9 0.785984 0.630486 0.723534
O O10 0.500000 0.721659 0.500000
O O11 0.827047 0.739940 0.671682
O O12 0.000000 0.727120 0.000000
O O13 0.500000 0.000000 0.500000
O O14 0.687051 0.064798 0.805919
O O15 0.000000 0.000000 0.000000
O O16 0.500000 0.858905 0.500000
O O17 0.293227 0.853688 0.457425
O O18 0.796309 0.823066 0.943138
O O19 0.023038 0.196613 0.329832
O O20 0.000000 0.211086 0.500000
#
# Coordination Sequence:
#
# PCOD9146122 Si02
#       8
#     4   4   4   4   2   4   4   4
#     4  10  19  33  52  74 103 134 170 225 286 345
#     4  10  19  33  52  72  94 125 170 221 274 333
#     4  10  22  38  53  68  94 137 183 223 264 322
#     4  12  24  35  52  78 107 139 178 225 278 333
#     4  10  20  36  58  84 121 164 195 224 258 316
#     4  11  22  37  58  88 123 157 189 222 268 326
#     4  10  22  38  57  81 108 144 188 228 276 333
#     4  12  22  36  58  84 117 151 184 234 285 326
#
# _framework density 18.765350999999999
#
# number of rings (size 3 to 8) (size 9 to 14) (size 15 to 20)
#    0.000    1.333    0.000    8.000    0.000    0.800 
#    0.000    0.000    0.000    4.800    0.000    2.800 
#    0.000    0.000    0.000    0.000    0.000    0.000 
#
# Total GULP energy -167421.877303 kJ/mol
# GULP energy per Si atom -5580.729243 kJ/mol
# Density = 1.872264 g / cm^3
# Si number density = 18.765351 Si / 1000 Ang^3
#
#
#
# Elastic Constant Matrix: (Units=GPa)
#
#
# Indices 1 2 3 4 5 6 
#
# 1 93.6714 30.9195 33.4659 0.0000 -11.7199 0.0000
# 2 30.9195 68.2799 6.5355 0.0000 -5.5411 0.0000
# 3 33.4659 6.5355 124.8092 0.0000 5.7555 0.0000
# 4 0.0000 0.0000 0.0000 28.6295 0.0000 5.3661
# 5 -11.7199 -5.5411 5.7555 0.0000 27.8063 0.0000
# 6 0.0000 0.0000 0.0000 5.3661 0.0000 22.3714
#
#
#
# Elastic Compliance Matrix: (Units=1/GPa)
#
#
# Indices 1 2 3 4 5 6 
#
# 1 0.014728 -0.005819 -0.003915 0.000000 0.005858 0.000000
# 2 -0.005819 0.017292 0.000615 0.000000 0.000866 0.000000
# 3 -0.003915 0.000615 0.009188 0.000000 -0.003429 0.000000
# 4 0.000000 0.000000 0.000000 0.036573 0.000000 -0.008773
# 5 0.005858 0.000866 -0.003429 0.000000 0.039315 0.000000
# 6 0.000000 0.000000 0.000000 -0.008773 0.000000 0.046804
#
#
# Mechanical properties :
#
#
# Convention : Reuss Voigt Hill
#
# Bulk Modulus (GPa) = 43.53457 47.62247 45.57852
# Shear Modulus (GPa) = 26.34429 30.15074 28.24752
#
# Velocity S-wave (km/s) = 3.75090 4.01274 3.88403
# Velocity P-wave (km/s) = 6.48142 6.84854 6.66751
#
# Compressibility (1/GPa) = 0.02297025
#
# Stress axis : x y z
#
# Youngs Moduli (GPa) = 67.89800 57.82965 108.84010
#
# Poissons Ratio (x) = 0.33652 0.42606
# Poissons Ratio (y) = 0.39511 -0.06693
# Poissons Ratio (z) = 0.26579 -0.03556
#
# Static dielectric constant tensor:
#      x y z
#    x 1.608580 0.000000 0.002940 
#    y 0.000000 1.696680 0.000000 
#    z 0.002940 0.000000 1.642210 
# 
# From -- ./inp_files/67869.got.cif
#   From: 2010.05.17/outbox.cif.g08.bks.cpg/sg10_34_cif.got.tgz:67869.got - 2010.06.03 11:33:40.
