data_PCOD9146894
_publ_section_title
;
Structure prediction by ZEFSAII (Michael W. Deem and Ramdas Pophale) SiO2 
 PCOD9146894
Probable space group: P 2/M
;
_chemical_formula_sum "Si O2"
_cell_formula_units_Z 28
_cell_length_a 9.677018
_cell_length_b 18.361327
_cell_length_c 16.035432
_cell_angle_alpha 90.000000
_cell_angle_beta 146.278371
_cell_angle_gamma 90.000000
_cell_volume 1581.769626
_symmetry_space_group_name_H-M "P 2/M"
_symmetry_group_IT_number 10
_symmetry_cell_setting 'monoclinic'
loop_
_space_group_symop_operation_xyz
x,y,z
-x,y,-z
-x,-y,-z
x,-y,z
loop_
_atom_site_type_symbol
_atom_site_label
_atom_site_fract_x
_atom_site_fract_y
_atom_site_fract_z
Si Si1 0.499730 0.868947 0.862926
Si Si2 0.299820 0.261816 0.147082
Si Si3 0.271942 0.421813 0.321930
Si Si4 0.741115 0.000000 0.564301
Si Si5 0.092298 0.131864 0.797899
Si Si6 0.262853 0.261171 0.320634
Si Si7 0.301523 0.421941 0.146315
Si Si8 0.299150 0.000000 0.649455
O O1 0.588321 0.800173 0.854103
O O2 0.277955 0.848914 0.815309
O O3 0.405306 0.930770 0.752476
O O4 0.729960 0.894411 0.036993
O O5 0.363513 0.252347 0.276737
O O6 0.373060 0.342320 0.150198
O O7 0.000000 0.257447 0.000000
O O8 0.500000 0.421947 0.500000
O O9 0.134601 0.500000 0.262685
O O10 0.144785 0.342944 0.266810
O O11 0.379274 0.422087 0.282183
O O12 0.500000 0.000000 0.500000
O O13 0.909437 0.930116 0.671282
O O14 0.646685 0.000000 0.421649
O O15 0.933021 0.199738 0.751931
O O16 0.500000 0.257397 0.500000
O O17 0.378001 0.500000 0.146509
O O18 0.000000 0.422158 0.000000
O O19 0.000000 0.000000 0.500000
#
# Coordination Sequence:
#
# PCOD9146894 Si02
#       8
#     4   4   4   2   4   4   4   2
#     4  11  24  40  63  80 115 155 182 228 279 347
#     4  10  19  34  54  84 114 145 195 234 273 332
#     4   8  14  26  45  73 107 145 185 228 280 325
#     4  12  27  43  65  89 113 140 181 240 277 325
#     4  11  23  42  58  83 115 152 185 218 292 344
#     4  10  20  33  55  84 117 147 188 244 279 321
#     4   8  14  25  45  73 107 144 182 230 275 314
#     4  12  25  45  63  87 110 140 188 229 274 343
#
# _framework density 17.701692999999999
#
# number of rings (size 3 to 8) (size 9 to 14) (size 15 to 20)
#    0.000    2.000    2.857    0.857    4.000    1.143 
#    0.000    1.071    0.000    0.857    0.000    2.000 
#    0.000   12.000    0.000    0.000    0.000    0.000 
#
# Total GULP energy -155916.789554 kJ/mol
# GULP energy per Si atom -5568.456770 kJ/mol
# Density = 1.766140 g / cm^3
# Si number density = 17.701693 Si / 1000 Ang^3
#
#
#
# Elastic Constant Matrix: (Units=GPa)
#
#
# Indices 1 2 3 4 5 6 
#
# 1 82.9551 52.4293 39.6593 0.0000 -10.6090 0.0000
# 2 52.4293 168.3473 37.7996 0.0000 -1.8726 0.0000
# 3 39.6593 37.7996 92.5695 0.0000 -19.0147 0.0000
# 4 0.0000 0.0000 0.0000 21.7257 0.0000 -10.2000
# 5 -10.6090 -1.8726 -19.0147 0.0000 27.1967 0.0000
# 6 0.0000 0.0000 0.0000 -10.2000 0.0000 1.4213
#
#
#
# Elastic Compliance Matrix: (Units=1/GPa)
#
#
# Indices 1 2 3 4 5 6 
#
# 1 0.017627 -0.004291 -0.005194 0.000000 0.002949 0.000000
# 2 -0.004291 0.007648 -0.001776 0.000000 -0.002388 0.000000
# 3 -0.005194 -0.001776 0.015544 0.000000 0.008719 0.000000
# 4 0.000000 0.000000 0.000000 -0.019428 0.000000 -0.139420
# 5 0.002949 -0.002388 0.008719 0.000000 0.043851 0.000000
# 6 0.000000 0.000000 0.000000 -0.139420 0.000000 -0.296963
#
#
# Mechanical properties :
#
#
# Convention : Reuss Voigt Hill
#
# Bulk Modulus (GPa) = 54.64800 67.07203 60.86002
# Shear Modulus (GPa) = -24.61841 24.33433 -0.14204
#
# Velocity S-wave (km/s) = -3.73331 3.71170 -0.28358
# Velocity P-wave (km/s) = 3.51500 7.50609 5.86074
#
# Compressibility (1/GPa) = 0.01829893
#
# Stress axis : x y z
#
# Youngs Moduli (GPa) = 56.73200 130.74564 64.33345
#
# Poissons Ratio (x) = 0.56097 0.33415
# Poissons Ratio (y) = 0.24341 0.11423
# Poissons Ratio (z) = 0.29467 0.23215
#
# Static dielectric constant tensor:
#      x y z
#    x 1.574210 0.000000 -0.039820 
#    y 0.000000 1.664890 0.000000 
#    z -0.039820 0.000000 1.617220 
# 
# From -- ./inp_files/62388.got.cif
#   From: 2010.05.17/outbox.cif.g08.bks.cpg/sg10_32_cif.got.tgz:62388.got - 2010.06.03 11:33:40.
