data_PCOD9146692
_publ_section_title
;
Structure prediction by ZEFSAII (Michael W. Deem and Ramdas Pophale) SiO2 
 PCOD9146692
Probable space group: P 2/M
;
_chemical_formula_sum "Si O2"
_cell_formula_units_Z 24
_cell_length_a 12.042308
_cell_length_b 7.370921
_cell_length_c 22.311055
_cell_angle_alpha 90.000000
_cell_angle_beta 149.641481
_cell_angle_gamma 90.000000
_cell_volume 1000.909307
_symmetry_space_group_name_H-M "P 2/M"
_symmetry_group_IT_number 10
_symmetry_cell_setting 'monoclinic'
loop_
_space_group_symop_operation_xyz
x,y,z
-x,y,-z
-x,-y,-z
x,-y,z
loop_
_atom_site_type_symbol
_atom_site_label
_atom_site_fract_x
_atom_site_fract_y
_atom_site_fract_z
Si Si1 0.410196 0.220706 0.754632
Si Si2 0.753312 0.220606 0.119134
Si Si3 0.154693 0.778457 0.970044
Si Si4 0.689642 0.207736 0.778378
Si Si5 0.014070 0.779580 0.649889
Si Si6 0.514112 0.707630 0.439251
O O1 0.493176 0.282257 0.727931
O O2 0.178134 0.281898 0.673531
O O3 0.392758 0.000000 0.747222
O O4 0.613904 0.272496 0.892720
O O5 0.855202 0.278105 0.103756
O O6 0.877384 0.278298 0.236553
O O7 0.754776 0.000000 0.121080
O O8 0.500000 0.276931 0.000000
O O9 0.932757 0.712845 0.898382
O O10 0.152435 0.000000 0.969966
O O11 0.627437 0.207100 0.679675
O O12 0.711511 0.000000 0.809121
O O13 0.765098 0.715261 0.534101
O O14 0.005286 0.000000 0.644636
O O15 0.500000 0.786659 0.500000
O O16 0.439254 0.500000 0.408994
#
# Coordination Sequence:
#
# PCOD9146692 Si02
#       6
#     4   4   4   4   4   4
#     4   9  17  30  51  85 121 144 168 216 274 318
#     4   9  14  23  44  78 112 137 167 212 263 308
#     4   9  15  26  48  81 117 145 172 214 267 317
#     4  10  20  34  56  84 111 143 184 221 259 317
#     4  10  19  33  57  85 113 143 178 220 265 318
#     4  11  25  43  58  73 102 142 183 230 279 321
#
# _framework density 23.978196000000001
#
# number of rings (size 3 to 8) (size 9 to 14) (size 15 to 20)
#    0.000    2.333    1.667    2.000    0.000    5.333 
#    0.000    4.167    0.000    3.500    0.000    0.000 
#    0.000    0.000    0.000    0.000    0.000    0.000 
#
# Total GULP energy -134110.601747 kJ/mol
# GULP energy per Si atom -5587.941739 kJ/mol
# Density = 2.392362 g / cm^3
# Si number density = 23.978196 Si / 1000 Ang^3
#
#
#
# Elastic Constant Matrix: (Units=GPa)
#
#
# Indices 1 2 3 4 5 6 
#
# 1 159.2637 -1.7374 28.8450 0.0000 18.7541 0.0000
# 2 -1.7374 83.0593 -13.2480 0.0000 0.0805 0.0000
# 3 28.8450 -13.2480 68.0764 0.0000 29.2853 0.0000
# 4 0.0000 0.0000 0.0000 18.7245 0.0000 27.1597
# 5 18.7541 0.0805 29.2853 0.0000 36.2143 0.0000
# 6 0.0000 0.0000 0.0000 27.1597 0.0000 -4.8228
#
#
#
# Elastic Compliance Matrix: (Units=1/GPa)
#
#
# Indices 1 2 3 4 5 6 
#
# 1 0.006884 -0.000202 -0.002182 0.000000 -0.001800 0.000000
# 2 -0.000202 0.012653 0.003857 0.000000 -0.003042 0.000000
# 3 -0.002182 0.003857 0.024354 0.000000 -0.018573 0.000000
# 4 0.000000 0.000000 0.000000 0.005825 0.000000 0.032803
# 5 -0.001800 -0.003042 -0.018573 0.000000 0.043572 0.000000
# 6 0.000000 0.000000 0.000000 0.032803 0.000000 -0.022615
#
#
# Mechanical properties :
#
#
# Convention : Reuss Voigt Hill
#
# Bulk Modulus (GPa) = 21.35049 37.56871 29.45960
# Shear Modulus (GPa) = 59.99539 29.79251 44.89395
#
# Velocity S-wave (km/s) = 5.00751 3.52871 4.33168
# Velocity P-wave (km/s) = 6.50822 5.68369 6.10988
#
# Compressibility (1/GPa) = 0.04683734
#
# Stress axis : x y z
#
# Youngs Moduli (GPa) = 145.26840 79.02956 41.06056
#
# Poissons Ratio (x) = 0.01598 0.08958
# Poissons Ratio (y) = 0.02938 -0.15837
# Poissons Ratio (z) = 0.31694 -0.30481
#
# Static dielectric constant tensor:
#      x y z
#    x 1.929990 0.000000 0.006040 
#    y 0.000000 1.946630 0.000000 
#    z 0.006040 0.000000 1.857990 
# 
# From -- ./inp_files/45908.got.cif
#   From: 2010.05.17/outbox.cif.g08.bks.cpg/sg10_23_cif.got.tgz:45908.got - 2010.06.03 11:33:40.
