data_PCOD9146284
_publ_section_title
;
Structure prediction by ZEFSAII (Michael W. Deem and Ramdas Pophale) SiO2 
 PCOD9146284
Probable space group: P 2/M
;
_chemical_formula_sum "Si O2"
_cell_formula_units_Z 32
_cell_length_a 17.821848
_cell_length_b 8.734198
_cell_length_c 29.280251
_cell_angle_alpha 90.000000
_cell_angle_beta 23.091465
_cell_angle_gamma 90.000000
_cell_volume 1787.550232
_symmetry_space_group_name_H-M "P 2/M"
_symmetry_group_IT_number 10
_symmetry_cell_setting 'monoclinic'
loop_
_space_group_symop_operation_xyz
x,y,z
-x,y,-z
-x,-y,-z
x,-y,z
loop_
_atom_site_type_symbol
_atom_site_label
_atom_site_fract_x
_atom_site_fract_y
_atom_site_fract_z
Si Si1 0.049024 0.317210 0.780818
Si Si2 0.615462 0.816179 0.666192
Si Si3 0.167399 0.315942 0.612898
Si Si4 0.050416 0.315461 0.580759
Si Si5 0.681223 0.315978 0.729364
Si Si6 0.438205 0.174495 0.588038
Si Si7 0.276600 0.816626 0.975035
Si Si8 0.187698 0.185876 0.921134
O O1 0.028841 0.500000 0.793408
O O2 0.079612 0.268199 0.710820
O O3 0.241921 0.267784 0.699385
O O4 0.868812 0.238679 0.905141
O O5 0.758924 0.751810 0.548433
O O6 0.683231 0.755351 0.677672
O O7 0.393155 0.767454 0.785262
O O8 0.620917 0.000000 0.663349
O O9 0.184665 0.500000 0.604906
O O10 0.045299 0.272639 0.636973
O O11 0.380120 0.247715 0.488987
O O12 0.060190 0.500000 0.572701
O O13 0.865069 0.267138 0.655772
O O14 0.681436 0.500000 0.725545
O O15 0.484448 0.259666 0.862278
O O16 0.500000 0.173305 0.500000
O O17 0.406089 0.000000 0.620938
O O18 0.194564 0.772257 0.970813
O O19 0.296774 0.000000 0.964349
O O20 0.183081 0.000000 0.921975
O O21 0.000000 0.243062 0.000000
#
# Coordination Sequence:
#
# PCOD9146284 Si02
#       8
#     4   4   4   4   4   4   4   4
#     4  10  19  33  54  76 102 140 178 212 256 310
#     4  10  20  33  53  80 106 135 170 209 258 315
#     4   9  19  35  52  74 105 137 174 219 261 305
#     4  10  21  36  54  76 102 134 173 219 266 310
#     4  10  20  36  56  75  99 134 174 215 262 315
#     4   9  17  30  49  73 101 133 169 209 253 302
#     4  10  20  34  54  78 103 133 172 218 262 308
#     4   8  16  32  51  73 103 134 163 199 245 297
#
# _framework density 17.901595
#
# number of rings (size 3 to 8) (size 9 to 14) (size 15 to 20)
#    0.000    2.500    0.000    3.000    0.000    6.000 
#    0.000    1.875    0.000   16.500    0.000    0.000 
#    0.000    0.000    0.000    0.000    0.000    0.000 
#
# Total GULP energy -178496.565082 kJ/mol
# GULP energy per Si atom -5578.017659 kJ/mol
# Density = 1.786085 g / cm^3
# Si number density = 17.901595 Si / 1000 Ang^3
#
#
#
# Elastic Constant Matrix: (Units=GPa)
#
#
# Indices 1 2 3 4 5 6 
#
# 1 103.9066 16.4478 59.9713 0.0000 -22.1619 0.0000
# 2 16.4478 17.2181 17.7174 0.0000 -2.8650 0.0000
# 3 59.9713 17.7174 108.8264 0.0000 -2.3875 0.0000
# 4 0.0000 0.0000 0.0000 31.5477 0.0000 -0.0432
# 5 -22.1619 -2.8650 -2.3875 0.0000 18.9973 0.0000
# 6 0.0000 0.0000 0.0000 -0.0432 0.0000 15.1909
#
#
#
# Elastic Compliance Matrix: (Units=1/GPa)
#
#
# Indices 1 2 3 4 5 6 
#
# 1 0.021367 -0.006039 -0.010293 0.000000 0.022722 0.000000
# 2 -0.006039 0.073084 -0.008507 0.000000 0.002908 0.000000
# 3 -0.010293 -0.008507 0.015999 0.000000 -0.011280 0.000000
# 4 0.000000 0.000000 0.000000 0.031698 0.000000 0.000090
# 5 0.022722 0.002908 -0.011280 0.000000 0.078168 0.000000
# 6 0.000000 0.000000 0.000000 0.000090 0.000000 0.065829
#
#
# Mechanical properties :
#
#
# Convention : Reuss Voigt Hill
#
# Bulk Modulus (GPa) = 16.45481 46.46937 31.46209
# Shear Modulus (GPa) = 14.04177 22.20148 18.12163
#
# Velocity S-wave (km/s) = 2.80373 3.52546 3.18510
# Velocity P-wave (km/s) = 4.43768 6.52583 5.58029
#
# Compressibility (1/GPa) = 0.06077250
#
# Stress axis : x y z
#
# Youngs Moduli (GPa) = 46.80063 13.68284 62.50472
#
# Poissons Ratio (x) = 0.08263 0.64338
# Poissons Ratio (y) = 0.28262 0.53172
# Poissons Ratio (z) = 0.48173 0.11640
#
# Static dielectric constant tensor:
#      x y z
#    x 1.619880 0.000000 0.004600 
#    y 0.000000 1.605360 0.000000 
#    z 0.004600 0.000000 1.596380 
# 
# From -- ./inp_files/89581.got.cif
#   From: 2010.05.17/outbox.cif.g08.bks.cpg/sg10_45_cif.got.tgz:89581.got - 2010.06.03 11:33:40.
