data_PCOD9146221
_publ_section_title
;
Structure prediction by ZEFSAII (Michael W. Deem and Ramdas Pophale) SiO2 
 PCOD9146221
Probable space group: P 2/M
;
_chemical_formula_sum "Si O2"
_cell_formula_units_Z 28
_cell_length_a 8.913716
_cell_length_b 19.454731
_cell_length_c 15.709251
_cell_angle_alpha 90.000000
_cell_angle_beta 146.649534
_cell_angle_gamma 90.000000
_cell_volume 1497.654645
_symmetry_space_group_name_H-M "P 2/M"
_symmetry_group_IT_number 10
_symmetry_cell_setting 'monoclinic'
loop_
_space_group_symop_operation_xyz
x,y,z
-x,y,-z
-x,-y,-z
x,-y,z
loop_
_atom_site_type_symbol
_atom_site_label
_atom_site_fract_x
_atom_site_fract_y
_atom_site_fract_z
Si Si1 0.276329 0.577150 0.320480
Si Si2 0.674605 0.579628 0.847406
Si Si3 0.277535 0.849813 0.325067
Si Si4 0.949453 0.713094 0.204200
Si Si5 0.706841 0.081662 0.023579
Si Si6 0.544659 0.293258 0.160295
Si Si7 0.323317 0.175184 0.155222
O O1 0.500000 0.578654 0.500000
O O2 0.151540 0.500000 0.259134
O O3 0.410188 0.587611 0.291253
O O4 0.068662 0.638376 0.239619
O O5 0.643820 0.500000 0.857776
O O6 0.514981 0.631077 0.832370
O O7 0.000000 0.595821 0.000000
O O8 0.500000 0.870055 0.500000
O O9 0.384549 0.850532 0.278874
O O10 0.170837 0.772615 0.295571
O O11 0.008665 0.896947 0.196424
O O12 0.819040 0.713378 0.236219
O O13 0.703067 0.725656 0.021326
O O14 0.686682 0.000000 0.003026
O O15 0.500000 0.103917 0.000000
O O16 0.647083 0.119574 0.906067
O O17 0.509658 0.239751 0.219993
O O18 0.000000 0.195539 0.000000
#
# Coordination Sequence:
#
# PCOD9146221 Si02
#       7
#     4   4   4   4   4   4   4
#     4  10  21  37  54  73 104 145 183 225 283 344
#     4  10  19  33  53  77 104 138 187 237 280 334
#     4  11  23  38  59  88 119 151 191 236 279 328
#     4  11  21  34  55  81 113 143 183 236 284 337
#     4  10  21  40  65  90 118 152 189 227 274 334
#     4  11  20  33  56  82 109 142 185 238 285 330
#     4  10  19  35  60  83 112 153 191 230 270 331
#
# _framework density 18.695900000000002
#
# number of rings (size 3 to 8) (size 9 to 14) (size 15 to 20)
#    0.000    1.571    4.286    2.571    0.000    3.429 
#    0.000    6.429    0.000    4.286    0.000    0.000 
#    0.000    0.000    0.000    0.000    0.000    0.000 
#
# Total GULP energy -156346.561149 kJ/mol
# GULP energy per Si atom -5583.805755 kJ/mol
# Density = 1.865335 g / cm^3
# Si number density = 18.695900 Si / 1000 Ang^3
#
#
#
# Elastic Constant Matrix: (Units=GPa)
#
#
# Indices 1 2 3 4 5 6 
#
# 1 131.1352 49.4990 31.4464 0.0000 -22.0230 0.0000
# 2 49.4990 72.8419 5.6723 0.0000 -1.4341 0.0000
# 3 31.4464 5.6723 72.3927 0.0000 -25.8331 0.0000
# 4 0.0000 0.0000 0.0000 14.9237 0.0000 -6.7594
# 5 -22.0230 -1.4341 -25.8331 0.0000 20.8438 0.0000
# 6 0.0000 0.0000 0.0000 -6.7594 0.0000 31.3337
#
#
#
# Elastic Compliance Matrix: (Units=1/GPa)
#
#
# Indices 1 2 3 4 5 6 
#
# 1 0.013132 -0.008634 -0.000517 0.000000 0.012639 0.000000
# 2 -0.008634 0.019496 -0.000993 0.000000 -0.009012 0.000000
# 3 -0.000517 -0.000993 0.024916 0.000000 0.030265 0.000000
# 4 0.000000 0.000000 0.000000 0.074263 0.000000 0.016020
# 5 0.012639 -0.009012 0.030265 0.000000 0.098220 0.000000
# 6 0.000000 0.000000 0.000000 0.016020 0.000000 0.035370
#
#
# Mechanical properties :
#
#
# Convention : Reuss Voigt Hill
#
# Bulk Modulus (GPa) = 26.84251 49.95610 38.39931
# Shear Modulus (GPa) = 16.77268 26.07039 21.42153
#
# Velocity S-wave (km/s) = 2.99846 3.73828 3.38862
# Velocity P-wave (km/s) = 5.13579 6.73879 5.99114
#
# Compressibility (1/GPa) = 0.03725433
#
# Stress axis : x y z
#
# Youngs Moduli (GPa) = 76.15239 51.29363 40.13466
#
# Poissons Ratio (x) = 0.44288 0.02077
# Poissons Ratio (y) = 0.65752 0.03984
# Poissons Ratio (z) = 0.03940 0.05092
#
# Static dielectric constant tensor:
#      x y z
#    x 1.646350 0.000000 -0.019380 
#    y 0.000000 1.653760 0.000000 
#    z -0.019380 0.000000 1.645190 
# 
# From -- ./inp_files/62358.got.cif
#   From: 2010.05.17/outbox.cif.g08.bks.cpg/sg10_32_cif.got.tgz:62358.got - 2010.06.03 11:33:40.
