data_PCOD9146129
_publ_section_title
;
Structure prediction by ZEFSAII (Michael W. Deem and Ramdas Pophale) SiO2 
 PCOD9146129
Probable space group: P 2/M
;
_chemical_formula_sum "Si O2"
_cell_formula_units_Z 28
_cell_length_a 15.399934
_cell_length_b 19.038674
_cell_length_c 5.019536
_cell_angle_alpha 90.000000
_cell_angle_beta 111.953061
_cell_angle_gamma 90.000000
_cell_volume 1364.987174
_symmetry_space_group_name_H-M "P 2/M"
_symmetry_group_IT_number 10
_symmetry_cell_setting 'monoclinic'
loop_
_space_group_symop_operation_xyz
x,y,z
-x,y,-z
-x,-y,-z
x,-y,z
loop_
_atom_site_type_symbol
_atom_site_label
_atom_site_fract_x
_atom_site_fract_y
_atom_site_fract_z
Si Si1 0.696953 0.647348 0.085144
Si Si2 0.438015 0.230936 0.169070
Si Si3 0.398509 0.418076 0.505799
Si Si4 0.105811 0.800433 0.080701
Si Si5 0.106541 0.705421 0.578968
Si Si6 0.363421 0.922266 0.084548
Si Si7 0.238785 0.922414 0.439130
O O1 0.640456 0.623532 0.283936
O O2 0.807000 0.654473 0.264975
O O3 0.656400 0.723280 0.942208
O O4 0.672397 0.594891 0.818547
O O5 0.500000 0.239220 0.500000
O O6 0.500000 0.258163 0.000000
O O7 0.419951 0.148457 0.107286
O O8 0.500000 0.396806 0.500000
O O9 0.405776 0.500000 0.586848
O O10 0.116404 0.734332 0.291434
O O11 0.175149 0.860136 0.260144
O O12 0.116777 0.771478 0.794823
O O13 0.000000 0.826456 0.000000
O O14 0.000000 0.678889 0.500000
O O15 0.274912 0.916208 0.782214
O O16 0.405378 0.000000 0.083133
O O17 0.329038 0.920949 0.349756
O O18 0.195182 0.000000 0.356594
#
# Coordination Sequence:
#
# PCOD9146129 Si02
#       7
#     4   4   4   4   4   4   4
#     4  12  22  39  65  90 124 159 197 247 295 343
#     4  12  24  36  56  86 116 148 195 248 294 345
#     4  11  24  42  65  94 128 163 196 233 288 358
#     4  10  19  33  52  78 112 146 188 244 306 358
#     4  10  22  38  60  88 117 154 196 241 292 350
#     4  10  22  38  54  73 106 153 196 237 290 352
#     4  10  19  33  52  73 100 140 193 243 293 356
#
# _framework density 20.513014999999999
#
# number of rings (size 3 to 8) (size 9 to 14) (size 15 to 20)
#    0.000    1.286    0.000    7.286    0.000    2.000 
#    0.000    0.000    0.000    7.714    0.000    0.000 
#    0.000    0.000    0.000    0.000    0.000    0.000 
#
# Total GULP energy -156439.529686 kJ/mol
# GULP energy per Si atom -5587.126060 kJ/mol
# Density = 2.046633 g / cm^3
# Si number density = 20.513015 Si / 1000 Ang^3
#
#
#
# Elastic Constant Matrix: (Units=GPa)
#
#
# Indices 1 2 3 4 5 6 
#
# 1 62.4167 36.2394 24.9857 0.0000 15.9677 0.0000
# 2 36.2394 83.9404 17.6070 0.0000 18.2030 0.0000
# 3 24.9857 17.6070 91.6809 0.0000 2.7801 0.0000
# 4 0.0000 0.0000 0.0000 24.2931 0.0000 -0.6024
# 5 15.9677 18.2030 2.7801 0.0000 35.0689 0.0000
# 6 0.0000 0.0000 0.0000 -0.6024 0.0000 19.8034
#
#
#
# Elastic Compliance Matrix: (Units=1/GPa)
#
#
# Indices 1 2 3 4 5 6 
#
# 1 0.024322 -0.008067 -0.004882 0.000000 -0.006500 0.000000
# 2 -0.008067 0.016635 -0.000848 0.000000 -0.004894 0.000000
# 3 -0.004882 -0.000848 0.012350 0.000000 0.001684 0.000000
# 4 0.000000 0.000000 0.000000 0.041195 0.000000 0.001253
# 5 -0.006500 -0.004894 0.001684 0.000000 0.033882 0.000000
# 6 0.000000 0.000000 0.000000 0.001253 0.000000 0.050535
#
#
# Mechanical properties :
#
#
# Convention : Reuss Voigt Hill
#
# Bulk Modulus (GPa) = 38.89044 43.96690 41.42867
# Shear Modulus (GPa) = 23.24676 26.44681 24.84678
#
# Velocity S-wave (km/s) = 3.37006 3.59454 3.48410
# Velocity P-wave (km/s) = 5.84321 6.22156 6.03535
#
# Compressibility (1/GPa) = 0.02571326
#
# Stress axis : x y z
#
# Youngs Moduli (GPa) = 41.11445 60.11370 80.97360
#
# Poissons Ratio (x) = 0.48493 0.39533
# Poissons Ratio (y) = 0.33167 0.06865
# Poissons Ratio (z) = 0.20073 0.05097
#
# Static dielectric constant tensor:
#      x y z
#    x 1.732940 0.000000 0.009040 
#    y 0.000000 1.725970 0.000000 
#    z 0.009040 0.000000 1.707560 
# 
# From -- ./inp_files/9844.got.cif
#   From: 2010.05.17/outbox.cif.g08.bks.cpg/sg10_5_cif.got.tgz:9844.got - 2010.06.03 11:33:40.
