data_PCOD9146866
_publ_section_title
;
Structure prediction by ZEFSAII (Michael W. Deem and Ramdas Pophale) SiO2 
 PCOD9146866
Probable space group: P 2/M
;
_chemical_formula_sum "Si O2"
_cell_formula_units_Z 32
_cell_length_a 10.473421
_cell_length_b 19.111647
_cell_length_c 12.489394
_cell_angle_alpha 90.000000
_cell_angle_beta 51.334253
_cell_angle_gamma 90.000000
_cell_volume 1951.956356
_symmetry_space_group_name_H-M "P 2/M"
_symmetry_group_IT_number 10
_symmetry_cell_setting 'monoclinic'
loop_
_space_group_symop_operation_xyz
x,y,z
-x,y,-z
-x,-y,-z
x,-y,z
loop_
_atom_site_type_symbol
_atom_site_label
_atom_site_fract_x
_atom_site_fract_y
_atom_site_fract_z
Si Si1 0.769857 0.583595 0.844546
Si Si2 0.470573 0.416618 0.839944
Si Si3 0.552780 0.831838 0.593709
Si Si4 0.029427 0.083382 0.160056
Si Si5 0.563828 0.335126 0.584388
Si Si6 0.269857 0.916405 0.844546
Si Si7 0.936172 0.164874 0.415612
Si Si8 0.052780 0.331838 0.593709
O O1 0.800424 0.500000 0.826171
O O2 0.634377 0.598750 0.823483
O O3 0.931583 0.626985 0.735254
O O4 0.681725 0.600773 0.002985
O O5 0.468030 0.500000 0.823457
O O6 0.476864 0.376154 0.725659
O O7 0.500000 0.849359 0.500000
O O8 0.537262 0.748066 0.614695
O O9 0.431584 0.873015 0.735254
O O10 0.742371 0.849621 0.510989
O O11 0.023136 0.123846 0.274341
O O12 0.865623 0.098751 0.176517
O O13 0.031970 0.000000 0.176543
O O14 0.181725 0.100773 0.002985
O O15 0.500000 0.353574 0.500000
O O16 0.757629 0.349621 0.489011
O O17 0.300423 0.000000 0.826171
O O18 0.000000 0.146426 0.500000
O O19 0.962738 0.248066 0.385305
O O20 0.000000 0.349359 0.500000
#
# Coordination Sequence:
#
# PCOD9146866 Si02
#       8
#     4   4   4   4   4   4   4   4
#     4   9  18  33  56  80 100 132 179 219 249 295
#     4   9  18  34  54  78 106 134 170 216 259 301
#     4  10  19  34  54  77 103 137 178 213 246 302
#     4   9  18  34  54  78 106 134 170 216 259 301
#     4  10  21  34  51  77 109 138 167 210 263 308
#     4   9  18  33  56  80 100 132 179 219 249 295
#     4  10  21  34  51  77 109 138 167 210 263 308
#     4  10  19  34  54  77 103 137 178 213 246 302
#
# _framework density 16.393808
#
# number of rings (size 3 to 8) (size 9 to 14) (size 15 to 20)
#    0.000    2.500    2.500    1.500    0.000    3.000 
#    0.000    1.250    0.000    3.000    0.000    0.000 
#    0.000    0.000    0.000    0.000    0.000    0.000 
#
# Total GULP energy -178436.657324 kJ/mol
# GULP energy per Si atom -5576.145541 kJ/mol
# Density = 1.635650 g / cm^3
# Si number density = 16.393808 Si / 1000 Ang^3
#
#
#
# Elastic Constant Matrix: (Units=GPa)
#
#
# Indices 1 2 3 4 5 6 
#
# 1 104.0759 39.2605 73.0177 0.0000 7.4905 0.0000
# 2 39.2605 36.5163 70.7511 0.0000 1.7620 0.0000
# 3 73.0177 70.7511 161.0143 0.0000 5.9783 0.0000
# 4 0.0000 0.0000 0.0000 48.7575 0.0000 0.2356
# 5 7.4905 1.7620 5.9783 0.0000 30.5682 0.0000
# 6 0.0000 0.0000 0.0000 0.2356 0.0000 16.2363
#
#
#
# Elastic Compliance Matrix: (Units=1/GPa)
#
#
# Indices 1 2 3 4 5 6 
#
# 1 0.016580 -0.022438 0.002462 0.000000 -0.003251 0.000000
# 2 -0.022438 0.215449 -0.084854 0.000000 0.009675 0.000000
# 3 0.002462 -0.084854 0.042529 0.000000 -0.004030 0.000000
# 4 0.000000 0.000000 0.000000 0.020511 0.000000 -0.000298
# 5 -0.003251 0.009675 -0.004030 0.000000 0.033741 0.000000
# 6 0.000000 0.000000 0.000000 -0.000298 0.000000 0.061595
#
#
# Mechanical properties :
#
#
# Convention : Reuss Voigt Hill
#
# Bulk Modulus (GPa) = 15.40903 74.18501 44.79702
# Shear Modulus (GPa) = 8.04250 27.01754 17.53002
#
# Velocity S-wave (km/s) = 2.21731 4.06400 3.27357
# Velocity P-wave (km/s) = 3.99687 8.20802 6.45548
#
# Compressibility (1/GPa) = 0.06489703
#
# Stress axis : x y z
#
# Youngs Moduli (GPa) = 60.31480 4.64148 23.51310
#
# Poissons Ratio (x) = 0.10415 -0.05788
# Poissons Ratio (y) = 1.35335 1.99518
# Poissons Ratio (z) = -0.14847 0.39385
#
# Static dielectric constant tensor:
#      x y z
#    x 1.540480 0.000000 -0.000920 
#    y 0.000000 1.534960 0.000000 
#    z -0.000920 0.000000 1.534950 
# 
# From -- ./inp_files/43600.got.cif
#   From: 2010.05.17/outbox.cif.g08.bks.cpg/sg10_22_cif.got.tgz:43600.got - 2010.06.03 11:33:40.
