data_PCOD9146424
_publ_section_title
;
Structure prediction by ZEFSAII (Michael W. Deem and Ramdas Pophale) SiO2 
 PCOD9146424
Probable space group: P 2/M
;
_chemical_formula_sum "Si O2"
_cell_formula_units_Z 32
_cell_length_a 21.788218
_cell_length_b 9.369617
_cell_length_c 28.154556
_cell_angle_alpha 90.000000
_cell_angle_beta 165.392677
_cell_angle_gamma 90.000000
_cell_volume 1449.523730
_symmetry_space_group_name_H-M "P 2/M"
_symmetry_group_IT_number 10
_symmetry_cell_setting 'monoclinic'
loop_
_space_group_symop_operation_xyz
x,y,z
-x,y,-z
-x,-y,-z
x,-y,z
loop_
_atom_site_type_symbol
_atom_site_label
_atom_site_fract_x
_atom_site_fract_y
_atom_site_fract_z
Si Si1 0.649007 0.160211 0.510561
Si Si2 0.909296 0.839299 0.880455
Si Si3 0.880892 0.163112 0.344116
Si Si4 0.209930 0.663259 0.296803
Si Si5 0.389346 0.337151 0.614369
Si Si6 0.479855 0.334941 0.864846
Si Si7 0.463993 0.834763 0.762591
Si Si8 0.817938 0.656626 0.209408
O O1 0.380886 0.145850 0.332085
O O2 0.806015 0.243725 0.667287
O O3 0.603958 0.251346 0.429614
O O4 0.741374 0.000000 0.569463
O O5 0.936180 0.735761 0.855873
O O6 0.012628 0.000000 0.950591
O O7 0.000000 0.786861 0.000000
O O8 0.762477 0.262990 0.295139
O O9 0.773646 0.220613 0.214230
O O10 0.171568 0.169466 0.554537
O O11 0.814285 0.000000 0.304740
O O12 0.500000 0.659857 0.500000
O O13 0.134778 0.500000 0.248362
O O14 0.481579 0.500000 0.679505
O O15 0.504419 0.248192 0.743719
O O16 0.102989 0.344242 0.411798
O O17 0.436870 0.500000 0.820054
O O18 0.571435 0.248665 0.887841
O O19 0.672306 0.327581 0.051810
O O20 0.536939 0.000000 0.814332
O O21 0.762266 0.500000 0.189232
#
# Coordination Sequence:
#
# PCOD9146424 Si02
#       8
#     4   4   4   4   4   4   4   4
#     4  10  19  33  55  79 103 134 172 209 246 294
#     4   9  18  33  53  79 111 141 167 202 250 297
#     4  10  20  33  51  75 101 130 165 205 252 307
#     4   9  17  30  50  77 106 135 169 206 243 285
#     4  10  20  37  57  74  97 132 173 211 251 299
#     4  11  21  33  51  75 101 129 164 207 257 307
#     4  10  21  36  52  73 102 133 168 209 252 301
#     4   9  20  36  52  72  99 130 165 209 255 300
#
# _framework density 22.076217
#
# number of rings (size 3 to 8) (size 9 to 14) (size 15 to 20)
#    0.000    2.250    0.000    3.000    0.000    8.250 
#    0.000    1.250    0.000    0.000    0.000    0.000 
#    0.000    0.000    0.000    0.000    0.000    0.000 
#
# Total GULP energy -178803.024890 kJ/mol
# GULP energy per Si atom -5587.594528 kJ/mol
# Density = 2.202597 g / cm^3
# Si number density = 22.076217 Si / 1000 Ang^3
#
#
#
# Elastic Constant Matrix: (Units=GPa)
#
#
# Indices 1 2 3 4 5 6 
#
# 1 107.3955 87.4986 11.4744 0.0000 -38.4080 0.0000
# 2 87.4986 191.9792 22.9943 0.0000 -35.9148 0.0000
# 3 11.4744 22.9943 52.3331 0.0000 -11.2693 0.0000
# 4 0.0000 0.0000 0.0000 18.5307 0.0000 -10.0410
# 5 -38.4080 -35.9148 -11.2693 0.0000 43.1937 0.0000
# 6 0.0000 0.0000 0.0000 -10.0410 0.0000 27.0056
#
#
#
# Elastic Compliance Matrix: (Units=1/GPa)
#
#
# Indices 1 2 3 4 5 6 
#
# 1 0.018524 -0.006452 0.001235 0.000000 0.011428 0.000000
# 2 -0.006452 0.008562 -0.002172 0.000000 0.000815 0.000000
# 3 0.001235 -0.002172 0.020809 0.000000 0.004721 0.000000
# 4 0.000000 0.000000 0.000000 0.067580 0.000000 0.025127
# 5 0.011428 0.000815 0.004721 0.000000 0.035223 0.000000
# 6 0.000000 0.000000 0.000000 0.025127 0.000000 0.046372
#
#
# Mechanical properties :
#
#
# Convention : Reuss Voigt Hill
#
# Bulk Modulus (GPa) = 30.19768 66.18247 48.19008
# Shear Modulus (GPa) = 22.43289 33.06203 27.74746
#
# Velocity S-wave (km/s) = 3.19118 3.87412 3.54912
# Velocity P-wave (km/s) = 5.22367 7.07502 6.21863
#
# Compressibility (1/GPa) = 0.03311513
#
# Stress axis : x y z
#
# Youngs Moduli (GPa) = 53.98518 116.78981 48.05722
#
# Poissons Ratio (x) = 0.75358 -0.05933
# Poissons Ratio (y) = 0.34834 0.10437
# Poissons Ratio (z) = -0.06665 0.25365
#
# Static dielectric constant tensor:
#      x y z
#    x 1.801230 0.000000 0.021620 
#    y 0.000000 1.795850 0.000000 
#    z 0.021620 0.000000 1.837810 
# 
# From -- ./inp_files/93708.got.cif
#   From: 2010.05.17/outbox.cif.g08.bks.cpg/sg10_47_cif.got.tgz:93708.got - 2010.06.03 11:33:40.
