data_PCOD9146777
_publ_section_title
;
Structure prediction by ZEFSAII (Michael W. Deem and Ramdas Pophale) SiO2 
 PCOD9146777
Probable space group: P 2/M
;
_chemical_formula_sum "Si O2"
_cell_formula_units_Z 24
_cell_length_a 5.131544
_cell_length_b 21.682367
_cell_length_c 14.035250
_cell_angle_alpha 90.000000
_cell_angle_beta 127.211632
_cell_angle_gamma 90.000000
_cell_volume 1243.684024
_symmetry_space_group_name_H-M "P 2/M"
_symmetry_group_IT_number 10
_symmetry_cell_setting 'monoclinic'
loop_
_space_group_symop_operation_xyz
x,y,z
-x,y,-z
-x,-y,-z
x,-y,z
loop_
_atom_site_type_symbol
_atom_site_label
_atom_site_fract_x
_atom_site_fract_y
_atom_site_fract_z
Si Si1 0.390845 0.000000 0.085301
Si Si2 0.610902 0.367973 0.915333
Si Si3 0.393825 0.567932 0.586411
Si Si4 0.606402 0.864308 0.913124
Si Si5 0.429203 0.702799 0.371461
Si Si6 0.395413 0.500000 0.087406
Si Si7 0.721051 0.252383 0.253962
O O1 0.489412 0.067108 0.145897
O O2 0.500000 0.000000 0.000000
O O3 0.000000 0.000000 0.000000
O O4 0.485276 0.434089 0.847114
O O5 0.490096 0.308439 0.834612
O O6 0.500000 0.363612 0.000000
O O7 0.000000 0.369348 0.000000
O O8 0.500000 0.564077 0.500000
O O9 0.470972 0.500000 0.646152
O O10 0.566755 0.630605 0.659816
O O11 0.000000 0.577023 0.500000
O O12 0.432422 0.811423 0.814365
O O13 0.500000 0.859242 0.000000
O O14 0.000000 0.857836 0.000000
O O15 0.500000 0.702504 0.500000
O O16 0.684140 0.737760 0.359416
O O17 0.078682 0.735781 0.289408
O O18 0.500000 0.500000 0.000000
O O19 0.000000 0.500000 0.000000
#
# Coordination Sequence:
#
# PCOD9146777 Si02
#       7
#     2   4   4   4   4   2   4
#     4   8  16  30  52  80 117 150 169 200 260 318
#     4  10  19  34  51  73 101 131 165 210 256 312
#     4   9  17  33  55  71  90 125 167 223 288 327
#     4  10  19  34  55  86 119 145 173 213 259 322
#     4  11  23  39  52  74 105 139 181 230 272 322
#     4   8  16  30  48  64  93 132 161 196 246 296
#     4  12  22  34  55  81 103 141 179 218 270 322
#
# _framework density 19.297507
#
# number of rings (size 3 to 8) (size 9 to 14) (size 15 to 20)
#    0.000    2.000    0.000    5.500    0.000    0.000 
#    3.000    0.000    0.000    0.000    0.000    3.500 
#    0.000    0.000    0.000    0.000    0.000    0.000 
#
# Total GULP energy -133891.076591 kJ/mol
# GULP energy per Si atom -5578.794858 kJ/mol
# Density = 1.925359 g / cm^3
# Si number density = 19.297507 Si / 1000 Ang^3
#
#
#
# Elastic Constant Matrix: (Units=GPa)
#
#
# Indices 1 2 3 4 5 6 
#
# 1 146.8640 21.8511 13.6284 0.0000 -5.4966 0.0000
# 2 21.8511 193.8289 48.0392 0.0000 -0.9573 0.0000
# 3 13.6284 48.0392 35.0559 0.0000 -8.8452 0.0000
# 4 0.0000 0.0000 0.0000 14.6367 0.0000 5.2304
# 5 -5.4966 -0.9573 -8.8452 0.0000 28.5704 0.0000
# 6 0.0000 0.0000 0.0000 5.2304 0.0000 24.1549
#
#
#
# Elastic Compliance Matrix: (Units=1/GPa)
#
#
# Indices 1 2 3 4 5 6 
#
# 1 0.007079 -0.000232 -0.002269 0.000000 0.000652 0.000000
# 2 -0.000232 0.008120 -0.011910 0.000000 -0.003460 0.000000
# 3 -0.002269 -0.011910 0.049376 0.000000 0.014451 0.000000
# 4 0.000000 0.000000 0.000000 0.074051 0.000000 -0.016035
# 5 0.000652 -0.003460 0.014451 0.000000 0.039485 0.000000
# 6 0.000000 0.000000 0.000000 -0.016035 0.000000 0.044872
#
#
# Mechanical properties :
#
#
# Convention : Reuss Voigt Hill
#
# Bulk Modulus (GPa) = 27.97124 60.30957 44.14041
# Shear Modulus (GPa) = 18.95935 32.95441 25.95688
#
# Velocity S-wave (km/s) = 3.13785 4.13692 3.67153
# Velocity P-wave (km/s) = 5.25874 7.35793 6.39506
#
# Compressibility (1/GPa) = 0.03575101
#
# Stress axis : x y z
#
# Youngs Moduli (GPa) = 141.27205 123.15002 20.25295
#
# Poissons Ratio (x) = 0.02862 0.04595
# Poissons Ratio (y) = 0.03284 0.24122
# Poissons Ratio (z) = 0.32054 1.46675
#
# Static dielectric constant tensor:
#      x y z
#    x 1.684760 0.000000 -0.048320 
#    y 0.000000 1.714380 0.000000 
#    z -0.048320 0.000000 1.970990 
# 
# From -- ./inp_files/59590.got.cif
#   From: 2010.05.17/outbox.cif.g08.bks.cpg/sg10_30_cif.got.tgz:59590.got - 2010.06.03 11:33:40.
