data_PCOD9146247
_publ_section_title
;
Structure prediction by ZEFSAII (Michael W. Deem and Ramdas Pophale) SiO2 
 PCOD9146247
Probable space group: P 2/M
;
_chemical_formula_sum "Si O2"
_cell_formula_units_Z 32
_cell_length_a 11.306954
_cell_length_b 7.461933
_cell_length_c 22.634180
_cell_angle_alpha 90.000000
_cell_angle_beta 50.768648
_cell_angle_gamma 90.000000
_cell_volume 1479.239189
_symmetry_space_group_name_H-M "P 2/M"
_symmetry_group_IT_number 10
_symmetry_cell_setting 'monoclinic'
loop_
_space_group_symop_operation_xyz
x,y,z
-x,y,-z
-x,-y,-z
x,-y,z
loop_
_atom_site_type_symbol
_atom_site_label
_atom_site_fract_x
_atom_site_fract_y
_atom_site_fract_z
Si Si1 0.032259 0.783392 0.667852
Si Si2 0.269735 0.718802 0.787915
Si Si3 0.339732 0.281037 0.019976
Si Si4 0.911833 0.203083 0.584103
Si Si5 0.594877 0.706978 0.639331
Si Si6 0.820060 0.717604 0.052788
Si Si7 0.963969 0.706367 0.821936
Si Si8 0.648171 0.216371 0.487163
O O1 0.979877 0.711573 0.746858
O O2 0.204275 0.731451 0.596599
O O3 0.940056 0.719165 0.639616
O O4 0.023140 0.000000 0.675842
O O5 0.269625 0.500000 0.784574
O O6 0.426493 0.778093 0.707305
O O7 0.257710 0.768222 0.860528
O O8 0.117229 0.784190 0.802821
O O9 0.349201 0.500000 0.015542
O O10 0.197561 0.220447 0.105531
O O11 0.500000 0.222530 0.000000
O O12 0.281143 0.226470 0.972319
O O13 0.733697 0.198618 0.628005
O O14 0.000000 0.286673 0.500000
O O15 0.976090 0.000000 0.567567
O O16 0.599080 0.500000 0.656635
O O17 0.637290 0.717685 0.557169
O O18 0.825558 0.500000 0.048428
O O19 0.000000 0.774850 0.000000
O O20 0.961356 0.500000 0.843248
O O21 0.500000 0.278235 0.500000
O O22 0.648584 0.000000 0.490294
#
# Coordination Sequence:
#
# PCOD9146247 Si02
#       8
#     4   4   4   4   4   4   4   4
#     4  10  21  36  55  77 101 138 181 219 265 317
#     4   9  18  31  48  77 113 144 173 215 269 323
#     4   9  17  28  47  78 110 140 179 225 265 310
#     4  10  20  39  59  71  97 141 185 222 257 316
#     4  11  22  33  51  81 113 135 167 224 280 321
#     4   9  14  26  48  69  99 147 187 209 253 326
#     4  10  19  33  53  79 112 142 173 218 273 321
#     4  10  20  36  56  75 100 140 188 223 254 314
#
# _framework density 21.632743999999999
#
# number of rings (size 3 to 8) (size 9 to 14) (size 15 to 20)
#    0.000    2.250    2.500    1.125    0.000    2.500 
#    0.000    3.125    0.000    0.375    0.000    3.500 
#    0.000    0.000    0.000    0.000    0.000    0.000 
#
# Total GULP energy -178575.014110 kJ/mol
# GULP energy per Si atom -5580.469191 kJ/mol
# Density = 2.158351 g / cm^3
# Si number density = 21.632744 Si / 1000 Ang^3
#
#
#
# Elastic Constant Matrix: (Units=GPa)
#
#
# Indices 1 2 3 4 5 6 
#
# 1 173.0998 -0.4767 61.7674 0.0000 2.8368 0.0000
# 2 -0.4767 59.7515 -5.5076 0.0000 -4.0843 0.0000
# 3 61.7674 -5.5076 131.0438 0.0000 2.9531 0.0000
# 4 0.0000 0.0000 0.0000 22.8018 0.0000 -7.9220
# 5 2.8368 -4.0843 2.9531 0.0000 41.2023 0.0000
# 6 0.0000 0.0000 0.0000 -7.9220 0.0000 4.6272
#
#
#
# Elastic Compliance Matrix: (Units=1/GPa)
#
#
# Indices 1 2 3 4 5 6 
#
# 1 0.006952 -0.000265 -0.003282 0.000000 -0.000270 0.000000
# 2 -0.000265 0.016920 0.000799 0.000000 0.001638 0.000000
# 3 -0.003282 0.000799 0.009220 0.000000 -0.000356 0.000000
# 4 0.000000 0.000000 0.000000 0.108238 0.000000 0.185309
# 5 -0.000270 0.001638 -0.000356 0.000000 0.024477 0.000000
# 6 0.000000 0.000000 0.000000 0.185309 0.000000 0.533371
#
#
# Mechanical properties :
#
#
# Convention : Reuss Voigt Hill
#
# Bulk Modulus (GPa) = 36.23858 52.82902 44.53380
# Shear Modulus (GPa) = 7.00407 34.26706 20.63556
#
# Velocity S-wave (km/s) = 1.80132 3.98431 3.09188
# Velocity P-wave (km/s) = 4.59504 6.75575 5.77731
#
# Compressibility (1/GPa) = 0.02759490
#
# Stress axis : x y z
#
# Youngs Moduli (GPa) = 143.84876 59.10335 108.46565
#
# Poissons Ratio (x) = 0.01569 0.35596
# Poissons Ratio (y) = 0.03819 -0.08670
# Poissons Ratio (z) = 0.47208 -0.04724
#
# Static dielectric constant tensor:
#      x y z
#    x 1.783440 0.000000 -0.010550 
#    y 0.000000 1.861010 0.000000 
#    z -0.010550 0.000000 1.762920 
# 
# From -- ./inp_files/83594.got.cif
#   From: 2010.05.17/outbox.cif.g08.bks.cpg/sg10_42_cif.got.tgz:83594.got - 2010.06.03 11:33:40.
