data_PCOD9146050
_publ_section_title
;
Structure prediction by ZEFSAII (Michael W. Deem and Ramdas Pophale) SiO2 
 PCOD9146050
Probable space group: P 2/M
;
_chemical_formula_sum "Si O2"
_cell_formula_units_Z 24
_cell_length_a 23.936500
_cell_length_b 7.352565
_cell_length_c 11.188841
_cell_angle_alpha 90.000000
_cell_angle_beta 30.743732
_cell_angle_gamma 90.000000
_cell_volume 1006.641139
_symmetry_space_group_name_H-M "P 2/M"
_symmetry_group_IT_number 10
_symmetry_cell_setting 'monoclinic'
loop_
_space_group_symop_operation_xyz
x,y,z
-x,y,-z
-x,-y,-z
x,-y,z
loop_
_atom_site_type_symbol
_atom_site_label
_atom_site_fract_x
_atom_site_fract_y
_atom_site_fract_z
Si Si1 0.248294 0.720449 0.298142
Si Si2 0.184681 0.277980 0.909903
Si Si3 0.503752 0.204242 0.130349
Si Si4 0.413900 0.712637 0.559396
Si Si5 0.963250 0.278896 0.437794
Si Si6 0.125725 0.278993 0.763542
O O1 0.258938 0.500000 0.275197
O O2 0.159165 0.779120 0.365254
O O3 0.189810 0.775044 0.528523
O O4 0.368608 0.795760 0.071169
O O5 0.184754 0.500000 0.916991
O O6 0.289755 0.213134 0.790062
O O7 0.192797 0.226284 0.756810
O O8 0.063061 0.219957 0.170738
O O9 0.449744 0.278897 0.352781
O O10 0.460026 0.000000 0.197521
O O11 0.500000 0.285451 0.000000
O O12 0.500000 0.787307 0.500000
O O13 0.404170 0.500000 0.607723
O O14 0.960489 0.500000 0.434734
O O15 0.000000 0.225396 0.500000
O O16 0.120896 0.500000 0.770050
O O17 0.000000 0.217401 0.000000
#
# Coordination Sequence:
#
# PCOD9146050 Si02
#       6
#     4   4   4   4   4   4
#     4  10  19  32  57  86 111 142 187 240 291 345
#     4   9  16  28  47  76 114 143 171 222 283 343
#     4  11  25  43  60  80 115 162 207 246 291 348
#     4  10  22  38  61  92 119 147 193 248 297 348
#     4   9  17  27  46  80 116 146 174 219 287 350
#     4   9  14  24  44  76 109 135 169 217 277 337
#
# _framework density 23.841664000000002
#
# number of rings (size 3 to 8) (size 9 to 14) (size 15 to 20)
#    0.000    2.333    1.667    1.500    2.333    3.000 
#    0.000    0.000    0.000    2.000    0.000    0.000 
#    0.000    0.000    0.000    0.000    0.000    0.000 
#
# Total GULP energy -133930.576125 kJ/mol
# GULP energy per Si atom -5580.440672 kJ/mol
# Density = 2.378740 g / cm^3
# Si number density = 23.841664 Si / 1000 Ang^3
#
#
#
# Elastic Constant Matrix: (Units=GPa)
#
#
# Indices 1 2 3 4 5 6 
#
# 1 138.4313 -3.6919 17.8236 0.0000 -29.8612 0.0000
# 2 -3.6919 84.6978 -11.1819 0.0000 -3.2359 0.0000
# 3 17.8236 -11.1819 71.5495 0.0000 -31.7764 0.0000
# 4 0.0000 0.0000 0.0000 22.4648 0.0000 -15.3703
# 5 -29.8612 -3.2359 -31.7764 0.0000 43.2327 0.0000
# 6 0.0000 0.0000 0.0000 -15.3703 0.0000 2.0448
#
#
#
# Elastic Compliance Matrix: (Units=1/GPa)
#
#
# Indices 1 2 3 4 5 6 
#
# 1 0.008559 0.000752 0.000944 0.000000 0.006662 0.000000
# 2 0.000752 0.012467 0.003572 0.000000 0.004078 0.000000
# 3 0.000944 0.003572 0.021836 0.000000 0.016969 0.000000
# 4 0.000000 0.000000 0.000000 -0.010745 0.000000 -0.080765
# 5 0.006662 0.004078 0.016969 0.000000 0.040510 0.000000
# 6 0.000000 0.000000 0.000000 -0.080765 0.000000 -0.118043
#
#
# Mechanical properties :
#
#
# Convention : Reuss Voigt Hill
#
# Bulk Modulus (GPa) = 18.72680 33.39759 26.06219
# Shear Modulus (GPa) = -131.04778 32.99706 -49.02536
#
# Velocity S-wave (km/s) = -7.42194 3.72426 -4.53955
# Velocity P-wave (km/s) = 8.09785 5.70368 4.06468
#
# Compressibility (1/GPa) = 0.05339941
#
# Stress axis : x y z
#
# Youngs Moduli (GPa) = 116.82995 80.21243 45.79680
#
# Poissons Ratio (x) = -0.06034 -0.04324
# Poissons Ratio (y) = -0.08789 -0.16360
# Poissons Ratio (z) = -0.11031 -0.28654
#
# Static dielectric constant tensor:
#      x y z
#    x 1.947700 0.000000 0.024130 
#    y 0.000000 1.971800 0.000000 
#    z 0.024130 0.000000 1.920440 
# 
# From -- ./inp_files/56540.got.cif
#   From: 2010.05.17/outbox.cif.g08.bks.cpg/sg10_29_cif.got.tgz:56540.got - 2010.06.03 11:33:40.
