data_PCOD9146910
_publ_section_title
;
Structure prediction by ZEFSAII (Michael W. Deem and Ramdas Pophale) SiO2 
 PCOD9146910
Probable space group: P 2/M
;
_chemical_formula_sum "Si O2"
_cell_formula_units_Z 32
_cell_length_a 22.994784
_cell_length_b 8.704506
_cell_length_c 29.073825
_cell_angle_alpha 90.000000
_cell_angle_beta 161.499179
_cell_angle_gamma 90.000000
_cell_volume 1846.590849
_symmetry_space_group_name_H-M "P 2/M"
_symmetry_group_IT_number 10
_symmetry_cell_setting 'monoclinic'
loop_
_space_group_symop_operation_xyz
x,y,z
-x,y,-z
-x,-y,-z
x,-y,z
loop_
_atom_site_type_symbol
_atom_site_label
_atom_site_fract_x
_atom_site_fract_y
_atom_site_fract_z
Si Si1 0.992574 0.684212 0.671588
Si Si2 0.994134 0.315781 0.818209
Si Si3 0.999089 0.814214 0.574435
Si Si4 0.704125 0.815175 0.277782
Si Si5 0.000420 0.185956 0.924980
Si Si6 0.285776 0.184849 0.464290
Si Si7 0.701721 0.315578 0.026599
Si Si8 0.706196 0.813405 0.779592
O O1 0.979420 0.500000 0.663222
O O2 0.823400 0.754126 0.573217
O O3 0.997607 0.742367 0.623481
O O4 0.175880 0.729582 0.837367
O O5 0.981350 0.500000 0.807244
O O6 0.824323 0.246261 0.662465
O O7 0.999799 0.257004 0.874269
O O8 0.176770 0.270315 0.926633
O O9 0.176659 0.768688 0.677421
O O10 0.822535 0.768952 0.411377
O O11 0.998923 0.000000 0.578004
O O12 0.698818 0.000000 0.273775
O O13 0.499862 0.752782 0.124496
O O14 0.823532 0.231999 0.822770
O O15 0.000304 0.000000 0.921275
O O16 0.177099 0.232226 0.087963
O O17 0.496671 0.237877 0.622371
O O18 0.281906 0.000000 0.461309
O O19 0.687504 0.500000 0.015956
O O20 0.705236 0.000000 0.778891
#
# Coordination Sequence:
#
# PCOD9146910 Si02
#       8
#     4   4   4   4   4   4   4   4
#     4  10  21  36  52  75 105 136 168 207 251 300
#     4  10  21  36  50  73 107 138 168 207 251 300
#     4   9  19  36  54  76 104 133 165 207 252 298
#     4   9  19  35  55  77 102 130 168 212 250 291
#     4   9  17  34  56  76 100 133 169 209 254 302
#     4  10  19  34  55  77 100 132 171 211 252 298
#     4   9  20  36  51  70 102 136 168 206 251 300
#     4   8  17  33  54  78 102 128 168 215 255 297
#
# _framework density 17.329231
#
# number of rings (size 3 to 8) (size 9 to 14) (size 15 to 20)
#    0.000    2.750    0.000    3.375    0.000    6.000 
#    0.000   13.750    0.000    0.000    0.000    0.000 
#    0.000    0.000    0.000    0.000    0.000    0.000 
#
# Total GULP energy -178457.706673 kJ/mol
# GULP energy per Si atom -5576.803334 kJ/mol
# Density = 1.728979 g / cm^3
# Si number density = 17.329231 Si / 1000 Ang^3
#
#
#
# Elastic Constant Matrix: (Units=GPa)
#
#
# Indices 1 2 3 4 5 6 
#
# 1 182.7959 45.6252 122.5428 0.0000 -17.2708 0.0000
# 2 45.6252 34.6586 43.7397 0.0000 -0.6490 0.0000
# 3 122.5428 43.7397 187.3730 0.0000 19.1256 0.0000
# 4 0.0000 0.0000 0.0000 -28.7571 0.0000 -23.2788
# 5 -17.2708 -0.6490 19.1256 0.0000 19.1209 0.0000
# 6 0.0000 0.0000 0.0000 -23.2788 0.0000 0.7453
#
#
#
# Elastic Compliance Matrix: (Units=1/GPa)
#
#
# Indices 1 2 3 4 5 6 
#
# 1 0.020788 -0.007390 -0.015326 0.000000 0.033856 0.000000
# 2 -0.007390 0.046247 -0.006060 0.000000 0.000956 0.000000
# 3 -0.015326 -0.006060 0.020280 0.000000 -0.034334 0.000000
# 4 0.000000 0.000000 0.000000 -0.001323 0.000000 -0.041323
# 5 0.033856 0.000956 -0.034334 0.000000 0.117254 0.000000
# 6 0.000000 0.000000 0.000000 -0.041323 0.000000 0.051048
#
#
# Mechanical properties :
#
#
# Convention : Reuss Voigt Hill
#
# Bulk Modulus (GPa) = 33.59995 92.07144 62.83570
# Shear Modulus (GPa) = 15.53913 11.08315 13.31114
#
# Velocity S-wave (km/s) = 2.99774 2.53170 2.77453
# Velocity P-wave (km/s) = 5.60475 7.86079 6.82661
#
# Compressibility (1/GPa) = 0.02976195
#
# Stress axis : x y z
#
# Youngs Moduli (GPa) = 48.10372 21.62282 49.31049
#
# Poissons Ratio (x) = 0.15980 0.75575
# Poissons Ratio (y) = 0.35550 0.29883
# Poissons Ratio (z) = 0.73726 0.13104
#
# Static dielectric constant tensor:
#      x y z
#    x 1.564580 0.000000 0.004440 
#    y 0.000000 1.584480 0.000000 
#    z 0.004440 0.000000 1.576800 
# 
# From -- ./inp_files/93807.got.cif
#   From: 2010.05.17/outbox.cif.g08.bks.cpg/sg10_47_cif.got.tgz:93807.got - 2010.06.03 11:33:40.
