data_PCOD9146226
_publ_section_title
;
Structure prediction by ZEFSAII (Michael W. Deem and Ramdas Pophale) SiO2 
 PCOD9146226
Probable space group: P 2/M
;
_chemical_formula_sum "Si O2"
_cell_formula_units_Z 28
_cell_length_a 24.430018
_cell_length_b 11.832082
_cell_length_c 12.516592
_cell_angle_alpha 90.000000
_cell_angle_beta 29.283375
_cell_angle_gamma 90.000000
_cell_volume 1769.680286
_symmetry_space_group_name_H-M "P 2/M"
_symmetry_group_IT_number 10
_symmetry_cell_setting 'monoclinic'
loop_
_space_group_symop_operation_xyz
x,y,z
-x,y,-z
-x,-y,-z
x,-y,z
loop_
_atom_site_type_symbol
_atom_site_label
_atom_site_fract_x
_atom_site_fract_y
_atom_site_fract_z
Si Si1 0.114862 0.135539 0.655414
Si Si2 0.895472 0.259185 0.950622
Si Si3 0.876357 0.134483 0.761078
Si Si4 0.513791 0.134483 0.848774
Si Si5 0.184534 0.500000 0.654333
Si Si6 0.270378 0.863083 0.188864
Si Si7 0.976599 0.500000 0.862269
Si Si8 0.258434 0.740815 0.587659
O O1 0.192829 0.168270 0.421511
O O2 0.172512 0.186769 0.661606
O O3 0.993371 0.186769 0.840748
O O4 0.109899 0.000000 0.670303
O O5 0.868665 0.202646 0.883545
O O6 0.944750 0.385567 0.855956
O O7 0.790515 0.262184 0.209485
O O8 0.787172 0.172030 0.823516
O O9 0.000000 0.147966 0.500000
O O10 0.862011 0.000000 0.806362
O O11 0.620874 0.202646 0.626915
O O12 0.530383 0.000000 0.801245
O O13 0.500000 0.147966 0.000000
O O14 0.397860 0.172029 0.991452
O O15 0.254545 0.614433 0.546161
O O16 0.103939 0.500000 0.688184
O O17 0.100120 0.500000 0.899880
O O18 0.270697 0.000000 0.187907
#
# Coordination Sequence:
#
# PCOD9146226 Si02
#       8
#     4   4   4   4   2   4   2   4
#     4  11  19  29  51  81 108 132 163 213 265 309
#     4  11  21  33  52  77 106 136 172 218 260 306
#     4  10  19  33  53  77 106 139 171 206 256 314
#     4  10  19  33  53  77 106 139 171 206 256 314
#     4   9  18  34  51  71 103 143 174 204 263 320
#     4   9  18  33  52  73 104 144 173 196 245 319
#     4   9  18  34  51  71 103 143 174 204 263 320
#     4  11  21  33  52  77 106 136 172 218 260 306
#
# _framework density 15.822067000000001
#
# number of rings (size 3 to 8) (size 9 to 14) (size 15 to 20)
#    0.000    1.857    4.286    1.286    0.000    2.857 
#    0.000    1.429    0.000    3.429    0.000    3.000 
#    0.000    0.000    0.000    0.000    0.000    0.000 
#
# Total GULP energy -156205.370058 kJ/mol
# GULP energy per Si atom -5578.763216 kJ/mol
# Density = 1.578606 g / cm^3
# Si number density = 15.822067 Si / 1000 Ang^3
#
#
#
# Elastic Constant Matrix: (Units=GPa)
#
#
# Indices 1 2 3 4 5 6 
#
# 1 116.9619 43.7598 47.8863 0.0000 -5.5244 0.0000
# 2 43.7598 94.2100 44.1489 0.0000 0.1980 0.0000
# 3 47.8863 44.1489 88.5218 0.0000 -8.9848 0.0000
# 4 0.0000 0.0000 0.0000 -67.9858 0.0000 -37.6519
# 5 -5.5244 0.1980 -8.9848 0.0000 27.3582 0.0000
# 6 0.0000 0.0000 0.0000 -37.6519 0.0000 5.8193
#
#
#
# Elastic Compliance Matrix: (Units=1/GPa)
#
#
# Indices 1 2 3 4 5 6 
#
# 1 0.011704 -0.003279 -0.004607 0.000000 0.000874 0.000000
# 2 -0.003279 0.014932 -0.005949 0.000000 -0.002724 0.000000
# 3 -0.004607 -0.005949 0.017241 0.000000 0.004775 0.000000
# 4 0.000000 0.000000 0.000000 -0.003209 0.000000 -0.020764
# 5 0.000874 -0.002724 0.004775 0.000000 0.038316 0.000000
# 6 0.000000 0.000000 0.000000 -0.020764 0.000000 0.037493
#
#
# Mechanical properties :
#
#
# Convention : Reuss Voigt Hill
#
# Bulk Modulus (GPa) = 61.71073 63.47597 62.59335
# Shear Modulus (GPa) = 33.43356 3.96491 18.69924
#
# Velocity S-wave (km/s) = 4.60183 1.58473 3.44153
# Velocity P-wave (km/s) = 8.20508 6.59956 7.44572
#
# Compressibility (1/GPa) = 0.01620464
#
# Stress axis : x y z
#
# Youngs Moduli (GPa) = 85.43878 66.97221 58.00195
#
# Poissons Ratio (x) = 0.21962 0.26723
# Poissons Ratio (y) = 0.28018 0.34508
# Poissons Ratio (z) = 0.39364 0.39845
#
# Static dielectric constant tensor:
#      x y z
#    x 1.520570 0.000000 -0.000730 
#    y 0.000000 1.527330 0.000000 
#    z -0.000730 0.000000 1.519130 
# 
# From -- ./inp_files/46070.got.cif
#   From: 2010.05.17/outbox.cif.g08.bks.cpg/sg10_24_cif.got.tgz:46070.got - 2010.06.03 11:33:40.
