data_PCOD9146265
_publ_section_title
;
Structure prediction by ZEFSAII (Michael W. Deem and Ramdas Pophale) SiO2 
 PCOD9146265
Probable space group: P 2/M
;
_chemical_formula_sum "Si O2"
_cell_formula_units_Z 32
_cell_length_a 13.540482
_cell_length_b 17.748148
_cell_length_c 10.883045
_cell_angle_alpha 90.000000
_cell_angle_beta 146.924305
_cell_angle_gamma 90.000000
_cell_volume 1427.343789
_symmetry_space_group_name_H-M "P 2/M"
_symmetry_group_IT_number 10
_symmetry_cell_setting 'monoclinic'
loop_
_space_group_symop_operation_xyz
x,y,z
-x,y,-z
-x,-y,-z
x,-y,z
loop_
_atom_site_type_symbol
_atom_site_label
_atom_site_fract_x
_atom_site_fract_y
_atom_site_fract_z
Si Si1 0.020500 0.853089 0.389443
Si Si2 0.777140 0.416291 0.019912
Si Si3 0.785716 0.580809 0.488101
Si Si4 0.706665 0.751401 0.974078
Si Si5 0.857907 0.917712 0.739614
Si Si6 0.291598 0.229538 0.302009
Si Si7 0.361688 0.258940 0.742116
Si Si8 0.203575 0.390469 0.236884
O O1 0.050148 0.901479 0.296684
O O2 0.191413 0.796266 0.570300
O O3 0.000000 0.893860 0.500000
O O4 0.840289 0.802202 0.191965
O O5 0.719291 0.500000 0.001347
O O6 0.996242 0.414040 0.265272
O O7 0.718752 0.337532 0.018484
O O8 0.714887 0.406079 0.812013
O O9 0.747386 0.500000 0.386715
O O10 0.709954 0.655635 0.346927
O O11 0.712786 0.577860 0.552322
O O12 0.776397 0.769733 0.909662
O O13 0.494496 0.766534 0.769805
O O14 0.737815 0.847234 0.657065
O O15 0.766510 0.000000 0.638310
O O16 0.000000 0.920737 0.000000
O O17 0.500000 0.248936 0.500000
O O18 0.195582 0.301613 0.259884
O O19 0.500000 0.253257 0.000000
O O20 0.000000 0.417785 0.000000
#
# Coordination Sequence:
#
# PCOD9146265 Si02
#       8
#     4   4   4   4   4   4   4   4
#     4  12  24  46  73  94 130 176 219 271 321 380
#     4   9  18  32  55  86 125 168 212 268 337 392
#     4  10  19  33  53  81 122 167 215 273 335 389
#     4  11  22  39  64  95 127 170 226 272 323 384
#     4  11  24  43  71 105 137 168 207 254 321 400
#     4  11  21  36  63  99 137 168 210 267 323 383
#     4  12  25  41  63  92 122 167 233 279 322 385
#     4   9  17  30  54  85 120 163 216 265 316 390
#
# _framework density 22.419267999999999
#
# number of rings (size 3 to 8) (size 9 to 14) (size 15 to 20)
#    0.000    1.375    3.750    3.000    1.750    2.750 
#    0.000    0.000    0.000    6.750    0.000    0.000 
#    0.000    0.000    0.000    0.000    0.000    0.000 
#
# Total GULP energy -178563.858146 kJ/mol
# GULP energy per Si atom -5580.120567 kJ/mol
# Density = 2.236824 g / cm^3
# Si number density = 22.419268 Si / 1000 Ang^3
#
#
#
# Elastic Constant Matrix: (Units=GPa)
#
#
# Indices 1 2 3 4 5 6 
#
# 1 74.7652 29.4822 7.9653 0.0000 -7.8033 0.0000
# 2 29.4822 135.6799 28.5458 0.0000 -3.8224 0.0000
# 3 7.9653 28.5458 65.9552 0.0000 0.5263 0.0000
# 4 0.0000 0.0000 0.0000 8.5962 0.0000 2.7435
# 5 -7.8033 -3.8224 0.5263 0.0000 39.3794 0.0000
# 6 0.0000 0.0000 0.0000 2.7435 0.0000 -20.5013
#
#
#
# Elastic Compliance Matrix: (Units=1/GPa)
#
#
# Indices 1 2 3 4 5 6 
#
# 1 0.014913 -0.003061 -0.000498 0.000000 0.002665 0.000000
# 2 -0.003061 0.008764 -0.003426 0.000000 0.000290 0.000000
# 3 -0.000498 -0.003426 0.016710 0.000000 -0.000654 0.000000
# 4 0.000000 0.000000 0.000000 0.111565 0.000000 0.014930
# 5 0.002665 0.000290 -0.000654 0.000000 0.025959 0.000000
# 6 0.000000 0.000000 0.000000 0.014930 0.000000 -0.046779
#
#
# Mechanical properties :
#
#
# Convention : Reuss Voigt Hill
#
# Bulk Modulus (GPa) = 37.85167 45.37632 41.61399
# Shear Modulus (GPa) = 32.48711 19.52199 26.00455
#
# Velocity S-wave (km/s) = 3.81080 2.95408 3.40945
# Velocity P-wave (km/s) = 6.02354 5.64971 5.83962
#
# Compressibility (1/GPa) = 0.02641892
#
# Stress axis : x y z
#
# Youngs Moduli (GPa) = 67.05427 114.09897 59.84481
#
# Poissons Ratio (x) = 0.34923 0.02978
# Poissons Ratio (y) = 0.20524 0.20502
# Poissons Ratio (z) = 0.03337 0.39089
#
# Static dielectric constant tensor:
#      x y z
#    x 1.951030 0.000000 -0.046340 
#    y 0.000000 1.830700 0.000000 
#    z -0.046340 0.000000 1.849490 
# 
# From -- ./inp_files/52013.got.cif
#   From: 2010.05.17/outbox.cif.g08.bks.cpg/sg10_27_cif.got.tgz:52013.got - 2010.06.03 11:33:40.
