data_PCOD9146128
_publ_section_title
;
Structure prediction by ZEFSAII (Michael W. Deem and Ramdas Pophale) SiO2 
 PCOD9146128
Probable space group: P 2/M
;
_chemical_formula_sum "Si O2"
_cell_formula_units_Z 32
_cell_length_a 30.808782
_cell_length_b 8.615986
_cell_length_c 17.226504
_cell_angle_alpha 90.000000
_cell_angle_beta 154.071750
_cell_angle_gamma 90.000000
_cell_volume 1999.409634
_symmetry_space_group_name_H-M "P 2/M"
_symmetry_group_IT_number 10
_symmetry_cell_setting 'monoclinic'
loop_
_space_group_symop_operation_xyz
x,y,z
-x,y,-z
-x,-y,-z
x,-y,z
loop_
_atom_site_type_symbol
_atom_site_label
_atom_site_fract_x
_atom_site_fract_y
_atom_site_fract_z
Si Si1 0.643875 0.185640 0.692413
Si Si2 0.555639 0.684536 0.704014
Si Si3 0.666158 0.320800 0.483806
Si Si4 0.985403 0.311453 0.885812
Si Si5 0.187678 0.814098 0.153771
Si Si6 0.452618 0.818354 0.144830
Si Si7 0.228474 0.318380 0.512694
Si Si8 0.594851 0.688263 0.099643
O O1 0.553727 0.250067 0.494361
O O2 0.626737 0.255131 0.749860
O O3 0.748827 0.222740 0.821266
O O4 0.633081 0.000000 0.678499
O O5 0.550944 0.500000 0.694554
O O6 0.586193 0.742686 0.838054
O O7 0.637681 0.500000 0.454442
O O8 0.750871 0.265680 0.678191
O O9 0.570600 0.213769 0.336728
O O10 0.709288 0.314191 0.466792
O O11 0.985774 0.500000 0.886122
O O12 0.880317 0.254383 0.682250
O O13 0.000000 0.264754 0.000000
O O14 0.076769 0.249119 0.982472
O O15 0.188243 0.000000 0.164408
O O16 0.432012 0.000000 0.111801
O O17 0.416169 0.743241 0.006109
O O18 0.212730 0.500000 0.507079
O O19 0.302521 0.253281 0.696816
O O20 0.594867 0.500000 0.101229
O O21 0.500000 0.737072 0.000000
#
# Coordination Sequence:
#
# PCOD9146128 Si02
#       8
#     4   4   4   4   4   4   4   4
#     4  10  20  34  50  72 106 136 163 209 263 304
#     4  11  21  33  52  75  99 133 175 208 248 307
#     4  11  19  32  52  72  99 137 178 214 250 298
#     4  10  19  33  52  73 100 137 179 216 250 296
#     4  11  22  33  48  75 106 139 171 208 257 307
#     4  12  23  34  48  74 107 138 172 210 260 308
#     4   9  18  33  51  73  99 133 176 221 256 287
#     4  10  19  34  54  74  99 135 178 216 253 300
#
# _framework density 16.004725000000001
#
# number of rings (size 3 to 8) (size 9 to 14) (size 15 to 20)
#    0.000    1.500    3.750    4.125    0.000    2.000 
#    0.000    0.625    0.000    0.000    0.000    0.875 
#    0.000    7.000    0.000    0.000    0.000    0.000 
#
# Total GULP energy -178575.105642 kJ/mol
# GULP energy per Si atom -5580.472051 kJ/mol
# Density = 1.596830 g / cm^3
# Si number density = 16.004725 Si / 1000 Ang^3
#
#
#
# Elastic Constant Matrix: (Units=GPa)
#
#
# Indices 1 2 3 4 5 6 
#
# 1 109.7293 31.6125 55.1017 0.0000 -10.4179 0.0000
# 2 31.6125 47.9546 21.6057 0.0000 -2.7836 0.0000
# 3 55.1017 21.6057 94.5517 0.0000 -13.3617 0.0000
# 4 0.0000 0.0000 0.0000 73.9502 0.0000 -55.0898
# 5 -10.4179 -2.7836 -13.3617 0.0000 24.8560 0.0000
# 6 0.0000 0.0000 0.0000 -55.0898 0.0000 80.3575
#
#
#
# Elastic Compliance Matrix: (Units=1/GPa)
#
#
# Indices 1 2 3 4 5 6 
#
# 1 0.014519 -0.006431 -0.006746 0.000000 0.001739 0.000000
# 2 -0.006431 0.026096 -0.002363 0.000000 -0.001043 0.000000
# 3 -0.006746 -0.002363 0.015812 0.000000 0.005408 0.000000
# 4 0.000000 0.000000 0.000000 0.027637 0.000000 0.018947
# 5 0.001739 -0.001043 0.005408 0.000000 0.043751 0.000000
# 6 0.000000 0.000000 0.000000 0.018947 0.000000 0.025434
#
#
# Mechanical properties :
#
#
# Convention : Reuss Voigt Hill
#
# Bulk Modulus (GPa) = 39.45149 52.09727 45.77438
# Shear Modulus (GPa) = 25.93682 45.42714 35.68198
#
# Velocity S-wave (km/s) = 4.03000 5.33340 4.72684
# Velocity P-wave (km/s) = 6.80867 8.39933 7.64548
#
# Compressibility (1/GPa) = 0.02534758
#
# Stress axis : x y z
#
# Youngs Moduli (GPa) = 68.87757 38.31957 63.24472
#
# Poissons Ratio (x) = 0.24642 0.42663
# Poissons Ratio (y) = 0.44293 0.14945
# Poissons Ratio (z) = 0.46463 0.09055
#
# Static dielectric constant tensor:
#      x y z
#    x 1.538880 0.000000 -0.000230 
#    y 0.000000 1.538490 0.000000 
#    z -0.000230 0.000000 1.532950 
# 
# From -- ./inp_files/72239.got.cif
#   From: 2010.05.17/outbox.cif.g08.bks.cpg/sg10_37_cif.got.tgz:72239.got - 2010.06.03 11:33:40.
