data_PCOD9146843
_publ_section_title
;
Structure prediction by ZEFSAII (Michael W. Deem and Ramdas Pophale) SiO2 
 PCOD9146843
Probable space group: P 2/M
;
_chemical_formula_sum "Si O2"
_cell_formula_units_Z 32
_cell_length_a 12.068002
_cell_length_b 7.478492
_cell_length_c 15.386783
_cell_angle_alpha 90.000000
_cell_angle_beta 93.065368
_cell_angle_gamma 90.000000
_cell_volume 1386.677254
_symmetry_space_group_name_H-M "P 2/M"
_symmetry_group_IT_number 10
_symmetry_cell_setting 'monoclinic'
loop_
_space_group_symop_operation_xyz
x,y,z
-x,y,-z
-x,-y,-z
x,-y,z
loop_
_atom_site_type_symbol
_atom_site_label
_atom_site_fract_x
_atom_site_fract_y
_atom_site_fract_z
Si Si1 0.730916 0.218425 0.312021
Si Si2 0.029639 0.799361 0.909082
Si Si3 0.980098 0.780998 0.283272
Si Si4 0.626797 0.781459 0.490949
Si Si5 0.430825 0.214330 0.849109
Si Si6 0.784615 0.781707 0.654383
Si Si7 0.743736 0.703751 0.025757
Si Si8 0.318880 0.215575 0.167225
O O1 0.858594 0.276697 0.308601
O O2 0.675328 0.273683 0.400099
O O3 0.654806 0.278143 0.228339
O O4 0.731548 0.000000 0.310687
O O5 0.999596 0.719836 0.815263
O O6 0.162978 0.811952 0.919051
O O7 0.980021 0.000000 0.909012
O O8 0.000000 0.711660 0.000000
O O9 0.086357 0.728641 0.344305
O O10 0.977568 0.000000 0.280080
O O11 0.500000 0.724187 0.500000
O O12 0.707208 0.722929 0.572207
O O13 0.626047 0.000000 0.491569
O O14 0.376512 0.256137 0.939600
O O15 0.554875 0.281745 0.838769
O O16 0.436421 0.000000 0.842497
O O17 0.734907 0.723547 0.745091
O O18 0.782603 0.000000 0.653908
O O19 0.770146 0.500000 0.044770
O O20 0.745828 0.736482 0.923230
O O21 0.321384 0.000000 0.170721
#
# Coordination Sequence:
#
# PCOD9146843 Si02
#       8
#     4   4   4   4   4   4   4   4
#     4   9  16  27  46  71 100 135 172 214 265 315
#     4  10  19  34  56  76 101 141 185 224 261 310
#     4   9  16  27  45  69  99 133 170 213 257 309
#     4   9  16  26  42  69 106 140 168 207 262 316
#     4  10  19  34  54  74 101 139 183 222 260 317
#     4   9  17  29  46  73 104 133 171 212 260 315
#     4  12  24  35  50  76 109 139 173 222 275 324
#     4  10  20  34  53  74 100 139 183 224 263 314
#
# _framework density 23.076747999999998
#
# number of rings (size 3 to 8) (size 9 to 14) (size 15 to 20)
#    0.000    2.250    1.250    3.000    0.000    7.750 
#    0.000    2.500    0.000    0.000    0.000    0.875 
#    0.000    4.000    0.000    0.000    0.000    0.000 
#
# Total GULP energy -178890.312827 kJ/mol
# GULP energy per Si atom -5590.322276 kJ/mol
# Density = 2.302422 g / cm^3
# Si number density = 23.076748 Si / 1000 Ang^3
#
#
#
# Elastic Constant Matrix: (Units=GPa)
#
#
# Indices 1 2 3 4 5 6 
#
# 1 117.7831 5.2544 39.7184 0.0000 10.4120 0.0000
# 2 5.2544 73.0950 -1.7728 0.0000 1.6781 0.0000
# 3 39.7184 -1.7728 125.7562 0.0000 5.4428 0.0000
# 4 0.0000 0.0000 0.0000 -51.9846 0.0000 12.4239
# 5 10.4120 1.6781 5.4428 0.0000 41.3833 0.0000
# 6 0.0000 0.0000 0.0000 12.4239 0.0000 -25.8532
#
#
#
# Elastic Compliance Matrix: (Units=1/GPa)
#
#
# Indices 1 2 3 4 5 6 
#
# 1 0.009709 -0.000724 -0.002989 0.000000 -0.002020 0.000000
# 2 -0.000724 0.013754 0.000441 0.000000 -0.000434 0.000000
# 3 -0.002989 0.000441 0.008921 0.000000 -0.000439 0.000000
# 4 0.000000 0.000000 0.000000 -0.021732 0.000000 -0.010444
# 5 -0.002020 -0.000434 -0.000439 0.000000 0.024748 0.000000
# 6 0.000000 0.000000 0.000000 -0.010444 0.000000 -0.043699
#
#
# Mechanical properties :
#
#
# Convention : Reuss Voigt Hill
#
# Bulk Modulus (GPa) = 38.69981 44.78158 41.74069
# Shear Modulus (GPa) = 729.05707 10.93803 369.99755
#
# Velocity S-wave (km/s) = 17.79362 2.17948 12.67602
# Velocity P-wave (km/s) = 20.95130 5.07751 15.24366
#
# Compressibility (1/GPa) = 0.02583992
#
# Stress axis : x y z
#
# Youngs Moduli (GPa) = 102.99616 72.70857 112.09213
#
# Poissons Ratio (x) = 0.05265 0.33507
# Poissons Ratio (y) = 0.07458 -0.04947
# Poissons Ratio (z) = 0.30788 -0.03209
#
# Static dielectric constant tensor:
#      x y z
#    x 1.872710 0.000000 -0.009780 
#    y 0.000000 1.893000 0.000000 
#    z -0.009780 0.000000 1.805600 
# 
# From -- ./inp_files/49805.got.cif
#   From: 2010.05.17/outbox.cif.g08.bks.cpg/sg10_25_cif.got.tgz:49805.got - 2010.06.03 11:33:40.
