data_PCOD9146350
_publ_section_title
;
Structure prediction by ZEFSAII (Michael W. Deem and Ramdas Pophale) SiO2 
 PCOD9146350
Probable space group: P 2/M
;
_chemical_formula_sum "Si O2"
_cell_formula_units_Z 16
_cell_length_a 7.012980
_cell_length_b 10.452174
_cell_length_c 8.752248
_cell_angle_alpha 90.000000
_cell_angle_beta 70.481558
_cell_angle_gamma 90.000000
_cell_volume 604.680372
_symmetry_space_group_name_H-M "P 2/M"
_symmetry_group_IT_number 10
_symmetry_cell_setting 'monoclinic'
loop_
_space_group_symop_operation_xyz
x,y,z
-x,y,-z
-x,-y,-z
x,-y,z
loop_
_atom_site_type_symbol
_atom_site_label
_atom_site_fract_x
_atom_site_fract_y
_atom_site_fract_z
Si Si1 0.175628 0.500000 0.623018
Si Si2 0.693885 0.000000 0.553451
Si Si3 0.073417 0.267928 0.823448
Si Si4 0.477199 0.788705 0.179606
Si Si5 0.571874 0.500000 0.738088
Si Si6 0.986099 0.000000 0.814483
O O1 0.067799 0.369644 0.692742
O O2 0.364906 0.500000 0.692859
O O3 0.254103 0.500000 0.433236
O O4 0.500000 0.000000 0.500000
O O5 0.658414 0.123388 0.672088
O O6 0.875745 0.000000 0.381448
O O7 0.299135 0.213351 0.797367
O O8 0.930720 0.149382 0.824530
O O9 0.000000 0.331286 0.000000
O O10 0.420748 0.637744 0.182818
O O11 0.500000 0.840104 0.000000
O O12 0.000000 0.000000 0.000000
#
# Coordination Sequence:
#
# PCOD9146350 Si02
#       6
#     2   2   4   4   2   2
#     4   9  17  30  53  83 102 143 200 243 261 332
#     4  12  21  36  61  89 110 150 201 238 273 342
#     4  10  19  33  54  80 111 147 190 234 283 333
#     4  11  22  36  57  87 118 150 187 239 291 337
#     4   9  19  32  55  79 115 144 195 235 283 330
#     4  10  20  34  56  84 109 141 188 240 282 320
#
# _framework density 26.460259000000001
#
# number of rings (size 3 to 8) (size 9 to 14) (size 15 to 20)
#    0.000    1.750    2.500    2.625    3.500    0.000 
#    0.000    0.000    0.000   21.000    0.000    0.000 
#    0.000    0.000    0.000    0.000    0.000    0.000 
#
# Total GULP energy -89280.900426 kJ/mol
# GULP energy per Si atom -5580.056277 kJ/mol
# Density = 2.640003 g / cm^3
# Si number density = 26.460259 Si / 1000 Ang^3
#
#
#
# Elastic Constant Matrix: (Units=GPa)
#
#
# Indices 1 2 3 4 5 6 
#
# 1 93.1831 3.4980 29.7710 0.0000 14.8981 0.0000
# 2 3.4980 190.3803 75.3630 0.0000 6.2980 0.0000
# 3 29.7710 75.3630 210.9437 0.0000 -1.0104 0.0000
# 4 0.0000 0.0000 0.0000 63.5817 0.0000 0.0597
# 5 14.8981 6.2980 -1.0104 0.0000 45.3108 0.0000
# 6 0.0000 0.0000 0.0000 0.0597 0.0000 224.6886
#
#
#
# Elastic Compliance Matrix: (Units=1/GPa)
#
#
# Indices 1 2 3 4 5 6 
#
# 1 0.011983 0.000689 -0.001957 0.000000 -0.004080 0.000000
# 2 0.000689 0.006194 -0.002316 0.000000 -0.001139 0.000000
# 3 -0.001957 -0.002316 0.005849 0.000000 0.001096 0.000000
# 4 0.000000 0.000000 0.000000 0.015728 0.000000 -0.000004
# 5 -0.004080 -0.001139 0.001096 0.000000 0.023594 0.000000
# 6 0.000000 0.000000 0.000000 -0.000004 0.000000 0.004451
#
#
# Mechanical properties :
#
#
# Convention : Reuss Voigt Hill
#
# Bulk Modulus (GPa) = 59.31134 79.08568 69.19851
# Shear Modulus (GPa) = 62.04539 92.44124 77.24332
#
# Velocity S-wave (km/s) = 4.84762 5.91707 5.40884
# Velocity P-wave (km/s) = 7.33461 8.75418 8.07565
#
# Compressibility (1/GPa) = 0.01686018
#
# Stress axis : x y z
#
# Youngs Moduli (GPa) = 83.45034 161.43637 170.95714
#
# Poissons Ratio (x) = -0.11131 0.33458
# Poissons Ratio (y) = -0.05754 0.39590
# Poissons Ratio (z) = 0.16332 0.37386
#
# Static dielectric constant tensor:
#      x y z
#    x 2.981230 0.000000 0.325390 
#    y 0.000000 2.016990 0.000000 
#    z 0.325390 0.000000 2.143900 
# 
# From -- ./inp_files/17356.got.cif
#   From: 2010.05.17/outbox.cif.g08.bks.cpg/sg10_9_cif.got.tgz:17356.got - 2010.06.03 11:33:40.
