data_PCOD9146768
_publ_section_title
;
Structure prediction by ZEFSAII (Michael W. Deem and Ramdas Pophale) SiO2 
 PCOD9146768
Probable space group: P 2/M
;
_chemical_formula_sum "Si O2"
_cell_formula_units_Z 24
_cell_length_a 15.241429
_cell_length_b 14.033012
_cell_length_c 11.718615
_cell_angle_alpha 90.000000
_cell_angle_beta 153.098217
_cell_angle_gamma 90.000000
_cell_volume 1134.058410
_symmetry_space_group_name_H-M "P 2/M"
_symmetry_group_IT_number 10
_symmetry_cell_setting 'monoclinic'
loop_
_space_group_symop_operation_xyz
x,y,z
-x,y,-z
-x,-y,-z
x,-y,z
loop_
_atom_site_type_symbol
_atom_site_label
_atom_site_fract_x
_atom_site_fract_y
_atom_site_fract_z
Si Si1 0.500000 0.342456 0.000000
Si Si2 0.447610 0.000000 0.773133
Si Si3 0.945584 0.000000 0.570009
Si Si4 0.521929 0.801199 0.826736
Si Si5 0.236270 0.000000 0.275114
Si Si6 0.311580 0.196221 0.231102
Si Si7 0.919161 0.397986 0.533731
Si Si8 0.056933 0.202842 0.306054
O O1 0.571003 0.276051 0.978155
O O2 0.314077 0.398091 0.741806
O O3 0.570257 0.905856 0.926505
O O4 0.284600 0.000000 0.678912
O O5 0.337561 0.000000 0.519045
O O6 0.996689 0.100245 0.696449
O O7 0.000000 0.000000 0.500000
O O8 0.631135 0.796542 0.835018
O O9 0.285854 0.800361 0.540129
O O10 0.303321 0.093868 0.284843
O O11 0.000000 0.000000 0.000000
O O12 0.500000 0.249443 0.500000
O O13 0.084785 0.221571 0.964901
O O14 0.984109 0.500000 0.662139
O O15 0.969779 0.296689 0.647922
O O16 0.000000 0.397074 0.500000
#
# Coordination Sequence:
#
# PCOD9146768 Si02
#       8
#     2   2   2   4   2   4   4   4
#     4  10  21  37  60  88 126 151 194 248 309 380
#     4  10  19  34  48  75 115 153 204 233 288 342
#     4  10  20  35  57  82 121 164 191 234 298 369
#     4  10  21  37  53  83 117 158 197 247 301 357
#     4  12  22  37  55  79 118 161 209 263 291 349
#     4  12  23  35  60  81 113 160 208 253 299 353
#     4  10  20  37  62  89 121 160 203 251 302 368
#     4  10  22  38  56  87 122 155 204 248 306 360
#
# _framework density 21.162929999999999
#
# number of rings (size 3 to 8) (size 9 to 14) (size 15 to 20)
#    0.000    1.500    1.667    5.000    0.000    3.000 
#    0.000    0.833    0.000    0.500    0.000    4.667 
#    0.000    0.000    0.000    0.000    0.000    0.000 
#
# Total GULP energy -133781.053501 kJ/mol
# GULP energy per Si atom -5574.210563 kJ/mol
# Density = 2.111476 g / cm^3
# Si number density = 21.162930 Si / 1000 Ang^3
#
#
#
# Elastic Constant Matrix: (Units=GPa)
#
#
# Indices 1 2 3 4 5 6 
#
# 1 105.1326 24.5204 0.3698 0.0000 -2.4334 0.0000
# 2 24.5204 131.9888 19.2706 0.0000 -8.5165 0.0000
# 3 0.3698 19.2706 91.8299 0.0000 0.9079 0.0000
# 4 0.0000 0.0000 0.0000 2.2965 0.0000 -9.0984
# 5 -2.4334 -8.5165 0.9079 0.0000 24.7302 0.0000
# 6 0.0000 0.0000 0.0000 -9.0984 0.0000 -5.2538
#
#
#
# Elastic Compliance Matrix: (Units=1/GPa)
#
#
# Indices 1 2 3 4 5 6 
#
# 1 0.009957 -0.001880 0.000351 0.000000 0.000319 0.000000
# 2 -0.001880 0.008363 -0.001775 0.000000 0.002760 0.000000
# 3 0.000351 -0.001775 0.011270 0.000000 -0.000990 0.000000
# 4 0.000000 0.000000 0.000000 0.055393 0.000000 -0.095928
# 5 0.000319 0.002760 -0.000990 0.000000 0.041455 0.000000
# 6 0.000000 0.000000 0.000000 -0.095928 0.000000 -0.024213
#
#
# Mechanical properties :
#
#
# Convention : Reuss Voigt Hill
#
# Bulk Modulus (GPa) = 43.51137 46.36365 44.93751
# Shear Modulus (GPa) = 42.92117 23.34062 33.13090
#
# Velocity S-wave (km/s) = 4.50836 3.32460 3.96095
# Velocity P-wave (km/s) = 6.90690 6.05746 6.49608
#
# Compressibility (1/GPa) = 0.02298250
#
# Stress axis : x y z
#
# Youngs Moduli (GPa) = 100.43675 119.57520 88.72726
#
# Poissons Ratio (x) = 0.22485 -0.03117
# Poissons Ratio (y) = 0.18886 0.15746
# Poissons Ratio (z) = -0.03529 0.21221
#
# Static dielectric constant tensor:
#      x y z
#    x 1.766740 0.000000 0.009700 
#    y 0.000000 1.793290 0.000000 
#    z 0.009700 0.000000 1.885330 
# 
# From -- ./inp_files/51743.got.cif
#   From: 2010.05.17/outbox.cif.g08.bks.cpg/sg10_26_cif.got.tgz:51743.got - 2010.06.03 11:33:40.
