data_PCOD9146279
_publ_section_title
;
Structure prediction by ZEFSAII (Michael W. Deem and Ramdas Pophale) SiO2 
 PCOD9146279
Probable space group: P 2/M
;
_chemical_formula_sum "Si O2"
_cell_formula_units_Z 28
_cell_length_a 16.300387
_cell_length_b 8.914424
_cell_length_c 10.682466
_cell_angle_alpha 90.000000
_cell_angle_beta 89.544013
_cell_angle_gamma 90.000000
_cell_volume 1552.204606
_symmetry_space_group_name_H-M "P 2/M"
_symmetry_group_IT_number 10
_symmetry_cell_setting 'monoclinic'
loop_
_space_group_symop_operation_xyz
x,y,z
-x,y,-z
-x,-y,-z
x,-y,z
loop_
_atom_site_type_symbol
_atom_site_label
_atom_site_fract_x
_atom_site_fract_y
_atom_site_fract_z
Si Si1 0.582553 0.824079 0.431650
Si Si2 0.237817 0.174987 0.892918
Si Si3 0.366096 0.329695 0.049223
Si Si4 0.252355 0.320499 0.622869
Si Si5 0.933591 0.322287 0.109432
Si Si6 0.935276 0.318443 0.397070
Si Si7 0.480001 0.671414 0.802032
O O1 0.500000 0.765497 0.500000
O O2 0.670080 0.745529 0.452819
O O3 0.559618 0.790760 0.288553
O O4 0.590631 0.000000 0.457574
O O5 0.260761 0.267618 0.767235
O O6 0.145030 0.222995 0.920392
O O7 0.245829 0.000000 0.865332
O O8 0.293864 0.221460 0.009205
O O9 0.335375 0.500000 0.067293
O O10 0.426232 0.291450 0.162959
O O11 0.426500 0.331564 0.928547
O O12 0.255941 0.500000 0.618795
O O13 0.160216 0.271320 0.583521
O O14 0.910580 0.500000 0.112343
O O15 0.959203 0.283563 0.252358
O O16 0.000000 0.302968 0.000000
O O17 0.934770 0.500000 0.406110
O O18 0.000000 0.262470 0.500000
O O19 0.476872 0.500000 0.750874
#
# Coordination Sequence:
#
# PCOD9146279 Si02
#       7
#     4   4   4   4   4   4   4
#     4  11  23  36  50  72 106 143 178 219 265 315
#     4  11  20  30  50  78 106 136 170 209 257 318
#     4   9  17  31  51  76 101 126 164 215 259 296
#     4  10  19  33  54  76 100 133 178 224 260 308
#     4   9  18  33  53  76 104 138 173 215 266 314
#     4   8  15  30  54  81 103 127 168 219 265 312
#     4   9  18  32  52  74  98 129 168 214 257 300
#
# _framework density 18.038858999999999
#
# number of rings (size 3 to 8) (size 9 to 14) (size 15 to 20)
#    0.000    2.429    1.429    3.857    0.000    2.000 
#    0.000    2.857    0.000   14.143    0.000    0.000 
#    0.000    0.000    0.000    0.000    0.000    0.000 
#
# Total GULP energy -155943.179795 kJ/mol
# GULP energy per Si atom -5569.399278 kJ/mol
# Density = 1.799780 g / cm^3
# Si number density = 18.038859 Si / 1000 Ang^3
#
#
#
# Elastic Constant Matrix: (Units=GPa)
#
#
# Indices 1 2 3 4 5 6 
#
# 1 119.5889 34.4462 46.3625 0.0000 8.7611 0.0000
# 2 34.4462 36.6473 9.5481 0.0000 0.9299 0.0000
# 3 46.3625 9.5481 36.7132 0.0000 4.7871 0.0000
# 4 0.0000 0.0000 0.0000 7.5236 0.0000 -11.9341
# 5 8.7611 0.9299 4.7871 0.0000 29.0764 0.0000
# 6 0.0000 0.0000 0.0000 -11.9341 0.0000 19.8760
#
#
#
# Elastic Compliance Matrix: (Units=1/GPa)
#
#
# Indices 1 2 3 4 5 6 
#
# 1 0.021707 -0.014245 -0.023416 0.000000 -0.002230 0.000000
# 2 -0.014245 0.038622 0.007712 0.000000 0.001787 0.000000
# 3 -0.023416 0.007712 0.055098 0.000000 -0.002262 0.000000
# 4 0.000000 0.000000 0.000000 2.793182 0.000000 1.677107
# 5 -0.002230 0.001787 -0.002262 0.000000 0.035379 0.000000
# 6 0.000000 0.000000 0.000000 1.677107 0.000000 1.057296
#
#
# Mechanical properties :
#
#
# Convention : Reuss Voigt Hill
#
# Bulk Modulus (GPa) = 18.00902 41.51810 29.76356
# Shear Modulus (GPa) = 1.22558 18.13471 9.68014
#
# Velocity S-wave (km/s) = 0.82516 3.17411 2.31903
# Velocity P-wave (km/s) = 3.30348 6.04145 4.86889
#
# Compressibility (1/GPa) = 0.05552774
#
# Stress axis : x y z
#
# Youngs Moduli (GPa) = 46.06896 25.89173 18.14943
#
# Poissons Ratio (x) = 0.36884 0.42499
# Poissons Ratio (y) = 0.65627 -0.13997
# Poissons Ratio (z) = 1.07876 -0.19968
#
# Static dielectric constant tensor:
#      x y z
#    x 1.666510 0.000000 -0.003350 
#    y 0.000000 1.614580 0.000000 
#    z -0.003350 0.000000 1.642130 
# 
# From -- ./inp_files/48785.got.cif
#   From: 2010.05.17/outbox.cif.g08.bks.cpg/sg10_25_cif.got.tgz:48785.got - 2010.06.03 11:33:40.
