data_PCOD9146608
_publ_section_title
;
Structure prediction by ZEFSAII (Michael W. Deem and Ramdas Pophale) SiO2 
 PCOD9146608
Probable space group: P 2/M
;
_chemical_formula_sum "Si O2"
_cell_formula_units_Z 32
_cell_length_a 18.466187
_cell_length_b 8.620049
_cell_length_c 25.474796
_cell_angle_alpha 90.000000
_cell_angle_beta 25.237046
_cell_angle_gamma 90.000000
_cell_volume 1728.934147
_symmetry_space_group_name_H-M "P 2/M"
_symmetry_group_IT_number 10
_symmetry_cell_setting 'monoclinic'
loop_
_space_group_symop_operation_xyz
x,y,z
-x,y,-z
-x,-y,-z
x,-y,z
loop_
_atom_site_type_symbol
_atom_site_label
_atom_site_fract_x
_atom_site_fract_y
_atom_site_fract_z
Si Si1 0.590920 0.810456 0.309181
Si Si2 0.616243 0.814553 0.066641
Si Si3 0.104724 0.687288 0.510692
Si Si4 0.207712 0.185315 0.554580
Si Si5 0.264515 0.188182 0.897130
Si Si6 0.966845 0.683991 0.800553
Si Si7 0.098960 0.812424 0.822907
Si Si8 0.745556 0.686417 0.700395
O O1 0.397754 0.763097 0.445990
O O2 0.651826 0.756826 0.211561
O O3 0.728557 0.761445 0.262065
O O4 0.593606 0.000000 0.306709
O O5 0.643524 0.760944 0.109489
O O6 0.433512 0.758950 0.167309
O O7 0.624693 0.000000 0.060766
O O8 0.776294 0.750307 0.929751
O O9 0.113594 0.500000 0.510088
O O10 0.177417 0.766904 0.514372
O O11 0.205378 0.730546 0.391635
O O12 0.907559 0.729596 0.629620
O O13 0.066599 0.259907 0.684100
O O14 0.198879 0.000000 0.565412
O O15 0.272199 0.000000 0.891108
O O16 0.066105 0.229357 0.033771
O O17 0.959186 0.500000 0.806994
O O18 0.065715 0.745323 0.787263
O O19 0.100561 0.000000 0.817642
O O20 0.732415 0.500000 0.710319
#
# Coordination Sequence:
#
# PCOD9146608 Si02
#       8
#     4   4   4   4   4   4   4   4
#     4   9  17  29  50  79 107 136 170 213 267 319
#     4  10  19  33  56  83 108 136 177 224 265 309
#     4   9  19  36  56  81 115 150 176 204 252 311
#     4  11  22  36  54  77 105 138 182 229 268 309
#     4   8  14  26  48  79 109 134 163 205 259 315
#     4  11  23  39  55  71 100 141 181 222 271 323
#     4   9  17  32  54  78 104 135 174 218 261 311
#     4   9  18  34  57  84 115 147 175 204 249 314
#
# _framework density 18.508512
#
# number of rings (size 3 to 8) (size 9 to 14) (size 15 to 20)
#    0.000    2.500    0.000    4.500    0.000    4.000 
#    0.000    5.625    0.000   11.250    0.000    0.000 
#    0.000    0.000    0.000    0.000    0.000    0.000 
#
# Total GULP energy -178576.825715 kJ/mol
# GULP energy per Si atom -5580.525804 kJ/mol
# Density = 1.846639 g / cm^3
# Si number density = 18.508512 Si / 1000 Ang^3
#
#
#
# Elastic Constant Matrix: (Units=GPa)
#
#
# Indices 1 2 3 4 5 6 
#
# 1 25.6081 9.6543 25.1048 0.0000 -21.7616 0.0000
# 2 9.6543 30.2689 20.7667 0.0000 -7.8279 0.0000
# 3 25.1048 20.7667 72.5735 0.0000 -25.3365 0.0000
# 4 0.0000 0.0000 0.0000 3.7615 0.0000 12.7948
# 5 -21.7616 -7.8279 -25.3365 0.0000 29.2094 0.0000
# 6 0.0000 0.0000 0.0000 12.7948 0.0000 13.6645
#
#
#
# Elastic Compliance Matrix: (Units=1/GPa)
#
#
# Indices 1 2 3 4 5 6 
#
# 1 0.118388 -0.010236 -0.011746 0.000000 0.075269 0.000000
# 2 -0.010236 0.042020 -0.010347 0.000000 -0.005340 0.000000
# 3 -0.011746 -0.010347 0.024069 0.000000 0.009353 0.000000
# 4 0.000000 0.000000 0.000000 -0.121668 0.000000 0.113925
# 5 0.075269 -0.005340 0.009353 0.000000 0.096995 0.000000
# 6 0.000000 0.000000 0.000000 0.113925 0.000000 -0.033492
#
#
# Mechanical properties :
#
#
# Convention : Reuss Voigt Hill
#
# Bulk Modulus (GPa) = 8.34604 26.61135 17.47869
# Shear Modulus (GPa) = 21.65350 14.18872 17.92111
#
# Velocity S-wave (km/s) = 3.42412 2.77177 3.11507
# Velocity P-wave (km/s) = 4.48909 4.96515 4.73311
#
# Compressibility (1/GPa) = 0.11981731
#
# Stress axis : x y z
#
# Youngs Moduli (GPa) = 8.44680 23.79824 41.54784
#
# Poissons Ratio (x) = 0.24359 0.48804
# Poissons Ratio (y) = 0.08646 0.42992
# Poissons Ratio (z) = 0.09922 0.24625
#
# Static dielectric constant tensor:
#      x y z
#    x 1.627570 0.000000 -0.012040 
#    y 0.000000 1.632090 0.000000 
#    z -0.012040 0.000000 1.627910 
# 
# From -- ./inp_files/89932.got.cif
#   From: 2010.05.17/outbox.cif.g08.bks.cpg/sg10_45_cif.got.tgz:89932.got - 2010.06.03 11:33:40.
