data_PCOD9146487
_publ_section_title
;
Structure prediction by ZEFSAII (Michael W. Deem and Ramdas Pophale) SiO2 
 PCOD9146487
Probable space group: P 2/M
;
_chemical_formula_sum "Si O2"
_cell_formula_units_Z 32
_cell_length_a 20.270774
_cell_length_b 7.518186
_cell_length_c 26.688830
_cell_angle_alpha 90.000000
_cell_angle_beta 159.350000
_cell_angle_gamma 90.000000
_cell_volume 1434.389646
_symmetry_space_group_name_H-M "P 2/M"
_symmetry_group_IT_number 10
_symmetry_cell_setting 'monoclinic'
loop_
_space_group_symop_operation_xyz
x,y,z
-x,y,-z
-x,-y,-z
x,-y,z
loop_
_atom_site_type_symbol
_atom_site_label
_atom_site_fract_x
_atom_site_fract_y
_atom_site_fract_z
Si Si1 0.649577 0.296257 0.643954
Si Si2 0.901415 0.282542 0.311035
Si Si3 0.216303 0.715533 0.155264
Si Si4 0.241087 0.296619 0.618276
Si Si5 0.855238 0.715167 0.166464
Si Si6 0.022471 0.207759 0.854051
Si Si7 0.388981 0.208665 0.170926
Si Si8 0.426357 0.282826 0.851818
O O1 0.500000 0.211574 0.500000
O O2 0.586176 0.500000 0.607516
O O3 0.684576 0.217989 0.723732
O O4 0.848212 0.297264 0.757063
O O5 0.909964 0.500000 0.316660
O O6 0.924223 0.224679 0.269971
O O7 0.699798 0.234273 0.190294
O O8 0.062860 0.217766 0.463327
O O9 0.211113 0.500000 0.153744
O O10 0.323766 0.767316 0.181454
O O11 0.000000 0.776087 0.000000
O O12 0.188428 0.500000 0.593160
O O13 0.415926 0.296435 0.704659
O O14 0.320167 0.219285 0.726258
O O15 0.854697 0.500000 0.166024
O O16 0.974417 0.773195 0.203385
O O17 0.640504 0.776512 0.006443
O O18 0.012298 0.000000 0.860299
O O19 0.219362 0.278067 0.015645
O O20 0.412521 0.000000 0.177038
O O21 0.432796 0.500000 0.854507
#
# Coordination Sequence:
#
# PCOD9146487 Si02
#       8
#     4   4   4   4   4   4   4   4
#     4  10  22  40  62  88 115 141 174 220 272 323
#     4   9  18  31  51  83 115 138 175 233 283 321
#     4  10  20  36  61  87 109 138 178 222 265 317
#     4  10  19  33  55  81 109 143 182 226 275 325
#     4  10  19  33  56  82 109 144 184 226 272 324
#     4  11  23  38  57  80 111 148 184 224 267 320
#     4  11  23  37  56  81 111 146 185 228 268 316
#     4   9  16  29  53  82 109 141 181 226 276 326
#
# _framework density 22.309139999999999
#
# number of rings (size 3 to 8) (size 9 to 14) (size 15 to 20)
#    0.000    2.000    2.500    1.500    0.000    6.000 
#    0.000    5.625    0.000    4.500    0.000    0.000 
#    0.000    0.000    0.000    0.000    0.000    0.000 
#
# Total GULP energy -178845.245408 kJ/mol
# GULP energy per Si atom -5588.913919 kJ/mol
# Density = 2.225836 g / cm^3
# Si number density = 22.309140 Si / 1000 Ang^3
#
#
#
# Elastic Constant Matrix: (Units=GPa)
#
#
# Indices 1 2 3 4 5 6 
#
# 1 88.2023 -8.8825 -17.8915 0.0000 -8.5930 0.0000
# 2 -8.8825 63.0031 4.0179 0.0000 -5.8773 0.0000
# 3 -17.8915 4.0179 46.4903 0.0000 -13.0604 0.0000
# 4 0.0000 0.0000 0.0000 3.0111 0.0000 19.4084
# 5 -8.5930 -5.8773 -13.0604 0.0000 38.3394 0.0000
# 6 0.0000 0.0000 0.0000 19.4084 0.0000 112.2693
#
#
#
# Elastic Compliance Matrix: (Units=1/GPa)
#
#
# Indices 1 2 3 4 5 6 
#
# 1 0.013405 0.001989 0.006543 0.000000 0.005538 0.000000
# 2 0.001989 0.016423 0.000198 0.000000 0.003031 0.000000
# 3 0.006543 0.000198 0.027017 0.000000 0.010700 0.000000
# 4 0.000000 0.000000 0.000000 -2.905818 0.000000 0.502340
# 5 0.005538 0.003031 0.010700 0.000000 0.031434 0.000000
# 6 0.000000 0.000000 0.000000 0.502340 0.000000 -0.077934
#
#
# Mechanical properties :
#
#
# Convention : Reuss Voigt Hill
#
# Bulk Modulus (GPa) = 13.45846 16.90929 15.18387
# Shear Modulus (GPa) = -1.73120 45.42071 21.84475
#
# Velocity S-wave (km/s) = -0.88187 4.51707 3.13259
# Velocity P-wave (km/s) = 2.23805 5.89925 4.46151
#
# Compressibility (1/GPa) = 0.07430270
#
# Stress axis : x y z
#
# Youngs Moduli (GPa) = 74.60146 60.89088 37.01431
#
# Poissons Ratio (x) = -0.12113 -0.24217
# Poissons Ratio (y) = -0.14840 -0.00731
# Poissons Ratio (z) = -0.48808 -0.01203
#
# Static dielectric constant tensor:
#      x y z
#    x 1.774690 0.000000 -0.031980 
#    y 0.000000 1.869800 0.000000 
#    z -0.031980 0.000000 1.809550 
# 
# From -- ./inp_files/93633.got.cif
#   From: 2010.05.17/outbox.cif.g08.bks.cpg/sg10_47_cif.got.tgz:93633.got - 2010.06.03 11:33:40.
