data_PCOD9146403
_publ_section_title
;
Structure prediction by ZEFSAII (Michael W. Deem and Ramdas Pophale) SiO2 
 PCOD9146403
Probable space group: P 2/M
;
_chemical_formula_sum "Si O2"
_cell_formula_units_Z 32
_cell_length_a 14.406017
_cell_length_b 8.021688
_cell_length_c 21.758401
_cell_angle_alpha 90.000000
_cell_angle_beta 41.307597
_cell_angle_gamma 90.000000
_cell_volume 1659.767425
_symmetry_space_group_name_H-M "P 2/M"
_symmetry_group_IT_number 10
_symmetry_cell_setting 'monoclinic'
loop_
_space_group_symop_operation_xyz
x,y,z
-x,y,-z
-x,-y,-z
x,-y,z
loop_
_atom_site_type_symbol
_atom_site_label
_atom_site_fract_x
_atom_site_fract_y
_atom_site_fract_z
Si Si1 0.658430 0.197239 0.921739
Si Si2 0.338655 0.295925 0.579845
Si Si3 0.164925 0.704835 0.784809
Si Si4 0.842651 0.699950 0.945384
Si Si5 0.165484 0.697582 0.283409
Si Si6 0.158821 0.700911 0.552198
Si Si7 0.837846 0.198802 0.582420
Si Si8 0.171398 0.306823 0.915299
O O1 0.746557 0.264028 0.935355
O O2 0.739561 0.231424 0.817966
O O3 0.649402 0.000000 0.934632
O O4 0.500000 0.267083 0.000000
O O5 0.500000 0.242177 0.500000
O O6 0.337392 0.500000 0.579797
O O7 0.260114 0.242491 0.680870
O O8 0.252879 0.241042 0.562310
O O9 0.165694 0.500000 0.785979
O O10 0.213048 0.764990 0.828428
O O11 0.003112 0.757495 0.855214
O O12 0.851226 0.500000 0.948259
O O13 0.789149 0.767404 0.038122
O O14 0.159589 0.500000 0.277531
O O15 0.222500 0.734221 0.323612
O O16 0.003375 0.762325 0.361326
O O17 0.153456 0.500000 0.556684
O O18 0.219961 0.750166 0.455220
O O19 0.000000 0.261947 0.500000
O O20 0.839027 0.000000 0.585675
O O21 0.218364 0.500000 0.891468
O O22 0.000000 0.307629 0.000000
#
# Coordination Sequence:
#
# PCOD9146403 Si02
#       8
#     4   4   4   4   4   4   4   4
#     4  11  24  38  49  66  98 135 164 197 247 303
#     4   9  16  25  39  63  98 134 162 193 236 283
#     4   8  13  24  44  70  96 121 153 196 244 285
#     4   9  16  29  51  74  92 116 157 204 242 281
#     4  10  19  33  55  77  96 123 163 211 252 288
#     4   9  17  30  49  75 103 130 165 208 249 286
#     4   9  17  30  50  76 103 130 161 199 246 299
#     4   7  11  21  41  68  92 113 145 195 246 283
#
# _framework density 19.279810000000001
#
# number of rings (size 3 to 8) (size 9 to 14) (size 15 to 20)
#    0.000    3.000    0.000    3.375    0.000    5.000 
#    0.000    1.250    0.000    6.750    0.000    0.000 
#    0.000    0.000    0.000    0.000    0.000    0.000 
#
# Total GULP energy -178293.776688 kJ/mol
# GULP energy per Si atom -5571.680522 kJ/mol
# Density = 1.923593 g / cm^3
# Si number density = 19.279810 Si / 1000 Ang^3
#
#
#
# Elastic Constant Matrix: (Units=GPa)
#
#
# Indices 1 2 3 4 5 6 
#
# 1 99.3575 -3.6608 111.7969 0.0000 27.6254 0.0000
# 2 -3.6608 7.0013 -6.9426 0.0000 -5.7325 0.0000
# 3 111.7969 -6.9426 98.5698 0.0000 21.7310 0.0000
# 4 0.0000 0.0000 0.0000 22.1806 0.0000 31.5729
# 5 27.6254 -5.7325 21.7310 0.0000 27.2460 0.0000
# 6 0.0000 0.0000 0.0000 31.5729 0.0000 108.6242
#
#
#
# Elastic Compliance Matrix: (Units=1/GPa)
#
#
# Indices 1 2 3 4 5 6 
#
# 1 -0.031435 0.026191 0.035499 0.000000 0.009070 0.000000
# 2 0.026191 0.152819 -0.024480 0.000000 0.025122 0.000000
# 3 0.035499 -0.024480 -0.027629 0.000000 -0.019107 0.000000
# 4 0.000000 0.000000 0.000000 0.076902 0.000000 -0.022353
# 5 0.009070 0.025122 -0.019107 0.000000 0.048031 0.000000
# 6 0.000000 0.000000 0.000000 -0.022353 0.000000 0.015703
#
#
# Mechanical properties :
#
#
# Convention : Reuss Voigt Hill
#
# Bulk Modulus (GPa) = 5.94624 45.25728 25.60176
# Shear Modulus (GPa) = 23.14484 38.52582 30.83533
#
# Velocity S-wave (km/s) = 3.46854 4.47503 4.00354
# Velocity P-wave (km/s) = 4.37400 7.08703 5.88888
#
# Compressibility (1/GPa) = 0.16817343
#
# Stress axis : x y z
#
# Youngs Moduli (GPa) = -31.81126 6.54367 -36.19373
#
# Poissons Ratio (x) = -0.17138 1.28483
# Poissons Ratio (y) = 0.83316 -0.88604
# Poissons Ratio (z) = 1.12926 0.16019
#
# Static dielectric constant tensor:
#      x y z
#    x 1.675210 0.000000 0.025770 
#    y 0.000000 1.680840 0.000000 
#    z 0.025770 0.000000 1.668350 
# 
# From -- ./inp_files/84714.got.cif
#   From: 2010.05.17/outbox.cif.g08.bks.cpg/sg10_43_cif.got.tgz:84714.got - 2010.06.03 11:33:40.
