data_PCOD9146605
_publ_section_title
;
Structure prediction by ZEFSAII (Michael W. Deem and Ramdas Pophale) SiO2 
 PCOD9146605
Probable space group: P 2/M
;
_chemical_formula_sum "Si O2"
_cell_formula_units_Z 28
_cell_length_a 28.334187
_cell_length_b 8.698217
_cell_length_c 9.945016
_cell_angle_alpha 90.000000
_cell_angle_beta 141.321875
_cell_angle_gamma 90.000000
_cell_volume 1531.750513
_symmetry_space_group_name_H-M "P 2/M"
_symmetry_group_IT_number 10
_symmetry_cell_setting 'monoclinic'
loop_
_space_group_symop_operation_xyz
x,y,z
-x,y,-z
-x,-y,-z
x,-y,z
loop_
_atom_site_type_symbol
_atom_site_label
_atom_site_fract_x
_atom_site_fract_y
_atom_site_fract_z
Si Si1 0.206778 0.315911 0.686224
Si Si2 0.369627 0.815740 0.368001
Si Si3 0.949132 0.316636 0.767178
Si Si4 0.498523 0.315965 0.840596
Si Si5 0.803841 0.184645 0.042566
Si Si6 0.041203 0.178295 0.735235
Si Si7 0.371440 0.184226 0.060123
O O1 0.213590 0.500000 0.691825
O O2 0.136813 0.260105 0.439623
O O3 0.186619 0.269358 0.794338
O O4 0.287476 0.240509 0.836818
O O5 0.423512 0.736669 0.595086
O O6 0.280990 0.783347 0.195393
O O7 0.386208 0.768790 0.249381
O O8 0.380811 0.000000 0.400234
O O9 0.943199 0.500000 0.771580
O O10 0.994940 0.280597 0.734576
O O11 0.000000 0.251444 0.000000
O O12 0.503003 0.500000 0.849897
O O13 0.567712 0.249940 0.907332
O O14 0.500000 0.264126 0.000000
O O15 0.808944 0.000000 0.078790
O O16 0.871909 0.225269 0.094746
O O17 0.000000 0.184556 0.500000
O O18 0.039278 0.000000 0.776005
O O19 0.373710 0.000000 0.062891
#
# Coordination Sequence:
#
# PCOD9146605 Si02
#       7
#     4   4   4   4   4   4   4
#     4  10  19  33  56  82 111 145 186 229 273 325
#     4   9  19  36  59  84 112 143 182 227 273 327
#     4  10  22  38  53  76 113 153 189 228 276 328
#     4  11  24  40  57  82 116 148 181 221 269 325
#     4   9  18  34  55  83 115 142 179 233 281 321
#     4  10  19  33  57  83 110 144 186 233 276 320
#     4  10  21  38  62  87 110 141 182 228 277 327
#
# _framework density 18.279741000000001
#
# number of rings (size 3 to 8) (size 9 to 14) (size 15 to 20)
#    0.000    2.143    1.429    2.571    0.000    7.429 
#    2.571    0.000    0.000    0.000    0.000    0.000 
#    0.000    0.000    0.000    0.000    0.000    0.000 
#
# Total GULP energy -156225.337713 kJ/mol
# GULP energy per Si atom -5579.476347 kJ/mol
# Density = 1.823814 g / cm^3
# Si number density = 18.279741 Si / 1000 Ang^3
#
#
#
# Elastic Constant Matrix: (Units=GPa)
#
#
# Indices 1 2 3 4 5 6 
#
# 1 76.0917 16.0561 63.7459 0.0000 13.3927 0.0000
# 2 16.0561 20.5711 37.6739 0.0000 3.1165 0.0000
# 3 63.7459 37.6739 153.0673 0.0000 7.6591 0.0000
# 4 0.0000 0.0000 0.0000 3.1584 0.0000 9.9167
# 5 13.3927 3.1165 7.6591 0.0000 20.0587 0.0000
# 6 0.0000 0.0000 0.0000 9.9167 0.0000 31.2444
#
#
#
# Elastic Compliance Matrix: (Units=1/GPa)
#
#
# Indices 1 2 3 4 5 6 
#
# 1 0.022600 0.000548 -0.008959 0.000000 -0.011754 0.000000
# 2 0.000548 0.089128 -0.021872 0.000000 -0.005862 0.000000
# 3 -0.008959 -0.021872 0.015474 0.000000 0.003471 0.000000
# 4 0.000000 0.000000 0.000000 91.756914 0.000000-29.122919
# 5 -0.011754 -0.005862 0.003471 0.000000 0.057287 0.000000
# 6 0.000000 0.000000 0.000000-29.122919 0.000000 9.275390
#
#
# Mechanical properties :
#
#
# Convention : Reuss Voigt Hill
#
# Bulk Modulus (GPa) = 15.00669 53.85355 34.43012
# Shear Modulus (GPa) = 0.04936 19.70925 9.87930
#
# Velocity S-wave (km/s) = 0.16450 3.28716 2.32728
# Velocity P-wave (km/s) = 2.87461 6.62812 5.10859
#
# Compressibility (1/GPa) = 0.06663693
#
# Stress axis : x y z
#
# Youngs Moduli (GPa) = 44.24683 11.21981 64.62660
#
# Poissons Ratio (x) = -0.00615 0.57898
# Poissons Ratio (y) = -0.02424 1.41349
# Poissons Ratio (z) = 0.39640 0.24540
#
# Static dielectric constant tensor:
#      x y z
#    x 1.609580 0.000000 0.013910 
#    y 0.000000 1.621410 0.000000 
#    z 0.013910 0.000000 1.643830 
# 
# From -- ./inp_files/36962.got.cif
#   From: 2010.05.17/outbox.cif.g08.bks.cpg/sg10_19_cif.got.tgz:36962.got - 2010.06.03 11:33:40.
