data_PCOD9146531
_publ_section_title
;
Structure prediction by ZEFSAII (Michael W. Deem and Ramdas Pophale) SiO2 
 PCOD9146531
Probable space group: P 2/M
;
_chemical_formula_sum "Si O2"
_cell_formula_units_Z 32
_cell_length_a 13.402927
_cell_length_b 7.710561
_cell_length_c 15.103594
_cell_angle_alpha 90.000000
_cell_angle_beta 119.865424
_cell_angle_gamma 90.000000
_cell_volume 1353.579926
_symmetry_space_group_name_H-M "P 2/M"
_symmetry_group_IT_number 10
_symmetry_cell_setting 'monoclinic'
loop_
_space_group_symop_operation_xyz
x,y,z
-x,y,-z
-x,-y,-z
x,-y,z
loop_
_atom_site_type_symbol
_atom_site_label
_atom_site_fract_x
_atom_site_fract_y
_atom_site_fract_z
Si Si1 0.301780 0.707879 0.987463
Si Si2 0.558527 0.796091 0.436282
Si Si3 0.218602 0.204386 0.765164
Si Si4 0.372505 0.710587 0.208548
Si Si5 0.177455 0.695132 0.257544
Si Si6 0.058957 0.698052 0.944845
Si Si7 0.226947 0.208803 0.572233
Si Si8 0.050284 0.292878 0.360317
O O1 0.308326 0.500000 0.993891
O O2 0.303585 0.744588 0.883309
O O3 0.173251 0.772787 0.955320
O O4 0.373326 0.769350 0.105700
O O5 0.500000 0.722813 0.500000
O O6 0.473130 0.778306 0.315374
O O7 0.677247 0.718873 0.452768
O O8 0.578094 0.000000 0.463640
O O9 0.246368 0.277939 0.680130
O O10 0.081639 0.242138 0.717074
O O11 0.228583 0.000000 0.764681
O O12 0.375758 0.500000 0.208387
O O13 0.257068 0.763897 0.213257
O O14 0.223509 0.500000 0.294438
O O15 0.147859 0.786890 0.336715
O O16 0.046539 0.680658 0.166878
O O17 0.093283 0.500000 0.989353
O O18 0.000000 0.792666 0.000000
O O19 0.100989 0.247468 0.478416
O O20 0.239504 0.000000 0.581201
O O21 0.053828 0.500000 0.352403
#
# Coordination Sequence:
#
# PCOD9146531 Si02
#       8
#     4   4   4   4   4   4   4   4
#     4  10  19  33  55  83 115 150 189 232 275 324
#     4  10  22  42  65  85 109 144 185 234 287 335
#     4  11  23  38  56  79 113 155 191 226 273 335
#     4  10  20  34  58  89 117 147 186 234 285 333
#     4   9  16  27  48  81 116 147 177 214 270 335
#     4   9  13  23  46  73 107 148 181 212 260 324
#     4  10  23  42  59  78 109 149 190 231 282 340
#     4  11  21  34  58  89 116 146 186 232 280 331
#
# _framework density 23.641013000000001
#
# number of rings (size 3 to 8) (size 9 to 14) (size 15 to 20)
#    0.000    2.000    2.500    1.875    0.000    3.750 
#    0.000    1.250    0.000    4.875    0.000    0.000 
#    0.000    0.000    0.000    0.000    0.000    0.000 
#
# Total GULP energy -178251.444477 kJ/mol
# GULP energy per Si atom -5570.357640 kJ/mol
# Density = 2.358720 g / cm^3
# Si number density = 23.641013 Si / 1000 Ang^3
#
#
#
# Elastic Constant Matrix: (Units=GPa)
#
#
# Indices 1 2 3 4 5 6 
#
# 1 56.3536 2.5191 41.3411 0.0000 -21.0994 0.0000
# 2 2.5191 44.3462 -0.7218 0.0000 -9.8695 0.0000
# 3 41.3411 -0.7218 160.5873 0.0000 -27.3667 0.0000
# 4 0.0000 0.0000 0.0000 20.0957 0.0000 0.5002
# 5 -21.0994 -9.8695 -27.3667 0.0000 37.3794 0.0000
# 6 0.0000 0.0000 0.0000 0.5002 0.0000 7.9126
#
#
#
# Elastic Compliance Matrix: (Units=1/GPa)
#
#
# Indices 1 2 3 4 5 6 
#
# 1 0.025245 0.000971 -0.004596 0.000000 0.011141 0.000000
# 2 0.000971 0.024256 0.001193 0.000000 0.007826 0.000000
# 3 -0.004596 0.001193 0.008029 0.000000 0.003599 0.000000
# 4 0.000000 0.000000 0.000000 0.049840 0.000000 -0.003151
# 5 0.011141 0.007826 0.003599 0.000000 0.037743 0.000000
# 6 0.000000 0.000000 0.000000 -0.003151 0.000000 0.126579
#
#
# Mechanical properties :
#
#
# Convention : Reuss Voigt Hill
#
# Bulk Modulus (GPa) = 18.98815 38.61821 28.80318
# Shear Modulus (GPa) = 17.00035 27.62079 22.31057
#
# Velocity S-wave (km/s) = 2.68452 3.42181 3.07534
# Velocity P-wave (km/s) = 4.20216 5.65530 4.98200
#
# Compressibility (1/GPa) = 0.05266442
#
# Stress axis : x y z
#
# Youngs Moduli (GPa) = 39.61234 41.22738 124.54881
#
# Poissons Ratio (x) = -0.04002 0.57241
# Poissons Ratio (y) = -0.03845 -0.14855
# Poissons Ratio (z) = 0.18205 -0.04917
#
# Static dielectric constant tensor:
#      x y z
#    x 1.968040 0.000000 -0.081640 
#    y 0.000000 1.913430 0.000000 
#    z -0.081640 0.000000 2.007690 
# 
# From -- ./inp_files/66629.got.cif
#   From: 2010.05.17/outbox.cif.g08.bks.cpg/sg10_34_cif.got.tgz:66629.got - 2010.06.03 11:33:40.
