data_PCOD9146735
_publ_section_title
;
Structure prediction by ZEFSAII (Michael W. Deem and Ramdas Pophale) SiO2 
 PCOD9146735
Probable space group: P 2/M
;
_chemical_formula_sum "Si O2"
_cell_formula_units_Z 32
_cell_length_a 13.382261
_cell_length_b 14.677190
_cell_length_c 20.261257
_cell_angle_alpha 90.000000
_cell_angle_beta 156.835385
_cell_angle_gamma 90.000000
_cell_volume 1565.469677
_symmetry_space_group_name_H-M "P 2/M"
_symmetry_group_IT_number 10
_symmetry_cell_setting 'monoclinic'
loop_
_space_group_symop_operation_xyz
x,y,z
-x,y,-z
-x,-y,-z
x,-y,z
loop_
_atom_site_type_symbol
_atom_site_label
_atom_site_fract_x
_atom_site_fract_y
_atom_site_fract_z
Si Si1 0.894588 0.732422 0.132699
Si Si2 0.836229 0.790227 0.527804
Si Si3 0.694697 0.097191 0.327526
Si Si4 0.860314 0.606222 0.984556
Si Si5 0.426284 0.160710 0.884498
Si Si6 0.299836 0.604576 0.431247
Si Si7 0.327406 0.400907 0.595003
Si Si8 0.241279 0.892395 0.384522
O O1 0.052765 0.667290 0.278198
O O2 0.031343 0.831423 0.218452
O O3 0.910208 0.678278 0.073036
O O4 0.610413 0.752396 0.985608
O O5 0.661002 0.827783 0.362182
O O6 0.853277 0.684689 0.517863
O O7 0.724149 0.834801 0.526509
O O8 0.127222 0.821447 0.707007
O O9 0.553135 0.108388 0.172470
O O10 0.000000 0.098670 0.500000
O O11 0.631280 0.000000 0.318949
O O12 0.925327 0.500000 0.041479
O O13 0.560337 0.608198 0.785814
O O14 0.000000 0.626988 0.000000
O O15 0.500000 0.118223 0.000000
O O16 0.500000 0.640758 0.500000
O O17 0.235948 0.500000 0.375627
O O18 0.429950 0.602439 0.581673
O O19 0.205472 0.500000 0.530006
O O20 0.500000 0.891402 0.500000
O O21 0.172362 0.000000 0.354114
#
# Coordination Sequence:
#
# PCOD9146735 Si02
#       8
#     4   4   4   4   4   4   4   4
#     4  12  22  39  61  91 128 167 202 259 330 371
#     4  11  21  42  65  86 127 171 213 261 314 379
#     4   9  20  37  61  88 112 154 212 266 314 365
#     4  10  22  38  61  96 132 165 212 267 319 374
#     4  11  22  39  59  94 128 165 210 264 316 384
#     4  10  19  33  58  88 116 154 210 256 293 358
#     4  10  20  35  56  86 119 160 209 248 298 369
#     4  11  25  42  64  94 126 165 215 264 319 387
#
# _framework density 20.44115
#
# number of rings (size 3 to 8) (size 9 to 14) (size 15 to 20)
#    0.000    1.500    2.500    2.625    1.750    3.250 
#    0.000    1.250    0.000    8.625    0.000    0.000 
#    0.000    0.000    0.000    0.000    0.000    0.000 
#
# Total GULP energy -178236.614859 kJ/mol
# GULP energy per Si atom -5569.894214 kJ/mol
# Density = 2.039462 g / cm^3
# Si number density = 20.441150 Si / 1000 Ang^3
#
#
#
# Elastic Constant Matrix: (Units=GPa)
#
#
# Indices 1 2 3 4 5 6 
#
# 1 56.5666 21.7339 20.9951 0.0000 -18.2626 0.0000
# 2 21.7339 109.5694 30.8882 0.0000 -24.5093 0.0000
# 3 20.9951 30.8882 74.8485 0.0000 -27.3451 0.0000
# 4 0.0000 0.0000 0.0000 22.3685 0.0000 -9.1872
# 5 -18.2626 -24.5093 -27.3451 0.0000 38.1457 0.0000
# 6 0.0000 0.0000 0.0000 -9.1872 0.0000 19.1457
#
#
#
# Elastic Compliance Matrix: (Units=1/GPa)
#
#
# Indices 1 2 3 4 5 6 
#
# 1 0.021754 -0.001943 -0.002644 0.000000 0.007271 0.000000
# 2 -0.001943 0.011210 -0.002424 0.000000 0.004534 0.000000
# 3 -0.002644 -0.002424 0.019064 0.000000 0.010843 0.000000
# 4 0.000000 0.000000 0.000000 0.055680 0.000000 0.026718
# 5 0.007271 0.004534 0.010843 0.000000 0.040382 0.000000
# 6 0.000000 0.000000 0.000000 0.026718 0.000000 0.065052
#
#
# Mechanical properties :
#
#
# Convention : Reuss Voigt Hill
#
# Bulk Modulus (GPa) = 26.31279 43.13543 34.72411
# Shear Modulus (GPa) = 20.84800 27.08980 23.96890
#
# Velocity S-wave (km/s) = 3.19706 3.64436 3.42801
# Velocity P-wave (km/s) = 5.15060 6.23350 5.71774
#
# Compressibility (1/GPa) = 0.03800433
#
# Stress axis : x y z
#
# Youngs Moduli (GPa) = 45.96948 89.20767 52.45616
#
# Poissons Ratio (x) = 0.17336 0.13867
# Poissons Ratio (y) = 0.08933 0.12717
# Poissons Ratio (z) = 0.12152 0.21628
#
# Static dielectric constant tensor:
#      x y z
#    x 1.774770 0.000000 -0.021890 
#    y 0.000000 1.776260 0.000000 
#    z -0.021890 0.000000 1.736280 
# 
# From -- ./inp_files/85423.got.cif
#   From: 2010.05.17/outbox.cif.g08.bks.cpg/sg10_43_cif.got.tgz:85423.got - 2010.06.03 11:33:40.
