data_PCOD9146110
_publ_section_title
;
Structure prediction by ZEFSAII (Michael W. Deem and Ramdas Pophale) SiO2 
 PCOD9146110
Probable space group: P 2/M
;
_chemical_formula_sum "Si O2"
_cell_formula_units_Z 32
_cell_length_a 14.916362
_cell_length_b 7.757241
_cell_length_c 17.305302
_cell_angle_alpha 90.000000
_cell_angle_beta 131.402947
_cell_angle_gamma 90.000000
_cell_volume 1501.949261
_symmetry_space_group_name_H-M "P 2/M"
_symmetry_group_IT_number 10
_symmetry_cell_setting 'monoclinic'
loop_
_space_group_symop_operation_xyz
x,y,z
-x,y,-z
-x,-y,-z
x,-y,z
loop_
_atom_site_type_symbol
_atom_site_label
_atom_site_fract_x
_atom_site_fract_y
_atom_site_fract_z
Si Si1 0.764379 0.788442 0.663096
Si Si2 0.283597 0.791709 0.528849
Si Si3 0.346391 0.296263 0.728443
Si Si4 0.393223 0.291297 0.180728
Si Si5 0.636652 0.800454 0.089971
Si Si6 0.541060 0.800488 0.622253
Si Si7 0.807749 0.298945 0.053106
Si Si8 0.040671 0.801660 0.107136
O O1 0.793344 0.740783 0.590568
O O2 0.627754 0.733484 0.604908
O O3 0.852481 0.723418 0.780201
O O4 0.765145 0.000000 0.666061
O O5 0.263945 0.735380 0.606065
O O6 0.416393 0.723795 0.581072
O O7 0.284809 0.000000 0.532269
O O8 0.351926 0.500000 0.744460
O O9 0.479113 0.234142 0.780126
O O10 0.323054 0.214493 0.798152
O O11 0.394813 0.500000 0.187495
O O12 0.377338 0.211845 0.255224
O O13 0.288894 0.239384 0.064674
O O14 0.737867 0.718509 0.093744
O O15 0.630139 0.000000 0.063296
O O16 0.500000 0.729051 0.000000
O O17 0.515132 0.000000 0.590981
O O18 0.834076 0.500000 0.055304
O O19 0.929057 0.202261 0.102531
O O20 0.074665 0.000000 0.109945
O O21 0.000000 0.726856 0.000000
#
# Coordination Sequence:
#
# PCOD9146110 Si02
#       8
#     4   4   4   4   4   4   4   4
#     4   9  17  31  51  74 103 139 179 229 280 318
#     4   9  17  30  50  76 105 138 180 224 270 326
#     4  10  19  33  51  75 110 144 172 208 265 326
#     4   9  18  30  45  69 104 141 171 207 261 321
#     4  11  22  35  56  85 113 141 178 221 268 327
#     4   9  16  27  48  75 101 134 178 223 267 318
#     4  11  22  36  54  77 109 148 185 224 273 325
#     4  10  21  37  56  79 109 147 191 235 274 316
#
# _framework density 21.305647
#
# number of rings (size 3 to 8) (size 9 to 14) (size 15 to 20)
#    0.000    2.250    1.250    2.250    0.000    4.750 
#    0.000    1.875    0.000    3.750    0.000    5.250 
#    0.000    0.000    0.000    0.000    0.000    0.000 
#
# Total GULP energy -178373.076033 kJ/mol
# GULP energy per Si atom -5574.158626 kJ/mol
# Density = 2.125715 g / cm^3
# Si number density = 21.305647 Si / 1000 Ang^3
#
#
#
# Elastic Constant Matrix: (Units=GPa)
#
#
# Indices 1 2 3 4 5 6 
#
# 1 60.8507 -2.8028 21.3039 0.0000 -13.4334 0.0000
# 2 -2.8028 32.4239 -0.6802 0.0000 2.0365 0.0000
# 3 21.3039 -0.6802 122.7483 0.0000 -18.9533 0.0000
# 4 0.0000 0.0000 0.0000 33.3121 0.0000 -27.9234
# 5 -13.4334 2.0365 -18.9533 0.0000 31.0990 0.0000
# 6 0.0000 0.0000 0.0000 -27.9234 0.0000 28.6126
#
#
#
# Elastic Compliance Matrix: (Units=1/GPa)
#
#
# Indices 1 2 3 4 5 6 
#
# 1 0.018734 0.001154 -0.002216 0.000000 0.006666 0.000000
# 2 0.001154 0.031043 -0.000293 0.000000 -0.001713 0.000000
# 3 -0.002216 -0.000293 0.009256 0.000000 0.004703 0.000000
# 4 0.000000 0.000000 0.000000 0.164983 0.000000 0.161009
# 5 0.006666 -0.001713 0.004703 0.000000 0.038013 0.000000
# 6 0.000000 0.000000 0.000000 0.161009 0.000000 0.192081
#
#
# Mechanical properties :
#
#
# Convention : Reuss Voigt Hill
#
# Bulk Modulus (GPa) = 17.75431 27.96272 22.85852
# Shear Modulus (GPa) = 10.51317 31.81821 21.16569
#
# Velocity S-wave (km/s) = 2.22377 3.86867 3.15529
# Velocity P-wave (km/s) = 3.86585 5.75400 4.90170
#
# Compressibility (1/GPa) = 0.05632436
#
# Stress axis : x y z
#
# Youngs Moduli (GPa) = 53.37815 32.21376 108.03953
#
# Poissons Ratio (x) = -0.03718 0.23939
# Poissons Ratio (y) = -0.06161 0.03163
# Poissons Ratio (z) = 0.11827 0.00943
#
# Static dielectric constant tensor:
#      x y z
#    x 1.788870 0.000000 -0.012070 
#    y 0.000000 1.778410 0.000000 
#    z -0.012070 0.000000 1.833860 
# 
# From -- ./inp_files/66633.got.cif
#   From: 2010.05.17/outbox.cif.g08.bks.cpg/sg10_34_cif.got.tgz:66633.got - 2010.06.03 11:33:40.
