data_PCOD9146346
_publ_section_title
;
Structure prediction by ZEFSAII (Michael W. Deem and Ramdas Pophale) SiO2 
 PCOD9146346
Probable space group: P 2/M
;
_chemical_formula_sum "Si O2"
_cell_formula_units_Z 32
_cell_length_a 13.014498
_cell_length_b 8.704633
_cell_length_c 32.237326
_cell_angle_alpha 90.000000
_cell_angle_beta 152.724920
_cell_angle_gamma 90.000000
_cell_volume 1673.600164
_symmetry_space_group_name_H-M "P 2/M"
_symmetry_group_IT_number 10
_symmetry_cell_setting 'monoclinic'
loop_
_space_group_symop_operation_xyz
x,y,z
-x,y,-z
-x,-y,-z
x,-y,z
loop_
_atom_site_type_symbol
_atom_site_label
_atom_site_fract_x
_atom_site_fract_y
_atom_site_fract_z
Si Si1 0.871078 0.822930 0.826914
Si Si2 0.670582 0.314679 0.290055
Si Si3 0.907580 0.315597 0.711448
Si Si4 0.603940 0.680753 0.358558
Si Si5 0.084606 0.314305 0.381515
Si Si6 0.242244 0.315741 0.902463
Si Si7 0.439242 0.818125 0.570403
Si Si8 0.812282 0.820399 0.901627
O O1 0.661671 0.713835 0.741400
O O2 0.906538 0.813557 0.888796
O O3 0.086761 0.770011 0.879510
O O4 0.809867 0.000000 0.794747
O O5 0.669210 0.500000 0.290770
O O6 0.701183 0.263063 0.349153
O O7 0.429443 0.259740 0.186962
O O8 0.868759 0.263928 0.330789
O O9 0.872189 0.500000 0.699517
O O10 0.923871 0.265914 0.669482
O O11 0.694828 0.239144 0.657372
O O12 0.131923 0.283283 0.818080
O O13 0.649337 0.500000 0.378918
O O14 0.666330 0.761028 0.423969
O O15 0.090379 0.500000 0.384247
O O16 0.301537 0.252302 0.482879
O O17 0.226202 0.500000 0.903424
O O18 0.500000 0.271097 0.000000
O O19 0.432949 0.000000 0.566661
O O20 0.775344 0.000000 0.898973
O O21 0.000000 0.756365 0.000000
#
# Coordination Sequence:
#
# PCOD9146346 Si02
#       8
#     4   4   4   4   4   4   4   4
#     4  10  19  33  54  80 109 145 187 233 281 331
#     4   9  20  37  58  85 114 146 190 240 284 333
#     4  10  21  39  61  82 113 155 192 233 286 342
#     4  10  19  35  59  83 111 147 185 231 285 337
#     4  10  22  40  59  82 115 154 192 233 289 347
#     4  10  21  36  56  84 114 148 189 232 284 341
#     4  12  24  37  58  87 114 147 194 241 285 339
#     4   9  19  35  55  80 113 152 190 228 282 345
#
# _framework density 19.120456000000001
#
# number of rings (size 3 to 8) (size 9 to 14) (size 15 to 20)
#    0.000    2.000    1.250    2.250    0.000    5.500 
#    0.000    3.750    0.000    0.000    0.000    0.000 
#    0.000    0.000    0.000    0.000    0.000    0.000 
#
# Total GULP energy -178655.918371 kJ/mol
# GULP energy per Si atom -5582.997449 kJ/mol
# Density = 1.907694 g / cm^3
# Si number density = 19.120456 Si / 1000 Ang^3
#
#
#
# Elastic Constant Matrix: (Units=GPa)
#
#
# Indices 1 2 3 4 5 6 
#
# 1 88.7265 19.7270 27.9403 0.0000 -7.6779 0.0000
# 2 19.7270 14.0695 11.1832 0.0000 -6.1024 0.0000
# 3 27.9403 11.1832 82.1681 0.0000 -16.6797 0.0000
# 4 0.0000 0.0000 0.0000 -48.8155 0.0000 -24.4660
# 5 -7.6779 -6.1024 -16.6797 0.0000 23.8035 0.0000
# 6 0.0000 0.0000 0.0000 -24.4660 0.0000 9.1732
#
#
#
# Elastic Compliance Matrix: (Units=1/GPa)
#
#
# Indices 1 2 3 4 5 6 
#
# 1 0.017067 -0.022434 -0.003265 0.000000 -0.002534 0.000000
# 2 -0.022434 0.114034 -0.003994 0.000000 0.019199 0.000000
# 3 -0.003265 -0.003994 0.015625 0.000000 0.008872 0.000000
# 4 0.000000 0.000000 0.000000 -0.008767 0.000000 -0.023382
# 5 -0.002534 0.019199 0.008872 0.000000 0.052332 0.000000
# 6 0.000000 0.000000 0.000000 -0.023382 0.000000 0.046652
#
#
# Mechanical properties :
#
#
# Convention : Reuss Voigt Hill
#
# Bulk Modulus (GPa) = 11.44958 33.62945 22.53951
# Shear Modulus (GPa) = 15.36369 5.23982 10.30176
#
# Velocity S-wave (km/s) = 2.83772 1.65722 2.32369
# Velocity P-wave (km/s) = 4.09121 4.61392 4.36040
#
# Compressibility (1/GPa) = 0.08733944
#
# Stress axis : x y z
#
# Youngs Moduli (GPa) = 58.59161 8.76933 64.00097
#
# Poissons Ratio (x) = 0.19674 0.20893
# Poissons Ratio (y) = 1.31447 0.25563
# Poissons Ratio (z) = 0.19128 0.03503
#
# Static dielectric constant tensor:
#      x y z
#    x 1.666650 0.000000 -0.018750 
#    y 0.000000 1.650290 0.000000 
#    z -0.018750 0.000000 1.656380 
# 
# From -- ./inp_files/95042.got.cif
#   From: 2010.05.17/outbox.cif.g08.bks.cpg/sg10_48_cif.got.tgz:95042.got - 2010.06.03 11:33:40.
