data_PCOD9146855
_publ_section_title
;
Structure prediction by ZEFSAII (Michael W. Deem and Ramdas Pophale) SiO2 
 PCOD9146855
Probable space group: P 2/M
;
_chemical_formula_sum "Si O2"
_cell_formula_units_Z 30
_cell_length_a 13.141591
_cell_length_b 25.447181
_cell_length_c 7.673578
_cell_angle_alpha 90.000000
_cell_angle_beta 146.090614
_cell_angle_gamma 90.000000
_cell_volume 1431.618045
_symmetry_space_group_name_H-M "P 2/M"
_symmetry_group_IT_number 10
_symmetry_cell_setting 'monoclinic'
loop_
_space_group_symop_operation_xyz
x,y,z
-x,y,-z
-x,-y,-z
x,-y,z
loop_
_atom_site_type_symbol
_atom_site_label
_atom_site_fract_x
_atom_site_fract_y
_atom_site_fract_z
Si Si1 0.213246 0.557455 0.769106
Si Si2 0.914053 0.190309 0.654787
Si Si3 0.000000 0.093552 0.000000
Si Si4 0.578253 0.757748 0.309334
Si Si5 0.290094 0.057036 0.140439
Si Si6 0.267668 0.826981 0.976796
Si Si7 0.209781 0.558618 0.345887
Si Si8 0.497360 0.358890 0.210474
O O1 0.280641 0.500000 0.928042
O O2 0.233483 0.556895 0.588934
O O3 0.000000 0.560737 0.500000
O O4 0.317129 0.607346 0.993438
O O5 0.793729 0.231620 0.592292
O O6 0.821780 0.186547 0.335402
O O7 0.129433 0.197499 0.923504
O O8 0.897327 0.133981 0.724707
O O9 0.148612 0.062174 0.100179
O O10 0.521832 0.700971 0.301665
O O11 0.500000 0.759554 0.000000
O O12 0.469685 0.802961 0.258372
O O13 0.500000 0.058000 0.500000
O O14 0.258022 0.000000 0.008414
O O15 0.263901 0.110307 0.994691
O O16 0.255793 0.500000 0.344221
O O17 0.341010 0.605755 0.481414
O O18 0.000000 0.568357 0.000000
O O19 0.500000 0.357201 0.000000
#
# Coordination Sequence:
#
# PCOD9146855 Si02
#       8
#     4   4   2   4   4   4   4   4
#     4   9  17  31  51  75 101 131 172 216 258 309
#     4   9  18  33  53  74  98 136 173 206 255 309
#     4  10  19  34  54  76 104 136 171 208 258 308
#     4   9  17  32  51  74 102 133 171 215 257 305
#     4  10  20  34  54  79 106 134 168 211 256 305
#     4   9  18  34  53  75 101 135 173 208 255 311
#     4   9  17  31  51  72  99 136 169 207 262 315
#     4   9  17  31  49  75 100 133 175 215 257 307
#
# _framework density 20.955310000000001
#
# number of rings (size 3 to 8) (size 9 to 14) (size 15 to 20)
#    0.000    2.800    0.000    1.400    0.000    1.600 
#   10.800    6.667    0.000   11.600    0.000    0.000 
#    0.000    0.000    0.000    0.000    0.000    0.000 
#
# Total GULP energy -167221.609966 kJ/mol
# GULP energy per Si atom -5574.053666 kJ/mol
# Density = 2.090761 g / cm^3
# Si number density = 20.955310 Si / 1000 Ang^3
#
#
#
# Elastic Constant Matrix: (Units=GPa)
#
#
# Indices 1 2 3 4 5 6 
#
# 1 63.9018 50.0713 25.7089 0.0000 13.6842 0.0000
# 2 50.0713 137.5964 24.7556 0.0000 28.2139 0.0000
# 3 25.7089 24.7556 50.2539 0.0000 17.5865 0.0000
# 4 0.0000 0.0000 0.0000 19.8928 0.0000 13.6448
# 5 13.6842 28.2139 17.5865 0.0000 38.4889 0.0000
# 6 0.0000 0.0000 0.0000 13.6448 0.0000 13.5989
#
#
#
# Elastic Compliance Matrix: (Units=1/GPa)
#
#
# Indices 1 2 3 4 5 6 
#
# 1 0.025287 -0.007697 -0.009490 0.000000 0.000988 0.000000
# 2 -0.007697 0.011147 0.000415 0.000000 -0.005624 0.000000
# 3 -0.009490 0.000415 0.027944 0.000000 -0.009698 0.000000
# 4 0.000000 0.000000 0.000000 0.161238 0.000000 -0.161783
# 5 0.000988 -0.005624 -0.009698 0.000000 0.034184 0.000000
# 6 0.000000 0.000000 0.000000 -0.161783 0.000000 0.235864
#
#
# Mechanical properties :
#
#
# Convention : Reuss Voigt Hill
#
# Bulk Modulus (GPa) = 32.43391 50.31375 41.37383
# Shear Modulus (GPa) = 9.26807 24.47721 16.87264
#
# Velocity S-wave (km/s) = 2.10532 3.42141 2.84063
# Velocity P-wave (km/s) = 4.62829 6.29843 5.52681
#
# Compressibility (1/GPa) = 0.03083193
#
# Stress axis : x y z
#
# Youngs Moduli (GPa) = 39.54662 89.70854 35.78641
#
# Poissons Ratio (x) = 0.69049 0.33963
# Poissons Ratio (y) = 0.30439 -0.01484
# Poissons Ratio (z) = 0.37531 -0.03719
#
# Static dielectric constant tensor:
#      x y z
#    x 1.818750 0.000000 -0.012610 
#    y 0.000000 1.746120 0.000000 
#    z -0.012610 0.000000 1.760230 
# 
# From -- ./inp_files/30548.got.cif
#   From: 2010.05.17/outbox.cif.g08.bks.cpg/sg10_16_cif.got.tgz:30548.got - 2010.06.03 11:33:40.
