data_PCOD9146088
_publ_section_title
;
Structure prediction by ZEFSAII (Michael W. Deem and Ramdas Pophale) SiO2 
 PCOD9146088
Probable space group: P 2/M
;
_chemical_formula_sum "Si O2"
_cell_formula_units_Z 32
_cell_length_a 9.285072
_cell_length_b 13.278442
_cell_length_c 15.204923
_cell_angle_alpha 90.000000
_cell_angle_beta 56.341123
_cell_angle_gamma 90.000000
_cell_volume 1560.356092
_symmetry_space_group_name_H-M "P 2/M"
_symmetry_group_IT_number 10
_symmetry_cell_setting 'monoclinic'
loop_
_space_group_symop_operation_xyz
x,y,z
-x,y,-z
-x,-y,-z
x,-y,z
loop_
_atom_site_type_symbol
_atom_site_label
_atom_site_fract_x
_atom_site_fract_y
_atom_site_fract_z
Si Si1 0.193140 0.267082 0.925004
Si Si2 0.230518 0.887980 0.752635
Si Si3 0.272468 0.111171 0.250497
Si Si4 0.082389 0.821717 0.615526
Si Si5 0.298646 0.114762 0.042350
Si Si6 0.553995 0.314921 0.748509
Si Si7 0.061264 0.388421 0.377019
Si Si8 0.559903 0.206143 0.578244
O O1 0.188502 0.193388 0.841443
O O2 0.364408 0.336850 0.852633
O O3 0.232648 0.196146 0.995912
O O4 0.000000 0.312308 0.000000
O O5 0.145148 0.863455 0.687758
O O6 0.433885 0.877471 0.661196
O O7 0.183929 0.000000 0.797283
O O8 0.218798 0.123043 0.166218
O O9 0.397178 0.202135 0.233579
O O10 0.089245 0.123555 0.359784
O O11 0.348724 0.000000 0.235420
O O12 0.243305 0.827812 0.495429
O O13 0.028476 0.704304 0.641694
O O14 0.274830 0.000000 0.017553
O O15 0.500000 0.127997 0.000000
O O16 0.730188 0.376724 0.704540
O O17 0.539777 0.301624 0.648469
O O18 0.010179 0.500000 0.364659
O O19 0.000000 0.378517 0.500000
O O20 0.500000 0.229287 0.500000
#
# Coordination Sequence:
#
# PCOD9146088 Si02
#       8
#     4   4   4   4   4   4   4   4
#     4  11  22  35  55  80 110 158 203 240 281 325
#     4  10  21  34  51  78 117 163 202 233 269 324
#     4  10  20  31  49  76 110 151 187 233 285 331
#     4  10  19  34  54  78 114 144 185 236 277 339
#     4  10  19  33  50  74 111 151 201 251 285 319
#     4  10  20  36  54  81 116 142 185 240 281 340
#     4  10  20  37  66  90 107 138 181 234 301 357
#     4   9  19  33  50  69 108 150 185 228 276 326
#
# _framework density 20.508139
#
# number of rings (size 3 to 8) (size 9 to 14) (size 15 to 20)
#    0.000    2.000    2.500    1.500    0.000    6.750 
#    0.000    0.625    0.000   10.875    0.000   14.875 
#    0.000    0.000    0.000    0.000    0.000    0.000 
#
# Total GULP energy -178474.895185 kJ/mol
# GULP energy per Si atom -5577.340475 kJ/mol
# Density = 2.046146 g / cm^3
# Si number density = 20.508139 Si / 1000 Ang^3
#
#
#
# Elastic Constant Matrix: (Units=GPa)
#
#
# Indices 1 2 3 4 5 6 
#
# 1 65.7414 -7.4944 41.4998 0.0000 -25.2473 0.0000
# 2 -7.4944 40.1800 -3.2212 0.0000 -1.4925 0.0000
# 3 41.4998 -3.2212 83.4516 0.0000 -28.4950 0.0000
# 4 0.0000 0.0000 0.0000 -2.7570 0.0000 -3.4217
# 5 -25.2473 -1.4925 -28.4950 0.0000 56.5211 0.0000
# 6 0.0000 0.0000 0.0000 -3.4217 0.0000 4.9998
#
#
#
# Elastic Compliance Matrix: (Units=1/GPa)
#
#
# Indices 1 2 3 4 5 6 
#
# 1 0.024142 0.003936 -0.009828 0.000000 0.005933 0.000000
# 2 0.003936 0.025697 -0.000161 0.000000 0.002355 0.000000
# 3 -0.009828 -0.000161 0.018558 0.000000 0.004962 0.000000
# 4 0.000000 0.000000 0.000000 -0.196126 0.000000 -0.134223
# 5 0.005933 0.002355 0.004962 0.000000 0.022907 0.000000
# 6 0.000000 0.000000 0.000000 -0.134223 0.000000 0.108148
#
#
# Mechanical properties :
#
#
# Convention : Reuss Voigt Hill
#
# Bulk Modulus (GPa) = 17.76498 27.88239 22.82369
# Shear Modulus (GPa) = 146.21156 22.32537 84.26846
#
# Velocity S-wave (km/s) = 8.45276 3.30299 6.41712
# Velocity P-wave (km/s) = 10.19543 5.30769 8.12768
#
# Compressibility (1/GPa) = 0.05629052
#
# Stress axis : x y z
#
# Youngs Moduli (GPa) = 41.42102 38.91564 53.88394
#
# Poissons Ratio (x) = -0.15315 0.52957
# Poissons Ratio (y) = -0.16301 0.00867
# Poissons Ratio (z) = 0.40708 0.00626
#
# Static dielectric constant tensor:
#      x y z
#    x 1.788260 0.000000 -0.065350 
#    y 0.000000 1.690510 0.000000 
#    z -0.065350 0.000000 1.835050 
# 
# From -- ./inp_files/61839.got.cif
#   From: 2010.05.17/outbox.cif.g08.bks.cpg/sg10_31_cif.got.tgz:61839.got - 2010.06.03 11:33:40.
