data_PCOD9146380
_publ_section_title
;
Structure prediction by ZEFSAII (Michael W. Deem and Ramdas Pophale) SiO2 
 PCOD9146380
Probable space group: P 2/M
;
_chemical_formula_sum "Si O2"
_cell_formula_units_Z 30
_cell_length_a 18.287292
_cell_length_b 15.724504
_cell_length_c 5.257602
_cell_angle_alpha 90.000000
_cell_angle_beta 64.575578
_cell_angle_gamma 90.000000
_cell_volume 1365.447769
_symmetry_space_group_name_H-M "P 2/M"
_symmetry_group_IT_number 10
_symmetry_cell_setting 'monoclinic'
loop_
_space_group_symop_operation_xyz
x,y,z
-x,y,-z
-x,-y,-z
x,-y,z
loop_
_atom_site_type_symbol
_atom_site_label
_atom_site_fract_x
_atom_site_fract_y
_atom_site_fract_z
Si Si1 0.260539 0.902917 0.971319
Si Si2 0.343352 0.775464 0.244041
Si Si3 0.213240 0.408624 0.884078
Si Si4 0.674517 0.590642 0.788082
Si Si5 0.572110 0.907281 0.591730
Si Si6 0.944693 0.500000 0.333014
Si Si7 0.816911 0.769134 0.217403
Si Si8 0.943966 0.689725 0.335734
O O1 0.340909 0.910918 0.677850
O O2 0.186255 0.856754 0.934069
O O3 0.242175 0.000000 0.087033
O O4 0.291811 0.834746 0.130578
O O5 0.369584 0.681286 0.124915
O O6 0.416949 0.831790 0.228956
O O7 0.276861 0.760773 0.563095
O O8 0.167541 0.500000 0.948963
O O9 0.271063 0.410481 0.549297
O O10 0.166027 0.319223 0.957880
O O11 0.267358 0.408930 0.054531
O O12 0.628778 0.500000 0.859569
O O13 0.500000 0.894651 0.500000
O O14 0.562637 0.000000 0.726982
O O15 0.000000 0.500000 0.500000
O O16 0.904849 0.594083 0.404104
O O17 0.000000 0.500000 0.000000
O O18 0.874864 0.759169 0.375303
O O19 0.000000 0.703444 0.500000
O O20 0.000000 0.691963 0.000000
#
# Coordination Sequence:
#
# PCOD9146380 Si02
#       8
#     4   4   4   4   4   2   4   4
#     4  10  20  35  57  84 112 144 185 237 290 340
#     4  10  19  33  54  82 113 147 191 233 289 335
#     4   9  17  29  48  77 108 142 179 224 276 329
#     4   9  17  30  48  75 111 144 182 230 273 322
#     4   9  19  35  55  84 118 149 182 226 285 353
#     4   8  16  34  50  76 112 150 187 222 279 350
#     4  10  21  34  55  79 113 145 192 235 288 341
#     4  10  22  36  56  80 114 155 191 234 287 346
#
# _framework density 21.970817
#
# number of rings (size 3 to 8) (size 9 to 14) (size 15 to 20)
#    0.000    2.533    1.333    0.400    2.800    1.067 
#    0.000    2.000    0.000    1.200    0.000    0.933 
#    0.000    0.000    0.000    0.000    0.000    0.000 
#
# Total GULP energy -167198.352145 kJ/mol
# GULP energy per Si atom -5573.278405 kJ/mol
# Density = 2.192081 g / cm^3
# Si number density = 21.970817 Si / 1000 Ang^3
#
#
#
# Elastic Constant Matrix: (Units=GPa)
#
#
# Indices 1 2 3 4 5 6 
#
# 1 81.6607 84.3724 15.6792 0.0000 1.1003 0.0000
# 2 84.3724 226.6265 20.0979 0.0000 27.9483 0.0000
# 3 15.6792 20.0979 67.7395 0.0000 12.7392 0.0000
# 4 0.0000 0.0000 0.0000 28.5509 0.0000 10.3227
# 5 1.1003 27.9483 12.7392 0.0000 17.3167 0.0000
# 6 0.0000 0.0000 0.0000 10.3227 0.0000 19.9765
#
#
#
# Elastic Compliance Matrix: (Units=1/GPa)
#
#
# Indices 1 2 3 4 5 6 
#
# 1 0.024931 -0.011361 -0.006441 0.000000 0.021490 0.000000
# 2 -0.011361 0.010686 0.002979 0.000000 -0.018716 0.000000
# 3 -0.006441 0.002979 0.018797 0.000000 -0.018227 0.000000
# 4 0.000000 0.000000 0.000000 0.043072 0.000000 -0.022257
# 5 0.021490 -0.018716 -0.018227 0.000000 0.099999 0.000000
# 6 0.000000 0.000000 0.000000 -0.022257 0.000000 0.061560
#
#
# Mechanical properties :
#
#
# Convention : Reuss Voigt Hill
#
# Bulk Modulus (GPa) = 40.37465 68.48061 54.42763
# Shear Modulus (GPa) = 16.83798 30.22732 23.53265
#
# Velocity S-wave (km/s) = 2.77136 3.71319 3.27630
# Velocity P-wave (km/s) = 5.35322 7.04417 6.25609
#
# Compressibility (1/GPa) = 0.02476802
#
# Stress axis : x y z
#
# Youngs Moduli (GPa) = 40.11064 93.57934 53.19888
#
# Poissons Ratio (x) = 1.06313 0.34268
# Poissons Ratio (y) = 0.45569 -0.15848
# Poissons Ratio (z) = 0.25837 -0.27877
#
# Static dielectric constant tensor:
#      x y z
#    x 1.803900 0.000000 0.039200 
#    y 0.000000 1.932420 0.000000 
#    z 0.039200 0.000000 1.928490 
# 
# From -- ./inp_files/11404.got.cif
#   From: 2010.05.17/outbox.cif.g08.bks.cpg/sg10_6_cif.got.tgz:11404.got - 2010.06.03 11:33:40.
