data_PCOD9146345
_publ_section_title
;
Structure prediction by ZEFSAII (Michael W. Deem and Ramdas Pophale) SiO2 
 PCOD9146345
Probable space group: P 2/M
;
_chemical_formula_sum "Si O2"
_cell_formula_units_Z 28
_cell_length_a 14.493002
_cell_length_b 8.951834
_cell_length_c 18.080296
_cell_angle_alpha 90.000000
_cell_angle_beta 136.911502
_cell_angle_gamma 90.000000
_cell_volume 1602.424125
_symmetry_space_group_name_H-M "P 2/M"
_symmetry_group_IT_number 10
_symmetry_cell_setting 'monoclinic'
loop_
_space_group_symop_operation_xyz
x,y,z
-x,y,-z
-x,-y,-z
x,-y,z
loop_
_atom_site_type_symbol
_atom_site_label
_atom_site_fract_x
_atom_site_fract_y
_atom_site_fract_z
Si Si1 0.681839 0.678937 0.334977
Si Si2 0.929996 0.820910 0.766893
Si Si3 0.851891 0.820860 0.883106
Si Si4 0.219244 0.321100 0.906948
Si Si5 0.132907 0.822426 0.434177
Si Si6 0.371701 0.320390 0.142935
Si Si7 0.815071 0.178380 0.268554
O O1 0.687605 0.500000 0.332487
O O2 0.766535 0.733502 0.454950
O O3 0.525166 0.725240 0.248272
O O4 0.747100 0.750512 0.300181
O O5 0.850710 0.784486 0.795239
O O6 0.854819 0.788219 0.645946
O O7 0.072696 0.736249 0.848309
O O8 0.958537 0.000000 0.784000
O O9 0.734347 0.747113 0.861580
O O10 0.841952 0.000000 0.885354
O O11 0.000000 0.776175 0.000000
O O12 0.217723 0.500000 0.898063
O O13 0.242762 0.246378 0.841251
O O14 0.325550 0.278879 0.032786
O O15 0.976424 0.790069 0.362858
O O16 0.153807 0.000000 0.457032
O O17 0.363967 0.500000 0.143014
O O18 0.799129 0.000000 0.259126
#
# Coordination Sequence:
#
# PCOD9146345 Si02
#       7
#     4   4   4   4   4   4   4
#     4  11  23  38  54  76 109 146 185 224 264 315
#     4   9  18  34  55  83 113 137 171 226 275 312
#     4  10  19  33  58  86 109 138 180 223 265 319
#     4  10  19  33  54  80 109 142 179 217 266 322
#     4   9  19  36  57  79 107 140 177 221 271 320
#     4  10  23  38  52  77 114 149 178 218 270 321
#     4  10  21  37  58  82 108 138 178 226 274 319
#
# _framework density 17.473524999999999
#
# number of rings (size 3 to 8) (size 9 to 14) (size 15 to 20)
#    0.000    2.143    1.429    2.571    0.000    7.714 
#    0.000    3.571    0.000    4.286    0.000    0.000 
#    0.000    0.000    0.000    0.000    0.000    0.000 
#
# Total GULP energy -156294.757477 kJ/mol
# GULP energy per Si atom -5581.955624 kJ/mol
# Density = 1.743375 g / cm^3
# Si number density = 17.473525 Si / 1000 Ang^3
#
#
#
# Elastic Constant Matrix: (Units=GPa)
#
#
# Indices 1 2 3 4 5 6 
#
# 1 105.7361 50.9549 129.2729 0.0000 -17.1948 0.0000
# 2 50.9549 41.3840 56.2080 0.0000 -2.6161 0.0000
# 3 129.2729 56.2080 96.4086 0.0000 -6.5466 0.0000
# 4 0.0000 0.0000 0.0000 14.7499 0.0000 -11.8340
# 5 -17.1948 -2.6161 -6.5466 0.0000 17.6521 0.0000
# 6 0.0000 0.0000 0.0000 -11.8340 0.0000 25.4365
#
#
#
# Elastic Compliance Matrix: (Units=1/GPa)
#
#
# Indices 1 2 3 4 5 6 
#
# 1 -0.007232 -0.020201 0.021330 0.000000 -0.002128 0.000000
# 2 -0.020201 0.060808 -0.009324 0.000000 -0.014124 0.000000
# 3 0.021330 -0.009324 -0.011772 0.000000 0.015030 0.000000
# 4 0.000000 0.000000 0.000000 0.108175 0.000000 0.050327
# 5 -0.002128 -0.014124 0.015030 0.000000 0.058059 0.000000
# 6 0.000000 0.000000 0.000000 0.050327 0.000000 0.062728
#
#
# Mechanical properties :
#
#
# Convention : Reuss Voigt Hill
#
# Bulk Modulus (GPa) = 39.34796 79.60004 59.47400
# Shear Modulus (GPa) = 16.91327 12.04056 14.47692
#
# Velocity S-wave (km/s) = 3.11454 2.62787 2.88150
# Velocity P-wave (km/s) = 5.95830 7.40683 6.72170
#
# Compressibility (1/GPa) = 0.02541428
#
# Stress axis : x y z
#
# Youngs Moduli (GPa) = -138.27473 16.44519 -84.94468
#
# Poissons Ratio (x) = 0.33221 1.81190
# Poissons Ratio (y) = -2.79329 -0.79203
# Poissons Ratio (z) = 2.94945 0.15334
#
# Static dielectric constant tensor:
#      x y z
#    x 1.569760 0.000000 -0.016360 
#    y 0.000000 1.585400 0.000000 
#    z -0.016360 0.000000 1.589070 
# 
# From -- ./inp_files/70292.got.cif
#   From: 2010.05.17/outbox.cif.g08.bks.cpg/sg10_36_cif.got.tgz:70292.got - 2010.06.03 11:33:40.
