data_PCOD9146946
_publ_section_title
;
Structure prediction by ZEFSAII (Michael W. Deem and Ramdas Pophale) SiO2 
 PCOD9146946
Probable space group: P 2/M
;
_chemical_formula_sum "Si O2"
_cell_formula_units_Z 32
_cell_length_a 27.714463
_cell_length_b 8.602992
_cell_length_c 15.737249
_cell_angle_alpha 90.000000
_cell_angle_beta 28.763752
_cell_angle_gamma 90.000000
_cell_volume 1805.550694
_symmetry_space_group_name_H-M "P 2/M"
_symmetry_group_IT_number 10
_symmetry_cell_setting 'monoclinic'
loop_
_space_group_symop_operation_xyz
x,y,z
-x,y,-z
-x,-y,-z
x,-y,z
loop_
_atom_site_type_symbol
_atom_site_label
_atom_site_fract_x
_atom_site_fract_y
_atom_site_fract_z
Si Si1 0.768550 0.685157 0.297136
Si Si2 0.704816 0.813090 0.660639
Si Si3 0.151474 0.185920 0.292710
Si Si4 0.582445 0.186796 0.678998
Si Si5 0.890663 0.315385 0.278860
Si Si6 0.026537 0.316675 0.330363
Si Si7 0.641143 0.189275 0.947490
Si Si8 0.914484 0.817421 0.941160
O O1 0.772341 0.500000 0.281879
O O2 0.657903 0.738041 0.495222
O O3 0.839751 0.727365 0.267745
O O4 0.814073 0.764457 0.143957
O O5 0.627423 0.780579 0.703530
O O6 0.808239 0.729593 0.476788
O O7 0.662035 0.764887 0.817715
O O8 0.721941 0.000000 0.635674
O O9 0.076118 0.229124 0.485777
O O10 0.263672 0.235969 0.143178
O O11 0.106072 0.266704 0.279703
O O12 0.149112 0.000000 0.284465
O O13 0.585245 0.000000 0.663868
O O14 0.467729 0.241473 0.853099
O O15 0.909435 0.500000 0.250358
O O16 0.992792 0.227661 0.140981
O O17 0.008671 0.500000 0.362518
O O18 0.065544 0.269507 0.177974
O O19 0.638849 0.000000 0.951020
O O20 0.913506 0.000000 0.926956
#
# Coordination Sequence:
#
# PCOD9146946 Si02
#       8
#     4   4   4   4   4   4   4   4
#     4  10  21  36  51  72 104 139 172 209 254 299
#     4   9  16  28  48  74 105 140 176 210 245 292
#     4  10  19  34  55  80 109 138 170 208 251 302
#     4   9  17  31  50  73 102 138 178 214 248 290
#     4  10  20  33  49  73 107 140 169 206 252 302
#     4  11  22  37  55  77 106 136 166 206 259 311
#     4   9  17  29  50  77 103 134 173 215 253 291
#     4  12  23  35  54  77  99 130 173 214 255 305
#
# _framework density 17.723125
#
# number of rings (size 3 to 8) (size 9 to 14) (size 15 to 20)
#    0.000    2.000    0.000    5.625    0.000    5.500 
#    0.000    2.500    0.000    3.750    0.000    5.250 
#    0.000    0.000    0.000    0.000    0.000    0.000 
#
# Total GULP energy -178721.914772 kJ/mol
# GULP energy per Si atom -5585.059837 kJ/mol
# Density = 1.768279 g / cm^3
# Si number density = 17.723125 Si / 1000 Ang^3
#
#
#
# Elastic Constant Matrix: (Units=GPa)
#
#
# Indices 1 2 3 4 5 6 
#
# 1 30.9502 2.2888 29.5089 0.0000 -6.4973 0.0000
# 2 2.2888 25.4698 3.5004 0.0000 -2.4226 0.0000
# 3 29.5089 3.5004 96.3678 0.0000 -7.6243 0.0000
# 4 0.0000 0.0000 0.0000 -57.8279 0.0000 14.8694
# 5 -6.4973 -2.4226 -7.6243 0.0000 26.4625 0.0000
# 6 0.0000 0.0000 0.0000 14.8694 0.0000 17.9573
#
#
#
# Elastic Compliance Matrix: (Units=1/GPa)
#
#
# Indices 1 2 3 4 5 6 
#
# 1 0.047139 -0.001633 -0.013785 0.000000 0.007453 0.000000
# 2 -0.001633 0.039795 -0.000705 0.000000 0.003039 0.000000
# 3 -0.013785 -0.000705 0.014686 0.000000 0.000782 0.000000
# 4 0.000000 0.000000 0.000000 -0.014257 0.000000 0.011806
# 5 0.007453 0.003039 0.000782 0.000000 0.040123 0.000000
# 6 0.000000 0.000000 0.000000 0.011806 0.000000 0.045912
#
#
# Mechanical properties :
#
#
# Convention : Reuss Voigt Hill
#
# Bulk Modulus (GPa) = 14.41485 24.82043 19.61764
# Shear Modulus (GPa) = 21.85626 5.15103 13.50365
#
# Velocity S-wave (km/s) = 3.51551 1.70666 2.76329
# Velocity P-wave (km/s) = 4.96281 4.23303 4.61237
#
# Compressibility (1/GPa) = 0.06937291
#
# Stress axis : x y z
#
# Youngs Moduli (GPa) = 21.21401 25.12891 68.09373
#
# Poissons Ratio (x) = 0.04102 0.93870
# Poissons Ratio (y) = 0.03463 0.04802
# Poissons Ratio (z) = 0.29244 0.01772
#
# Static dielectric constant tensor:
#      x y z
#    x 1.596690 0.000000 -0.004280 
#    y 0.000000 1.594080 0.000000 
#    z -0.004280 0.000000 1.602930 
# 
# From -- ./inp_files/72187.got.cif
#   From: 2010.05.17/outbox.cif.g08.bks.cpg/sg10_37_cif.got.tgz:72187.got - 2010.06.03 11:33:40.
