data_PCOD9146256
_publ_section_title
;
Structure prediction by ZEFSAII (Michael W. Deem and Ramdas Pophale) SiO2 
 PCOD9146256
Probable space group: P 2/M
;
_chemical_formula_sum "Si O2"
_cell_formula_units_Z 28
_cell_length_a 8.072250
_cell_length_b 12.139570
_cell_length_c 15.405444
_cell_angle_alpha 90.000000
_cell_angle_beta 127.396730
_cell_angle_gamma 90.000000
_cell_volume 1199.328916
_symmetry_space_group_name_H-M "P 2/M"
_symmetry_group_IT_number 10
_symmetry_cell_setting 'monoclinic'
loop_
_space_group_symop_operation_xyz
x,y,z
-x,y,-z
-x,-y,-z
x,-y,z
loop_
_atom_site_type_symbol
_atom_site_label
_atom_site_fract_x
_atom_site_fract_y
_atom_site_fract_z
Si Si1 0.370754 0.615820 0.815114
Si Si2 0.538954 0.196251 0.269529
Si Si3 0.773087 0.116717 0.972398
Si Si4 0.777202 0.380032 0.768305
Si Si5 0.777411 0.344575 0.039655
Si Si6 0.248894 0.374486 0.436048
Si Si7 0.701922 0.875363 0.499527
O O1 0.309077 0.500000 0.754567
O O2 0.316288 0.721693 0.741006
O O3 0.291889 0.616616 0.888319
O O4 0.621891 0.619225 0.913787
O O5 0.400190 0.129022 0.157163
O O6 0.380351 0.281934 0.265089
O O7 0.639631 0.127637 0.378215
O O8 0.757423 0.000000 0.011573
O O9 0.752447 0.214060 0.032582
O O10 0.000000 0.126195 0.000000
O O11 0.677063 0.500000 0.745943
O O12 0.849302 0.372850 0.691290
O O13 0.981595 0.372411 0.892378
O O14 0.500000 0.375630 0.500000
O O15 0.202681 0.500000 0.458728
O O16 0.202597 0.250713 0.459283
O O17 0.500000 0.873841 0.500000
O O18 0.799225 0.000000 0.546570
#
# Coordination Sequence:
#
# PCOD9146256 Si02
#       7
#     4   4   4   4   4   4   4
#     4  10  21  36  55  77 114 150 178 220 273 331
#     4  11  20  33  51  84 107 141 182 226 275 326
#     4  10  20  34  51  76 109 141 178 231 278 319
#     4  11  19  30  53  81 108 136 181 226 268 324
#     4  10  20  37  54  78 107 148 185 219 271 327
#     4   9  17  30  48  77 110 137 170 226 281 325
#     4  10  19  33  53  80 110 143 180 229 281 334
#
# _framework density 23.346388000000001
#
# number of rings (size 3 to 8) (size 9 to 14) (size 15 to 20)
#    0.000    1.857    4.286    2.571    0.000    0.571 
#    0.000    9.286    0.000    0.857    0.000    4.000 
#    0.000    0.000    0.000    0.000    0.000    0.000 
#
# Total GULP energy -156077.637000 kJ/mol
# GULP energy per Si atom -5574.201321 kJ/mol
# Density = 2.329325 g / cm^3
# Si number density = 23.346388 Si / 1000 Ang^3
#
#
#
# Elastic Constant Matrix: (Units=GPa)
#
#
# Indices 1 2 3 4 5 6 
#
# 1 31.9888 12.2652 7.8405 0.0000 -4.5138 0.0000
# 2 12.2652 225.0295 16.7412 0.0000 -7.7476 0.0000
# 3 7.8405 16.7412 78.1657 0.0000 -3.8622 0.0000
# 4 0.0000 0.0000 0.0000 23.3539 0.0000 -12.9804
# 5 -4.5138 -7.7476 -3.8622 0.0000 29.8580 0.0000
# 6 0.0000 0.0000 0.0000 -12.9804 0.0000 13.9385
#
#
#
# Elastic Compliance Matrix: (Units=1/GPa)
#
#
# Indices 1 2 3 4 5 6 
#
# 1 0.033105 -0.001449 -0.002799 0.000000 0.004266 0.000000
# 2 -0.001449 0.004612 -0.000799 0.000000 0.000874 0.000000
# 3 -0.002799 -0.000799 0.013299 0.000000 0.001090 0.000000
# 4 0.000000 0.000000 0.000000 0.088765 0.000000 0.082664
# 5 0.004266 0.000874 0.001090 0.000000 0.034505 0.000000
# 6 0.000000 0.000000 0.000000 0.082664 0.000000 0.148726
#
#
# Mechanical properties :
#
#
# Convention : Reuss Voigt Hill
#
# Bulk Modulus (GPa) = 24.43766 45.43087 34.93426
# Shear Modulus (GPa) = 14.41969 33.31922 23.86946
#
# Velocity S-wave (km/s) = 2.48794 3.78189 3.20098
# Velocity P-wave (km/s) = 4.32935 6.21063 5.35328
#
# Compressibility (1/GPa) = 0.04092045
#
# Stress axis : x y z
#
# Youngs Moduli (GPa) = 30.20719 216.80593 75.19271
#
# Poissons Ratio (x) = 0.31420 0.21049
# Poissons Ratio (y) = 0.04378 0.06010
# Poissons Ratio (z) = 0.08456 0.17329
#
# Static dielectric constant tensor:
#      x y z
#    x 1.947820 0.000000 0.044270 
#    y 0.000000 1.937060 0.000000 
#    z 0.044270 0.000000 1.876010 
# 
# From -- ./inp_files/61281.got.cif
#   From: 2010.05.17/outbox.cif.g08.bks.cpg/sg10_31_cif.got.tgz:61281.got - 2010.06.03 11:33:40.
