data_PCOD9146497
_publ_section_title
;
Structure prediction by ZEFSAII (Michael W. Deem and Ramdas Pophale) SiO2 
 PCOD9146497
Probable space group: P 2/M
;
_chemical_formula_sum "Si O2"
_cell_formula_units_Z 32
_cell_length_a 14.844242
_cell_length_b 7.417079
_cell_length_c 14.683356
_cell_angle_alpha 90.000000
_cell_angle_beta 114.113835
_cell_angle_gamma 90.000000
_cell_volume 1475.574789
_symmetry_space_group_name_H-M "P 2/M"
_symmetry_group_IT_number 10
_symmetry_cell_setting 'monoclinic'
loop_
_space_group_symop_operation_xyz
x,y,z
-x,y,-z
-x,-y,-z
x,-y,z
loop_
_atom_site_type_symbol
_atom_site_label
_atom_site_fract_x
_atom_site_fract_y
_atom_site_fract_z
Si Si1 0.611403 0.713904 0.051962
Si Si2 0.573452 0.219951 0.398343
Si Si3 0.972478 0.220187 0.201284
Si Si4 0.293576 0.214698 0.712223
Si Si5 0.172111 0.779167 0.184704
Si Si6 0.638772 0.219524 0.624797
Si Si7 0.067635 0.220585 0.612054
Si Si8 0.792838 0.212335 0.005068
O O1 0.604750 0.500000 0.044111
O O2 0.663555 0.757969 0.169272
O O3 0.683574 0.769766 0.000120
O O4 0.500000 0.787828 0.000000
O O5 0.631571 0.284358 0.333803
O O6 0.626238 0.273732 0.514494
O O7 0.459496 0.275964 0.361258
O O8 0.572685 0.000000 0.396086
O O9 0.974444 0.276312 0.307149
O O10 0.872580 0.282988 0.110471
O O11 0.067448 0.276126 0.182802
O O12 0.971618 0.000000 0.202214
O O13 0.181614 0.281486 0.654595
O O14 0.287556 0.000000 0.696426
O O15 0.261702 0.720731 0.286094
O O16 0.172716 0.000000 0.184498
O O17 0.190662 0.715960 0.089428
O O18 0.639006 0.000000 0.624922
O O19 0.000000 0.279027 0.500000
O O20 0.068285 0.000000 0.610974
O O21 0.813313 0.000000 0.006821
#
# Coordination Sequence:
#
# PCOD9146497 Si02
#       8
#     4   4   4   4   4   4   4   4
#     4  11  25  41  55  74 103 140 176 217 274 328
#     4   8  15  25  41  65 104 136 161 202 253 304
#     4   9  16  28  44  70 107 139 166 206 258 308
#     4  10  19  33  55  82 105 135 177 221 260 305
#     4   9  17  25  44  73 104 137 169 207 257 306
#     4   8  14  25  37  65 105 139 162 196 255 309
#     4   9  17  27  44  75 111 141 171 209 258 310
#     4  10  19  34  54  78 103 131 173 220 260 307
#
# _framework density 21.686464999999998
#
# number of rings (size 3 to 8) (size 9 to 14) (size 15 to 20)
#    0.000    2.750    1.250    1.500    3.500    2.500 
#    0.000    0.000    0.000    1.875    0.000    2.625 
#    0.000    0.000    0.000    0.000    0.000    0.000 
#
# Total GULP energy -178718.877462 kJ/mol
# GULP energy per Si atom -5584.964921 kJ/mol
# Density = 2.163711 g / cm^3
# Si number density = 21.686465 Si / 1000 Ang^3
#
#
#
# Elastic Constant Matrix: (Units=GPa)
#
#
# Indices 1 2 3 4 5 6 
#
# 1 171.9902 -3.3276 56.1194 0.0000 -2.6039 0.0000
# 2 -3.3276 66.7064 -3.2790 0.0000 0.1246 0.0000
# 3 56.1194 -3.2790 58.4841 0.0000 19.9651 0.0000
# 4 0.0000 0.0000 0.0000 15.6434 0.0000 23.3259
# 5 -2.6039 0.1246 19.9651 0.0000 40.4835 0.0000
# 6 0.0000 0.0000 0.0000 23.3259 0.0000 -23.6160
#
#
#
# Elastic Compliance Matrix: (Units=1/GPa)
#
#
# Indices 1 2 3 4 5 6 
#
# 1 0.009609 -0.000090 -0.011347 0.000000 0.006214 0.000000
# 2 -0.000090 0.015044 0.001139 0.000000 -0.000614 0.000000
# 3 -0.011347 0.001139 0.034030 0.000000 -0.017516 0.000000
# 4 0.000000 0.000000 0.000000 0.025851 0.000000 0.025534
# 5 0.006214 -0.000614 -0.017516 0.000000 0.033741 0.000000
# 6 0.000000 0.000000 0.000000 0.025534 0.000000 -0.017124
#
#
# Mechanical properties :
#
#
# Convention : Reuss Voigt Hill
#
# Bulk Modulus (GPa) = 26.25504 44.02293 35.13899
# Shear Modulus (GPa) = 37.19051 23.01337 30.10194
#
# Velocity S-wave (km/s) = 4.14565 3.26112 3.72970
# Velocity P-wave (km/s) = 5.92015 5.87568 5.89796
#
# Compressibility (1/GPa) = 0.03808792
#
# Stress axis : x y z
#
# Youngs Moduli (GPa) = 104.06803 66.47285 29.38555
#
# Poissons Ratio (x) = 0.00598 0.33344
# Poissons Ratio (y) = 0.00937 -0.03348
# Poissons Ratio (z) = 1.18086 -0.07574
#
# Static dielectric constant tensor:
#      x y z
#    x 1.697130 0.000000 0.042650 
#    y 0.000000 1.845590 0.000000 
#    z 0.042650 0.000000 1.716780 
# 
# From -- ./inp_files/66575.got.cif
#   From: 2010.05.17/outbox.cif.g08.bks.cpg/sg10_34_cif.got.tgz:66575.got - 2010.06.03 11:33:40.
