data_PCOD9146132
_publ_section_title
;
Structure prediction by ZEFSAII (Michael W. Deem and Ramdas Pophale) SiO2 
 PCOD9146132
Probable space group: P 2/M
;
_chemical_formula_sum "Si O2"
_cell_formula_units_Z 32
_cell_length_a 12.670547
_cell_length_b 7.444085
_cell_length_c 19.537007
_cell_angle_alpha 90.000000
_cell_angle_beta 41.503316
_cell_angle_gamma 90.000000
_cell_volume 1221.118187
_symmetry_space_group_name_H-M "P 2/M"
_symmetry_group_IT_number 10
_symmetry_cell_setting 'monoclinic'
loop_
_space_group_symop_operation_xyz
x,y,z
-x,y,-z
-x,-y,-z
x,-y,z
loop_
_atom_site_type_symbol
_atom_site_label
_atom_site_fract_x
_atom_site_fract_y
_atom_site_fract_z
Si Si1 0.593398 0.779291 0.387278
Si Si2 0.807751 0.796029 0.897740
Si Si3 0.104216 0.788034 0.685400
Si Si4 0.212151 0.716034 0.332801
Si Si5 0.056247 0.285497 0.895535
Si Si6 0.585296 0.794935 0.250284
Si Si7 0.461051 0.789546 0.878144
Si Si8 0.152902 0.715341 0.510801
O O1 0.500000 0.724951 0.500000
O O2 0.772613 0.716687 0.318337
O O3 0.516180 0.711904 0.353852
O O4 0.590315 0.000000 0.386108
O O5 0.925193 0.713360 0.782881
O O6 0.928480 0.793485 0.904470
O O7 0.768472 0.000000 0.894792
O O8 0.644945 0.714554 0.008156
O O9 0.185870 0.770512 0.572093
O O10 0.088897 0.000000 0.705421
O O11 0.214506 0.500000 0.330135
O O12 0.348001 0.778053 0.214684
O O13 0.242317 0.773431 0.397690
O O14 0.032689 0.775630 0.405972
O O15 0.063357 0.500000 0.881256
O O16 0.231672 0.203479 0.813796
O O17 0.000000 0.254698 0.000000
O O18 0.577882 0.709995 0.178586
O O19 0.531774 0.000000 0.268883
O O20 0.416388 0.000000 0.897695
O O21 0.152570 0.500000 0.508825
#
# Coordination Sequence:
#
# PCOD9146132 Si02
#       8
#     4   4   4   4   4   4   4   4
#     4   9  18  31  49  76 110 144 180 220 263 316
#     4  10  20  36  53  75 110 151 186 220 272 330
#     4  10  20  34  57  83 109 145 185 226 272 320
#     4   9  20  40  62  81 108 141 175 219 278 337
#     4  11  21  31  47  73 104 140 186 231 261 300
#     4  10  19  33  52  73 104 148 184 217 266 322
#     4  10  21  33  55  85 110 140 186 233 271 316
#     4   9  20  40  62  82 106 142 178 217 275 338
#
# _framework density 26.205490000000001
#
# number of rings (size 3 to 8) (size 9 to 14) (size 15 to 20)
#    0.000    2.250    2.500    1.125    1.750    3.000 
#    0.000    1.875    0.000    4.500    0.000    0.000 
#    0.000    0.000    0.000    0.000    0.000    0.000 
#
# Total GULP energy -178678.084856 kJ/mol
# GULP energy per Si atom -5583.690152 kJ/mol
# Density = 2.614585 g / cm^3
# Si number density = 26.205490 Si / 1000 Ang^3
#
#
#
# Elastic Constant Matrix: (Units=GPa)
#
#
# Indices 1 2 3 4 5 6 
#
# 1 46.8484 -1.5817 -13.9297 0.0000 -3.3162 0.0000
# 2 -1.5817 84.6661 8.7243 0.0000 1.1681 0.0000
# 3 -13.9297 8.7243 161.7674 0.0000 -16.7051 0.0000
# 4 0.0000 0.0000 0.0000 25.7684 0.0000 -20.5195
# 5 -3.3162 1.1681 -16.7051 0.0000 35.7122 0.0000
# 6 0.0000 0.0000 0.0000 -20.5195 0.0000 -6.8289
#
#
#
# Elastic Compliance Matrix: (Units=1/GPa)
#
#
# Indices 1 2 3 4 5 6 
#
# 1 0.022232 0.000143 0.002227 0.000000 0.003101 0.000000
# 2 0.000143 0.011896 -0.000702 0.000000 -0.000704 0.000000
# 3 0.002227 -0.000702 0.006762 0.000000 0.003393 0.000000
# 4 0.000000 0.000000 0.000000 0.011438 0.000000 -0.034370
# 5 0.003101 -0.000704 0.003393 0.000000 0.029900 0.000000
# 6 0.000000 0.000000 0.000000 -0.034370 0.000000 -0.043162
#
#
# Mechanical properties :
#
#
# Convention : Reuss Voigt Hill
#
# Bulk Modulus (GPa) = 22.61136 31.07865 26.84500
# Shear Modulus (GPa) = 99.06584 30.93493 65.00038
#
# Velocity S-wave (km/s) = 6.15512 3.43953 4.98578
# Velocity P-wave (km/s) = 7.69164 5.25920 6.58864
#
# Compressibility (1/GPa) = 0.04422556
#
# Stress axis : x y z
#
# Youngs Moduli (GPa) = 44.98029 84.06314 147.89230
#
# Poissons Ratio (x) = -0.01203 -0.32935
# Poissons Ratio (y) = -0.00643 0.10381
# Poissons Ratio (z) = -0.10017 0.05901
#
# Static dielectric constant tensor:
#      x y z
#    x 2.091680 0.000000 -0.039430 
#    y 0.000000 1.957410 0.000000 
#    z -0.039430 0.000000 2.237630 
# 
# From -- ./inp_files/69994.got.cif
#   From: 2010.05.17/outbox.cif.g08.bks.cpg/sg10_35_cif.got.tgz:69994.got - 2010.06.03 11:33:40.
