data_PCOD9146817
_publ_section_title
;
Structure prediction by ZEFSAII (Michael W. Deem and Ramdas Pophale) SiO2 
 PCOD9146817
Probable space group: P 2/M
;
_chemical_formula_sum "Si O2"
_cell_formula_units_Z 24
_cell_length_a 27.241024
_cell_length_b 11.858133
_cell_length_c 9.518498
_cell_angle_alpha 90.000000
_cell_angle_beta 151.306242
_cell_angle_gamma 90.000000
_cell_volume 1476.267790
_symmetry_space_group_name_H-M "P 2/M"
_symmetry_group_IT_number 10
_symmetry_cell_setting 'monoclinic'
loop_
_space_group_symop_operation_xyz
x,y,z
-x,y,-z
-x,-y,-z
x,-y,z
loop_
_atom_site_type_symbol
_atom_site_label
_atom_site_fract_x
_atom_site_fract_y
_atom_site_fract_z
Si Si1 0.903330 0.135649 0.672047
Si Si2 0.100718 0.865199 0.668493
Si Si3 0.325820 0.864531 0.915923
Si Si4 0.693225 0.744974 0.833906
Si Si5 0.663394 0.500000 0.851343
Si Si6 0.447646 0.500000 0.141722
Si Si7 0.510027 0.258205 0.861695
O O1 0.915688 0.157426 0.537777
O O2 0.788073 0.171399 0.421239
O O3 0.903728 0.000000 0.691297
O O4 0.000000 0.181842 0.000000
O O5 0.000000 0.831246 0.500000
O O6 0.114756 0.000000 0.721203
O O7 0.205163 0.803021 0.970545
O O8 0.328062 0.000000 0.934666
O O9 0.338884 0.810115 0.103356
O O10 0.411871 0.821019 0.026835
O O11 0.714936 0.616021 0.933430
O O12 0.599527 0.748215 0.490632
O O13 0.553573 0.500000 0.496278
O O14 0.639647 0.500000 0.957933
O O15 0.448571 0.386077 0.054465
O O16 0.500000 0.230204 0.000000
#
# Coordination Sequence:
#
# PCOD9146817 Si02
#       7
#     4   4   4   4   2   2   4
#     4   8  15  29  48  68  91 123 164 203 235 279
#     4   9  18  32  51  74  99 131 167 200 243 297
#     4  10  20  33  50  73 101 135 170 202 245 300
#     4  10  19  34  53  74  99 130 173 209 243 294
#     4   9  16  30  57  76  88 125 177 213 237 287
#     4   9  17  34  52  72  96 127 171 210 244 293
#     4  11  22  33  49  75 105 132 163 208 257 298
#
# _framework density 16.257214000000001
#
# number of rings (size 3 to 8) (size 9 to 14) (size 15 to 20)
#    0.000    2.500    1.667    2.250    0.000    3.667 
#    0.000    2.083    0.000    0.000    0.000   14.583 
#    0.000    0.000    0.000    0.000    0.000    0.000 
#
# Total GULP energy -133732.448210 kJ/mol
# GULP energy per Si atom -5572.185342 kJ/mol
# Density = 1.622021 g / cm^3
# Si number density = 16.257214 Si / 1000 Ang^3
#
#
#
# Elastic Constant Matrix: (Units=GPa)
#
#
# Indices 1 2 3 4 5 6 
#
# 1 111.2526 42.2406 55.0806 0.0000 20.8873 0.0000
# 2 42.2406 80.0383 35.4519 0.0000 8.0576 0.0000
# 3 55.0806 35.4519 106.7336 0.0000 8.8906 0.0000
# 4 0.0000 0.0000 0.0000 10.6920 0.0000 -1.6634
# 5 20.8873 8.0576 8.8906 0.0000 19.5169 0.0000
# 6 0.0000 0.0000 0.0000 -1.6634 0.0000 15.3210
#
#
#
# Elastic Compliance Matrix: (Units=1/GPa)
#
#
# Indices 1 2 3 4 5 6 
#
# 1 0.015877 -0.004633 -0.005611 0.000000 -0.012523 0.000000
# 2 -0.004633 0.016305 -0.002991 0.000000 -0.000411 0.000000
# 3 -0.005611 -0.002991 0.013154 0.000000 0.001248 0.000000
# 4 0.000000 0.000000 0.000000 0.095134 0.000000 0.010329
# 5 -0.012523 -0.000411 0.001248 0.000000 0.064241 0.000000
# 6 0.000000 0.000000 0.000000 0.010329 0.000000 0.066391
#
#
# Mechanical properties :
#
#
# Convention : Reuss Voigt Hill
#
# Bulk Modulus (GPa) = 53.00462 62.61896 57.81179
# Shear Modulus (GPa) = 16.45485 20.12275 18.28880
#
# Velocity S-wave (km/s) = 3.18489 3.52202 3.35769
# Velocity P-wave (km/s) = 6.79700 7.42568 7.11829
#
# Compressibility (1/GPa) = 0.01886628
#
# Stress axis : x y z
#
# Youngs Moduli (GPa) = 62.98469 61.33033 76.02039
#
# Poissons Ratio (x) = 0.28414 0.42658
# Poissons Ratio (y) = 0.29180 0.22736
# Poissons Ratio (z) = 0.35343 0.18342
#
# Static dielectric constant tensor:
#      x y z
#    x 1.531930 0.000000 0.004920 
#    y 0.000000 1.549960 0.000000 
#    z 0.004920 0.000000 1.552300 
# 
# From -- ./inp_files/34505.got.cif
#   From: 2010.05.17/outbox.cif.g08.bks.cpg/sg10_18_cif.got.tgz:34505.got - 2010.06.03 11:33:40.
