data_PCOD9146222
_publ_section_title
;
Structure prediction by ZEFSAII (Michael W. Deem and Ramdas Pophale) SiO2 
 PCOD9146222
Probable space group: P 2/M
;
_chemical_formula_sum "Si O2"
_cell_formula_units_Z 32
_cell_length_a 15.388070
_cell_length_b 8.684037
_cell_length_c 15.312249
_cell_angle_alpha 90.000000
_cell_angle_beta 78.805095
_cell_angle_gamma 90.000000
_cell_volume 2007.250617
_symmetry_space_group_name_H-M "P 2/M"
_symmetry_group_IT_number 10
_symmetry_cell_setting 'monoclinic'
loop_
_space_group_symop_operation_xyz
x,y,z
-x,y,-z
-x,-y,-z
x,-y,z
loop_
_atom_site_type_symbol
_atom_site_label
_atom_site_fract_x
_atom_site_fract_y
_atom_site_fract_z
Si Si1 0.611739 0.815107 0.620614
Si Si2 0.437976 0.184159 0.889711
Si Si3 0.107574 0.316139 0.564734
Si Si4 0.743578 0.184784 0.755196
Si Si5 0.579446 0.316615 0.296865
Si Si6 0.623622 0.316767 0.921961
Si Si7 0.707328 0.184760 0.419042
Si Si8 0.079646 0.185054 0.376452
O O1 0.678521 0.777401 0.686640
O O2 0.518560 0.732206 0.652055
O O3 0.657114 0.776448 0.519663
O O4 0.596648 0.000000 0.625497
O O5 0.408826 0.245975 0.801699
O O6 0.536467 0.248357 0.891022
O O7 0.441285 0.000000 0.889515
O O8 0.378263 0.245198 0.981026
O O9 0.106423 0.500000 0.560568
O O10 0.195024 0.256040 0.595207
O O11 0.107415 0.247959 0.466348
O O12 0.016320 0.255163 0.624457
O O13 0.706948 0.268174 0.847603
O O14 0.842898 0.224687 0.706470
O O15 0.738628 0.000000 0.768737
O O16 0.585842 0.500000 0.291840
O O17 0.650310 0.248940 0.350469
O O18 0.614948 0.500000 0.928901
O O19 0.713358 0.000000 0.413163
O O20 0.073568 0.000000 0.383388
#
# Coordination Sequence:
#
# PCOD9146222 Si02
#       8
#     4   4   4   4   4   4   4   4
#     4  10  20  35  52  72 102 141 182 215 247 301
#     4  11  21  36  54  72  99 138 176 212 253 309
#     4  11  21  33  50  76 105 133 170 220 267 305
#     4  10  19  33  53  77 104 139 176 210 253 310
#     4  12  24  36  51  76 105 136 175 221 263 303
#     4  11  21  33  52  78 105 132 166 216 266 307
#     4  11  22  38  55  72  99 142 184 216 253 307
#     4  10  19  34  54  74 101 138 176 212 255 312
#
# _framework density 15.942204
#
# number of rings (size 3 to 8) (size 9 to 14) (size 15 to 20)
#    0.000    1.250    2.500    7.125    0.000    3.500 
#    0.000    0.000    0.000    0.000    0.000    0.875 
#    0.000    7.000    0.000    0.000    0.000    0.000 
#
# Total GULP energy -178823.896912 kJ/mol
# GULP energy per Si atom -5588.246778 kJ/mol
# Density = 1.590592 g / cm^3
# Si number density = 15.942204 Si / 1000 Ang^3
#
#
#
# Elastic Constant Matrix: (Units=GPa)
#
#
# Indices 1 2 3 4 5 6 
#
# 1 115.4953 58.3274 73.9097 0.0000 -11.5857 0.0000
# 2 58.3274 103.5560 55.7020 0.0000 -8.4991 0.0000
# 3 73.9097 55.7020 108.7798 0.0000 -10.8606 0.0000
# 4 0.0000 0.0000 0.0000 47.6969 0.0000 -57.1797
# 5 -11.5857 -8.4991 -10.8606 0.0000 23.1540 0.0000
# 6 0.0000 0.0000 0.0000 -57.1797 0.0000 110.8511
#
#
#
# Elastic Compliance Matrix: (Units=1/GPa)
#
#
# Indices 1 2 3 4 5 6 
#
# 1 0.016903 -0.004511 -0.008913 0.000000 0.002621 0.000000
# 2 -0.004511 0.014601 -0.004303 0.000000 0.001084 0.000000
# 3 -0.008913 -0.004303 0.017677 0.000000 0.002252 0.000000
# 4 0.000000 0.000000 0.000000 0.054939 0.000000 0.028339
# 5 0.002621 0.001084 0.002252 0.000000 0.045955 0.000000
# 6 0.000000 0.000000 0.000000 0.028339 0.000000 0.023639
#
#
# Mechanical properties :
#
#
# Convention : Reuss Voigt Hill
#
# Bulk Modulus (GPa) = 72.85248 78.18994 75.52121
# Shear Modulus (GPa) = 23.39228 45.66651 34.52939
#
# Velocity S-wave (km/s) = 3.83471 5.35791 4.65898
# Velocity P-wave (km/s) = 8.08726 9.35033 8.74164
#
# Compressibility (1/GPa) = 0.01372637
#
# Stress axis : x y z
#
# Youngs Moduli (GPa) = 59.15935 68.48698 56.56964
#
# Poissons Ratio (x) = 0.30897 0.50421
# Poissons Ratio (y) = 0.26689 0.24344
# Poissons Ratio (z) = 0.52730 0.29472
#
# Static dielectric constant tensor:
#      x y z
#    x 1.518220 0.000000 -0.015140 
#    y 0.000000 1.529990 0.000000 
#    z -0.015140 0.000000 1.524350 
# 
# From -- ./inp_files/66087.got.cif
#   From: 2010.05.17/outbox.cif.g08.bks.cpg/sg10_34_cif.got.tgz:66087.got - 2010.06.03 11:33:40.
