data_PCOD9146955
_publ_section_title
;
Structure prediction by ZEFSAII (Michael W. Deem and Ramdas Pophale) SiO2 
 PCOD9146955
Probable space group: P 2/M
;
_chemical_formula_sum "Si O2"
_cell_formula_units_Z 32
_cell_length_a 20.546552
_cell_length_b 9.388497
_cell_length_c 25.529715
_cell_angle_alpha 90.000000
_cell_angle_beta 22.860941
_cell_angle_gamma 90.000000
_cell_volume 1913.230994
_symmetry_space_group_name_H-M "P 2/M"
_symmetry_group_IT_number 10
_symmetry_cell_setting 'monoclinic'
loop_
_space_group_symop_operation_xyz
x,y,z
-x,y,-z
-x,-y,-z
x,-y,z
loop_
_atom_site_type_symbol
_atom_site_label
_atom_site_fract_x
_atom_site_fract_y
_atom_site_fract_z
Si Si1 0.829058 0.329611 0.395711
Si Si2 0.662652 0.830120 0.345353
Si Si3 0.646556 0.331789 0.713368
Si Si4 0.335628 0.329104 0.871432
Si Si5 0.956923 0.330623 0.184746
Si Si6 0.833022 0.163913 0.660490
Si Si7 0.025959 0.668064 0.601240
Si Si8 0.524533 0.829574 0.332872
O O1 0.791748 0.500000 0.426321
O O2 0.915479 0.299646 0.276156
O O3 0.945364 0.296193 0.359382
O O4 0.658244 0.241351 0.526703
O O5 0.500000 0.786156 0.500000
O O6 0.825072 0.751407 0.246472
O O7 0.622525 0.802118 0.314443
O O8 0.682974 0.000000 0.337194
O O9 0.352566 0.500000 0.274972
O O10 0.472386 0.295027 0.814725
O O11 0.692736 0.243867 0.730680
O O12 0.795769 0.307852 0.560412
O O13 0.348959 0.500000 0.851746
O O14 0.383535 0.243022 0.784081
O O15 0.148035 0.296329 0.028914
O O16 0.934234 0.500000 0.194110
O O17 0.000000 0.168748 0.500000
O O18 0.887146 0.243070 0.673291
O O19 0.790396 0.000000 0.701252
O O20 0.988754 0.500000 0.624014
O O21 0.510199 0.000000 0.336784
#
# Coordination Sequence:
#
# PCOD9146955 Si02
#       8
#     4   4   4   4   4   4   4   4
#     4  10  19  34  55  81 108 137 176 223 268 315
#     4  10  21  38  56  77 109 143 177 219 267 319
#     4   9  16  29  49  70 100 140 172 206 260 318
#     4  10  21  38  55  79 112 142 176 221 269 317
#     4  10  22  37  58  83 107 139 179 222 269 319
#     4   9  17  27  42  71 106 133 167 218 259 298
#     4   9  16  28  48  73 101 135 171 211 262 314
#     4  11  22  35  56  81 104 141 182 219 264 317
#
# _framework density 16.725633999999999
#
# number of rings (size 3 to 8) (size 9 to 14) (size 15 to 20)
#    0.000    2.250    2.500    0.750    0.000    4.750 
#    0.000    2.500    0.000    0.750    0.000    5.250 
#    0.000    0.000    0.000    0.000    0.000    0.000 
#
# Total GULP energy -178513.570942 kJ/mol
# GULP energy per Si atom -5578.549092 kJ/mol
# Density = 1.668757 g / cm^3
# Si number density = 16.725634 Si / 1000 Ang^3
#
#
#
# Elastic Constant Matrix: (Units=GPa)
#
#
# Indices 1 2 3 4 5 6 
#
# 1 176.3532 90.4928 84.8968 0.0000 -17.0317 0.0000
# 2 90.4928 64.9503 61.3863 0.0000 -7.6702 0.0000
# 3 84.8968 61.3863 105.5446 0.0000 -7.3018 0.0000
# 4 0.0000 0.0000 0.0000 1.0406 0.0000 11.3499
# 5 -17.0317 -7.6702 -7.3018 0.0000 22.2626 0.0000
# 6 0.0000 0.0000 0.0000 11.3499 0.0000 7.5328
#
#
#
# Elastic Compliance Matrix: (Units=1/GPa)
#
#
# Indices 1 2 3 4 5 6 
#
# 1 0.020670 -0.028339 0.000281 0.000000 0.006142 0.000000
# 2 -0.028339 0.073686 -0.020265 0.000000 -0.002940 0.000000
# 3 0.000281 -0.020265 0.021045 0.000000 0.000135 0.000000
# 4 0.000000 0.000000 0.000000 -0.062264 0.000000 0.093815
# 5 0.006142 -0.002940 0.000135 0.000000 0.048649 0.000000
# 6 0.000000 0.000000 0.000000 0.093815 0.000000 -0.008601
#
#
# Mechanical properties :
#
#
# Convention : Reuss Voigt Hill
#
# Bulk Modulus (GPa) = 53.32161 91.15553 72.23857
# Shear Modulus (GPa) = 25.49935 13.50534 19.50234
#
# Velocity S-wave (km/s) = 3.90881 2.84467 3.41840
# Velocity P-wave (km/s) = 7.23333 8.08754 7.67233
#
# Compressibility (1/GPa) = 0.01875412
#
# Stress axis : x y z
#
# Youngs Moduli (GPa) = 48.37900 13.57101 47.51802
#
# Poissons Ratio (x) = 0.38459 -0.01335
# Poissons Ratio (y) = 1.37102 0.96297
# Poissons Ratio (z) = -0.01359 0.27502
#
# Static dielectric constant tensor:
#      x y z
#    x 1.553320 0.000000 0.004840 
#    y 0.000000 1.557810 0.000000 
#    z 0.004840 0.000000 1.538510 
# 
# From -- ./inp_files/93643.got.cif
#   From: 2010.05.17/outbox.cif.g08.bks.cpg/sg10_47_cif.got.tgz:93643.got - 2010.06.03 11:33:40.
