data_PCOD9146083
_publ_section_title
;
Structure prediction by ZEFSAII (Michael W. Deem and Ramdas Pophale) SiO2 
 PCOD9146083
Probable space group: P 2/M
;
_chemical_formula_sum "Si O2"
_cell_formula_units_Z 22
_cell_length_a 7.229148
_cell_length_b 23.213014
_cell_length_c 6.513330
_cell_angle_alpha 90.000000
_cell_angle_beta 61.609704
_cell_angle_gamma 90.000000
_cell_volume 961.547398
_symmetry_space_group_name_H-M "P 2/M"
_symmetry_group_IT_number 10
_symmetry_cell_setting 'monoclinic'
loop_
_space_group_symop_operation_xyz
x,y,z
-x,y,-z
-x,-y,-z
x,-y,z
loop_
_atom_site_type_symbol
_atom_site_label
_atom_site_fract_x
_atom_site_fract_y
_atom_site_fract_z
Si Si1 0.222526 0.936861 0.502763
Si Si2 0.000000 0.660550 0.000000
Si Si3 0.282440 0.563170 0.736529
Si Si4 0.782509 0.295046 0.738177
Si Si5 0.776584 0.830673 0.734376
Si Si6 0.000000 0.117574 0.000000
Si Si7 0.500000 0.607224 0.000000
O O1 0.334564 0.884088 0.323639
O O2 0.000000 0.941490 0.500000
O O3 0.323061 0.000000 0.438563
O O4 0.150515 0.919346 0.769514
O O5 0.871124 0.616780 0.214083
O O6 0.151435 0.698655 0.057931
O O7 0.500000 0.566949 0.500000
O O8 0.190224 0.500000 0.742415
O O9 0.347451 0.569784 0.941177
O O10 0.680687 0.232492 0.757883
O O11 0.000000 0.298936 0.500000
O O12 0.630543 0.349076 0.785971
O O13 0.000000 0.825043 0.500000
O O14 0.847987 0.846481 0.927430
#
# Coordination Sequence:
#
# PCOD9146083 Si02
#       7
#     4   2   4   4   4   2   2
#     4   8  13  20  32  54  83 114 149 187 232 282
#     4  10  20  32  52  76  97 130 167 196 238 290
#     4  10  20  35  53  75 103 130 160 200 241 283
#     4  10  19  33  50  70 100 129 162 204 241 284
#     4   8  15  24  37  58  84 117 151 189 235 277
#     4   8  12  20  34  54  82 114 148 186 236 278
#     4  10  21  34  52  76  97 130 168 196 238 290
#
# _framework density 22.879785999999999
#
# number of rings (size 3 to 8) (size 9 to 14) (size 15 to 20)
#    0.000    3.273    0.000    2.455    0.000    0.727 
#    0.000    0.000    0.000    8.727    0.000    0.636 
#    0.000    1.455    0.000    0.000    0.000    5.455 
#
# Total GULP energy -122615.744008 kJ/mol
# GULP energy per Si atom -5573.442909 kJ/mol
# Density = 2.282771 g / cm^3
# Si number density = 22.879786 Si / 1000 Ang^3
#
#
#
# Elastic Constant Matrix: (Units=GPa)
#
#
# Indices 1 2 3 4 5 6 
#
# 1 33.6429 0.7026 10.8074 0.0000 -5.1372 0.0000
# 2 0.7026 151.0288 36.7860 0.0000 0.3215 0.0000
# 3 10.8074 36.7860 91.9407 0.0000 -1.5729 0.0000
# 4 0.0000 0.0000 0.0000 80.3506 0.0000 -24.5092
# 5 -5.1372 0.3215 -1.5729 0.0000 38.1290 0.0000
# 6 0.0000 0.0000 0.0000 -24.5092 0.0000 -11.9365
#
#
#
# Elastic Compliance Matrix: (Units=1/GPa)
#
#
# Indices 1 2 3 4 5 6 
#
# 1 0.031606 0.000811 -0.003970 0.000000 0.004088 0.000000
# 2 0.000811 0.007358 -0.003041 0.000000 -0.000078 0.000000
# 3 -0.003970 -0.003041 0.012560 0.000000 0.000009 0.000000
# 4 0.000000 0.000000 0.000000 0.007653 0.000000 -0.015713
# 5 0.004088 -0.000078 0.000009 0.000000 0.026779 0.000000
# 6 0.000000 0.000000 0.000000 -0.015713 0.000000 -0.051513
#
#
# Mechanical properties :
#
#
# Convention : Reuss Voigt Hill
#
# Bulk Modulus (GPa) = 25.55853 41.46713 33.51283
# Shear Modulus (GPa) = 83.49537 36.52971 60.01254
#
# Velocity S-wave (km/s) = 6.04750 4.00007 5.12703
# Velocity P-wave (km/s) = 7.74326 6.28469 7.05179
#
# Compressibility (1/GPa) = 0.03912587
#
# Stress axis : x y z
#
# Youngs Moduli (GPa) = 31.63907 135.90120 79.61781
#
# Poissons Ratio (x) = -0.11024 0.31607
# Poissons Ratio (y) = -0.02567 0.24210
# Poissons Ratio (z) = 0.12560 0.41325
#
# Static dielectric constant tensor:
#      x y z
#    x 1.833490 0.000000 -0.028710 
#    y 0.000000 1.916080 0.000000 
#    z -0.028710 0.000000 1.888880 
# 
# From -- ./inp_files/5164.got.cif
#   From: 2010.05.17/outbox.cif.g08.bks.cpg/sg10_3_cif.got.tgz:5164.got - 2010.06.03 11:33:40.
