data_PCOD9146378
_publ_section_title
;
Structure prediction by ZEFSAII (Michael W. Deem and Ramdas Pophale) SiO2 
 PCOD9146378
Probable space group: P 2/M
;
_chemical_formula_sum "Si O2"
_cell_formula_units_Z 24
_cell_length_a 12.506421
_cell_length_b 7.489360
_cell_length_c 26.057580
_cell_angle_alpha 90.000000
_cell_angle_beta 25.166691
_cell_angle_gamma 90.000000
_cell_volume 1037.909335
_symmetry_space_group_name_H-M "P 2/M"
_symmetry_group_IT_number 10
_symmetry_cell_setting 'monoclinic'
loop_
_space_group_symop_operation_xyz
x,y,z
-x,y,-z
-x,-y,-z
x,-y,z
loop_
_atom_site_type_symbol
_atom_site_label
_atom_site_fract_x
_atom_site_fract_y
_atom_site_fract_z
Si Si1 0.105112 0.717011 0.510632
Si Si2 0.243365 0.783867 0.641183
Si Si3 0.760850 0.784844 0.133788
Si Si4 0.350630 0.712679 0.226872
Si Si5 0.651740 0.287689 0.883672
Si Si6 0.674365 0.203779 0.281500
O O1 0.123219 0.500000 0.503284
O O2 0.375862 0.795881 0.403395
O O3 0.000000 0.766642 0.500000
O O4 0.919927 0.777366 0.636260
O O5 0.500000 0.723691 0.500000
O O6 0.264044 0.715097 0.690616
O O7 0.956194 0.737777 0.750176
O O8 0.256190 0.000000 0.634800
O O9 0.526703 0.744668 0.199279
O O10 0.765597 0.711052 0.189096
O O11 0.770038 0.000000 0.134075
O O12 0.000000 0.718162 0.000000
O O13 0.330729 0.500000 0.229843
O O14 0.436697 0.783086 0.133983
O O15 0.606075 0.500000 0.904233
O O16 0.500000 0.216987 0.000000
O O17 0.769577 0.000000 0.242398
#
# Coordination Sequence:
#
# PCOD9146378 Si02
#       6
#     4   4   4   4   4   4
#     4  10  19  33  54  82 112 142 180 223 273 333
#     4  10  22  40  61  87 118 152 195 241 285 341
#     4  10  22  37  54  80 112 146 185 227 275 332
#     4  10  21  38  58  81 112 145 182 230 279 332
#     4  10  23  41  60  86 117 151 195 242 287 341
#     4  10  21  36  56  83 114 145 182 230 278 330
#
# _framework density 23.123407
#
# number of rings (size 3 to 8) (size 9 to 14) (size 15 to 20)
#    0.000    2.000    1.667    1.000    2.333    3.333 
#    0.000    0.000    0.000    0.000    0.000    0.000 
#    0.000    0.000    0.000    0.000    0.000    0.000 
#
# Total GULP energy -133931.348593 kJ/mol
# GULP energy per Si atom -5580.472858 kJ/mol
# Density = 2.307078 g / cm^3
# Si number density = 23.123407 Si / 1000 Ang^3
#
#
#
# Elastic Constant Matrix: (Units=GPa)
#
#
# Indices 1 2 3 4 5 6 
#
# 1 100.0631 -4.4116 19.2718 0.0000 43.3549 0.0000
# 2 -4.4116 66.2932 -0.1489 0.0000 16.4301 0.0000
# 3 19.2718 -0.1489 120.0159 0.0000 44.1813 0.0000
# 4 0.0000 0.0000 0.0000 11.5274 0.0000 -16.1536
# 5 43.3549 16.4301 44.1813 0.0000 47.7411 0.0000
# 6 0.0000 0.0000 0.0000 -16.1536 0.0000 55.7113
#
#
#
# Elastic Compliance Matrix: (Units=1/GPa)
#
#
# Indices 1 2 3 4 5 6 
#
# 1 0.021873 0.008868 0.007484 0.000000 -0.029841 0.000000
# 2 0.008868 0.020939 0.006400 0.000000 -0.021182 0.000000
# 3 0.007484 0.006400 0.015851 0.000000 -0.023669 0.000000
# 4 0.000000 0.000000 0.000000 0.146122 0.000000 0.042368
# 5 -0.029841 -0.021182 -0.023669 0.000000 0.077240 0.000000
# 6 0.000000 0.000000 0.000000 0.042368 0.000000 0.030234
#
#
# Mechanical properties :
#
#
# Convention : Reuss Voigt Hill
#
# Bulk Modulus (GPa) = 9.59994 35.08832 22.34413
# Shear Modulus (GPa) = 16.58502 41.10668 28.84585
#
# Velocity S-wave (km/s) = 2.68104 4.22086 3.53579
# Velocity P-wave (km/s) = 3.70737 6.24192 5.13352
#
# Compressibility (1/GPa) = 0.10416735
#
# Stress axis : x y z
#
# Youngs Moduli (GPa) = 45.71885 47.75826 63.08572
#
# Poissons Ratio (x) = -0.42353 -0.47215
# Poissons Ratio (y) = -0.40545 -0.40373
# Poissons Ratio (z) = -0.34217 -0.30564
#
# Static dielectric constant tensor:
#      x y z
#    x 1.932480 0.000000 0.016690 
#    y 0.000000 1.885700 0.000000 
#    z 0.016690 0.000000 2.025530 
# 
# From -- ./inp_files/56539.got.cif
#   From: 2010.05.17/outbox.cif.g08.bks.cpg/sg10_29_cif.got.tgz:56539.got - 2010.06.03 11:33:40.
