data_PCOD9146075
_publ_section_title
;
Structure prediction by ZEFSAII (Michael W. Deem and Ramdas Pophale) SiO2 
 PCOD9146075
Probable space group: P 2/M
;
_chemical_formula_sum "Si O2"
_cell_formula_units_Z 28
_cell_length_a 14.118763
_cell_length_b 14.289336
_cell_length_c 15.073109
_cell_angle_alpha 90.000000
_cell_angle_beta 29.836522
_cell_angle_gamma 90.000000
_cell_volume 1512.962590
_symmetry_space_group_name_H-M "P 2/M"
_symmetry_group_IT_number 10
_symmetry_cell_setting 'monoclinic'
loop_
_space_group_symop_operation_xyz
x,y,z
-x,y,-z
-x,-y,-z
x,-y,z
loop_
_atom_site_type_symbol
_atom_site_label
_atom_site_fract_x
_atom_site_fract_y
_atom_site_fract_z
Si Si1 0.673881 0.235133 0.643035
Si Si2 0.323097 0.391866 0.213006
Si Si3 0.229833 0.393086 0.708834
Si Si4 0.776738 0.106339 0.711673
Si Si5 0.179309 0.396947 0.042956
Si Si6 0.113523 0.266441 0.256701
Si Si7 0.461021 0.330110 0.676015
O O1 0.644491 0.327076 0.728145
O O2 0.662895 0.149540 0.720979
O O3 0.533966 0.241218 0.672937
O O4 0.891880 0.240374 0.431718
O O5 0.297101 0.500000 0.256801
O O6 0.146895 0.346301 0.303592
O O7 0.500000 0.384618 0.000000
O O8 0.262981 0.500000 0.713495
O O9 0.310665 0.322979 0.717421
O O10 0.355355 0.376316 0.518995
O O11 0.011019 0.385051 0.860964
O O12 0.769990 0.177707 0.799917
O O13 0.000000 0.108360 0.500000
O O14 0.725206 0.000000 0.773877
O O15 0.171373 0.500000 0.093400
O O16 0.183158 0.313233 0.109866
O O17 0.354875 0.392719 0.834280
#
# Coordination Sequence:
#
# PCOD9146075 Si02
#       7
#     4   4   4   4   4   4   4
#     4  10  20  32  50  74 102 132 170 215 260 310
#     4  10  20  31  43  63  95 136 173 202 241 299
#     4  10  21  35  50  72 102 141 189 224 253 298
#     4   8  16  33  57  79 102 133 169 212 266 321
#     4  11  21  33  51  74 107 147 183 216 252 299
#     4  10  19  33  48  74 104 131 170 214 258 307
#     4  11  20  34  51  72 103 140 177 223 259 296
#
# _framework density 18.506736
#
# number of rings (size 3 to 8) (size 9 to 14) (size 15 to 20)
#    0.000    2.000    1.429    4.714    0.000    5.714 
#    0.000    0.000    0.000   15.429    0.000    3.000 
#    0.000    2.286    0.000    0.000    0.000    0.000 
#
# Total GULP energy -156228.086519 kJ/mol
# GULP energy per Si atom -5579.574519 kJ/mol
# Density = 1.846461 g / cm^3
# Si number density = 18.506736 Si / 1000 Ang^3
#
#
#
# Elastic Constant Matrix: (Units=GPa)
#
#
# Indices 1 2 3 4 5 6 
#
# 1 106.3270 44.2669 21.5546 0.0000 3.3194 0.0000
# 2 44.2669 111.1501 14.5792 0.0000 11.3323 0.0000
# 3 21.5546 14.5792 56.6735 0.0000 6.4628 0.0000
# 4 0.0000 0.0000 0.0000 3.9659 0.0000 6.7915
# 5 3.3194 11.3323 6.4628 0.0000 24.4154 0.0000
# 6 0.0000 0.0000 0.0000 6.7915 0.0000 13.8873
#
#
#
# Elastic Compliance Matrix: (Units=1/GPa)
#
#
# Indices 1 2 3 4 5 6 
#
# 1 0.011924 -0.004423 -0.003554 0.000000 0.001372 0.000000
# 2 -0.004423 0.011307 -0.000718 0.000000 -0.004457 0.000000
# 3 -0.003554 -0.000718 0.019682 0.000000 -0.004393 0.000000
# 4 0.000000 0.000000 0.000000 1.551613 0.000000 -0.758809
# 5 0.001372 -0.004457 -0.004393 0.000000 0.044003 0.000000
# 6 0.000000 0.000000 0.000000 -0.758809 0.000000 0.443100
#
#
# Mechanical properties :
#
#
# Convention : Reuss Voigt Hill
#
# Bulk Modulus (GPa) = 39.17973 48.32800 43.75386
# Shear Modulus (GPa) = 2.37245 21.37037 11.87141
#
# Velocity S-wave (km/s) = 1.13346 3.40183 2.53546
# Velocity P-wave (km/s) = 4.78847 6.44983 5.68022
#
# Compressibility (1/GPa) = 0.02552340
#
# Stress axis : x y z
#
# Youngs Moduli (GPa) = 83.86609 88.44243 50.80695
#
# Poissons Ratio (x) = 0.39114 0.18056
# Poissons Ratio (y) = 0.37090 0.03650
# Poissons Ratio (z) = 0.29804 0.06354
#
# Static dielectric constant tensor:
#      x y z
#    x 1.687370 0.000000 -0.014280 
#    y 0.000000 1.610200 0.000000 
#    z -0.014280 0.000000 1.687930 
# 
# From -- ./inp_files/67543.got.cif
#   From: 2010.05.17/outbox.cif.g08.bks.cpg/sg10_34_cif.got.tgz:67543.got - 2010.06.03 11:33:40.
