data_PCOD9146720
_publ_section_title
;
Structure prediction by ZEFSAII (Michael W. Deem and Ramdas Pophale) SiO2 
 PCOD9146720
Probable space group: P 2/M
;
_chemical_formula_sum "Si O2"
_cell_formula_units_Z 28
_cell_length_a 14.239461
_cell_length_b 20.296803
_cell_length_c 8.451742
_cell_angle_alpha 90.000000
_cell_angle_beta 31.604502
_cell_angle_gamma 90.000000
_cell_volume 1280.095844
_symmetry_space_group_name_H-M "P 2/M"
_symmetry_group_IT_number 10
_symmetry_cell_setting 'monoclinic'
loop_
_space_group_symop_operation_xyz
x,y,z
-x,y,-z
-x,-y,-z
x,-y,z
loop_
_atom_site_type_symbol
_atom_site_label
_atom_site_fract_x
_atom_site_fract_y
_atom_site_fract_z
Si Si1 0.311433 0.295898 0.677849
Si Si2 0.950229 0.690850 0.388306
Si Si3 0.693184 0.813240 0.804637
Si Si4 0.694531 0.841499 0.185968
Si Si5 0.706432 0.573143 0.764106
Si Si6 0.464645 0.425388 0.367446
Si Si7 0.039037 0.925732 0.632262
O O1 0.500000 0.296789 0.500000
O O2 0.289694 0.216141 0.702438
O O3 0.348153 0.358635 0.509904
O O4 0.128424 0.310679 0.030555
O O5 0.823927 0.754947 0.556833
O O6 0.836955 0.626726 0.514454
O O7 0.000000 0.689353 0.500000
O O8 0.784930 0.880445 0.612009
O O9 0.500000 0.803936 0.000000
O O10 0.692832 0.814739 0.001604
O O11 0.500000 0.872752 0.500000
O O12 0.865540 0.888740 0.951756
O O13 0.775916 0.500000 0.643811
O O14 0.500000 0.578168 0.000000
O O15 0.661567 0.585040 0.011403
O O16 0.500000 0.430692 0.500000
O O17 0.400014 0.500000 0.410727
O O18 0.000000 0.929180 0.500000
O O19 0.061205 0.000000 0.660818
#
# Coordination Sequence:
#
# PCOD9146720 Si02
#       7
#     4   4   4   4   4   4   4
#     4  10  19  33  58  81 112 148 195 246 287 333
#     4  12  20  36  61  84 115 152 205 244 285 349
#     4  11  22  38  60  91 121 156 197 244 301 348
#     4  10  20  37  62  87 120 159 199 244 289 349
#     4  10  23  41  60  87 122 155 193 248 306 353
#     4   9  18  34  56  82 112 151 194 236 288 348
#     4   9  18  37  63  91 122 159 201 240 286 351
#
# _framework density 21.873360999999999
#
# number of rings (size 3 to 8) (size 9 to 14) (size 15 to 20)
#    0.000    1.857    2.857    2.571    2.000    1.429 
#    0.000    1.429    0.000    3.429    0.000    0.000 
#    0.000    0.000    0.000    0.000    0.000    0.000 
#
# Total GULP energy -155873.764950 kJ/mol
# GULP energy per Si atom -5566.920177 kJ/mol
# Density = 2.182358 g / cm^3
# Si number density = 21.873361 Si / 1000 Ang^3
#
#
#
# Elastic Constant Matrix: (Units=GPa)
#
#
# Indices 1 2 3 4 5 6 
#
# 1 51.7222 16.3085 10.9671 0.0000 -12.0209 0.0000
# 2 16.3085 165.0088 56.2341 0.0000 -22.2686 0.0000
# 3 10.9671 56.2341 111.0017 0.0000 -19.3925 0.0000
# 4 0.0000 0.0000 0.0000 36.5179 0.0000 -9.6657
# 5 -12.0209 -22.2686 -19.3925 0.0000 22.0580 0.0000
# 6 0.0000 0.0000 0.0000 -9.6657 0.0000 9.6351
#
#
#
# Elastic Compliance Matrix: (Units=1/GPa)
#
#
# Indices 1 2 3 4 5 6 
#
# 1 0.022201 -0.000696 0.000177 0.000000 0.011552 0.000000
# 2 -0.000696 0.007821 -0.003048 0.000000 0.004836 0.000000
# 3 0.000177 -0.003048 0.011832 0.000000 0.007422 0.000000
# 4 0.000000 0.000000 0.000000 0.037283 0.000000 0.037402
# 5 0.011552 0.004836 0.007422 0.000000 0.063038 0.000000
# 6 0.000000 0.000000 0.000000 0.037402 0.000000 0.141307
#
#
# Mechanical properties :
#
#
# Convention : Reuss Voigt Hill
#
# Bulk Modulus (GPa) = 28.80181 54.97247 41.88714
# Shear Modulus (GPa) = 16.54598 29.92375 23.23486
#
# Velocity S-wave (km/s) = 2.75334 3.70272 3.26275
# Velocity P-wave (km/s) = 4.82741 6.59294 5.77801
#
# Compressibility (1/GPa) = 0.03472004
#
# Stress axis : x y z
#
# Youngs Moduli (GPa) = 45.04366 127.86851 84.51493
#
# Poissons Ratio (x) = 0.08894 -0.01497
# Poissons Ratio (y) = 0.03133 0.25763
# Poissons Ratio (z) = -0.00798 0.38978
#
# Static dielectric constant tensor:
#      x y z
#    x 2.538120 0.000000 0.553560 
#    y 0.000000 1.884900 0.000000 
#    z 0.553560 0.000000 2.226090 
# 
# From -- ./inp_files/30387.got.cif
#   From: 2010.05.17/outbox.cif.g08.bks.cpg/sg10_16_cif.got.tgz:30387.got - 2010.06.03 11:33:40.
