data_PCOD9146386
_publ_section_title
;
Structure prediction by ZEFSAII (Michael W. Deem and Ramdas Pophale) SiO2 
 PCOD9146386
Probable space group: P 2/M
;
_chemical_formula_sum "Si O2"
_cell_formula_units_Z 32
_cell_length_a 12.728474
_cell_length_b 7.870571
_cell_length_c 29.396864
_cell_angle_alpha 90.000000
_cell_angle_beta 29.722098
_cell_angle_gamma 90.000000
_cell_volume 1460.106527
_symmetry_space_group_name_H-M "P 2/M"
_symmetry_group_IT_number 10
_symmetry_cell_setting 'monoclinic'
loop_
_space_group_symop_operation_xyz
x,y,z
-x,y,-z
-x,-y,-z
x,-y,z
loop_
_atom_site_type_symbol
_atom_site_label
_atom_site_fract_x
_atom_site_fract_y
_atom_site_fract_z
Si Si1 0.020085 0.792557 0.719192
Si Si2 0.432351 0.799516 0.135539
Si Si3 0.834232 0.198639 0.241850
Si Si4 0.287930 0.303280 0.289039
Si Si5 0.303470 0.697644 0.042630
Si Si6 0.150746 0.303181 0.504333
Si Si7 0.524503 0.800908 0.690599
Si Si8 0.674855 0.795651 0.471382
O O1 0.157828 0.730104 0.709778
O O2 0.112449 0.747758 0.635603
O O3 0.779319 0.735111 0.810596
O O4 0.022517 0.000000 0.720141
O O5 0.386544 0.773777 0.206155
O O6 0.625418 0.714275 0.036670
O O7 0.452300 0.000000 0.120136
O O8 0.667740 0.269636 0.268180
O O9 0.774329 0.000000 0.268772
O O10 0.079033 0.211996 0.134588
O O11 0.245881 0.500000 0.294381
O O12 0.445875 0.287678 0.272258
O O13 0.066251 0.228647 0.392610
O O14 0.273397 0.500000 0.065518
O O15 0.500000 0.763791 0.000000
O O16 0.112425 0.500000 0.507535
O O17 0.260174 0.219196 0.419851
O O18 0.319698 0.287413 0.481798
O O19 0.488162 0.000000 0.713055
O O20 0.500000 0.749571 0.500000
O O21 0.662391 0.000000 0.482539
#
# Coordination Sequence:
#
# PCOD9146386 Si02
#       8
#     4   4   4   4   4   4   4   4
#     4   9  17  31  55  85 116 151 191 240 296 346
#     4  11  21  37  64  91 117 155 202 247 294 350
#     4  10  21  40  63  90 121 156 200 250 301 356
#     4  11  24  42  62  87 124 162 202 252 303 355
#     4  11  23  38  60  93 128 160 195 239 298 365
#     4  11  23  38  58  86 121 162 204 248 301 358
#     4  11  24  41  64  90 118 157 208 256 298 352
#     4  10  19  33  54  82 118 158 201 248 296 352
#
# _framework density 21.916207
#
# number of rings (size 3 to 8) (size 9 to 14) (size 15 to 20)
#    0.000    1.500    2.500    3.000    0.000    6.750 
#    0.000    1.250    0.000    3.750    0.000    0.000 
#    0.000    0.000    0.000    0.000    0.000    0.000 
#
# Total GULP energy -178750.668481 kJ/mol
# GULP energy per Si atom -5585.958390 kJ/mol
# Density = 2.186632 g / cm^3
# Si number density = 21.916207 Si / 1000 Ang^3
#
#
#
# Elastic Constant Matrix: (Units=GPa)
#
#
# Indices 1 2 3 4 5 6 
#
# 1 135.4669 -1.1129 28.1673 0.0000 8.4217 0.0000
# 2 -1.1129 35.4657 -9.3257 0.0000 0.5545 0.0000
# 3 28.1673 -9.3257 69.2106 0.0000 12.1233 0.0000
# 4 0.0000 0.0000 0.0000 10.0597 0.0000 4.0864
# 5 8.4217 0.5545 12.1233 0.0000 28.4595 0.0000
# 6 0.0000 0.0000 0.0000 4.0864 0.0000 15.0861
#
#
#
# Elastic Compliance Matrix: (Units=1/GPa)
#
#
# Indices 1 2 3 4 5 6 
#
# 1 0.008105 -0.000570 -0.003196 0.000000 -0.001026 0.000000
# 2 -0.000570 0.029428 0.004612 0.000000 -0.002369 0.000000
# 3 -0.003196 0.004612 0.017529 0.000000 -0.006611 0.000000
# 4 0.000000 0.000000 0.000000 0.111697 0.000000 -0.030255
# 5 -0.001026 -0.002369 -0.006611 0.000000 0.038304 0.000000
# 6 0.000000 0.000000 0.000000 -0.030255 0.000000 0.074481
#
#
# Mechanical properties :
#
#
# Convention : Reuss Voigt Hill
#
# Bulk Modulus (GPa) = 17.61946 30.62230 24.12088
# Shear Modulus (GPa) = 16.84808 25.54868 21.19838
#
# Velocity S-wave (km/s) = 2.77564 3.41800 3.11343
# Velocity P-wave (km/s) = 4.28126 5.43873 4.89433
#
# Compressibility (1/GPa) = 0.05675544
#
# Stress axis : x y z
#
# Youngs Moduli (GPa) = 123.37321 33.98102 57.04896
#
# Poissons Ratio (x) = 0.01937 0.18232
# Poissons Ratio (y) = 0.07032 -0.26312
# Poissons Ratio (z) = 0.39428 -0.15673
#
# Static dielectric constant tensor:
#      x y z
#    x 1.820390 0.000000 -0.026700 
#    y 0.000000 1.783230 0.000000 
#    z -0.026700 0.000000 1.841090 
# 
# From -- ./inp_files/58077.got.cif
#   From: 2010.05.17/outbox.cif.g08.bks.cpg/sg10_30_cif.got.tgz:58077.got - 2010.06.03 11:33:40.
