data_PCOD9146450
_publ_section_title
;
Structure prediction by ZEFSAII (Michael W. Deem and Ramdas Pophale) SiO2 
 PCOD9146450
Probable space group: P 2/M
;
_chemical_formula_sum "Si O2"
_cell_formula_units_Z 32
_cell_length_a 22.255049
_cell_length_b 9.048059
_cell_length_c 28.648375
_cell_angle_alpha 90.000000
_cell_angle_beta 161.212948
_cell_angle_gamma 90.000000
_cell_volume 1857.845719
_symmetry_space_group_name_H-M "P 2/M"
_symmetry_group_IT_number 10
_symmetry_cell_setting 'monoclinic'
loop_
_space_group_symop_operation_xyz
x,y,z
-x,y,-z
-x,-y,-z
x,-y,z
loop_
_atom_site_type_symbol
_atom_site_label
_atom_site_fract_x
_atom_site_fract_y
_atom_site_fract_z
Si Si1 0.367593 0.823908 0.043819
Si Si2 0.971381 0.675895 0.423991
Si Si3 0.784048 0.823888 0.828444
Si Si4 0.915613 0.676160 0.097000
Si Si5 0.618721 0.676057 0.796659
Si Si6 0.663990 0.176095 0.343438
Si Si7 0.453285 0.322260 0.912540
Si Si8 0.296800 0.322115 0.330379
O O1 0.538481 0.788296 0.205188
O O2 0.415978 0.753002 0.029798
O O3 0.354219 0.000000 0.030302
O O4 0.183928 0.759167 0.933687
O O5 0.995364 0.500000 0.433549
O O6 0.761454 0.717203 0.255993
O O7 0.000000 0.703224 0.500000
O O8 0.129536 0.763774 0.512849
O O9 0.661946 0.750124 0.779220
O O10 0.737565 0.755698 0.744169
O O11 0.757700 0.000000 0.808602
O O12 0.000000 0.793206 0.000000
O O13 0.906767 0.500000 0.099031
O O14 0.127538 0.718169 0.240838
O O15 0.790855 0.706391 0.958961
O O16 0.601436 0.500000 0.779309
O O17 0.438809 0.744709 0.689364
O O18 0.661488 0.000000 0.347666
O O19 0.470850 0.500000 0.920733
O O20 0.500000 0.281829 0.000000
O O21 0.500000 0.285764 0.500000
O O22 0.286613 0.500000 0.316307
#
# Coordination Sequence:
#
# PCOD9146450 Si02
#       8
#     4   4   4   4   4   4   4   4
#     4  10  20  33  53  80 109 141 178 222 270 325
#     4  10  19  33  55  80 105 137 179 220 263 318
#     4  11  22  35  55  83 115 147 182 228 281 333
#     4   9  18  33  55  81 108 141 181 226 272 323
#     4  10  19  33  56  82 110 144 185 231 277 326
#     4  10  20  33  52  81 114 142 176 225 279 326
#     4  10  21  37  56  79 108 142 180 223 267 317
#     4  10  21  38  59  84 113 148 191 233 277 331
#
# _framework density 17.224252
#
# number of rings (size 3 to 8) (size 9 to 14) (size 15 to 20)
#    0.000    2.000    2.500    1.500    0.000    3.750 
#    0.000    1.250    0.000    3.000    0.000    0.000 
#    0.000    0.000    0.000    0.000    0.000    0.000 
#
# Total GULP energy -178647.514424 kJ/mol
# GULP energy per Si atom -5582.734826 kJ/mol
# Density = 1.718505 g / cm^3
# Si number density = 17.224252 Si / 1000 Ang^3
#
#
#
# Elastic Constant Matrix: (Units=GPa)
#
#
# Indices 1 2 3 4 5 6 
#
# 1 171.2967 70.6894 80.7277 0.0000 16.5872 0.0000
# 2 70.6894 44.8930 50.2080 0.0000 5.5598 0.0000
# 3 80.7277 50.2080 109.8078 0.0000 10.7093 0.0000
# 4 0.0000 0.0000 0.0000 11.9870 0.0000 -9.5863
# 5 16.5872 5.5598 10.7093 0.0000 29.3068 0.0000
# 6 0.0000 0.0000 0.0000 -9.5863 0.0000 -1.4655
#
#
#
# Elastic Compliance Matrix: (Units=1/GPa)
#
#
# Indices 1 2 3 4 5 6 
#
# 1 0.017289 -0.026480 -0.000144 0.000000 -0.004709 0.000000
# 2 -0.026480 0.086175 -0.020534 0.000000 0.006142 0.000000
# 3 -0.000144 -0.020534 0.018887 0.000000 -0.002925 0.000000
# 4 0.000000 0.000000 0.000000 0.013388 0.000000 -0.087575
# 5 -0.004709 0.006142 -0.002925 0.000000 0.036691 0.000000
# 6 0.000000 0.000000 0.000000 -0.087575 0.000000 -0.109506
#
#
# Mechanical properties :
#
#
# Convention : Reuss Voigt Hill
#
# Bulk Modulus (GPa) = 35.66877 81.02751 58.34814
# Shear Modulus (GPa) = 30.01486 16.25715 23.13601
#
# Velocity S-wave (km/s) = 4.17897 3.07555 3.66898
# Velocity P-wave (km/s) = 6.63615 7.73025 7.20400
#
# Compressibility (1/GPa) = 0.02803573
#
# Stress axis : x y z
#
# Youngs Moduli (GPa) = 57.84042 11.60425 52.94736
#
# Poissons Ratio (x) = 0.30728 0.00761
# Poissons Ratio (y) = 1.53159 1.08724
# Poissons Ratio (z) = 0.00831 0.23829
#
# Static dielectric constant tensor:
#      x y z
#    x 1.556840 0.000000 0.004770 
#    y 0.000000 1.568500 0.000000 
#    z 0.004770 0.000000 1.573840 
# 
# From -- ./inp_files/86743.got.cif
#   From: 2010.05.17/outbox.cif.g08.bks.cpg/sg10_44_cif.got.tgz:86743.got - 2010.06.03 11:33:40.
