data_PCOD9146578
_publ_section_title
;
Structure prediction by ZEFSAII (Michael W. Deem and Ramdas Pophale) SiO2 
 PCOD9146578
Probable space group: P 2/M
;
_chemical_formula_sum "Si O2"
_cell_formula_units_Z 28
_cell_length_a 15.532870
_cell_length_b 7.514836
_cell_length_c 11.030000
_cell_angle_alpha 90.000000
_cell_angle_beta 117.076121
_cell_angle_gamma 90.000000
_cell_volume 1146.391978
_symmetry_space_group_name_H-M "P 2/M"
_symmetry_group_IT_number 10
_symmetry_cell_setting 'monoclinic'
loop_
_space_group_symop_operation_xyz
x,y,z
-x,y,-z
-x,-y,-z
x,-y,z
loop_
_atom_site_type_symbol
_atom_site_label
_atom_site_fract_x
_atom_site_fract_y
_atom_site_fract_z
Si Si1 0.489352 0.202940 0.654061
Si Si2 0.725456 0.213933 0.468076
Si Si3 0.311686 0.783930 0.290583
Si Si4 0.582301 0.288129 0.960849
Si Si5 0.066936 0.708215 0.435324
Si Si6 0.002338 0.297460 0.863219
Si Si7 0.217370 0.788573 0.979912
O O1 0.384773 0.280025 0.623547
O O2 0.576460 0.278934 0.626695
O O3 0.551591 0.197827 0.816772
O O4 0.468573 0.000000 0.602310
O O5 0.740035 0.263794 0.618659
O O6 0.819656 0.279941 0.459408
O O7 0.725545 0.000000 0.453786
O O8 0.314706 0.000000 0.286617
O O9 0.257050 0.721487 0.136038
O O10 0.574585 0.500000 0.941007
O O11 0.500000 0.229796 0.000000
O O12 0.694457 0.245781 0.056196
O O13 0.040900 0.500000 0.407024
O O14 0.000000 0.783298 0.500000
O O15 0.049790 0.786026 0.288473
O O16 0.965583 0.500000 0.854506
O O17 0.114276 0.297012 0.893981
O O18 0.000000 0.218747 0.000000
O O19 0.202631 0.000000 0.977401
#
# Coordination Sequence:
#
# PCOD9146578 Si02
#       7
#     4   4   4   4   4   4   4
#     4   9  18  32  52  80 110 138 170 211 264 323
#     4  10  19  33  56  81 106 139 178 220 264 316
#     4   8  15  30  52  80 112 140 166 205 264 326
#     4  10  21  36  53  74 104 143 182 219 264 323
#     4  10  23  41  56  74 107 148 185 225 276 329
#     4  10  21  38  60  84 110 143 185 232 279 328
#     4  10  20  34  56  83 109 139 177 226 278 325
#
# _framework density 24.424453
#
# number of rings (size 3 to 8) (size 9 to 14) (size 15 to 20)
#    0.000    2.429    0.000    3.000    0.000    5.714 
#    0.000    7.143    0.000    4.286    0.000    0.000 
#    0.000    0.000    0.000    0.000    0.000    0.000 
#
# Total GULP energy -156174.157109 kJ/mol
# GULP energy per Si atom -5577.648468 kJ/mol
# Density = 2.436886 g / cm^3
# Si number density = 24.424453 Si / 1000 Ang^3
#
#
#
# Elastic Constant Matrix: (Units=GPa)
#
#
# Indices 1 2 3 4 5 6 
#
# 1 191.6216 -3.8695 24.4825 0.0000 21.0861 0.0000
# 2 -3.8695 74.2643 -0.2800 0.0000 -4.6192 0.0000
# 3 24.4825 -0.2800 43.5089 0.0000 19.0648 0.0000
# 4 0.0000 0.0000 0.0000 -17.4573 0.0000 29.6232
# 5 21.0861 -4.6192 19.0648 0.0000 42.9956 0.0000
# 6 0.0000 0.0000 0.0000 29.6232 0.0000 -5.5882
#
#
#
# Elastic Compliance Matrix: (Units=1/GPa)
#
#
# Indices 1 2 3 4 5 6 
#
# 1 0.005725 0.000184 -0.002481 0.000000 -0.001688 0.000000
# 2 0.000184 0.013578 -0.000764 0.000000 0.001707 0.000000
# 3 -0.002481 -0.000764 0.029636 0.000000 -0.012006 0.000000
# 4 0.000000 0.000000 0.000000 0.007164 0.000000 0.037979
# 5 -0.001688 0.001707 -0.012006 0.000000 0.029593 0.000000
# 6 0.000000 0.000000 0.000000 0.037979 0.000000 0.022382
#
#
# Mechanical properties :
#
#
# Convention : Reuss Voigt Hill
#
# Bulk Modulus (GPa) = 23.35515 38.89562 31.12538
# Shear Modulus (GPa) = 38.91874 23.26081 31.08977
#
# Velocity S-wave (km/s) = 3.99611 3.08938 3.57164
# Velocity P-wave (km/s) = 5.55651 5.35585 5.45710
#
# Compressibility (1/GPa) = 0.04281711
#
# Stress axis : x y z
#
# Youngs Moduli (GPa) = 174.67193 73.64682 33.74307
#
# Poissons Ratio (x) = -0.01355 0.08370
# Poissons Ratio (y) = -0.03213 0.02579
# Poissons Ratio (z) = 0.43330 0.05629
#
# Static dielectric constant tensor:
#      x y z
#    x 2.043550 0.000000 -0.043270 
#    y 0.000000 1.919600 0.000000 
#    z -0.043270 0.000000 1.990350 
# 
# From -- ./inp_files/50040.got.cif
#   From: 2010.05.17/outbox.cif.g08.bks.cpg/sg10_26_cif.got.tgz:50040.got - 2010.06.03 11:33:40.
