data_PCOD9146232
_publ_section_title
;
Structure prediction by ZEFSAII (Michael W. Deem and Ramdas Pophale) SiO2 
 PCOD9146232
Probable space group: P 2/M
;
_chemical_formula_sum "Si O2"
_cell_formula_units_Z 30
_cell_length_a 23.710448
_cell_length_b 14.163226
_cell_length_c 9.564152
_cell_angle_alpha 90.000000
_cell_angle_beta 148.121128
_cell_angle_gamma 90.000000
_cell_volume 1696.232330
_symmetry_space_group_name_H-M "P 2/M"
_symmetry_group_IT_number 10
_symmetry_cell_setting 'monoclinic'
loop_
_space_group_symop_operation_xyz
x,y,z
-x,y,-z
-x,-y,-z
x,-y,z
loop_
_atom_site_type_symbol
_atom_site_label
_atom_site_fract_x
_atom_site_fract_y
_atom_site_fract_z
Si Si1 0.333163 0.607546 0.691233
Si Si2 0.909704 0.114604 0.202521
Si Si3 0.500000 0.745349 0.500000
Si Si4 0.304019 0.113051 0.368949
Si Si5 0.457562 0.608518 0.669398
Si Si6 0.446192 0.887262 0.176125
Si Si7 0.056795 0.105010 0.267427
Si Si8 0.732692 0.192692 0.399677
O O1 0.292761 0.500000 0.612107
O O2 0.372425 0.626494 0.614374
O O3 0.261343 0.694559 0.583030
O O4 0.432643 0.613241 0.009407
O O5 0.000000 0.148391 0.500000
O O6 0.965850 0.143210 0.176373
O O7 0.905488 0.000000 0.206817
O O8 0.786001 0.145337 0.932765
O O9 0.458604 0.677826 0.538670
O O10 0.421705 0.819855 0.256863
O O11 0.428156 0.129354 0.593853
O O12 0.273355 0.155362 0.454624
O O13 0.293424 0.000000 0.359898
O O14 0.444660 0.500000 0.594697
O O15 0.430525 0.000000 0.166602
O O16 0.373290 0.848929 0.897496
O O17 0.166928 0.157070 0.476671
O O18 0.083997 0.000000 0.377992
O O19 0.000000 0.097842 0.000000
#
# Coordination Sequence:
#
# PCOD9146232 Si02
#       8
#     4   4   2   4   4   4   4   4
#     4   9  19  36  55  79 105 136 181 232 280 330
#     4   9  18  34  54  75 102 140 187 236 273 299
#     4  12  20  34  48  76 114 148 188 222 264 326
#     4  10  20  34  52  76 110 150 191 226 261 323
#     4   9  18  34  56  76 103 141 185 234 277 318
#     4  11  24  34  46  75 120 162 185 211 267 336
#     4  10  19  33  53  78 105 137 186 235 264 300
#     4  12  20  33  57  81 109 145 187 223 279 333
#
# _framework density 17.686257000000001
#
# number of rings (size 3 to 8) (size 9 to 14) (size 15 to 20)
#    0.000    1.867    2.667    3.600    1.867    2.133 
#    0.000    2.667    0.000    0.400    0.000    0.000 
#    0.000    1.067    0.000    0.000    0.000    0.000 
#
# Total GULP energy -167029.400278 kJ/mol
# GULP energy per Si atom -5567.646676 kJ/mol
# Density = 1.764600 g / cm^3
# Si number density = 17.686257 Si / 1000 Ang^3
#
#
#
# Elastic Constant Matrix: (Units=GPa)
#
#
# Indices 1 2 3 4 5 6 
#
# 1 49.0006 37.9011 31.6872 0.0000 -3.1761 0.0000
# 2 37.9011 100.2515 26.1094 0.0000 4.9739 0.0000
# 3 31.6872 26.1094 106.7485 0.0000 -0.2926 0.0000
# 4 0.0000 0.0000 0.0000 17.6172 0.0000 -12.8467
# 5 -3.1761 4.9739 -0.2926 0.0000 34.7585 0.0000
# 6 0.0000 0.0000 0.0000 -12.8467 0.0000 18.9400
#
#
#
# Elastic Compliance Matrix: (Units=1/GPa)
#
#
# Indices 1 2 3 4 5 6 
#
# 1 0.034169 -0.011226 -0.007384 0.000000 0.004666 0.000000
# 2 -0.011226 0.014426 -0.000204 0.000000 -0.003092 0.000000
# 3 -0.007384 -0.000204 0.011608 0.000000 -0.000548 0.000000
# 4 0.000000 0.000000 0.000000 0.112316 0.000000 0.076183
# 5 0.004666 -0.003092 -0.000548 0.000000 0.029634 0.000000
# 6 0.000000 0.000000 0.000000 0.076183 0.000000 0.104472
#
#
# Mechanical properties :
#
#
# Convention : Reuss Voigt Hill
#
# Bulk Modulus (GPa) = 44.30035 49.71067 47.00551
# Shear Modulus (GPa) = 14.21346 24.95000 19.58173
#
# Velocity S-wave (km/s) = 2.83794 3.76000 3.33103
# Velocity P-wave (km/s) = 5.98672 6.85698 6.43657
#
# Compressibility (1/GPa) = 0.02257319
#
# Stress axis : x y z
#
# Youngs Moduli (GPa) = 29.26653 69.32052 86.14601
#
# Poissons Ratio (x) = 0.77821 0.63611
# Poissons Ratio (y) = 0.32855 0.01761
# Poissons Ratio (z) = 0.21611 0.01417
#
# Static dielectric constant tensor:
#      x y z
#    x 1.613370 0.000000 0.000570 
#    y 0.000000 1.620830 0.000000 
#    z 0.000570 0.000000 1.610360 
# 
# From -- ./inp_files/36308.got.cif
#   From: 2010.05.17/outbox.cif.g08.bks.cpg/sg10_19_cif.got.tgz:36308.got - 2010.06.03 11:33:40.
