data_PCOD9146726
_publ_section_title
;
Structure prediction by ZEFSAII (Michael W. Deem and Ramdas Pophale) SiO2 
 PCOD9146726
Probable space group: P 2/M
;
_chemical_formula_sum "Si O2"
_cell_formula_units_Z 20
_cell_length_a 13.834076
_cell_length_b 7.512127
_cell_length_c 21.849837
_cell_angle_alpha 90.000000
_cell_angle_beta 21.528773
_cell_angle_gamma 90.000000
_cell_volume 833.278110
_symmetry_space_group_name_H-M "P 2/M"
_symmetry_group_IT_number 10
_symmetry_cell_setting 'monoclinic'
loop_
_space_group_symop_operation_xyz
x,y,z
-x,y,-z
-x,-y,-z
x,-y,z
loop_
_atom_site_type_symbol
_atom_site_label
_atom_site_fract_x
_atom_site_fract_y
_atom_site_fract_z
Si Si1 0.792028 0.282063 0.310050
Si Si2 0.218529 0.282181 0.822241
Si Si3 0.342441 0.795407 0.244062
Si Si4 0.233071 0.295735 0.447286
Si Si5 0.292579 0.702253 0.076729
O O1 0.500000 0.228290 0.500000
O O2 0.801989 0.500000 0.305561
O O3 0.850679 0.228711 0.205893
O O4 0.009569 0.217274 0.229816
O O5 0.224316 0.500000 0.820887
O O6 0.514644 0.222689 0.665261
O O7 0.000000 0.224447 0.000000
O O8 0.310494 0.712310 0.329854
O O9 0.055745 0.789458 0.380261
O O10 0.419132 0.000000 0.206627
O O11 0.557108 0.699570 0.076530
O O12 0.196697 0.500000 0.487724
O O13 0.249576 0.500000 0.124780
O O14 0.500000 0.791367 0.000000
#
# Coordination Sequence:
#
# PCOD9146726 Si02
#       5
#     4   4   4   4   4
#     4   9  18  32  53  84 118 145 178 235 293 335
#     4   9  17  29  51  82 114 144 178 229 291 340
#     4  11  22  36  54  79 116 152 185 227 288 343
#     4  10  19  33  58  85 110 142 189 239 280 329
#     4  10  21  36  59  86 111 144 193 239 277 328
#
# _framework density 24.00159
#
# number of rings (size 3 to 8) (size 9 to 14) (size 15 to 20)
#    0.000    2.200    0.000    4.800    2.800    3.600 
#    0.000    0.000    0.000   11.400    0.000    0.000 
#    0.000    0.000    0.000    0.000    0.000    0.000 
#
# Total GULP energy -111831.824493 kJ/mol
# GULP energy per Si atom -5591.591225 kJ/mol
# Density = 2.394696 g / cm^3
# Si number density = 24.001590 Si / 1000 Ang^3
#
#
#
# Elastic Constant Matrix: (Units=GPa)
#
#
# Indices 1 2 3 4 5 6 
#
# 1 124.2038 -5.3063 60.1606 0.0000 -44.7854 0.0000
# 2 -5.3063 78.9332 -4.3368 0.0000 -1.5302 0.0000
# 3 60.1606 -4.3368 117.5115 0.0000 -26.5758 0.0000
# 4 0.0000 0.0000 0.0000 -39.3648 0.0000 62.9893
# 5 -44.7854 -1.5302 -26.5758 0.0000 51.0504 0.0000
# 6 0.0000 0.0000 0.0000 62.9893 0.0000 -18.4003
#
#
#
# Elastic Compliance Matrix: (Units=1/GPa)
#
#
# Indices 1 2 3 4 5 6 
#
# 1 0.013981 0.000858 -0.004926 0.000000 0.009727 0.000000
# 2 0.000858 0.012770 0.000327 0.000000 0.001306 0.000000
# 3 -0.004926 0.000327 0.011412 0.000000 0.001629 0.000000
# 4 0.000000 0.000000 0.000000 0.005673 0.000000 0.019421
# 5 0.009727 0.001306 0.001629 0.000000 0.029009 0.000000
# 6 0.000000 0.000000 0.000000 0.019421 0.000000 0.012137
#
#
# Mechanical properties :
#
#
# Convention : Reuss Voigt Hill
#
# Bulk Modulus (GPa) = 32.59317 46.85371 39.72344
# Shear Modulus (GPa) = 48.68913 16.66581 32.67747
#
# Velocity S-wave (km/s) = 4.50886 2.63793 3.69381
# Velocity P-wave (km/s) = 6.38087 5.37045 5.89734
#
# Compressibility (1/GPa) = 0.03068127
#
# Stress axis : x y z
#
# Youngs Moduli (GPa) = 71.52368 78.30908 87.62387
#
# Poissons Ratio (x) = -0.06717 0.43167
# Poissons Ratio (y) = -0.06135 -0.02869
# Poissons Ratio (z) = 0.35236 -0.02564
#
# Static dielectric constant tensor:
#      x y z
#    x 1.919970 0.000000 -0.023150 
#    y 0.000000 1.867170 0.000000 
#    z -0.023150 0.000000 1.881580 
# 
# From -- ./inp_files/89257.got.cif
#   From: 2010.05.17/outbox.cif.g08.bks.cpg/sg10_45_cif.got.tgz:89257.got - 2010.06.03 11:33:40.
