data_PCOD9146604
_publ_section_title
;
Structure prediction by ZEFSAII (Michael W. Deem and Ramdas Pophale) SiO2 
 PCOD9146604
Probable space group: P 2/M
;
_chemical_formula_sum "Si O2"
_cell_formula_units_Z 32
_cell_length_a 24.476467
_cell_length_b 7.596312
_cell_length_c 15.383844
_cell_angle_alpha 90.000000
_cell_angle_beta 29.233033
_cell_angle_gamma 90.000000
_cell_volume 1396.879712
_symmetry_space_group_name_H-M "P 2/M"
_symmetry_group_IT_number 10
_symmetry_cell_setting 'monoclinic'
loop_
_space_group_symop_operation_xyz
x,y,z
-x,y,-z
-x,-y,-z
x,-y,z
loop_
_atom_site_type_symbol
_atom_site_label
_atom_site_fract_x
_atom_site_fract_y
_atom_site_fract_z
Si Si1 0.253802 0.207002 0.181404
Si Si2 0.256284 0.214965 0.507725
Si Si3 0.497720 0.783706 0.788761
Si Si4 0.749416 0.702350 0.165794
Si Si5 0.533979 0.800655 0.544408
Si Si6 0.121035 0.212356 0.863484
Si Si7 0.855556 0.708971 0.848489
Si Si8 0.887907 0.213019 0.458466
O O1 0.180355 0.223510 0.195803
O O2 0.185557 0.279182 0.357849
O O3 0.268556 0.000000 0.178183
O O4 0.379494 0.276866 0.991776
O O5 0.387263 0.267886 0.322572
O O6 0.207266 0.270634 0.668992
O O7 0.174378 0.272445 0.543401
O O8 0.254995 0.000000 0.508764
O O9 0.504727 0.723597 0.678064
O O10 0.497917 0.000000 0.786382
O O11 0.714003 0.500000 0.208530
O O12 0.666119 0.804329 0.344947
O O13 0.861823 0.711063 0.064903
O O14 0.771035 0.777716 0.040585
O O15 0.500000 0.714604 0.500000
O O16 0.488390 0.000000 0.607369
O O17 0.124665 0.000000 0.864397
O O18 0.000000 0.264058 0.000000
O O19 0.840396 0.500000 0.867350
O O20 0.982690 0.742422 0.701944
O O21 0.885115 0.000000 0.460501
#
# Coordination Sequence:
#
# PCOD9146604 Si02
#       8
#     4   4   4   4   4   4   4   4
#     4  10  21  37  60  88 113 143 188 240 288 334
#     4   9  17  32  55  84 118 149 183 229 280 337
#     4   9  17  32  55  84 118 149 183 229 280 337
#     4  11  23  36  52  79 113 147 184 227 276 329
#     4  10  19  33  56  82 110 148 189 227 272 331
#     4  10  19  33  56  82 110 148 189 227 272 331
#     4  11  24  40  57  80 114 153 189 232 290 347
#     4  10  21  37  60  88 113 143 188 240 288 334
#
# _framework density 22.908200000000001
#
# number of rings (size 3 to 8) (size 9 to 14) (size 15 to 20)
#    0.000    2.000    1.250    2.625    0.000    7.000 
#    0.000    3.750    0.000    0.000    0.000    1.750 
#    0.000    0.000    0.000    0.000    0.000    0.000 
#
# Total GULP energy -178631.039692 kJ/mol
# GULP energy per Si atom -5582.219990 kJ/mol
# Density = 2.285606 g / cm^3
# Si number density = 22.908200 Si / 1000 Ang^3
#
#
#
# Elastic Constant Matrix: (Units=GPa)
#
#
# Indices 1 2 3 4 5 6 
#
# 1 90.0683 -9.6800 11.0758 0.0000 -1.7006 0.0000
# 2 -9.6800 48.7673 3.2915 0.0000 1.4174 0.0000
# 3 11.0758 3.2915 99.3187 0.0000 0.9725 0.0000
# 4 0.0000 0.0000 0.0000 4.3463 0.0000 5.9236
# 5 -1.7006 1.4174 0.9725 0.0000 43.0774 0.0000
# 6 0.0000 0.0000 0.0000 5.9236 0.0000 -20.9527
#
#
#
# Elastic Compliance Matrix: (Units=1/GPa)
#
#
# Indices 1 2 3 4 5 6 
#
# 1 0.011533 0.002370 -0.001369 0.000000 0.000408 0.000000
# 2 0.002370 0.021057 -0.000956 0.000000 -0.000578 0.000000
# 3 -0.001369 -0.000956 0.010255 0.000000 -0.000254 0.000000
# 4 0.000000 0.000000 0.000000 0.166087 0.000000 0.046955
# 5 0.000408 -0.000578 -0.000254 0.000000 0.023255 0.000000
# 6 0.000000 0.000000 0.000000 0.046955 0.000000 -0.034452
#
#
# Mechanical properties :
#
#
# Convention : Reuss Voigt Hill
#
# Bulk Modulus (GPa) = 23.29082 27.50320 25.39701
# Shear Modulus (GPa) = 23.58951 20.85867 22.22409
#
# Velocity S-wave (km/s) = 3.21244 3.02078 3.11808
# Velocity P-wave (km/s) = 4.89375 4.91922 4.90650
#
# Compressibility (1/GPa) = 0.04293538
#
# Stress axis : x y z
#
# Youngs Moduli (GPa) = 86.70473 47.48953 97.50940
#
# Poissons Ratio (x) = -0.11254 0.13346
# Poissons Ratio (y) = -0.20547 0.09326
# Poissons Ratio (z) = 0.11867 0.04542
#
# Static dielectric constant tensor:
#      x y z
#    x 1.973280 0.000000 -0.117620 
#    y 0.000000 1.903680 0.000000 
#    z -0.117620 0.000000 1.958840 
# 
# From -- ./inp_files/71529.got.cif
#   From: 2010.05.17/outbox.cif.g08.bks.cpg/sg10_36_cif.got.tgz:71529.got - 2010.06.03 11:33:40.
