data_PCOD9146056
_publ_section_title
;
Structure prediction by ZEFSAII (Michael W. Deem and Ramdas Pophale) SiO2 
 PCOD9146056
Probable space group: P 2/M
;
_chemical_formula_sum "Si O2"
_cell_formula_units_Z 32
_cell_length_a 17.831033
_cell_length_b 15.419837
_cell_length_c 11.365540
_cell_angle_alpha 90.000000
_cell_angle_beta 29.033129
_cell_angle_gamma 90.000000
_cell_volume 1516.597384
_symmetry_space_group_name_H-M "P 2/M"
_symmetry_group_IT_number 10
_symmetry_cell_setting 'monoclinic'
loop_
_space_group_symop_operation_xyz
x,y,z
-x,y,-z
-x,-y,-z
x,-y,z
loop_
_atom_site_type_symbol
_atom_site_label
_atom_site_fract_x
_atom_site_fract_y
_atom_site_fract_z
Si Si1 0.241071 0.093355 0.114355
Si Si2 0.250877 0.594160 0.564950
Si Si3 0.876791 0.599609 0.527081
Si Si4 0.553079 0.155616 0.690484
Si Si5 0.950510 0.232322 0.760920
Si Si6 0.163761 0.235155 0.826047
Si Si7 0.442605 0.336379 0.944071
Si Si8 0.219538 0.097435 0.422633
O O1 0.136605 0.170124 0.209970
O O2 0.258595 0.097918 0.231027
O O3 0.169664 0.000000 0.182274
O O4 0.414832 0.099623 0.828186
O O5 0.211980 0.500000 0.667633
O O6 0.178168 0.602266 0.534464
O O7 0.192418 0.672215 0.724685
O O8 0.434426 0.602644 0.290386
O O9 0.923020 0.500000 0.486880
O O10 0.001393 0.676164 0.360489
O O11 0.729091 0.626406 0.808758
O O12 0.692409 0.176922 0.411273
O O13 0.466883 0.244257 0.848472
O O14 0.635476 0.115457 0.692182
O O15 0.100859 0.177407 0.597259
O O16 0.849812 0.245201 0.016013
O O17 0.000000 0.201406 0.000000
O O18 0.500000 0.326299 0.000000
O O19 0.159613 0.000000 0.532751
#
# Coordination Sequence:
#
# PCOD9146056 Si02
#       8
#     4   4   4   4   4   4   4   4
#     4  11  25  43  65  93 122 158 205 254 313 375
#     4   9  17  30  54  89 124 157 205 267 309 349
#     4  10  19  32  57  90 124 165 208 251 307 369
#     4  11  21  39  66  92 123 160 204 256 306 360
#     4  12  23  40  60  89 133 170 200 249 308 366
#     4  11  21  38  58  88 124 167 213 246 300 369
#     4   9  16  29  53  89 127 158 192 245 311 364
#     4  11  22  40  68  97 122 154 202 257 312 371
#
# _framework density 21.099867
#
# number of rings (size 3 to 8) (size 9 to 14) (size 15 to 20)
#    0.000    1.500    2.500    4.875    0.000    4.750 
#    0.000    3.750    0.000    9.000    0.000    4.375 
#    0.000    0.000    0.000    0.000    0.000    0.000 
#
# Total GULP energy -178858.495931 kJ/mol
# GULP energy per Si atom -5589.327998 kJ/mol
# Density = 2.105184 g / cm^3
# Si number density = 21.099867 Si / 1000 Ang^3
#
#
#
# Elastic Constant Matrix: (Units=GPa)
#
#
# Indices 1 2 3 4 5 6 
#
# 1 61.6255 34.3203 29.6251 0.0000 -5.9677 0.0000
# 2 34.3203 145.2701 56.9781 0.0000 -7.5210 0.0000
# 3 29.6251 56.9781 105.2901 0.0000 7.5921 0.0000
# 4 0.0000 0.0000 0.0000 2.4995 0.0000 -10.0211
# 5 -5.9677 -7.5210 7.5921 0.0000 27.8707 0.0000
# 6 0.0000 0.0000 0.0000 -10.0211 0.0000 14.2908
#
#
#
# Elastic Compliance Matrix: (Units=1/GPa)
#
#
# Indices 1 2 3 4 5 6 
#
# 1 0.020460 -0.002773 -0.004609 0.000000 0.004888 0.000000
# 2 -0.002773 0.009509 -0.004598 0.000000 0.003225 0.000000
# 3 -0.004609 -0.004598 0.013713 0.000000 -0.005963 0.000000
# 4 0.000000 0.000000 0.000000 -0.220865 0.000000 -0.154877
# 5 0.004888 0.003225 -0.005963 0.000000 0.039421 0.000000
# 6 0.000000 0.000000 0.000000 -0.154877 0.000000 -0.038630
#
#
# Mechanical properties :
#
#
# Convention : Reuss Voigt Hill
#
# Bulk Modulus (GPa) = 50.70417 61.55918 56.13167
# Shear Modulus (GPa) = -34.28028 21.68299 -6.29864
#
# Velocity S-wave (km/s) = -4.03509 3.20915 -1.72964
# Velocity P-wave (km/s) = 1.54060 6.55515 4.76149
#
# Compressibility (1/GPa) = 0.01972224
#
# Stress axis : x y z
#
# Youngs Moduli (GPa) = 48.87511 105.15899 72.92542
#
# Poissons Ratio (x) = 0.29162 0.33609
# Poissons Ratio (y) = 0.13554 0.33533
# Poissons Ratio (z) = 0.22525 0.48355
#
# Static dielectric constant tensor:
#      x y z
#    x 1.748990 0.000000 -0.018310 
#    y 0.000000 1.788660 0.000000 
#    z -0.018310 0.000000 1.775500 
# 
# From -- ./inp_files/54020.got.cif
#   From: 2010.05.17/outbox.cif.g08.bks.cpg/sg10_28_cif.got.tgz:54020.got - 2010.06.03 11:33:40.
