data_PCOD9146756
_publ_section_title
;
Structure prediction by ZEFSAII (Michael W. Deem and Ramdas Pophale) SiO2 
 PCOD9146756
Probable space group: P 2/M
;
_chemical_formula_sum "Si O2"
_cell_formula_units_Z 20
_cell_length_a 24.583351
_cell_length_b 7.578027
_cell_length_c 9.487751
_cell_angle_alpha 90.000000
_cell_angle_beta 29.867474
_cell_angle_gamma 90.000000
_cell_volume 880.209309
_symmetry_space_group_name_H-M "P 2/M"
_symmetry_group_IT_number 10
_symmetry_cell_setting 'monoclinic'
loop_
_space_group_symop_operation_xyz
x,y,z
-x,y,-z
-x,-y,-z
x,-y,z
loop_
_atom_site_type_symbol
_atom_site_label
_atom_site_fract_x
_atom_site_fract_y
_atom_site_fract_z
Si Si1 0.112114 0.287260 0.667225
Si Si2 0.260106 0.797426 0.754725
Si Si3 0.667178 0.500000 0.206572
Si Si4 0.572087 0.500000 0.119449
Si Si5 0.983587 0.286408 0.695909
Si Si6 0.344028 0.199873 0.267173
O O1 0.126217 0.500000 0.647479
O O2 0.220643 0.203357 0.483656
O O3 0.083302 0.236991 0.572136
O O4 0.000000 0.243322 0.000000
O O5 0.275522 0.669797 0.852887
O O6 0.332011 0.742392 0.457402
O O7 0.285572 0.000000 0.730901
O O8 0.133834 0.782451 0.991502
O O9 0.657661 0.500000 0.059010
O O10 0.545383 0.500000 0.544255
O O11 0.590035 0.331752 0.979658
O O12 0.977067 0.500000 0.714516
O O13 0.000000 0.227618 0.500000
O O14 0.385648 0.000000 0.168754
#
# Coordination Sequence:
#
# PCOD9146756 Si02
#       6
#     4   4   2   2   4   4
#     4  10  19  33  59  92 131 178 215 256 306 370
#     4  11  24  42  68 101 133 171 218 266 322 386
#     4  11  27  49  71  93 127 166 212 276 338 393
#     4  11  27  49  71  95 123 167 216 271 342 391
#     4  10  21  35  58  93 134 179 219 256 309 377
#     4  11  24  41  68 102 133 170 219 266 319 387
#
# _framework density 22.721869000000002
#
# number of rings (size 3 to 8) (size 9 to 14) (size 15 to 20)
#    0.000    1.400    4.000    0.600    2.800    4.800 
#    0.000    4.000    0.000    0.000    0.000    0.000 
#    0.000    0.000    0.000    0.000    0.000    0.000 
#
# Total GULP energy -111954.034354 kJ/mol
# GULP energy per Si atom -5597.701718 kJ/mol
# Density = 2.267015 g / cm^3
# Si number density = 22.721869 Si / 1000 Ang^3
#
#
#
# Elastic Constant Matrix: (Units=GPa)
#
#
# Indices 1 2 3 4 5 6 
#
# 1 99.3334 22.9605 7.8420 0.0000 4.2275 0.0000
# 2 22.9605 82.3156 17.9294 0.0000 11.9914 0.0000
# 3 7.8420 17.9294 78.8569 0.0000 9.4683 0.0000
# 4 0.0000 0.0000 0.0000 -16.8127 0.0000 26.7569
# 5 4.2275 11.9914 9.4683 0.0000 42.4183 0.0000
# 6 0.0000 0.0000 0.0000 26.7569 0.0000 -50.1889
#
#
#
# Elastic Compliance Matrix: (Units=1/GPa)
#
#
# Indices 1 2 3 4 5 6 
#
# 1 0.010775 -0.002895 -0.000393 0.000000 -0.000168 0.000000
# 2 -0.002895 0.013954 -0.002513 0.000000 -0.003095 0.000000
# 3 -0.000393 -0.002513 0.013565 0.000000 -0.002278 0.000000
# 4 0.000000 0.000000 0.000000 -0.392466 0.000000 -0.209233
# 5 -0.000168 -0.003095 -0.002278 0.000000 0.024975 0.000000
# 6 0.000000 0.000000 0.000000 -0.209233 0.000000 -0.131472
#
#
# Mechanical properties :
#
#
# Convention : Reuss Voigt Hill
#
# Bulk Modulus (GPa) = 37.46589 39.77440 38.62014
# Shear Modulus (GPa) = -11.35928 9.20161 -1.07883
#
# Velocity S-wave (km/s) = -2.23833 2.01456 -0.68980
# Velocity P-wave (km/s) = 3.13760 4.79105 4.04961
#
# Compressibility (1/GPa) = 0.02669094
#
# Stress axis : x y z
#
# Youngs Moduli (GPa) = 92.81165 71.66261 73.71777
#
# Poissons Ratio (x) = 0.20749 0.02898
# Poissons Ratio (y) = 0.26872 0.18526
# Poissons Ratio (z) = 0.03648 0.18010
#
# Static dielectric constant tensor:
#      x y z
#    x 1.845740 0.000000 0.002840 
#    y 0.000000 1.829460 0.000000 
#    z 0.002840 0.000000 1.851410 
# 
# From -- ./inp_files/31467.got.cif
#   From: 2010.05.17/outbox.cif.g08.bks.cpg/sg10_16_cif.got.tgz:31467.got - 2010.06.03 11:33:40.
