data_PCOD9146364
_publ_section_title
;
Structure prediction by ZEFSAII (Michael W. Deem and Ramdas Pophale) SiO2 
 PCOD9146364
Probable space group: P 2/M
;
_chemical_formula_sum "Si O2"
_cell_formula_units_Z 29
_cell_length_a 5.181600
_cell_length_b 16.930596
_cell_length_c 23.910829
_cell_angle_alpha 90.000000
_cell_angle_beta 45.801161
_cell_angle_gamma 90.000000
_cell_volume 1503.849336
_symmetry_space_group_name_H-M "P 2/M"
_symmetry_group_IT_number 10
_symmetry_cell_setting 'monoclinic'
loop_
_space_group_symop_operation_xyz
x,y,z
-x,y,-z
-x,-y,-z
x,-y,z
loop_
_atom_site_type_symbol
_atom_site_label
_atom_site_fract_x
_atom_site_fract_y
_atom_site_fract_z
Si Si1 0.366122 0.758424 0.624342
Si Si2 0.199821 0.588316 0.094797
Si Si3 0.187238 0.180387 0.199637
Si Si4 0.427689 0.587798 0.444862
Si Si5 0.594209 0.910043 0.229001
Si Si6 0.029832 0.142474 0.408957
Si Si7 0.296631 0.680147 0.906184
Si Si8 0.000000 0.000000 0.500000
O O1 0.394178 0.665612 0.608151
O O2 0.740006 0.793328 0.591018
O O3 0.066659 0.775470 0.716831
O O4 0.251044 0.809846 0.587414
O O5 0.053538 0.500000 0.122080
O O6 0.412889 0.615955 0.116994
O O7 0.901485 0.649938 0.119437
O O8 0.500000 0.586894 0.000000
O O9 0.381018 0.111291 0.205141
O O10 0.490951 0.239304 0.132902
O O11 0.929782 0.146940 0.190471
O O12 0.500000 0.590579 0.500000
O O13 0.545245 0.500000 0.406720
O O14 0.000000 0.593265 0.500000
O O15 0.316024 0.895838 0.321997
O O16 0.713566 0.000000 0.211298
O O17 0.913887 0.070596 0.466218
O O18 0.000000 0.686701 0.000000
#
# Coordination Sequence:
#
# PCOD9146364 Si02
#       8
#     4   4   4   4   4   4   4   1
#     4  10  22  39  55  80 108 148 181 221 276 321
#     4   9  17  30  50  77 111 144 173 210 262 325
#     4  10  21  35  58  78 107 142 181 220 267 331
#     4  10  21  37  58  79 103 139 187 231 266 309
#     4  10  19  38  55  77 103 145 184 213 262 322
#     4  10  23  35  56  80 115 142 172 221 268 338
#     4  10  19  33  54  81 110 141 179 224 269 316
#     4  12  24  38  52  90 118 138 174 222 280 342
#
# _framework density 19.283844999999999
#
# number of rings (size 3 to 8) (size 9 to 14) (size 15 to 20)
#    0.000    2.069    0.690    2.483    2.897    2.759 
#    0.000    1.379    0.000    4.138    0.000    0.000 
#    0.000    0.000    0.000    0.000    0.000    0.000 
#
# Total GULP energy -161628.361528 kJ/mol
# GULP energy per Si atom -5573.391777 kJ/mol
# Density = 1.923995 g / cm^3
# Si number density = 19.283845 Si / 1000 Ang^3
#
#
#
# Elastic Constant Matrix: (Units=GPa)
#
#
# Indices 1 2 3 4 5 6 
#
# 1 86.3585 2.7405 0.1124 0.0000 -5.3472 0.0000
# 2 2.7405 121.4368 10.3090 0.0000 -4.9231 0.0000
# 3 0.1124 10.3090 16.8016 0.0000 -5.1107 0.0000
# 4 0.0000 0.0000 0.0000 13.5821 0.0000 -3.4993
# 5 -5.3472 -4.9231 -5.1107 0.0000 12.7414 0.0000
# 6 0.0000 0.0000 0.0000 -3.4993 0.0000 21.4905
#
#
#
# Elastic Compliance Matrix: (Units=1/GPa)
#
#
# Indices 1 2 3 4 5 6 
#
# 1 0.011932 -0.000189 0.001751 0.000000 0.005637 0.000000
# 2 -0.000189 0.008712 -0.004948 0.000000 0.001302 0.000000
# 3 0.001751 -0.004948 0.070826 0.000000 0.027232 0.000000
# 4 0.000000 0.000000 0.000000 0.076850 0.000000 0.012514
# 5 0.005637 0.001302 0.027232 0.000000 0.092276 0.000000
# 6 0.000000 0.000000 0.000000 0.012514 0.000000 0.048570
#
#
# Mechanical properties :
#
#
# Convention : Reuss Voigt Hill
#
# Bulk Modulus (GPa) = 11.80677 27.88011 19.84344
# Shear Modulus (GPa) = 14.52764 23.65848 19.09306
#
# Velocity S-wave (km/s) = 2.74771 3.50645 3.15001
# Velocity P-wave (km/s) = 4.02523 5.55722 4.85207
#
# Compressibility (1/GPa) = 0.08469715
#
# Stress axis : x y z
#
# Youngs Moduli (GPa) = 83.80554 114.78635 14.11913
#
# Poissons Ratio (x) = 0.02174 -0.02472
# Poissons Ratio (y) = 0.01587 0.06986
# Poissons Ratio (z) = -0.14674 0.56797
#
# Static dielectric constant tensor:
#      x y z
#    x 1.677650 0.000000 -0.005600 
#    y 0.000000 1.663150 0.000000 
#    z -0.005600 0.000000 1.674890 
# 
# From -- ./inp_files/91630.got.cif
#   From: 2010.05.17/outbox.cif.g08.bks.cpg/sg10_46_cif.got.tgz:91630.got - 2010.06.03 11:33:40.
