data_PCOD9146874
_publ_section_title
;
Structure prediction by ZEFSAII (Michael W. Deem and Ramdas Pophale) SiO2 
 PCOD9146874
Probable space group: P 2/M
;
_chemical_formula_sum "Si O2"
_cell_formula_units_Z 28
_cell_length_a 8.170742
_cell_length_b 18.424783
_cell_length_c 21.138169
_cell_angle_alpha 90.000000
_cell_angle_beta 156.985741
_cell_angle_gamma 90.000000
_cell_volume 1244.124355
_symmetry_space_group_name_H-M "P 2/M"
_symmetry_group_IT_number 10
_symmetry_cell_setting 'monoclinic'
loop_
_space_group_symop_operation_xyz
x,y,z
-x,y,-z
-x,-y,-z
x,-y,z
loop_
_atom_site_type_symbol
_atom_site_label
_atom_site_fract_x
_atom_site_fract_y
_atom_site_fract_z
Si Si1 0.675290 0.577348 0.166321
Si Si2 0.178820 0.260645 0.211424
Si Si3 0.609072 0.000000 0.277653
Si Si4 0.591969 0.845486 0.606582
Si Si5 0.419395 0.279387 0.107427
Si Si6 0.813706 0.579099 0.782907
Si Si7 0.641917 0.841809 0.276722
Si Si8 0.418305 0.000000 0.359443
O O1 0.750502 0.500000 0.225872
O O2 0.713168 0.650678 0.219094
O O3 0.965182 0.580418 0.207431
O O4 0.196673 0.577116 0.969795
O O5 0.185033 0.222759 0.281652
O O6 0.400207 0.202779 0.244156
O O7 0.388096 0.340949 0.283544
O O8 0.732244 0.271759 0.018576
O O9 0.463784 0.921967 0.201886
O O10 0.497581 0.000000 0.312560
O O11 0.111418 0.000000 0.444170
O O12 0.500000 0.839317 0.500000
O O13 0.788378 0.924294 0.692501
O O14 0.122450 0.847692 0.468527
O O15 0.607698 0.206293 0.201838
O O16 0.000000 0.293164 0.000000
O O17 0.595105 0.500000 0.710993
#
# Coordination Sequence:
#
# PCOD9146874 Si02
#       8
#     4   4   2   4   4   4   4   2
#     4   8  14  27  48  74 104 139 176 214 258 306
#     4  10  19  34  54  78 107 139 174 216 262 311
#     4   9  16  32  58  74  98 144 177 211 258 310
#     4  11  22  34  55  82 103 134 176 223 265 310
#     4   9  19  32  49  78 113 138 173 217 261 315
#     4   8  15  28  50  76 101 137 179 215 257 309
#     4  10  20  36  54  77 109 139 177 215 262 316
#     4   9  17  34  55  77 100 130 180 221 259 302
#
# _framework density 22.505789
#
# number of rings (size 3 to 8) (size 9 to 14) (size 15 to 20)
#    0.000    2.714    1.429    1.500    2.000    0.286 
#    0.000    6.071    0.000    3.000    0.000    4.000 
#    0.000    0.000    0.000    0.000    0.000    0.000 
#
# Total GULP energy -156103.463552 kJ/mol
# GULP energy per Si atom -5575.123698 kJ/mol
# Density = 2.245457 g / cm^3
# Si number density = 22.505789 Si / 1000 Ang^3
#
#
#
# Elastic Constant Matrix: (Units=GPa)
#
#
# Indices 1 2 3 4 5 6 
#
# 1 41.2668 29.2249 5.0937 0.0000 -11.6370 0.0000
# 2 29.2249 263.3535 33.7655 0.0000 -21.8452 0.0000
# 3 5.0937 33.7655 24.8279 0.0000 -11.8066 0.0000
# 4 0.0000 0.0000 0.0000 21.7368 0.0000 -7.6019
# 5 -11.6370 -21.8452 -11.8066 0.0000 29.0533 0.0000
# 6 0.0000 0.0000 0.0000 -7.6019 0.0000 28.3516
#
#
#
# Elastic Compliance Matrix: (Units=1/GPa)
#
#
# Indices 1 2 3 4 5 6 
#
# 1 0.028783 -0.002668 0.002791 0.000000 0.010657 0.000000
# 2 -0.002668 0.004877 -0.006011 0.000000 0.000156 0.000000
# 3 0.002791 -0.006011 0.057344 0.000000 0.019901 0.000000
# 4 0.000000 0.000000 0.000000 0.050765 0.000000 0.013612
# 5 0.010657 0.000156 0.019901 0.000000 0.046892 0.000000
# 6 0.000000 0.000000 0.000000 0.013612 0.000000 0.038921
#
#
# Mechanical properties :
#
#
# Convention : Reuss Voigt Hill
#
# Bulk Modulus (GPa) = 12.62198 51.73517 32.17858
# Shear Modulus (GPa) = 18.81347 33.25260 26.03303
#
# Velocity S-wave (km/s) = 2.89440 3.84801 3.40476
# Velocity P-wave (km/s) = 4.09763 6.54067 5.45760
#
# Compressibility (1/GPa) = 0.07922686
#
# Stress axis : x y z
#
# Youngs Moduli (GPa) = 34.74315 205.05023 17.43874
#
# Poissons Ratio (x) = 0.54706 -0.04867
# Poissons Ratio (y) = 0.09269 0.10483
# Poissons Ratio (z) = -0.09697 1.23259
#
# Static dielectric constant tensor:
#      x y z
#    x 1.891700 0.000000 0.007200 
#    y 0.000000 1.944740 0.000000 
#    z 0.007200 0.000000 1.849820 
# 
# From -- ./inp_files/83037.got.cif
#   From: 2010.05.17/outbox.cif.g08.bks.cpg/sg10_42_cif.got.tgz:83037.got - 2010.06.03 11:33:40.
