data_PCOD9146586
_publ_section_title
;
Structure prediction by ZEFSAII (Michael W. Deem and Ramdas Pophale) SiO2 
 PCOD9146586
Probable space group: P 2/M
;
_chemical_formula_sum "Si O2"
_cell_formula_units_Z 32
_cell_length_a 25.919080
_cell_length_b 9.348587
_cell_length_c 19.312420
_cell_angle_alpha 90.000000
_cell_angle_beta 157.047529
_cell_angle_gamma 90.000000
_cell_volume 1824.864227
_symmetry_space_group_name_H-M "P 2/M"
_symmetry_group_IT_number 10
_symmetry_cell_setting 'monoclinic'
loop_
_space_group_symop_operation_xyz
x,y,z
-x,y,-z
-x,-y,-z
x,-y,z
loop_
_atom_site_type_symbol
_atom_site_label
_atom_site_fract_x
_atom_site_fract_y
_atom_site_fract_z
Si Si1 0.884119 0.825467 0.909934
Si Si2 0.912625 0.173882 0.103820
Si Si3 0.577626 0.173851 0.525829
Si Si4 0.142621 0.838961 0.642063
Si Si5 0.647596 0.827288 0.859391
Si Si6 0.842585 0.828905 0.500187
Si Si7 0.661221 0.665301 0.020985
Si Si8 0.573451 0.666280 0.161315
O O1 0.730896 0.779748 0.707949
O O2 0.883349 0.000000 0.906508
O O3 0.917150 0.781629 0.029484
O O4 0.000000 0.778871 0.000000
O O5 0.039217 0.221967 0.304342
O O6 0.913652 0.000000 0.105249
O O7 0.775621 0.214591 0.971803
O O8 0.500000 0.220431 0.500000
O O9 0.484787 0.212278 0.346367
O O10 0.581201 0.000000 0.533888
O O11 0.125444 0.800929 0.540697
O O12 0.230973 0.730501 0.793935
O O13 0.000000 0.843905 0.500000
O O14 0.201589 0.000000 0.718419
O O15 0.650241 0.000000 0.870087
O O16 0.654825 0.754870 0.942829
O O17 0.702842 0.754983 0.339088
O O18 0.830815 0.000000 0.494435
O O19 0.689808 0.500000 0.040802
O O20 0.526407 0.673300 0.898163
O O21 0.608939 0.500000 0.192223
O O22 0.500000 0.717873 0.000000
#
# Coordination Sequence:
#
# PCOD9146586 Si02
#       8
#     4   4   4   4   4   4   4   4
#     4   9  16  26  44  74 113 148 178 218 267 321
#     4   9  17  31  49  76 114 146 171 216 276 322
#     4   9  15  27  49  78 106 142 184 217 264 328
#     4  10  20  35  54  78 108 139 173 216 270 323
#     4  10  19  33  56  81 111 144 179 225 274 321
#     4  10  20  32  53  80 105 137 178 220 265 322
#     4  11  23  37  54  77 105 138 181 226 267 318
#     4  10  21  39  56  70  99 143 181 218 271 323
#
# _framework density 17.535551000000002
#
# number of rings (size 3 to 8) (size 9 to 14) (size 15 to 20)
#    0.000    2.250    2.500    1.125    0.000    4.500 
#    0.000    4.375    0.000    0.375    0.000    0.000 
#    0.000    3.500    0.000    0.000    0.000    0.000 
#
# Total GULP energy -178402.722482 kJ/mol
# GULP energy per Si atom -5575.085078 kJ/mol
# Density = 1.749564 g / cm^3
# Si number density = 17.535551 Si / 1000 Ang^3
#
#
#
# Elastic Constant Matrix: (Units=GPa)
#
#
# Indices 1 2 3 4 5 6 
#
# 1 119.8430 35.7765 77.4095 0.0000 -6.4796 0.0000
# 2 35.7765 21.7532 39.7836 0.0000 -6.0294 0.0000
# 3 77.4095 39.7836 170.5627 0.0000 -9.5559 0.0000
# 4 0.0000 0.0000 0.0000 -25.8738 0.0000 -1.2643
# 5 -6.4796 -6.0294 -9.5559 0.0000 27.6663 0.0000
# 6 0.0000 0.0000 0.0000 -1.2643 0.0000 -2.6836
#
#
#
# Elastic Compliance Matrix: (Units=1/GPa)
#
#
# Indices 1 2 3 4 5 6 
#
# 1 0.016913 -0.024673 -0.002040 0.000000 -0.002121 0.000000
# 2 -0.024673 0.119738 -0.015900 0.000000 0.014824 0.000000
# 3 -0.002040 -0.015900 0.010479 0.000000 -0.000323 0.000000
# 4 0.000000 0.000000 0.000000 -0.039560 0.000000 0.018638
# 5 -0.002121 0.014824 -0.000323 0.000000 0.038767 0.000000
# 6 0.000000 0.000000 0.000000 0.018638 0.000000 -0.381417
#
#
# Mechanical properties :
#
#
# Convention : Reuss Voigt Hill
#
# Bulk Modulus (GPa) = 16.15418 68.67757 42.41588
# Shear Modulus (GPa) = -38.69397 10.43439 -14.12979
#
# Velocity S-wave (km/s) = -4.70254 2.44199 -2.84171
# Velocity P-wave (km/s) = 4.50033 6.87029 3.67069
#
# Compressibility (1/GPa) = 0.06190350
#
# Stress axis : x y z
#
# Youngs Moduli (GPa) = 59.12750 8.35159 95.42676
#
# Poissons Ratio (x) = 0.20606 0.19463
# Poissons Ratio (y) = 1.45886 1.51732
# Poissons Ratio (z) = 0.12060 0.13279
#
# Static dielectric constant tensor:
#      x y z
#    x 1.505010 0.000000 -0.002310 
#    y 0.000000 1.585780 0.000000 
#    z -0.002310 0.000000 1.594560 
# 
# From -- ./inp_files/86930.got.cif
#   From: 2010.05.17/outbox.cif.g08.bks.cpg/sg10_44_cif.got.tgz:86930.got - 2010.06.03 11:33:40.
