data_PCOD9146205
_publ_section_title
;
Structure prediction by ZEFSAII (Michael W. Deem and Ramdas Pophale) SiO2 
 PCOD9146205
Probable space group: P 2/M
;
_chemical_formula_sum "Si O2"
_cell_formula_units_Z 32
_cell_length_a 10.414555
_cell_length_b 21.575801
_cell_length_c 14.584880
_cell_angle_alpha 90.000000
_cell_angle_beta 29.610892
_cell_angle_gamma 90.000000
_cell_volume 1619.316138
_symmetry_space_group_name_H-M "P 2/M"
_symmetry_group_IT_number 10
_symmetry_cell_setting 'monoclinic'
loop_
_space_group_symop_operation_xyz
x,y,z
-x,y,-z
-x,-y,-z
x,-y,z
loop_
_atom_site_type_symbol
_atom_site_label
_atom_site_fract_x
_atom_site_fract_y
_atom_site_fract_z
Si Si1 0.924383 0.672463 0.273028
Si Si2 0.079823 0.810671 0.722177
Si Si3 0.423027 0.570603 0.271929
Si Si4 0.284966 0.065641 0.868110
Si Si5 0.625246 0.327729 0.273765
Si Si6 0.625081 0.190041 0.279607
Si Si7 0.875186 0.429512 0.724842
Si Si8 0.222169 0.067878 0.124474
O O1 0.039318 0.741884 0.211535
O O2 0.652207 0.671467 0.499799
O O3 0.837681 0.661808 0.221700
O O4 0.098701 0.619697 0.210345
O O5 0.144083 0.821342 0.789983
O O6 0.359870 0.805731 0.501094
O O7 0.938003 0.868889 0.764652
O O8 0.524067 0.500000 0.212646
O O9 0.604222 0.620633 0.208820
O O10 0.337787 0.585273 0.220798
O O11 0.151547 0.570630 0.498472
O O12 0.406143 0.130326 0.763463
O O13 0.413662 0.000000 0.758716
O O14 0.263839 0.064898 0.989832
O O15 0.000000 0.064794 0.000000
O O16 0.663869 0.257847 0.212403
O O17 0.833359 0.500000 0.783448
O O18 0.106967 0.000000 0.223375
O O19 0.500000 0.073062 0.000000
#
# Coordination Sequence:
#
# PCOD9146205 Si02
#       8
#     4   4   4   4   4   4   4   4
#     4   8  14  24  38  57  84 117 151 187 228 275
#     4   9  17  31  50  72  99 129 159 197 244 286
#     4   8  13  21  33  51  80 117 151 184 226 274
#     4  10  19  33  53  75  96 123 162 201 236 281
#     4   8  14  24  37  57  87 117 145 187 237 273
#     4   9  17  30  50  75  99 123 160 205 240 279
#     4   8  13  21  33  51  79 116 154 187 221 268
#     4  10  21  37  53  70  98 131 158 193 244 291
#
# _framework density 19.761427000000001
#
# number of rings (size 3 to 8) (size 9 to 14) (size 15 to 20)
#    0.000    3.250    1.250    2.250    0.000    1.000 
#    2.250    4.375    0.000    2.250    0.000    0.000 
#    0.000    2.000    0.000    0.125    0.000    0.500 
#
# Total GULP energy -178275.941053 kJ/mol
# GULP energy per Si atom -5571.123158 kJ/mol
# Density = 1.971645 g / cm^3
# Si number density = 19.761427 Si / 1000 Ang^3
#
#
#
# Elastic Constant Matrix: (Units=GPa)
#
#
# Indices 1 2 3 4 5 6 
#
# 1 104.3822 97.2168 8.9316 0.0000 -10.4452 0.0000
# 2 97.2168 211.6271 26.6565 0.0000 -11.5554 0.0000
# 3 8.9316 26.6565 29.5904 0.0000 -6.6237 0.0000
# 4 0.0000 0.0000 0.0000 -99.0148 0.0000 19.4801
# 5 -10.4452 -11.5554 -6.6237 0.0000 9.4408 0.0000
# 6 0.0000 0.0000 0.0000 19.4801 0.0000 24.2786
#
#
#
# Elastic Compliance Matrix: (Units=1/GPa)
#
#
# Indices 1 2 3 4 5 6 
#
# 1 0.018181 -0.008239 0.004958 0.000000 0.013510 0.000000
# 2 -0.008239 0.009177 -0.006295 0.000000 -0.002299 0.000000
# 3 0.004958 -0.006295 0.044454 0.000000 0.028970 0.000000
# 4 0.000000 0.000000 0.000000 -0.008723 0.000000 0.006999
# 5 0.013510 -0.002299 0.028970 0.000000 0.138382 0.000000
# 6 0.000000 0.000000 0.000000 0.006999 0.000000 0.035573
#
#
# Mechanical properties :
#
#
# Convention : Reuss Voigt Hill
#
# Bulk Modulus (GPa) = 18.98945 67.91218 43.45082
# Shear Modulus (GPa) = 18.26483 1.12724 9.69603
#
# Velocity S-wave (km/s) = 3.04347 0.75608 2.21748
# Velocity P-wave (km/s) = 4.68834 5.93320 5.34712
#
# Compressibility (1/GPa) = 0.05266082
#
# Stress axis : x y z
#
# Youngs Moduli (GPa) = 55.00206 108.96248 22.49516
#
# Poissons Ratio (x) = 0.89773 -0.11154
# Poissons Ratio (y) = 0.45316 0.14161
# Poissons Ratio (z) = -0.27272 0.68596
#
# Static dielectric constant tensor:
#      x y z
#    x 1.658040 0.000000 0.020320 
#    y 0.000000 1.742210 0.000000 
#    z 0.020320 0.000000 1.736490 
# 
# From -- ./inp_files/77112.got.cif
#   From: 2010.05.17/outbox.cif.g08.bks.cpg/sg10_39_cif.got.tgz:77112.got - 2010.06.03 11:33:40.
