data_PCOD9146188
_publ_section_title
;
Structure prediction by ZEFSAII (Michael W. Deem and Ramdas Pophale) SiO2 
 PCOD9146188
Probable space group: P 2/M
;
_chemical_formula_sum "Si O2"
_cell_formula_units_Z 32
_cell_length_a 22.741814
_cell_length_b 8.619146
_cell_length_c 32.710756
_cell_angle_alpha 90.000000
_cell_angle_beta 15.994021
_cell_angle_gamma 90.000000
_cell_volume 1766.688232
_symmetry_space_group_name_H-M "P 2/M"
_symmetry_group_IT_number 10
_symmetry_cell_setting 'monoclinic'
loop_
_space_group_symop_operation_xyz
x,y,z
-x,y,-z
-x,-y,-z
x,-y,z
loop_
_atom_site_type_symbol
_atom_site_label
_atom_site_fract_x
_atom_site_fract_y
_atom_site_fract_z
Si Si1 0.188831 0.314511 0.005607
Si Si2 0.755056 0.325212 0.175261
Si Si3 0.305059 0.685710 0.552517
Si Si4 0.487137 0.818945 0.735978
Si Si5 0.177998 0.313724 0.103636
Si Si6 0.823459 0.811891 0.449220
Si Si7 0.260855 0.184780 0.723860
Si Si8 0.700917 0.186840 0.891905
O O1 0.166411 0.500000 0.018682
O O2 0.256752 0.268777 0.006075
O O3 0.952937 0.245094 0.155157
O O4 0.363550 0.264167 0.855353
O O5 0.655308 0.210336 0.209002
O O6 0.751331 0.257219 0.222756
O O7 0.499512 0.000000 0.262819
O O8 0.000000 0.340247 0.000000
O O9 0.325526 0.500000 0.539702
O O10 0.294203 0.742920 0.512327
O O11 0.500745 0.758551 0.447055
O O12 0.072773 0.729923 0.725197
O O13 0.339731 0.500000 0.763652
O O14 0.714720 0.765393 0.564935
O O15 0.188284 0.500000 0.100383
O O16 0.297928 0.241865 0.062050
O O17 0.070571 0.765199 0.279833
O O18 0.807861 0.000000 0.456859
O O19 0.256262 0.000000 0.727585
O O20 0.697455 0.000000 0.893948
O O21 0.500000 0.243648 0.000000
#
# Coordination Sequence:
#
# PCOD9146188 Si02
#       8
#     4   4   4   4   4   4   4   4
#     4  11  23  38  52  70 102 144 188 224 262 310
#     4  11  21  32  48  69  97 137 184 230 269 304
#     4  10  19  33  53  74 100 136 179 224 272 315
#     4  11  21  32  50  75 105 139 178 221 267 312
#     4   9  21  39  57  78 105 139 176 218 263 315
#     4   9  18  32  51  79 112 137 165 213 265 312
#     4  12  23  33  48  72 102 138 183 229 272 310
#     4   9  18  35  62  91 113 134 162 203 260 323
#
# _framework density 18.112987
#
# number of rings (size 3 to 8) (size 9 to 14) (size 15 to 20)
#    0.000    1.750    2.500    2.625    0.000    3.250 
#    0.000    2.500    0.000    0.750    0.000    5.250 
#    0.000    0.000    0.000    0.000    0.000    0.000 
#
# Total GULP energy -178463.950811 kJ/mol
# GULP energy per Si atom -5576.998463 kJ/mol
# Density = 1.807176 g / cm^3
# Si number density = 18.112987 Si / 1000 Ang^3
#
#
#
# Elastic Constant Matrix: (Units=GPa)
#
#
# Indices 1 2 3 4 5 6 
#
# 1 98.4385 11.1733 51.9303 0.0000 -1.2144 0.0000
# 2 11.1733 38.0980 11.6770 0.0000 -5.0337 0.0000
# 3 51.9303 11.6770 65.3691 0.0000 -10.5557 0.0000
# 4 0.0000 0.0000 0.0000 45.4641 0.0000 17.6348
# 5 -1.2144 -5.0337 -10.5557 0.0000 22.9346 0.0000
# 6 0.0000 0.0000 0.0000 17.6348 0.0000 31.8452
#
#
#
# Elastic Compliance Matrix: (Units=1/GPa)
#
#
# Indices 1 2 3 4 5 6 
#
# 1 0.018343 -0.001528 -0.015337 0.000000 -0.006423 0.000000
# 2 -0.001528 0.028260 -0.003075 0.000000 0.004707 0.000000
# 3 -0.015337 -0.003075 0.030022 0.000000 0.012331 0.000000
# 4 0.000000 0.000000 0.000000 0.028012 0.000000 -0.015512
# 5 -0.006423 0.004707 0.012331 0.000000 0.049970 0.000000
# 6 0.000000 0.000000 0.000000 -0.015512 0.000000 0.039992
#
#
# Mechanical properties :
#
#
# Convention : Reuss Voigt Hill
#
# Bulk Modulus (GPa) = 27.21244 39.05188 33.13216
# Shear Modulus (GPa) = 20.26527 28.52377 24.39452
#
# Velocity S-wave (km/s) = 3.34851 3.97264 3.67385
# Velocity P-wave (km/s) = 5.47781 6.53066 6.02727
#
# Compressibility (1/GPa) = 0.03674791
#
# Stress axis : x y z
#
# Youngs Moduli (GPa) = 54.51531 35.38526 33.30920
#
# Poissons Ratio (x) = 0.05406 0.51085
# Poissons Ratio (y) = 0.08328 0.10241
# Poissons Ratio (z) = 0.83608 0.10879
#
# Static dielectric constant tensor:
#      x y z
#    x 1.570550 0.000000 0.039530 
#    y 0.000000 1.617870 0.000000 
#    z 0.039530 0.000000 1.686620 
# 
# From -- ./inp_files/69971.got.cif
#   From: 2010.05.17/outbox.cif.g08.bks.cpg/sg10_35_cif.got.tgz:69971.got - 2010.06.03 11:33:40.
