data_PCOD9146733
_publ_section_title
;
Structure prediction by ZEFSAII (Michael W. Deem and Ramdas Pophale) SiO2 
 PCOD9146733
Probable space group: P 2/M
;
_chemical_formula_sum "Si O2"
_cell_formula_units_Z 26
_cell_length_a 13.127910
_cell_length_b 14.004713
_cell_length_c 8.980553
_cell_angle_alpha 90.000000
_cell_angle_beta 122.719911
_cell_angle_gamma 90.000000
_cell_volume 1389.106813
_symmetry_space_group_name_H-M "P 2/M"
_symmetry_group_IT_number 10
_symmetry_cell_setting 'monoclinic'
loop_
_space_group_symop_operation_xyz
x,y,z
-x,y,-z
-x,-y,-z
x,-y,z
loop_
_atom_site_type_symbol
_atom_site_label
_atom_site_fract_x
_atom_site_fract_y
_atom_site_fract_z
Si Si1 0.356249 0.701280 0.368351
Si Si2 0.774069 0.234819 0.998630
Si Si3 0.137059 0.224302 0.597738
Si Si4 0.311242 0.110853 0.514524
Si Si5 0.553519 0.891265 0.892694
Si Si6 0.000000 0.716968 0.000000
Si Si7 0.149808 0.389825 0.372199
O O1 0.500000 0.694987 0.500000
O O2 0.303694 0.688637 0.159748
O O3 0.312601 0.807349 0.389136
O O4 0.285640 0.628294 0.418758
O O5 0.677284 0.150986 0.933191
O O6 0.812424 0.250278 0.199508
O O7 0.897179 0.222518 0.002429
O O8 0.221769 0.150029 0.573578
O O9 0.132146 0.320960 0.497970
O O10 0.000000 0.186104 0.500000
O O11 0.447131 0.112475 0.688220
O O12 0.284381 0.000000 0.452408
O O13 0.580236 0.000000 0.953113
O O14 0.500000 0.842904 0.000000
O O15 0.936590 0.651154 0.826068
O O16 0.126606 0.500000 0.383781
#
# Coordination Sequence:
#
# PCOD9146733 Si02
#       7
#     4   4   4   4   4   2   4
#     4  10  21  37  60  88 118 158 187 240 306 347
#     4  11  21  37  59  84 120 155 196 242 291 360
#     4  11  22  39  60  85 117 160 196 243 297 343
#     4  10  21  37  58  88 120 154 202 246 291 347
#     4  10  19  33  58  87 115 154 201 249 292 340
#     4  10  21  40  61  84 118 158 191 238 302 356
#     4  10  22  40  62  88 116 149 198 246 293 355
#
# _framework density 18.717063
#
# number of rings (size 3 to 8) (size 9 to 14) (size 15 to 20)
#    0.000    1.692    4.615    0.231    0.000    1.846 
#    0.000    1.154    0.000    0.923    0.000    0.000 
#    0.000    0.000    0.000    0.000    0.000    0.000 
#
# Total GULP energy -144898.570423 kJ/mol
# GULP energy per Si atom -5573.021939 kJ/mol
# Density = 1.867446 g / cm^3
# Si number density = 18.717063 Si / 1000 Ang^3
#
#
#
# Elastic Constant Matrix: (Units=GPa)
#
#
# Indices 1 2 3 4 5 6 
#
# 1 127.1253 35.9258 40.1820 0.0000 25.6041 0.0000
# 2 35.9258 69.3639 4.9884 0.0000 3.7057 0.0000
# 3 40.1820 4.9884 96.3659 0.0000 -1.0493 0.0000
# 4 0.0000 0.0000 0.0000 12.5985 0.0000 2.9186
# 5 25.6041 3.7057 -1.0493 0.0000 27.5556 0.0000
# 6 0.0000 0.0000 0.0000 2.9186 0.0000 6.0227
#
#
#
# Elastic Compliance Matrix: (Units=1/GPa)
#
#
# Indices 1 2 3 4 5 6 
#
# 1 0.013817 -0.006102 -0.005579 0.000000 -0.012231 0.000000
# 2 -0.006102 0.017273 0.001687 0.000000 0.003411 0.000000
# 3 -0.005579 0.001687 0.012675 0.000000 0.005439 0.000000
# 4 0.000000 0.000000 0.000000 0.089412 0.000000 -0.043329
# 5 -0.012231 0.003411 0.005439 0.000000 0.047403 0.000000
# 6 0.000000 0.000000 0.000000 -0.043329 0.000000 0.187035
#
#
# Mechanical properties :
#
#
# Convention : Reuss Voigt Hill
#
# Bulk Modulus (GPa) = 42.05325 50.56083 46.30704
# Shear Modulus (GPa) = 12.64129 23.35263 17.99696
#
# Velocity S-wave (km/s) = 2.60164 3.53606 3.10421
# Velocity P-wave (km/s) = 5.61617 6.61389 6.13534
#
# Compressibility (1/GPa) = 0.02377937
#
# Stress axis : x y z
#
# Youngs Moduli (GPa) = 72.37291 57.89219 78.89419
#
# Poissons Ratio (x) = 0.35325 0.44013
# Poissons Ratio (y) = 0.44161 -0.13312
# Poissons Ratio (z) = 0.40375 -0.09768
#
# Static dielectric constant tensor:
#      x y z
#    x 1.698230 0.000000 -0.031110 
#    y 0.000000 1.620370 0.000000 
#    z -0.031110 0.000000 1.696910 
# 
# From -- ./inp_files/25116.got.cif
#   From: 2010.05.17/outbox.cif.g08.bks.cpg/sg10_13_cif.got.tgz:25116.got - 2010.06.03 11:33:40.
