data_PCOD9146784
_publ_section_title
;
Structure prediction by ZEFSAII (Michael W. Deem and Ramdas Pophale) SiO2 
 PCOD9146784
Probable space group: P 2/M
;
_chemical_formula_sum "Si O2"
_cell_formula_units_Z 32
_cell_length_a 12.271380
_cell_length_b 8.986580
_cell_length_c 19.137269
_cell_angle_alpha 90.000000
_cell_angle_beta 71.645029
_cell_angle_gamma 90.000000
_cell_volume 2003.044832
_symmetry_space_group_name_H-M "P 2/M"
_symmetry_group_IT_number 10
_symmetry_cell_setting 'monoclinic'
loop_
_space_group_symop_operation_xyz
x,y,z
-x,y,-z
-x,-y,-z
x,-y,z
loop_
_atom_site_type_symbol
_atom_site_label
_atom_site_fract_x
_atom_site_fract_y
_atom_site_fract_z
Si Si1 0.226164 0.822938 0.693406
Si Si2 0.583058 0.324424 0.421872
Si Si3 0.580802 0.674343 0.266550
Si Si4 0.249927 0.322470 0.135710
Si Si5 0.314923 0.322247 0.962621
Si Si6 0.525972 0.822826 0.846526
Si Si7 0.907902 0.326694 0.081470
Si Si8 0.007210 0.176457 0.197729
O O1 0.297153 0.762239 0.612649
O O2 0.293116 0.742476 0.743962
O O3 0.092069 0.788306 0.725748
O O4 0.240691 0.000000 0.696630
O O5 0.500000 0.271796 0.500000
O O6 0.606328 0.500000 0.427880
O O7 0.527230 0.310978 0.355495
O O8 0.588953 0.500000 0.247169
O O9 0.515047 0.761227 0.220175
O O10 0.255692 0.500000 0.142854
O O11 0.352071 0.245360 0.157177
O O12 0.125762 0.262584 0.182575
O O13 0.269772 0.289009 0.049364
O O14 0.336780 0.500000 0.954612
O O15 0.430079 0.235989 0.920192
O O16 0.214983 0.287180 0.927044
O O17 0.529819 0.000000 0.845909
O O18 0.904157 0.500000 0.105634
O O19 0.951907 0.224940 0.135032
O O20 0.000000 0.319341 0.000000
O O21 0.028083 0.000000 0.194001
#
# Coordination Sequence:
#
# PCOD9146784 Si02
#       8
#     4   4   4   4   4   4   4   4
#     4   9  18  31  49  77 108 136 162 197 247 299
#     4   8  16  31  52  80 110 137 166 200 239 292
#     4   9  18  33  53  76 104 137 169 202 243 294
#     4  11  23  39  55  69  91 131 180 220 259 306
#     4  10  21  37  55  72  93 128 174 219 261 310
#     4  12  24  36  51  73 101 130 169 217 262 307
#     4  10  19  34  52  71  94 127 169 210 256 306
#     4  11  22  34  48  72 103 131 165 210 257 303
#
# _framework density 15.975679
#
# number of rings (size 3 to 8) (size 9 to 14) (size 15 to 20)
#    0.750    1.250    1.250    3.375    0.000    7.500 
#    0.000    0.000    0.000    0.000    0.000    0.875 
#    0.000    7.000    0.000    0.000    0.000    0.000 
#
# Total GULP energy -178387.437055 kJ/mol
# GULP energy per Si atom -5574.607408 kJ/mol
# Density = 1.593932 g / cm^3
# Si number density = 15.975679 Si / 1000 Ang^3
#
#
#
# Elastic Constant Matrix: (Units=GPa)
#
#
# Indices 1 2 3 4 5 6 
#
# 1 106.8074 53.2904 41.2368 0.0000 -26.3388 0.0000
# 2 53.2904 69.4553 41.9168 0.0000 -18.2216 0.0000
# 3 41.2368 41.9168 85.9186 0.0000 -26.9872 0.0000
# 4 0.0000 0.0000 0.0000 9.4591 0.0000 -10.7758
# 5 -26.3388 -18.2216 -26.9872 0.0000 17.8917 0.0000
# 6 0.0000 0.0000 0.0000 -10.7758 0.0000 21.9314
#
#
#
# Elastic Compliance Matrix: (Units=1/GPa)
#
#
# Indices 1 2 3 4 5 6 
#
# 1 0.018728 -0.010512 0.002731 0.000000 0.020982 0.000000
# 2 -0.010512 0.027503 -0.008429 0.000000 -0.000178 0.000000
# 3 0.002731 -0.008429 0.024717 0.000000 0.032719 0.000000
# 4 0.000000 0.000000 0.000000 0.240128 0.000000 0.117985
# 5 0.020982 -0.000178 0.032719 0.000000 0.135951 0.000000
# 6 0.000000 0.000000 0.000000 0.117985 0.000000 0.103568
#
#
# Mechanical properties :
#
#
# Convention : Reuss Voigt Hill
#
# Bulk Modulus (GPa) = 25.95497 59.45216 42.70356
# Shear Modulus (GPa) = 8.39125 18.23892 13.31509
#
# Velocity S-wave (km/s) = 2.29432 3.38252 2.89010
# Velocity P-wave (km/s) = 4.82705 7.24915 6.15835
#
# Compressibility (1/GPa) = 0.03852827
#
# Stress axis : x y z
#
# Youngs Moduli (GPa) = 53.39724 36.35918 40.45730
#
# Poissons Ratio (x) = 0.38222 -0.11048
# Poissons Ratio (y) = 0.56133 0.34100
# Poissons Ratio (z) = -0.14582 0.30646
#
# Static dielectric constant tensor:
#      x y z
#    x 1.517620 0.000000 -0.012650 
#    y 0.000000 1.531800 0.000000 
#    z -0.012650 0.000000 1.551780 
# 
# From -- ./inp_files/83370.got.cif
#   From: 2010.05.17/outbox.cif.g08.bks.cpg/sg10_42_cif.got.tgz:83370.got - 2010.06.03 11:33:40.
