data_PCOD9146741
_publ_section_title
;
Structure prediction by ZEFSAII (Michael W. Deem and Ramdas Pophale) SiO2 
 PCOD9146741
Probable space group: P 2/M
;
_chemical_formula_sum "Si O2"
_cell_formula_units_Z 32
_cell_length_a 20.846108
_cell_length_b 13.758527
_cell_length_c 9.243860
_cell_angle_alpha 90.000000
_cell_angle_beta 139.393316
_cell_angle_gamma 90.000000
_cell_volume 1725.598384
_symmetry_space_group_name_H-M "P 2/M"
_symmetry_group_IT_number 10
_symmetry_cell_setting 'monoclinic'
loop_
_space_group_symop_operation_xyz
x,y,z
-x,y,-z
-x,-y,-z
x,-y,z
loop_
_atom_site_type_symbol
_atom_site_label
_atom_site_fract_x
_atom_site_fract_y
_atom_site_fract_z
Si Si1 0.319382 0.114902 0.762711
Si Si2 0.897078 0.607458 0.410829
Si Si3 0.546167 0.293109 0.931343
Si Si4 0.679818 0.610010 0.930771
Si Si5 0.751413 0.115942 0.678256
Si Si6 0.873770 0.818949 0.415870
Si Si7 0.410505 0.233260 0.440739
Si Si8 0.082605 0.886343 0.827913
O O1 0.276797 0.145415 0.532492
O O2 0.229864 0.135685 0.718831
O O3 0.344896 0.000000 0.805737
O O4 0.408042 0.186667 0.955614
O O5 0.896188 0.500000 0.480408
O O6 0.885385 0.706338 0.480699
O O7 0.000000 0.614283 0.500000
O O8 0.798168 0.610726 0.143940
O O9 0.631992 0.355482 0.001274
O O10 0.460701 0.280937 0.666765
O O11 0.500000 0.333098 0.000000
O O12 0.647505 0.500000 0.844456
O O13 0.640579 0.685097 0.745276
O O14 0.668436 0.155836 0.643176
O O15 0.751002 0.000000 0.675003
O O16 0.855551 0.146199 0.926741
O O17 0.887273 0.828188 0.265298
O O18 0.965666 0.874887 0.643191
O O19 0.500000 0.189914 0.500000
O O20 0.104200 0.000000 0.836382
#
# Coordination Sequence:
#
# PCOD9146741 Si02
#       8
#     4   4   4   4   4   4   4   4
#     4  11  23  38  58  83 118 160 197 235 292 353
#     4  10  19  33  58  91 118 144 182 231 293 352
#     4  11  22  39  59  85 117 152 198 245 289 349
#     4  10  22  41  64  89 117 149 191 245 297 349
#     4  10  22  38  55  81 118 157 196 235 286 351
#     4  11  19  35  58  86 116 152 192 243 292 342
#     4  10  22  37  58  81 114 149 194 244 292 342
#     4  10  20  33  54  84 117 151 195 241 283 343
#
# _framework density 18.544293
#
# number of rings (size 3 to 8) (size 9 to 14) (size 15 to 20)
#    0.000    1.625    3.750    2.250    1.750    4.000 
#    0.000    1.875    0.000    0.750    0.000    0.875 
#    0.000    0.375    0.000    0.000    0.000    0.000 
#
# Total GULP energy -178450.184186 kJ/mol
# GULP energy per Si atom -5576.568256 kJ/mol
# Density = 1.850209 g / cm^3
# Si number density = 18.544293 Si / 1000 Ang^3
#
#
#
# Elastic Constant Matrix: (Units=GPa)
#
#
# Indices 1 2 3 4 5 6 
#
# 1 50.4909 -4.1177 30.3479 0.0000 1.8720 0.0000
# 2 -4.1177 39.5014 7.1183 0.0000 -2.9601 0.0000
# 3 30.3479 7.1183 70.6933 0.0000 4.8764 0.0000
# 4 0.0000 0.0000 0.0000 10.0863 0.0000 -6.8852
# 5 1.8720 -2.9601 4.8764 0.0000 25.6159 0.0000
# 6 0.0000 0.0000 0.0000 -6.8852 0.0000 3.8588
#
#
#
# Elastic Compliance Matrix: (Units=1/GPa)
#
#
# Indices 1 2 3 4 5 6 
#
# 1 0.027696 0.005207 -0.012480 0.000000 0.000953 0.000000
# 2 0.005207 0.027080 -0.005220 0.000000 0.003742 0.000000
# 3 -0.012480 -0.005220 0.020274 0.000000 -0.003551 0.000000
# 4 0.000000 0.000000 0.000000 -0.454785 0.000000 -0.811469
# 5 0.000953 0.003742 -0.003551 0.000000 0.040077 0.000000
# 6 0.000000 0.000000 0.000000 -0.811469 0.000000 -1.188746
#
#
# Mechanical properties :
#
#
# Convention : Reuss Voigt Hill
#
# Bulk Modulus (GPa) = 19.97452 25.26474 22.61963
# Shear Modulus (GPa) = -3.36308 16.40133 6.51912
#
# Velocity S-wave (km/s) = -1.34814 2.97718 1.87698
# Velocity P-wave (km/s) = 2.89333 5.04695 4.11358
#
# Compressibility (1/GPa) = 0.05006378
#
# Stress axis : x y z
#
# Youngs Moduli (GPa) = 36.10647 36.92823 49.32527
#
# Poissons Ratio (x) = -0.19230 0.61556
# Poissons Ratio (y) = -0.18802 0.25750
# Poissons Ratio (z) = 0.45060 0.19278
#
# Static dielectric constant tensor:
#      x y z
#    x 1.640870 0.000000 0.003560 
#    y 0.000000 1.644040 0.000000 
#    z 0.003560 0.000000 1.650580 
# 
# From -- ./inp_files/35165.got.cif
#   From: 2010.05.17/outbox.cif.g08.bks.cpg/sg10_18_cif.got.tgz:35165.got - 2010.06.03 11:33:40.
