data_PCOD9146521
_publ_section_title
;
Structure prediction by ZEFSAII (Michael W. Deem and Ramdas Pophale) SiO2 
 PCOD9146521
Probable space group: P 2/M
;
_chemical_formula_sum "Si O2"
_cell_formula_units_Z 32
_cell_length_a 13.640854
_cell_length_b 7.375231
_cell_length_c 15.587913
_cell_angle_alpha 90.000000
_cell_angle_beta 60.592728
_cell_angle_gamma 90.000000
_cell_volume 1366.151456
_symmetry_space_group_name_H-M "P 2/M"
_symmetry_group_IT_number 10
_symmetry_cell_setting 'monoclinic'
loop_
_space_group_symop_operation_xyz
x,y,z
-x,y,-z
-x,-y,-z
x,-y,z
loop_
_atom_site_type_symbol
_atom_site_label
_atom_site_fract_x
_atom_site_fract_y
_atom_site_fract_z
Si Si1 0.498390 0.293629 0.596428
Si Si2 0.585908 0.793307 0.895627
Si Si3 0.941914 0.221136 0.343572
Si Si4 0.745100 0.779831 0.554955
Si Si5 0.568387 0.289519 0.193440
Si Si6 0.193846 0.778097 0.278746
Si Si7 0.962152 0.779381 0.145368
Si Si8 0.180103 0.218597 0.958976
O O1 0.500000 0.210326 0.500000
O O2 0.455442 0.500000 0.603714
O O3 0.626936 0.291629 0.572445
O O4 0.432939 0.215524 0.708018
O O5 0.522339 0.797181 0.831323
O O6 0.709239 0.714388 0.827693
O O7 0.604650 0.000000 0.918094
O O8 0.500000 0.706901 0.000000
O O9 0.846803 0.278957 0.450247
O O10 0.920003 0.279144 0.255781
O O11 0.067496 0.279262 0.313930
O O12 0.941975 0.000000 0.345332
O O13 0.770704 0.725177 0.640924
O O14 0.738863 0.000000 0.555693
O O15 0.536194 0.500000 0.213907
O O16 0.691382 0.278183 0.098215
O O17 0.194946 0.000000 0.275452
O O18 0.881145 0.723366 0.102944
O O19 0.962585 0.000000 0.143936
O O20 0.091138 0.724169 0.070175
O O21 0.183514 0.000000 0.959559
#
# Coordination Sequence:
#
# PCOD9146521 Si02
#       8
#     4   4   4   4   4   4   4   4
#     4  10  23  41  57  75 107 151 189 223 275 334
#     4  10  21  36  58  86 111 143 186 228 272 327
#     4   9  17  28  50  81 110 137 171 218 276 326
#     4  10  19  33  55  83 109 135 176 230 276 318
#     4  11  23  38  57  81 110 148 185 228 280 326
#     4   9  17  31  50  78 112 138 169 218 272 324
#     4   8  16  31  50  79 111 140 172 218 274 324
#     4   9  18  33  55  79 109 142 177 220 269 326
#
# _framework density 23.423463000000002
#
# number of rings (size 3 to 8) (size 9 to 14) (size 15 to 20)
#    0.000    2.500    1.250    1.500    3.500    2.500 
#    0.000    1.250    0.000    3.000    0.000    0.000 
#    0.000    0.000    0.000    0.000    0.000    0.000 
#
# Total GULP energy -178796.528256 kJ/mol
# GULP energy per Si atom -5587.391508 kJ/mol
# Density = 2.337015 g / cm^3
# Si number density = 23.423463 Si / 1000 Ang^3
#
#
#
# Elastic Constant Matrix: (Units=GPa)
#
#
# Indices 1 2 3 4 5 6 
#
# 1 31.0318 -7.7695 -15.7347 0.0000 -22.7028 0.0000
# 2 -7.7695 85.5930 2.9922 0.0000 0.2016 0.0000
# 3 -15.7347 2.9922 108.4547 0.0000 -20.7876 0.0000
# 4 0.0000 0.0000 0.0000 4.5143 0.0000 -13.8365
# 5 -22.7028 0.2016 -20.7876 0.0000 45.8480 0.0000
# 6 0.0000 0.0000 0.0000 -13.8365 0.0000 39.1981
#
#
#
# Elastic Compliance Matrix: (Units=1/GPa)
#
#
# Indices 1 2 3 4 5 6 
#
# 1 0.080654 0.006471 0.020997 0.000000 0.049430 0.000000
# 2 0.006471 0.012216 0.001320 0.000000 0.003749 0.000000
# 3 0.020997 0.001320 0.015576 0.000000 0.017453 0.000000
# 4 0.000000 0.000000 0.000000 -2.704150 0.000000 -0.954535
# 5 0.049430 0.003749 0.017453 0.000000 0.054184 0.000000
# 6 0.000000 0.000000 0.000000 -0.954535 0.000000 -0.311429
#
#
# Mechanical properties :
#
#
# Convention : Reuss Voigt Hill
#
# Bulk Modulus (GPa) = 6.02330 20.45060 13.23695
# Shear Modulus (GPa) = -1.75120 34.28485 16.26682
#
# Velocity S-wave (km/s) = -0.86559 3.82998 2.63813
# Velocity P-wave (km/s) = 1.25621 5.32054 3.86563
#
# Compressibility (1/GPa) = 0.16602203
#
# Stress axis : x y z
#
# Youngs Moduli (GPa) = 12.39859 81.86261 64.20299
#
# Poissons Ratio (x) = -0.52972 -1.34808
# Poissons Ratio (y) = -0.08023 -0.08477
# Poissons Ratio (z) = -0.26033 -0.10809
#
# Static dielectric constant tensor:
#      x y z
#    x 1.812410 0.000000 0.008280 
#    y 0.000000 1.894700 0.000000 
#    z 0.008280 0.000000 1.885170 
# 
# From -- ./inp_files/66561.got.cif
#   From: 2010.05.17/outbox.cif.g08.bks.cpg/sg10_34_cif.got.tgz:66561.got - 2010.06.03 11:33:40.
