data_PCOD9146585
_publ_section_title
;
Structure prediction by ZEFSAII (Michael W. Deem and Ramdas Pophale) SiO2 
 PCOD9146585
Probable space group: P 2/M
;
_chemical_formula_sum "Si O2"
_cell_formula_units_Z 28
_cell_length_a 16.324575
_cell_length_b 17.257999
_cell_length_c 5.008306
_cell_angle_alpha 90.000000
_cell_angle_beta 106.334613
_cell_angle_gamma 90.000000
_cell_volume 1354.033823
_symmetry_space_group_name_H-M "P 2/M"
_symmetry_group_IT_number 10
_symmetry_cell_setting 'monoclinic'
loop_
_space_group_symop_operation_xyz
x,y,z
-x,y,-z
-x,-y,-z
x,-y,z
loop_
_atom_site_type_symbol
_atom_site_label
_atom_site_fract_x
_atom_site_fract_y
_atom_site_fract_z
Si Si1 0.815336 0.317607 0.816409
Si Si2 0.368972 0.754953 0.298773
Si Si3 0.325787 0.087704 0.444085
Si Si4 0.793526 0.912672 0.175578
Si Si5 0.055091 0.797794 0.809265
Si Si6 0.589602 0.658047 0.165143
Si Si7 0.227024 0.588318 0.721476
O O1 0.733003 0.261076 0.764481
O O2 0.817837 0.351486 0.521708
O O3 0.897092 0.272585 0.998054
O O4 0.796174 0.387952 0.000004
O O5 0.386072 0.842850 0.401388
O O6 0.410823 0.695239 0.543750
O O7 0.394666 0.728929 0.027661
O O8 0.279003 0.109903 0.676761
O O9 0.361540 0.000000 0.501234
O O10 0.252280 0.084558 0.152026
O O11 0.872128 0.855035 0.234029
O O12 0.821150 0.000000 0.273655
O O13 0.000000 0.775128 0.500000
O O14 0.000000 0.835213 0.000000
O O15 0.671540 0.603003 0.218650
O O16 0.500000 0.621295 0.000000
O O17 0.205367 0.500000 0.642436
#
# Coordination Sequence:
#
# PCOD9146585 Si02
#       7
#     4   4   4   4   4   4   4
#     4  10  21  37  58  83 111 143 195 231 264 337
#     4  10  19  34  59  78 110 154 190 230 271 321
#     4  10  19  33  56  81 108 146 197 244 275 314
#     4  10  21  35  53  80 115 149 187 237 288 331
#     4  12  24  36  57  82 116 154 187 236 288 330
#     4  10  21  35  56  89 119 145 176 221 279 343
#     4  10  21  38  63  87 110 146 180 224 279 332
#
# _framework density 20.678951999999999
#
# number of rings (size 3 to 8) (size 9 to 14) (size 15 to 20)
#    0.000    1.714    1.429    3.429    4.000    0.857 
#    0.000    0.000    0.000   16.286    0.000    0.000 
#    0.000    0.000    0.000    0.000    0.000    0.000 
#
# Total GULP energy -156405.721842 kJ/mol
# GULP energy per Si atom -5585.918637 kJ/mol
# Density = 2.063189 g / cm^3
# Si number density = 20.678952 Si / 1000 Ang^3
#
#
#
# Elastic Constant Matrix: (Units=GPa)
#
#
# Indices 1 2 3 4 5 6 
#
# 1 14.8301 0.9582 4.3554 0.0000 -1.1358 0.0000
# 2 0.9582 57.5669 -12.6210 0.0000 -2.9390 0.0000
# 3 4.3554 -12.6210 80.3461 0.0000 4.3979 0.0000
# 4 0.0000 0.0000 0.0000 12.3931 0.0000 -3.8113
# 5 -1.1358 -2.9390 4.3979 0.0000 34.5820 0.0000
# 6 0.0000 0.0000 0.0000 -3.8113 0.0000 5.2281
#
#
#
# Elastic Compliance Matrix: (Units=1/GPa)
#
#
# Indices 1 2 3 4 5 6 
#
# 1 0.068986 -0.001932 -0.004187 0.000000 0.002634 0.000000
# 2 -0.001932 0.018093 0.002886 0.000000 0.001107 0.000000
# 3 -0.004187 0.002886 0.013213 0.000000 -0.001573 0.000000
# 4 0.000000 0.000000 0.000000 0.104008 0.000000 0.075823
# 5 0.002634 0.001107 -0.001573 0.000000 0.029297 0.000000
# 6 0.000000 0.000000 0.000000 0.075823 0.000000 0.246550
#
#
# Mechanical properties :
#
#
# Convention : Reuss Voigt Hill
#
# Bulk Modulus (GPa) = 10.65803 15.34757 13.00280
# Shear Modulus (GPa) = 9.65460 21.11067 15.38263
#
# Velocity S-wave (km/s) = 2.16309 3.19858 2.73037
# Velocity P-wave (km/s) = 3.37695 4.59121 4.03008
#
# Compressibility (1/GPa) = 0.09382593
#
# Stress axis : x y z
#
# Youngs Moduli (GPa) = 14.49559 55.27140 75.68549
#
# Poissons Ratio (x) = 0.10677 0.31691
# Poissons Ratio (y) = 0.02800 -0.21844
# Poissons Ratio (z) = 0.06070 -0.15952
#
# Static dielectric constant tensor:
#      x y z
#    x 1.768430 0.000000 0.008780 
#    y 0.000000 1.738650 0.000000 
#    z 0.008780 0.000000 1.710960 
# 
# From -- ./inp_files/9677.got.cif
#   From: 2010.05.17/outbox.cif.g08.bks.cpg/sg10_5_cif.got.tgz:9677.got - 2010.06.03 11:33:40.
