data_PCOD9146870
_publ_section_title
;
Structure prediction by ZEFSAII (Michael W. Deem and Ramdas Pophale) SiO2 
 PCOD9146870
Probable space group: P 2/M
;
_chemical_formula_sum "Si O2"
_cell_formula_units_Z 32
_cell_length_a 24.451889
_cell_length_b 7.504075
_cell_length_c 18.211524
_cell_angle_alpha 90.000000
_cell_angle_beta 24.124180
_cell_angle_gamma 90.000000
_cell_volume 1365.768679
_symmetry_space_group_name_H-M "P 2/M"
_symmetry_group_IT_number 10
_symmetry_cell_setting 'monoclinic'
loop_
_space_group_symop_operation_xyz
x,y,z
-x,y,-z
-x,-y,-z
x,-y,z
loop_
_atom_site_type_symbol
_atom_site_label
_atom_site_fract_x
_atom_site_fract_y
_atom_site_fract_z
Si Si1 0.143863 0.698637 0.136005
Si Si2 0.104242 0.719379 0.031721
Si Si3 0.614426 0.785290 0.645916
Si Si4 0.850382 0.705163 0.262421
Si Si5 0.670248 0.284421 0.348256
Si Si6 0.435674 0.781914 0.001256
Si Si7 0.854281 0.794049 0.698937
Si Si8 0.573031 0.207963 0.260885
O O1 0.092043 0.500000 0.213985
O O2 0.155187 0.789456 0.200848
O O3 0.068930 0.780692 0.157454
O O4 0.290982 0.689438 0.919649
O O5 0.100857 0.500000 0.037610
O O6 0.248377 0.775828 0.823121
O O7 0.992995 0.780447 0.110003
O O8 0.758876 0.712529 0.447432
O O9 0.538819 0.725841 0.811355
O O10 0.520829 0.736286 0.692061
O O11 0.624962 0.000000 0.634991
O O12 0.872764 0.500000 0.214010
O O13 0.762802 0.781025 0.303265
O O14 0.668889 0.500000 0.348224
O O15 0.520160 0.232723 0.553998
O O16 0.431233 0.000000 0.005287
O O17 0.500000 0.728730 0.000000
O O18 0.284060 0.720864 0.166770
O O19 0.000000 0.715038 0.500000
O O20 0.858629 0.000000 0.668899
O O21 0.605187 0.000000 0.213319
#
# Coordination Sequence:
#
# PCOD9146870 Si02
#       8
#     4   4   4   4   4   4   4   4
#     4  11  22  36  56  78 106 146 185 220 267 323
#     4   9  19  34  51  76 110 145 181 224 269 322
#     4   9  17  31  52  76 103 134 169 214 267 318
#     4   9  17  31  53  77 102 137 179 221 266 317
#     4   9  17  32  55  79 103 139 185 225 270 324
#     4   9  17  32  55  81 107 137 174 218 271 328
#     4  10  21  39  61  84 110 144 183 225 274 332
#     4  10  19  34  54  77 107 140 179 225 273 316
#
# _framework density 23.430029999999999
#
# number of rings (size 3 to 8) (size 9 to 14) (size 15 to 20)
#    0.000    2.500    1.250    1.125    0.000    3.750 
#    0.000    6.875    0.000    4.500    0.000    0.000 
#    0.000    0.000    0.000    0.000    0.000    0.000 
#
# Total GULP energy -178577.964710 kJ/mol
# GULP energy per Si atom -5580.561397 kJ/mol
# Density = 2.337670 g / cm^3
# Si number density = 23.430030 Si / 1000 Ang^3
#
#
#
# Elastic Constant Matrix: (Units=GPa)
#
#
# Indices 1 2 3 4 5 6 
#
# 1 116.2786 -7.3426 49.6681 0.0000 20.1930 0.0000
# 2 -7.3426 57.4990 -2.3614 0.0000 -1.3820 0.0000
# 3 49.6681 -2.3614 131.6259 0.0000 11.0174 0.0000
# 4 0.0000 0.0000 0.0000 9.0418 0.0000 6.9391
# 5 20.1930 -1.3820 11.0174 0.0000 36.2120 0.0000
# 6 0.0000 0.0000 0.0000 6.9391 0.0000 7.2991
#
#
#
# Elastic Compliance Matrix: (Units=1/GPa)
#
#
# Indices 1 2 3 4 5 6 
#
# 1 0.011156 0.001149 -0.003768 0.000000 -0.005031 0.000000
# 2 0.001149 0.017535 -0.000125 0.000000 0.000066 0.000000
# 3 -0.003768 -0.000125 0.009072 0.000000 -0.000664 0.000000
# 4 0.000000 0.000000 0.000000 0.409023 0.000000 -0.388853
# 5 -0.005031 0.000066 -0.000664 0.000000 0.030625 0.000000
# 6 0.000000 0.000000 0.000000 -0.388853 0.000000 0.506682
#
#
# Mechanical properties :
#
#
# Convention : Reuss Voigt Hill
#
# Bulk Modulus (GPa) = 30.98277 42.81463 36.89870
# Shear Modulus (GPa) = 4.99831 28.20654 16.60242
#
# Velocity S-wave (km/s) = 1.46216 3.47344 2.66483
# Velocity P-wave (km/s) = 4.01283 5.86510 5.02505
#
# Compressibility (1/GPa) = 0.03227600
#
# Stress axis : x y z
#
# Youngs Moduli (GPa) = 89.64110 57.02939 110.22464
#
# Poissons Ratio (x) = -0.06552 0.41530
# Poissons Ratio (y) = -0.10299 0.01372
# Poissons Ratio (z) = 0.33775 0.00710
#
# Static dielectric constant tensor:
#      x y z
#    x 1.917210 0.000000 -0.033950 
#    y 0.000000 1.892890 0.000000 
#    z -0.033950 0.000000 1.886000 
# 
# From -- ./inp_files/86838.got.cif
#   From: 2010.05.17/outbox.cif.g08.bks.cpg/sg10_44_cif.got.tgz:86838.got - 2010.06.03 11:33:40.
