data_PCOD9146362
_publ_section_title
;
Structure prediction by ZEFSAII (Michael W. Deem and Ramdas Pophale) SiO2 
 PCOD9146362
Probable space group: P 2/M
;
_chemical_formula_sum "Si O2"
_cell_formula_units_Z 32
_cell_length_a 10.480806
_cell_length_b 21.071682
_cell_length_c 9.332052
_cell_angle_alpha 90.000000
_cell_angle_beta 114.722627
_cell_angle_gamma 90.000000
_cell_volume 1872.065113
_symmetry_space_group_name_H-M "P 2/M"
_symmetry_group_IT_number 10
_symmetry_cell_setting 'monoclinic'
loop_
_space_group_symop_operation_xyz
x,y,z
-x,y,-z
-x,-y,-z
x,-y,z
loop_
_atom_site_type_symbol
_atom_site_label
_atom_site_fract_x
_atom_site_fract_y
_atom_site_fract_z
Si Si1 0.151335 0.571483 0.997450
Si Si2 0.320294 0.674077 0.257019
Si Si3 0.165761 0.070423 0.045504
Si Si4 0.313210 0.183615 0.276364
Si Si5 0.856856 0.574627 0.345289
Si Si6 0.647896 0.182385 0.377528
Si Si7 0.652465 0.927103 0.148898
Si Si8 0.655174 0.325844 0.391847
O O1 0.211898 0.500000 0.040217
O O2 0.129610 0.584111 0.818779
O O3 0.243012 0.623037 0.123537
O O4 0.000000 0.571438 0.000000
O O5 0.268813 0.746074 0.205863
O O6 0.304217 0.666328 0.421265
O O7 0.486766 0.669226 0.305610
O O8 0.222424 0.075433 0.909260
O O9 0.212703 0.000000 0.116755
O O10 0.239566 0.127238 0.160968
O O11 0.000000 0.074168 0.000000
O O12 0.479814 0.181845 0.324042
O O13 0.289013 0.174343 0.434269
O O14 0.825262 0.500000 0.355420
O O15 0.735126 0.620402 0.343281
O O16 0.000000 0.588753 0.500000
O O17 0.677695 0.126481 0.280079
O O18 0.689340 0.254322 0.354090
O O19 0.646381 0.000000 0.201956
O O20 0.500000 0.915673 0.000000
#
# Coordination Sequence:
#
# PCOD9146362 Si02
#       8
#     4   4   4   4   4   4   4   4
#     4  10  21  36  54  77 103 135 179 224 265 318
#     4   9  19  35  55  78 108 140 175 222 267 321
#     4  10  21  36  52  75 110 145 177 220 274 327
#     4   9  18  34  55  78 105 138 177 218 267 319
#     4  10  21  37  56  78 107 142 180 224 271 322
#     4   9  18  34  55  80 107 134 176 229 263 311
#     4  10  19  33  54  81 108 138 182 226 263 314
#     4   9  19  36  54  78 110 142 174 217 276 322
#
# _framework density 17.093423000000001
#
# number of rings (size 3 to 8) (size 9 to 14) (size 15 to 20)
#    0.000    2.500    1.250    2.250    0.000    4.500 
#    0.000    6.875    0.000    2.250    0.000    0.000 
#    0.000    0.000    0.000    0.000    0.000    0.000 
#
# Total GULP energy -178279.274476 kJ/mol
# GULP energy per Si atom -5571.227327 kJ/mol
# Density = 1.705452 g / cm^3
# Si number density = 17.093423 Si / 1000 Ang^3
#
#
#
# Elastic Constant Matrix: (Units=GPa)
#
#
# Indices 1 2 3 4 5 6 
#
# 1 69.8607 55.5948 29.5181 0.0000 -20.2504 0.0000
# 2 55.5948 157.4559 99.7425 0.0000 -11.4004 0.0000
# 3 29.5181 99.7425 89.1241 0.0000 -4.1302 0.0000
# 4 0.0000 0.0000 0.0000 34.2068 0.0000 -8.1190
# 5 -20.2504 -11.4004 -4.1302 0.0000 18.1030 0.0000
# 6 0.0000 0.0000 0.0000 -8.1190 0.0000 22.4553
#
#
#
# Elastic Compliance Matrix: (Units=1/GPa)
#
#
# Indices 1 2 3 4 5 6 
#
# 1 0.028830 -0.010271 0.003175 0.000000 0.026505 0.000000
# 2 -0.010271 0.026773 -0.026593 0.000000 -0.000697 0.000000
# 3 0.003175 -0.026593 0.039739 0.000000 -0.004129 0.000000
# 4 0.000000 0.000000 0.000000 0.031978 0.000000 0.011562
# 5 0.026505 -0.000697 -0.004129 0.000000 0.083508 0.000000
# 6 0.000000 0.000000 0.000000 0.011562 0.000000 0.048713
#
#
# Mechanical properties :
#
#
# Convention : Reuss Voigt Hill
#
# Bulk Modulus (GPa) = 35.76218 76.23906 56.00062
# Shear Modulus (GPa) = 14.87032 23.72538 19.29785
#
# Velocity S-wave (km/s) = 2.95268 3.72961 3.36365
# Velocity P-wave (km/s) = 5.70889 7.95266 6.92229
#
# Compressibility (1/GPa) = 0.02796250
#
# Stress axis : x y z
#
# Youngs Moduli (GPa) = 34.68651 37.35129 25.16439
#
# Poissons Ratio (x) = 0.38365 -0.07990
# Poissons Ratio (y) = 0.35628 0.66920
# Poissons Ratio (z) = -0.11013 0.99328
#
# Static dielectric constant tensor:
#      x y z
#    x 1.570120 0.000000 -0.008250 
#    y 0.000000 1.585050 0.000000 
#    z -0.008250 0.000000 1.564530 
# 
# From -- ./inp_files/25983.got.cif
#   From: 2010.05.17/outbox.cif.g08.bks.cpg/sg10_13_cif.got.tgz:25983.got - 2010.06.03 11:33:40.
