data_PCOD9146746
_publ_section_title
;
Structure prediction by ZEFSAII (Michael W. Deem and Ramdas Pophale) SiO2 
 PCOD9146746
Probable space group: P 2/M
;
_chemical_formula_sum "Si O2"
_cell_formula_units_Z 32
_cell_length_a 9.579357
_cell_length_b 9.787184
_cell_length_c 15.799656
_cell_angle_alpha 90.000000
_cell_angle_beta 79.461015
_cell_angle_gamma 90.000000
_cell_volume 1456.307191
_symmetry_space_group_name_H-M "P 2/M"
_symmetry_group_IT_number 10
_symmetry_cell_setting 'monoclinic'
loop_
_space_group_symop_operation_xyz
x,y,z
-x,y,-z
-x,-y,-z
x,-y,z
loop_
_atom_site_type_symbol
_atom_site_label
_atom_site_fract_x
_atom_site_fract_y
_atom_site_fract_z
Si Si1 0.054317 0.163020 0.796030
Si Si2 0.809476 0.846952 0.709033
Si Si3 0.241662 0.840315 0.926246
Si Si4 0.478250 0.245684 0.205164
Si Si5 0.658754 0.648321 0.943017
Si Si6 0.800958 0.342030 0.552856
Si Si7 0.219182 0.836538 0.603609
Si Si8 0.465517 0.350360 0.623162
O O1 0.122318 0.217542 0.874998
O O2 0.143039 0.196603 0.701345
O O3 0.893493 0.190130 0.785751
O O4 0.068310 0.000000 0.804788
O O5 0.640372 0.851250 0.740438
O O6 0.842953 0.736752 0.633744
O O7 0.858742 0.000000 0.678931
O O8 0.391018 0.823750 0.858214
O O9 0.217917 0.000000 0.946983
O O10 0.257476 0.759998 0.012110
O O11 0.381149 0.326666 0.149473
O O12 0.535778 0.337039 0.274970
O O13 0.725438 0.500000 0.947464
O O14 0.500000 0.647150 0.000000
O O15 0.846644 0.500000 0.544729
O O16 0.842439 0.250313 0.467701
O O17 0.628419 0.344592 0.576516
O O18 0.377022 0.776447 0.598317
O O19 0.216031 0.000000 0.590027
O O20 0.405986 0.500000 0.605130
#
# Coordination Sequence:
#
# PCOD9146746 Si02
#       8
#     4   4   4   4   4   4   4   4
#     4   9  20  38  56  80 114 147 180 229 285 327
#     4  10  21  38  60  82 109 147 188 226 274 334
#     4  10  19  35  57  83 113 141 180 232 275 319
#     4  10  19  33  59  86 110 141 186 229 270 325
#     4   9  19  34  54  83 115 146 180 221 274 331
#     4  10  22  38  54  79 114 146 181 230 282 328
#     4  11  21  35  56  80 109 146 188 231 276 327
#     4  10  20  34  54  80 112 147 180 224 282 333
#
# _framework density 21.973388
#
# number of rings (size 3 to 8) (size 9 to 14) (size 15 to 20)
#    0.000    2.125    1.250    1.875    0.000    8.250 
#    0.000    5.000    0.000    3.000    0.000    0.000 
#    0.000    0.000    0.000    0.000    0.000    0.000 
#
# Total GULP energy -178574.646245 kJ/mol
# GULP energy per Si atom -5580.457695 kJ/mol
# Density = 2.192338 g / cm^3
# Si number density = 21.973388 Si / 1000 Ang^3
#
#
#
# Elastic Constant Matrix: (Units=GPa)
#
#
# Indices 1 2 3 4 5 6 
#
# 1 62.2030 12.4902 0.4262 0.0000 12.2447 0.0000
# 2 12.4902 126.3974 48.9852 0.0000 21.8294 0.0000
# 3 0.4262 48.9852 111.5892 0.0000 35.2659 0.0000
# 4 0.0000 0.0000 0.0000 15.0891 0.0000 12.4492
# 5 12.2447 21.8294 35.2659 0.0000 37.4208 0.0000
# 6 0.0000 0.0000 0.0000 12.4492 0.0000 -0.0533
#
#
#
# Elastic Compliance Matrix: (Units=1/GPa)
#
#
# Indices 1 2 3 4 5 6 
#
# 1 0.017931 -0.001627 0.003133 0.000000 -0.007871 0.000000
# 2 -0.001627 0.009822 -0.003793 0.000000 -0.001623 0.000000
# 3 0.003133 -0.003793 0.014582 0.000000 -0.012555 0.000000
# 4 0.000000 0.000000 0.000000 0.000342 0.000000 0.079912
# 5 -0.007871 -0.001623 -0.012555 0.000000 0.042078 0.000000
# 6 0.000000 0.000000 0.000000 0.079912 0.000000 -0.096858
#
#
# Mechanical properties :
#
#
# Convention : Reuss Voigt Hill
#
# Bulk Modulus (GPa) = 26.48072 47.11032 36.79552
# Shear Modulus (GPa) = 988.64863 26.37719 507.51291
#
# Velocity S-wave (km/s) = 21.23456 3.46846 15.21409
# Velocity P-wave (km/s) = 24.76462 6.12589 18.03903
#
# Compressibility (1/GPa) = 0.03776332
#
# Stress axis : x y z
#
# Youngs Moduli (GPa) = 55.76938 101.80708 68.57655
#
# Poissons Ratio (x) = 0.16562 -0.21486
# Poissons Ratio (y) = 0.09072 0.26008
# Poissons Ratio (z) = -0.17473 0.38611
#
# Static dielectric constant tensor:
#      x y z
#    x 1.836740 0.000000 -0.016760 
#    y 0.000000 1.770190 0.000000 
#    z -0.016760 0.000000 1.837330 
# 
# From -- ./inp_files/75978.got.cif
#   From: 2010.05.17/outbox.cif.g08.bks.cpg/sg10_38_cif.got.tgz:75978.got - 2010.06.03 11:33:40.
