data_PCOD9146191
_publ_section_title
;
Structure prediction by ZEFSAII (Michael W. Deem and Ramdas Pophale) SiO2 
 PCOD9146191
Probable space group: P 2/M
;
_chemical_formula_sum "Si O2"
_cell_formula_units_Z 28
_cell_length_a 9.335566
_cell_length_b 7.621358
_cell_length_c 29.954347
_cell_angle_alpha 90.000000
_cell_angle_beta 141.311447
_cell_angle_gamma 90.000000
_cell_volume 1332.211405
_symmetry_space_group_name_H-M "P 2/M"
_symmetry_group_IT_number 10
_symmetry_cell_setting 'monoclinic'
loop_
_space_group_symop_operation_xyz
x,y,z
-x,y,-z
-x,-y,-z
x,-y,z
loop_
_atom_site_type_symbol
_atom_site_label
_atom_site_fract_x
_atom_site_fract_y
_atom_site_fract_z
Si Si1 0.261145 0.214701 0.573336
Si Si2 0.061655 0.784716 0.151775
Si Si3 0.449721 0.200350 0.439560
Si Si4 0.578932 0.211823 0.290312
Si Si5 0.943365 0.299050 0.302864
Si Si6 0.664041 0.796293 0.995954
Si Si7 0.748378 0.787413 0.159022
O O1 0.421703 0.277213 0.571986
O O2 0.347552 0.274587 0.642720
O O3 0.000000 0.264705 0.500000
O O4 0.269714 0.000000 0.576784
O O5 0.323673 0.727026 0.215588
O O6 0.903639 0.722054 0.072093
O O7 0.934155 0.733344 0.166759
O O8 0.057258 0.000000 0.149611
O O9 0.500000 0.283257 0.500000
O O10 0.179370 0.195361 0.365274
O O11 0.539840 0.000000 0.464517
O O12 0.765705 0.260193 0.298984
O O13 0.569414 0.000000 0.289570
O O14 0.013783 0.500000 0.322565
O O15 0.824245 0.265543 0.226442
O O16 0.707582 0.000000 0.994843
O O17 0.500000 0.795551 0.000000
O O18 0.501890 0.721305 0.917855
O O19 0.740493 0.000000 0.155637
#
# Coordination Sequence:
#
# PCOD9146191 Si02
#       7
#     4   4   4   4   4   4   4
#     4   9  17  31  55  86 110 128 160 207 253 300
#     4   8  14  27  52  83 105 125 166 224 274 313
#     4  10  20  37  63  88 107 131 166 208 256 310
#     4  10  19  33  53  74 101 138 178 217 256 302
#     4  12  25  37  49  71 108 146 179 214 252 299
#     4   7  11  22  46  80 107 124 155 213 274 318
#     4   9  16  31  56  80 102 131 170 215 265 319
#
# _framework density 21.017685
#
# number of rings (size 3 to 8) (size 9 to 14) (size 15 to 20)
#    0.000    2.714    0.000    4.714    0.000    4.857 
#    0.000    3.571    0.000   10.714    0.000    0.000 
#    0.000    0.000    0.000    0.000    0.000    0.000 
#
# Total GULP energy -156227.996535 kJ/mol
# GULP energy per Si atom -5579.571305 kJ/mol
# Density = 2.096985 g / cm^3
# Si number density = 21.017685 Si / 1000 Ang^3
#
#
#
# Elastic Constant Matrix: (Units=GPa)
#
#
# Indices 1 2 3 4 5 6 
#
# 1 140.4509 -2.1417 87.1123 0.0000 1.0571 0.0000
# 2 -2.1417 46.7585 -3.3792 0.0000 0.8827 0.0000
# 3 87.1123 -3.3792 177.8829 0.0000 0.2949 0.0000
# 4 0.0000 0.0000 0.0000 16.2127 0.0000 -61.9671
# 5 1.0571 0.8827 0.2949 0.0000 32.5661 0.0000
# 6 0.0000 0.0000 0.0000 -61.9671 0.0000 12.3176
#
#
#
# Elastic Compliance Matrix: (Units=1/GPa)
#
#
# Indices 1 2 3 4 5 6 
#
# 1 0.010229 0.000112 -0.005007 0.000000 -0.000290 0.000000
# 2 0.000112 0.021428 0.000353 0.000000 -0.000588 0.000000
# 3 -0.005007 0.000353 0.008080 0.000000 0.000080 0.000000
# 4 0.000000 0.000000 0.000000 -0.003384 0.000000 -0.017023
# 5 -0.000290 -0.000588 0.000080 0.000000 0.030731 0.000000
# 6 0.000000 0.000000 0.000000 -0.017023 0.000000 -0.004454
#
#
# Mechanical properties :
#
#
# Convention : Reuss Voigt Hill
#
# Bulk Modulus (GPa) = 32.62161 58.69724 45.65942
# Shear Modulus (GPa) = 61.02570 31.11933 46.07252
#
# Velocity S-wave (km/s) = 5.39430 3.85206 4.68705
# Velocity P-wave (km/s) = 7.37242 6.91178 7.14582
#
# Compressibility (1/GPa) = 0.03065453
#
# Stress axis : x y z
#
# Youngs Moduli (GPa) = 97.75933 46.66743 123.75978
#
# Poissons Ratio (x) = -0.00523 0.61964
# Poissons Ratio (y) = -0.01097 -0.04370
# Poissons Ratio (z) = 0.48946 -0.01648
#
# Static dielectric constant tensor:
#      x y z
#    x 1.714670 0.000000 0.000380 
#    y 0.000000 1.784210 0.000000 
#    z 0.000380 0.000000 1.762770 
# 
# From -- ./inp_files/86486.got.cif
#   From: 2010.05.17/outbox.cif.g08.bks.cpg/sg10_44_cif.got.tgz:86486.got - 2010.06.03 11:33:40.
