data_PCOD9146704
_publ_section_title
;
Structure prediction by ZEFSAII (Michael W. Deem and Ramdas Pophale) SiO2 
 PCOD9146704
Probable space group: P 2/M
;
_chemical_formula_sum "Si O2"
_cell_formula_units_Z 29
_cell_length_a 18.050353
_cell_length_b 19.593614
_cell_length_c 12.134130
_cell_angle_alpha 90.000000
_cell_angle_beta 160.241164
_cell_angle_gamma 90.000000
_cell_volume 1450.791716
_symmetry_space_group_name_H-M "P 2/M"
_symmetry_group_IT_number 10
_symmetry_cell_setting 'monoclinic'
loop_
_space_group_symop_operation_xyz
x,y,z
-x,y,-z
-x,-y,-z
x,-y,z
loop_
_atom_site_type_symbol
_atom_site_label
_atom_site_fract_x
_atom_site_fract_y
_atom_site_fract_z
Si Si1 0.409525 0.673892 0.622186
Si Si2 0.031859 0.178511 0.363469
Si Si3 0.738141 0.419929 0.776210
Si Si4 0.668064 0.922318 0.339072
Si Si5 0.631104 0.181195 0.960584
Si Si6 0.500000 0.500000 0.000000
Si Si7 0.079587 0.324191 0.361733
Si Si8 0.218110 0.601331 0.754598
O O1 0.266943 0.635373 0.330265
O O2 0.502863 0.750363 0.742721
O O3 0.277078 0.672012 0.551354
O O4 0.620514 0.625295 0.924814
O O5 0.122040 0.119038 0.411423
O O6 0.989433 0.247423 0.233999
O O7 0.227390 0.190869 0.727797
O O8 0.813014 0.162116 0.124835
O O9 0.500000 0.419159 0.500000
O O10 0.785670 0.500000 0.813306
O O11 0.919542 0.387117 0.109804
O O12 0.543962 0.877452 0.257042
O O13 0.714890 0.000000 0.437859
O O14 0.500000 0.925246 0.000000
O O15 0.356689 0.557184 0.864807
O O16 0.147205 0.334516 0.582537
O O17 0.000000 0.571022 0.500000
#
# Coordination Sequence:
#
# PCOD9146704 Si02
#       8
#     4   4   4   4   4   1   4   4
#     4  12  23  41  62  88 118 159 207 257 308 363
#     4  10  19  33  57  86 118 158 204 250 293 348
#     4  11  27  45  61  85 121 160 203 256 320 378
#     4   9  18  31  51  84 127 163 192 237 299 360
#     4  10  19  33  57  86 118 158 204 250 293 348
#     4  12  26  40  56  88 112 148 192 254 312 370
#     4  12  23  41  62  88 118 159 207 257 308 363
#     4  12  25  41  63  88 117 151 202 257 308 365
#
# _framework density 19.989084999999999
#
# number of rings (size 3 to 8) (size 9 to 14) (size 15 to 20)
#    0.000    1.103    4.138    3.103    1.931    1.655 
#    0.000    2.759    0.000    0.000    0.000    1.931 
#    0.000    3.310    0.000    0.000    0.000    0.000 
#
# Total GULP energy -161532.205774 kJ/mol
# GULP energy per Si atom -5570.076061 kJ/mol
# Density = 1.994359 g / cm^3
# Si number density = 19.989085 Si / 1000 Ang^3
#
#
#
# Elastic Constant Matrix: (Units=GPa)
#
#
# Indices 1 2 3 4 5 6 
#
# 1 99.7483 61.7302 22.8860 0.0000 33.6362 0.0000
# 2 61.7302 164.7237 38.6172 0.0000 39.3429 0.0000
# 3 22.8860 38.6172 36.5506 0.0000 13.5524 0.0000
# 4 0.0000 0.0000 0.0000 24.6001 0.0000 4.4065
# 5 33.6362 39.3429 13.5524 0.0000 34.5233 0.0000
# 6 0.0000 0.0000 0.0000 4.4065 0.0000 27.6610
#
#
#
# Elastic Compliance Matrix: (Units=1/GPa)
#
#
# Indices 1 2 3 4 5 6 
#
# 1 0.016283 -0.002571 -0.003140 0.000000 -0.011702 0.000000
# 2 -0.002571 0.010144 -0.006729 0.000000 -0.006413 0.000000
# 3 -0.003140 -0.006729 0.037987 0.000000 -0.004183 0.000000
# 4 0.000000 0.000000 0.000000 0.041844 0.000000 -0.006666
# 5 -0.011702 -0.006413 -0.004183 0.000000 0.049318 0.000000
# 6 0.000000 0.000000 0.000000 -0.006666 0.000000 0.037214
#
#
# Mechanical properties :
#
#
# Convention : Reuss Voigt Hill
#
# Bulk Modulus (GPa) = 25.29613 60.83214 43.06414
# Shear Modulus (GPa) = 21.65936 29.20951 25.43444
#
# Velocity S-wave (km/s) = 3.29532 3.82681 3.57096
# Velocity P-wave (km/s) = 5.21165 7.07281 6.21232
#
# Compressibility (1/GPa) = 0.03953173
#
# Stress axis : x y z
#
# Youngs Moduli (GPa) = 61.41489 98.58483 26.32503
#
# Poissons Ratio (x) = 0.25345 0.08267
# Poissons Ratio (y) = 0.15789 0.17715
# Poissons Ratio (z) = 0.19286 0.66342
#
# Static dielectric constant tensor:
#      x y z
#    x 1.714300 0.000000 -0.014910 
#    y 0.000000 1.694070 0.000000 
#    z -0.014910 0.000000 1.708720 
# 
# From -- ./inp_files/54251.got.cif
#   From: 2010.05.17/outbox.cif.g08.bks.cpg/sg10_28_cif.got.tgz:54251.got - 2010.06.03 11:33:40.
