data_PCOD9146610
_publ_section_title
;
Structure prediction by ZEFSAII (Michael W. Deem and Ramdas Pophale) SiO2 
 PCOD9146610
Probable space group: P 2/M
;
_chemical_formula_sum "Si O2"
_cell_formula_units_Z 28
_cell_length_a 14.741890
_cell_length_b 18.388092
_cell_length_c 9.569563
_cell_angle_alpha 90.000000
_cell_angle_beta 27.274199
_cell_angle_gamma 90.000000
_cell_volume 1188.731580
_symmetry_space_group_name_H-M "P 2/M"
_symmetry_group_IT_number 10
_symmetry_cell_setting 'monoclinic'
loop_
_space_group_symop_operation_xyz
x,y,z
-x,y,-z
-x,-y,-z
x,-y,z
loop_
_atom_site_type_symbol
_atom_site_label
_atom_site_fract_x
_atom_site_fract_y
_atom_site_fract_z
Si Si1 0.808986 0.295168 0.362163
Si Si2 0.068850 0.661141 0.256354
Si Si3 0.239963 0.136770 0.646433
Si Si4 0.218971 0.920479 0.387236
Si Si5 0.261454 0.080340 0.917090
Si Si6 0.293308 0.417671 0.702379
Si Si7 0.238397 0.797601 0.151307
O O1 0.700795 0.219131 0.478607
O O2 0.703942 0.365257 0.437298
O O3 0.886267 0.300860 0.417395
O O4 0.000000 0.291649 0.000000
O O5 0.239777 0.717585 0.075913
O O6 0.000000 0.628304 0.500000
O O7 0.146708 0.609347 0.026714
O O8 0.284083 0.085401 0.456998
O O9 0.304992 0.099925 0.699074
O O10 0.000000 0.140641 0.000000
O O11 0.293226 0.846783 0.211387
O O12 0.978043 0.919350 0.725165
O O13 0.271997 0.000000 0.254394
O O14 0.326119 0.148948 0.916393
O O15 0.329315 0.000000 0.859123
O O16 0.500000 0.416452 0.500000
O O17 0.244832 0.500000 0.726240
O O18 0.000000 0.798501 0.500000
#
# Coordination Sequence:
#
# PCOD9146610 Si02
#       7
#     4   4   4   4   4   4   4
#     4   9  17  31  53  76 103 142 180 214 259 318
#     4  10  19  33  56  83 109 140 178 218 257 307
#     4   9  14  22  35  57  89 127 171 212 248 293
#     4   9  15  21  32  55  94 139 170 200 254 310
#     4   9  14  18  27  47  81 125 166 203 247 296
#     4  10  22  40  59  80 108 138 169 213 270 327
#     4   9  15  24  37  59  94 132 168 205 249 299
#
# _framework density 23.55452
#
# number of rings (size 3 to 8) (size 9 to 14) (size 15 to 20)
#    0.000    2.714    0.000    6.000    0.000    6.286 
#    0.000    0.714    0.000    1.714    0.000    0.000 
#    0.000   21.714    0.000    0.571    0.000    0.000 
#
# Total GULP energy -155913.535231 kJ/mol
# GULP energy per Si atom -5568.340544 kJ/mol
# Density = 2.350091 g / cm^3
# Si number density = 23.554520 Si / 1000 Ang^3
#
#
#
# Elastic Constant Matrix: (Units=GPa)
#
#
# Indices 1 2 3 4 5 6 
#
# 1 114.0037 44.8407 28.3543 0.0000 28.4456 0.0000
# 2 44.8407 148.3716 18.4915 0.0000 6.7507 0.0000
# 3 28.3543 18.4915 41.5689 0.0000 8.7051 0.0000
# 4 0.0000 0.0000 0.0000 31.0822 0.0000 9.9563
# 5 28.4456 6.7507 8.7051 0.0000 48.5317 0.0000
# 6 0.0000 0.0000 0.0000 9.9563 0.0000 32.9206
#
#
#
# Elastic Compliance Matrix: (Units=1/GPa)
#
#
# Indices 1 2 3 4 5 6 
#
# 1 0.012983 -0.002861 -0.006310 0.000000 -0.006080 0.000000
# 2 -0.002861 0.007775 -0.001696 0.000000 0.000899 0.000000
# 3 -0.006310 -0.001696 0.029395 0.000000 -0.001338 0.000000
# 4 0.000000 0.000000 0.000000 0.035624 0.000000 -0.010774
# 5 -0.006080 0.000899 -0.001338 0.000000 0.024284 0.000000
# 6 0.000000 0.000000 0.000000 -0.010774 0.000000 0.033635
#
#
# Mechanical properties :
#
#
# Convention : Reuss Voigt Hill
#
# Bulk Modulus (GPa) = 35.18612 54.14635 44.66623
# Shear Modulus (GPa) = 28.58749 36.65742 32.62245
#
# Velocity S-wave (km/s) = 3.48756 3.94925 3.72556
# Velocity P-wave (km/s) = 5.58462 6.62065 6.12458
#
# Compressibility (1/GPa) = 0.02842030
#
# Stress axis : x y z
#
# Youngs Moduli (GPa) = 77.02182 128.62064 34.01929
#
# Poissons Ratio (x) = 0.36795 0.21467
# Poissons Ratio (y) = 0.22034 0.05768
# Poissons Ratio (z) = 0.48602 0.21809
#
# Static dielectric constant tensor:
#      x y z
#    x 2.005950 0.000000 -0.115990 
#    y 0.000000 1.945200 0.000000 
#    z -0.115990 0.000000 1.958870 
# 
# From -- ./inp_files/30101.got.cif
#   From: 2010.05.17/outbox.cif.g08.bks.cpg/sg10_16_cif.got.tgz:30101.got - 2010.06.03 11:33:40.
