data_PCOD9146491
_publ_section_title
;
Structure prediction by ZEFSAII (Michael W. Deem and Ramdas Pophale) SiO2 
 PCOD9146491
Probable space group: P 2/M
;
_chemical_formula_sum "Si O2"
_cell_formula_units_Z 16
_cell_length_a 15.231414
_cell_length_b 5.601673
_cell_length_c 7.492080
_cell_angle_alpha 90.000000
_cell_angle_beta 104.257768
_cell_angle_gamma 90.000000
_cell_volume 619.544748
_symmetry_space_group_name_H-M "P 2/M"
_symmetry_group_IT_number 10
_symmetry_cell_setting 'monoclinic'
loop_
_space_group_symop_operation_xyz
x,y,z
-x,y,-z
-x,-y,-z
x,-y,z
loop_
_atom_site_type_symbol
_atom_site_label
_atom_site_fract_x
_atom_site_fract_y
_atom_site_fract_z
Si Si1 0.308631 0.500000 0.585874
Si Si2 0.305222 0.000000 0.725623
Si Si3 0.039832 0.000000 0.818495
Si Si4 0.041829 0.500000 0.718586
Si Si5 0.578209 0.500000 0.687746
Si Si6 0.416673 0.000000 0.098424
Si Si7 0.161773 0.000000 0.339734
Si Si8 0.839550 0.500000 0.718489
O O1 0.345797 0.258833 0.690102
O O2 0.332879 0.500000 0.390113
O O3 0.198902 0.500000 0.508963
O O4 0.219061 0.000000 0.550477
O O5 0.321252 0.000000 0.943669
O O6 0.088044 0.751265 0.792432
O O7 0.943904 0.000000 0.662060
O O8 0.000000 0.000000 0.000000
O O9 0.948359 0.500000 0.786227
O O10 0.000000 0.500000 0.500000
O O11 0.500000 0.500000 0.500000
O O12 0.575844 0.249570 0.791199
O O13 0.500000 0.000000 0.000000
O O14 0.183635 0.233481 0.236095
#
# Coordination Sequence:
#
# PCOD9146491 Si02
#       8
#     2   2   2   2   2   2   2   2
#     4  10  19  36  60  81 109 151 189 227 280 336
#     4  10  19  36  60  81 109 151 189 227 280 336
#     4  10  19  33  55  81 110 145 187 232 280 336
#     4  10  19  33  55  81 110 145 187 232 280 336
#     4  12  24  39  59  87 117 148 189 235 281 335
#     4  12  24  39  59  87 117 148 189 235 281 335
#     4   8  16  30  53  75 101 142 185 218 269 333
#     4   8  16  30  53  75 101 142 185 218 269 333
#
# _framework density 25.825413999999999
#
# number of rings (size 3 to 8) (size 9 to 14) (size 15 to 20)
#    0.000    2.000    0.000    4.500    0.000    0.000 
#    0.000    0.000    0.000   81.000    0.000    0.000 
#    0.000    0.000    0.000    0.000    0.000    0.000 
#
# Total GULP energy -89191.510542 kJ/mol
# GULP energy per Si atom -5574.469409 kJ/mol
# Density = 2.576663 g / cm^3
# Si number density = 25.825414 Si / 1000 Ang^3
#
#
#
# Elastic Constant Matrix: (Units=GPa)
#
#
# Indices 1 2 3 4 5 6 
#
# 1 48.8912 8.7980 22.3207 0.0000 15.8449 0.0000
# 2 8.7980 368.5220 85.0643 0.0000 -12.6601 0.0000
# 3 22.3207 85.0643 144.4001 0.0000 15.3028 0.0000
# 4 0.0000 0.0000 0.0000 52.2980 0.0000 -6.8693
# 5 15.8449 -12.6601 15.3028 0.0000 36.8371 0.0000
# 6 0.0000 0.0000 0.0000 -6.8693 0.0000 9.3283
#
#
#
# Elastic Compliance Matrix: (Units=1/GPa)
#
#
# Indices 1 2 3 4 5 6 
#
# 1 0.024857 -0.000321 -0.002624 0.000000 -0.009712 0.000000
# 2 -0.000321 0.003282 -0.002111 0.000000 0.002143 0.000000
# 3 -0.002624 -0.002111 0.008924 0.000000 -0.003304 0.000000
# 4 0.000000 0.000000 0.000000 0.021169 0.000000 0.015589
# 5 -0.009712 0.002143 -0.003304 0.000000 0.033433 0.000000
# 6 0.000000 0.000000 0.000000 0.015589 0.000000 0.118681
#
#
# Mechanical properties :
#
#
# Convention : Reuss Voigt Hill
#
# Bulk Modulus (GPa) = 37.10377 88.24215 62.67296
# Shear Modulus (GPa) = 21.79202 49.40136 35.59669
#
# Velocity S-wave (km/s) = 2.90801 4.37841 3.71665
# Velocity P-wave (km/s) = 5.06692 7.73328 6.53748
#
# Compressibility (1/GPa) = 0.02695144
#
# Stress axis : x y z
#
# Youngs Moduli (GPa) = 40.23034 304.68444 112.05225
#
# Poissons Ratio (x) = 0.09795 0.29398
# Poissons Ratio (y) = 0.01293 0.23653
# Poissons Ratio (z) = 0.10555 0.64315
#
# Static dielectric constant tensor:
#      x y z
#    x 2.468650 0.000000 0.038190 
#    y 0.000000 1.902070 0.000000 
#    z 0.038190 0.000000 2.021260 
# 
# From -- ./inp_files/11855.got.cif
#   From: 2010.05.17/outbox.cif.g08.bks.cpg/sg10_6_cif.got.tgz:11855.got - 2010.06.03 11:33:40.
