data_PCOD9146702
_publ_section_title
;
Structure prediction by ZEFSAII (Michael W. Deem and Ramdas Pophale) SiO2 
 PCOD9146702
Probable space group: P 2/M
;
_chemical_formula_sum "Si O2"
_cell_formula_units_Z 24
_cell_length_a 9.661465
_cell_length_b 19.555254
_cell_length_c 9.661466
_cell_angle_alpha 90.000000
_cell_angle_beta 46.821798
_cell_angle_gamma 90.000000
_cell_volume 1331.108365
_symmetry_space_group_name_H-M "P 2/M"
_symmetry_group_IT_number 10
_symmetry_cell_setting 'monoclinic'
loop_
_space_group_symop_operation_xyz
x,y,z
-x,y,-z
-x,-y,-z
x,-y,z
loop_
_atom_site_type_symbol
_atom_site_label
_atom_site_fract_x
_atom_site_fract_y
_atom_site_fract_z
Si Si1 0.635123 0.171691 0.541147
Si Si2 0.389632 0.682355 0.292258
Si Si3 0.409735 0.079499 0.909734
Si Si4 0.207743 0.317645 0.110368
Si Si5 0.958852 0.828310 0.864877
Si Si6 0.091810 0.578004 0.591811
O O1 0.500000 0.172949 0.500000
O O2 0.632482 0.246571 0.612310
O O3 0.547186 0.118317 0.709171
O O4 0.848182 0.154825 0.348182
O O5 0.286707 0.689480 0.213293
O O6 0.284005 0.621485 0.444508
O O7 0.610096 0.668837 0.110096
O O8 0.387506 0.000000 0.887503
O O9 0.500000 0.084099 0.000000
O O10 0.209170 0.118316 0.047187
O O11 0.112311 0.246571 0.132482
O O12 0.055492 0.378514 0.215995
O O13 0.000000 0.827051 0.000000
O O14 0.118815 0.500000 0.618816
O O15 0.000000 0.575817 0.500000
#
# Coordination Sequence:
#
# PCOD9146702 Si02
#       6
#     4   4   4   4   4   4
#     4  12  23  40  64  93 119 159 205 250 302 356
#     4  10  19  33  57  86 116 153 196 246 298 353
#     4  11  26  45  64  92 128 159 196 251 304 358
#     4  10  19  33  57  86 116 153 196 246 298 353
#     4  12  23  40  64  93 119 159 205 250 302 356
#     4   9  18  31  50  82 117 150 194 245 297 351
#
# _framework density 18.030087000000002
#
# number of rings (size 3 to 8) (size 9 to 14) (size 15 to 20)
#    0.000    1.333    5.000    1.000    0.000    4.000 
#    0.000    5.000    0.000    1.000    0.000    0.000 
#    0.000    0.000    0.000    0.000    0.000    0.000 
#
# Total GULP energy -134077.416974 kJ/mol
# GULP energy per Si atom -5586.559041 kJ/mol
# Density = 1.798905 g / cm^3
# Si number density = 18.030087 Si / 1000 Ang^3
#
#
#
# Elastic Constant Matrix: (Units=GPa)
#
#
# Indices 1 2 3 4 5 6 
#
# 1 60.4796 60.2081 55.9031 0.0000 -26.3759 0.0000
# 2 60.2081 192.4776 99.6907 0.0000 -23.5272 0.0000
# 3 55.9031 99.6907 175.2751 0.0000 -42.0288 0.0000
# 4 0.0000 0.0000 0.0000 21.8602 0.0000 -18.8357
# 5 -26.3759 -23.5272 -42.0288 0.0000 33.7473 0.0000
# 6 0.0000 0.0000 0.0000 -18.8357 0.0000 -9.7496
#
#
#
# Elastic Compliance Matrix: (Units=1/GPa)
#
#
# Indices 1 2 3 4 5 6 
#
# 1 0.033888 -0.007143 -0.002265 0.000000 0.018685 0.000000
# 2 -0.007143 0.008871 -0.003740 0.000000 -0.004056 0.000000
# 3 -0.002265 -0.003740 0.010701 0.000000 0.008949 0.000000
# 4 0.000000 0.000000 0.000000 0.017168 0.000000 -0.033167
# 5 0.018685 -0.004056 0.008949 0.000000 0.052553 0.000000
# 6 0.000000 0.000000 0.000000 -0.033167 0.000000 -0.038492
#
#
# Mechanical properties :
#
#
# Convention : Reuss Voigt Hill
#
# Bulk Modulus (GPa) = 36.81413 95.53733 66.17573
# Shear Modulus (GPa) = 41.65287 23.33359 32.49323
#
# Velocity S-wave (km/s) = 4.81165 3.60133 4.24980
# Velocity P-wave (km/s) = 7.16462 8.39020 7.80152
#
# Compressibility (1/GPa) = 0.02716349
#
# Stress axis : x y z
#
# Youngs Moduli (GPa) = 29.50868 112.72569 93.45135
#
# Poissons Ratio (x) = 0.80523 0.21168
# Poissons Ratio (y) = 0.21079 0.34949
# Poissons Ratio (z) = 0.06684 0.42158
#
# Static dielectric constant tensor:
#      x y z
#    x 1.604370 0.000000 -0.003990 
#    y 0.000000 1.584110 0.000000 
#    z -0.003990 0.000000 1.611070 
# 
# From -- ./inp_files/20146.got.cif
#   From: 2010.05.17/outbox.cif.g08.bks.cpg/sg10_11_cif.got.tgz:20146.got - 2010.06.03 11:33:40.
