data_PCOD9146786
_publ_section_title
;
Structure prediction by ZEFSAII (Michael W. Deem and Ramdas Pophale) SiO2 
 PCOD9146786
Probable space group: P 2/M
;
_chemical_formula_sum "Si O2"
_cell_formula_units_Z 28
_cell_length_a 29.646236
_cell_length_b 7.592106
_cell_length_c 8.514317
_cell_angle_alpha 90.000000
_cell_angle_beta 139.934516
_cell_angle_gamma 90.000000
_cell_volume 1233.502375
_symmetry_space_group_name_H-M "P 2/M"
_symmetry_group_IT_number 10
_symmetry_cell_setting 'monoclinic'
loop_
_space_group_symop_operation_xyz
x,y,z
-x,y,-z
-x,-y,-z
x,-y,z
loop_
_atom_site_type_symbol
_atom_site_label
_atom_site_fract_x
_atom_site_fract_y
_atom_site_fract_z
Si Si1 0.791310 0.795231 0.437707
Si Si2 0.798531 0.298848 0.101895
Si Si3 0.060224 0.696184 0.033557
Si Si4 0.046183 0.299138 0.472542
Si Si5 0.348326 0.797292 0.407693
Si Si6 0.344581 0.784899 0.749025
Si Si7 0.581706 0.785878 0.729399
O O1 0.783383 0.703953 0.248334
O O2 0.869749 0.775273 0.710172
O O3 0.735013 0.735664 0.416347
O O4 0.776603 0.000000 0.366227
O O5 0.799916 0.500000 0.048264
O O6 0.877041 0.222122 0.296306
O O7 0.735402 0.206828 0.843154
O O8 0.079965 0.500000 0.024077
O O9 0.000000 0.673578 0.000000
O O10 0.012065 0.800398 0.784142
O O11 0.060876 0.500000 0.446066
O O12 0.000000 0.324624 0.500000
O O13 0.363660 0.722298 0.623377
O O14 0.380700 0.721234 0.331456
O O15 0.372829 0.000000 0.477707
O O16 0.348545 0.000000 0.752271
O O17 0.388121 0.728108 0.020244
O O18 0.500000 0.743259 0.500000
O O19 0.589604 0.000000 0.751337
#
# Coordination Sequence:
#
# PCOD9146786 Si02
#       7
#     4   4   4   4   4   4   4
#     4  11  21  35  54  77 109 144 183 230 283 336
#     4  11  21  36  57  80 106 144 192 232 277 337
#     4  10  19  34  52  72  99 135 183 232 278 326
#     4   9  19  34  50  71 103 139 179 234 286 325
#     4  10  20  36  57  82 117 151 180 228 282 325
#     4   9  19  34  53  82 117 148 181 223 276 331
#     4   9  17  32  57  88 117 146 183 225 272 328
#
# _framework density 22.699589
#
# number of rings (size 3 to 8) (size 9 to 14) (size 15 to 20)
#    0.000    2.143    2.857    0.857    2.000    0.857 
#    0.000    3.571    0.000    2.571    0.000    1.000 
#    0.000    0.000    0.000    0.000    0.000    0.000 
#
# Total GULP energy -155938.882612 kJ/mol
# GULP energy per Si atom -5569.245808 kJ/mol
# Density = 2.264792 g / cm^3
# Si number density = 22.699589 Si / 1000 Ang^3
#
#
#
# Elastic Constant Matrix: (Units=GPa)
#
#
# Indices 1 2 3 4 5 6 
#
# 1 127.1351 -0.2378 87.0980 0.0000 -23.4826 0.0000
# 2 -0.2378 55.1902 -1.5089 0.0000 -3.3519 0.0000
# 3 87.0980 -1.5089 153.4314 0.0000 -9.1504 0.0000
# 4 0.0000 0.0000 0.0000 19.8937 0.0000 2.1548
# 5 -23.4826 -3.3519 -9.1504 0.0000 31.3621 0.0000
# 6 0.0000 0.0000 0.0000 2.1548 0.0000 -4.2102
#
#
#
# Elastic Compliance Matrix: (Units=1/GPa)
#
#
# Indices 1 2 3 4 5 6 
#
# 1 0.014970 0.000389 -0.007962 0.000000 0.008927 0.000000
# 2 0.000389 0.018261 0.000094 0.000000 0.002270 0.000000
# 3 -0.007962 0.000094 0.010872 0.000000 -0.002779 0.000000
# 4 0.000000 0.000000 0.000000 0.047627 0.000000 0.024376
# 5 0.008927 0.002270 -0.002779 0.000000 0.038002 0.000000
# 6 0.000000 0.000000 0.000000 0.024376 0.000000 -0.225044
#
#
# Mechanical properties :
#
#
# Convention : Reuss Voigt Hill
#
# Bulk Modulus (GPa) = 34.30949 56.27328 45.29139
# Shear Modulus (GPa) = -70.78114 26.10281 -22.33916
#
# Velocity S-wave (km/s) = -5.59011 3.39473 -3.14048
# Velocity P-wave (km/s) = 5.14961 6.34113 2.61643
#
# Compressibility (1/GPa) = 0.02914645
#
# Stress axis : x y z
#
# Youngs Moduli (GPa) = 66.80207 54.76061 91.97721
#
# Poissons Ratio (x) = -0.02130 0.73228
# Poissons Ratio (y) = -0.02599 -0.00866
# Poissons Ratio (z) = 0.53185 -0.00516
#
# Static dielectric constant tensor:
#      x y z
#    x 1.748470 0.000000 0.111010 
#    y 0.000000 1.914290 0.000000 
#    z 0.111010 0.000000 1.672040 
# 
# From -- ./inp_files/38061.got.cif
#   From: 2010.05.17/outbox.cif.g08.bks.cpg/sg10_20_cif.got.tgz:38061.got - 2010.06.03 11:33:40.
