data_PCOD9146942
_publ_section_title
;
Structure prediction by ZEFSAII (Michael W. Deem and Ramdas Pophale) SiO2 
 PCOD9146942
Probable space group: P 2/M
;
_chemical_formula_sum "Si O2"
_cell_formula_units_Z 28
_cell_length_a 9.838751
_cell_length_b 18.351969
_cell_length_c 8.205146
_cell_angle_alpha 90.000000
_cell_angle_beta 59.268353
_cell_angle_gamma 90.000000
_cell_volume 1273.474557
_symmetry_space_group_name_H-M "P 2/M"
_symmetry_group_IT_number 10
_symmetry_cell_setting 'monoclinic'
loop_
_space_group_symop_operation_xyz
x,y,z
-x,y,-z
-x,-y,-z
x,-y,z
loop_
_atom_site_type_symbol
_atom_site_label
_atom_site_fract_x
_atom_site_fract_y
_atom_site_fract_z
Si Si1 0.271975 0.578468 0.274199
Si Si2 0.211499 0.161766 0.046617
Si Si3 0.160184 0.000000 0.681765
Si Si4 0.366160 0.579049 0.836384
Si Si5 0.602173 0.734851 0.276583
Si Si6 0.102641 0.144273 0.601980
Si Si7 0.276980 0.736917 0.315687
Si Si8 0.211134 0.000000 0.036376
O O1 0.195648 0.500000 0.357297
O O2 0.443622 0.577303 0.257477
O O3 0.202625 0.656580 0.361269
O O4 0.301684 0.582093 0.061009
O O5 0.246413 0.218126 0.170662
O O6 0.022360 0.152287 0.175200
O O7 0.280908 0.200443 0.844782
O O8 0.279343 0.080045 0.036353
O O9 0.211997 0.074582 0.566633
O O10 0.198355 0.000000 0.848194
O O11 0.967989 0.000000 0.782816
O O12 0.318782 0.500000 0.793530
O O13 0.323131 0.653510 0.770105
O O14 0.500000 0.746308 0.500000
O O15 0.464866 0.732213 0.223110
O O16 0.199374 0.216431 0.506914
O O17 0.000000 0.130658 0.500000
#
# Coordination Sequence:
#
# PCOD9146942 Si02
#       8
#     4   4   2   4   4   4   4   2
#     4   8  13  25  49  76 101 135 178 212 250 303
#     4  10  20  38  55  74 105 137 177 218 260 316
#     4   9  17  34  55  80 104 131 175 227 259 308
#     4   8  14  27  48  73 100 136 175 215 255 300
#     4  11  22  33  51  79 111 139 171 217 268 317
#     4   9  19  33  57  81 103 136 177 219 260 311
#     4  10  19  34  55  80 106 142 174 215 267 310
#     4   9  20  34  57  77 100 138 179 216 268 307
#
# _framework density 21.987089999999998
#
# number of rings (size 3 to 8) (size 9 to 14) (size 15 to 20)
#    0.000    2.714    1.429    1.500    2.000    2.000 
#    0.000    2.500    0.000    4.714    0.000    0.000 
#    0.000    5.714    0.000    0.143    0.000    0.000 
#
# Total GULP energy -156096.580579 kJ/mol
# GULP energy per Si atom -5574.877878 kJ/mol
# Density = 2.193705 g / cm^3
# Si number density = 21.987090 Si / 1000 Ang^3
#
#
#
# Elastic Constant Matrix: (Units=GPa)
#
#
# Indices 1 2 3 4 5 6 
#
# 1 21.3053 11.9575 -7.4421 0.0000 2.7848 0.0000
# 2 11.9575 253.2787 61.2683 0.0000 -10.4646 0.0000
# 3 -7.4421 61.2683 72.3064 0.0000 -4.6853 0.0000
# 4 0.0000 0.0000 0.0000 32.2417 0.0000 -6.5355
# 5 2.7848 -10.4646 -4.6853 0.0000 15.9753 0.0000
# 6 0.0000 0.0000 0.0000 -6.5355 0.0000 13.4302
#
#
#
# Elastic Compliance Matrix: (Units=1/GPa)
#
#
# Indices 1 2 3 4 5 6 
#
# 1 0.054519 -0.005274 0.009419 0.000000 -0.010196 0.000000
# 2 -0.005274 0.005544 -0.005041 0.000000 0.003072 0.000000
# 3 0.009419 -0.005041 0.019114 0.000000 0.000662 0.000000
# 4 0.000000 0.000000 0.000000 0.034410 0.000000 0.016745
# 5 -0.010196 0.003072 0.000662 0.000000 0.066581 0.000000
# 6 0.000000 0.000000 0.000000 0.016745 0.000000 0.082608
#
#
# Mechanical properties :
#
#
# Convention : Reuss Voigt Hill
#
# Bulk Modulus (GPa) = 12.92221 53.16196 33.04209
# Shear Modulus (GPa) = 17.21992 31.06987 24.14489
#
# Velocity S-wave (km/s) = 2.80158 3.76320 3.31741
# Velocity P-wave (km/s) = 4.04414 6.56608 5.45291
#
# Compressibility (1/GPa) = 0.07738614
#
# Stress axis : x y z
#
# Youngs Moduli (GPa) = 18.34207 180.38973 52.31806
#
# Poissons Ratio (x) = 0.95132 -0.49280
# Poissons Ratio (y) = 0.09673 0.26374
# Poissons Ratio (z) = -0.17277 0.90935
#
# Static dielectric constant tensor:
#      x y z
#    x 1.837690 0.000000 0.019630 
#    y 0.000000 1.901110 0.000000 
#    z 0.019630 0.000000 1.829130 
# 
# From -- ./inp_files/29442.got.cif
#   From: 2010.05.17/outbox.cif.g08.bks.cpg/sg10_15_cif.got.tgz:29442.got - 2010.06.03 11:33:40.
