data_PCOD9146656
_publ_section_title
;
Structure prediction by ZEFSAII (Michael W. Deem and Ramdas Pophale) SiO2 
 PCOD9146656
Probable space group: P 2/M
;
_chemical_formula_sum "Si O2"
_cell_formula_units_Z 28
_cell_length_a 7.760140
_cell_length_b 16.334399
_cell_length_c 9.368929
_cell_angle_alpha 90.000000
_cell_angle_beta 103.702136
_cell_angle_gamma 90.000000
_cell_volume 1153.781257
_symmetry_space_group_name_H-M "P 2/M"
_symmetry_group_IT_number 10
_symmetry_cell_setting 'monoclinic'
loop_
_space_group_symop_operation_xyz
x,y,z
-x,y,-z
-x,-y,-z
x,-y,z
loop_
_atom_site_type_symbol
_atom_site_label
_atom_site_fract_x
_atom_site_fract_y
_atom_site_fract_z
Si Si1 0.585267 0.316189 0.338991
Si Si2 0.341049 0.406879 0.087055
Si Si3 0.294989 0.000000 0.121365
Si Si4 0.841296 0.406568 0.587034
Si Si5 0.895516 0.681210 0.166290
Si Si6 0.014959 0.166293 0.340108
Si Si7 0.580205 0.862919 0.658793
Si Si8 0.091257 0.000000 0.792576
O O1 0.430743 0.374307 0.248218
O O2 0.686925 0.347210 0.499430
O O3 0.736759 0.325880 0.249429
O O4 0.521851 0.222320 0.333594
O O5 0.276394 0.500000 0.084211
O O6 0.500000 0.407613 0.000000
O O7 0.191918 0.346212 0.997424
O O8 0.402658 0.078451 0.201092
O O9 0.102383 0.000000 0.165521
O O10 0.240983 0.000000 0.944764
O O11 0.778318 0.500000 0.584581
O O12 0.000000 0.406109 0.500000
O O13 0.944957 0.375437 0.746527
O O14 0.951332 0.774219 0.201668
O O15 0.220154 0.155525 0.348904
O O16 0.000000 0.198963 0.500000
O O17 0.909673 0.081294 0.303792
O O18 0.500000 0.902902 0.500000
#
# Coordination Sequence:
#
# PCOD9146656 Si02
#       8
#     4   4   2   4   4   4   4   2
#     4  10  20  34  56  86 122 155 200 248 301 364
#     4   9  18  33  55  85 120 160 199 245 305 361
#     4   9  21  40  61  89 122 161 200 242 309 378
#     4   9  16  29  53  83 116 158 202 246 291 351
#     4  10  19  33  56  86 121 156 202 246 295 359
#     4  11  22  39  64  89 118 157 207 256 304 361
#     4  11  22  38  63  88 122 160 201 251 308 366
#     4   9  21  40  63  89 120 157 204 252 303 366
#
# _framework density 24.268028999999999
#
# number of rings (size 3 to 8) (size 9 to 14) (size 15 to 20)
#    0.000    2.143    0.000    4.286    2.000    3.429 
#    0.000    2.143    0.000   13.714    0.000    0.500 
#    0.000    0.000    0.000    0.000    0.000    0.000 
#
# Total GULP energy -156756.026684 kJ/mol
# GULP energy per Si atom -5598.429524 kJ/mol
# Density = 2.421279 g / cm^3
# Si number density = 24.268029 Si / 1000 Ang^3
#
#
#
# Elastic Constant Matrix: (Units=GPa)
#
#
# Indices 1 2 3 4 5 6 
#
# 1 76.0184 21.0001 45.3112 0.0000 14.4447 0.0000
# 2 21.0001 171.0103 73.2833 0.0000 33.9589 0.0000
# 3 45.3112 73.2833 174.2418 0.0000 19.7625 0.0000
# 4 0.0000 0.0000 0.0000 8.5204 0.0000 -31.0879
# 5 14.4447 33.9589 19.7625 0.0000 50.9608 0.0000
# 6 0.0000 0.0000 0.0000 -31.0879 0.0000 -35.0262
#
#
#
# Elastic Compliance Matrix: (Units=1/GPa)
#
#
# Indices 1 2 3 4 5 6 
#
# 1 0.016028 0.000374 -0.003956 0.000000 -0.003258 0.000000
# 2 0.000374 0.007902 -0.002941 0.000000 -0.004231 0.000000
# 3 -0.003956 -0.002941 0.008008 0.000000 -0.000024 0.000000
# 4 0.000000 0.000000 0.000000 0.027691 0.000000 -0.024577
# 5 -0.003258 -0.004231 -0.000024 0.000000 0.023376 0.000000
# 6 0.000000 0.000000 0.000000 -0.024577 0.000000 -0.006736
#
#
# Mechanical properties :
#
#
# Convention : Reuss Voigt Hill
#
# Bulk Modulus (GPa) = 52.93089 77.82888 65.37989
# Shear Modulus (GPa) = 52.29484 23.66940 37.98212
#
# Velocity S-wave (km/s) = 4.64711 3.12642 3.96044
# Velocity P-wave (km/s) = 7.11706 6.72107 6.92190
#
# Compressibility (1/GPa) = 0.01889256
#
# Stress axis : x y z
#
# Youngs Moduli (GPa) = 62.38903 126.54740 124.88282
#
# Poissons Ratio (x) = -0.04732 0.49402
# Poissons Ratio (y) = -0.02333 0.36726
# Poissons Ratio (z) = 0.24680 0.37216
#
# Static dielectric constant tensor:
#      x y z
#    x 1.989530 0.000000 -0.015100 
#    y 0.000000 1.912070 0.000000 
#    z -0.015100 0.000000 2.118680 
# 
# From -- ./inp_files/43070.got.cif
#   From: 2010.05.17/outbox.cif.g08.bks.cpg/sg10_22_cif.got.tgz:43070.got - 2010.06.03 11:33:40.
