data_PCOD9146905
_publ_section_title
;
Structure prediction by ZEFSAII (Michael W. Deem and Ramdas Pophale) SiO2 
 PCOD9146905
Probable space group: P 2/M
;
_chemical_formula_sum "Si O2"
_cell_formula_units_Z 24
_cell_length_a 24.579734
_cell_length_b 8.755724
_cell_length_c 11.557471
_cell_angle_alpha 90.000000
_cell_angle_beta 34.493068
_cell_angle_gamma 90.000000
_cell_volume 1408.586818
_symmetry_space_group_name_H-M "P 2/M"
_symmetry_group_IT_number 10
_symmetry_cell_setting 'monoclinic'
loop_
_space_group_symop_operation_xyz
x,y,z
-x,y,-z
-x,-y,-z
x,-y,z
loop_
_atom_site_type_symbol
_atom_site_label
_atom_site_fract_x
_atom_site_fract_y
_atom_site_fract_z
Si Si1 0.545009 0.181891 0.750721
Si Si2 0.028722 0.324197 0.313397
Si Si3 0.408841 0.317981 0.578195
Si Si4 0.180286 0.315579 0.354575
Si Si5 0.223625 0.180635 0.026476
Si Si6 0.640515 0.683007 0.804390
O O1 0.577386 0.235339 0.568148
O O2 0.618545 0.238941 0.720512
O O3 0.535148 0.000000 0.773783
O O4 0.443464 0.259064 0.962776
O O5 0.050121 0.500000 0.244095
O O6 0.124065 0.224858 0.137032
O O7 0.000000 0.323784 0.500000
O O8 0.930176 0.271996 0.425469
O O9 0.500000 0.283502 0.500000
O O10 0.405652 0.500000 0.565497
O O11 0.312762 0.262777 0.809881
O O12 0.180182 0.500000 0.337183
O O13 0.212530 0.239590 0.177757
O O14 0.256905 0.279677 0.319327
O O15 0.237635 0.000000 0.001352
O O16 0.632654 0.500000 0.806248
#
# Coordination Sequence:
#
# PCOD9146905 Si02
#       6
#     4   4   4   4   4   4
#     4  11  22  35  51  75 105 133 164 205 254 297
#     4   8  15  30  49  70  99 133 168 205 245 291
#     4  11  23  38  55  73  97 133 172 205 243 297
#     4   9  18  32  52  76 101 133 172 209 244 289
#     4  11  21  31  48  76 107 135 163 203 255 301
#     4  10  19  34  55  76 100 133 172 207 243 292
#
# _framework density 17.038354000000002
#
# number of rings (size 3 to 8) (size 9 to 14) (size 15 to 20)
#    0.000    2.000    0.000    7.000    0.000    9.667 
#    0.000    0.000    0.000    1.000    0.000    7.000 
#    0.000    0.000    0.000    0.000    0.000    0.000 
#
# Total GULP energy -133953.458799 kJ/mol
# GULP energy per Si atom -5581.394117 kJ/mol
# Density = 1.699957 g / cm^3
# Si number density = 17.038354 Si / 1000 Ang^3
#
#
#
# Elastic Constant Matrix: (Units=GPa)
#
#
# Indices 1 2 3 4 5 6 
#
# 1 93.4084 30.6410 41.8291 0.0000 -28.4451 0.0000
# 2 30.6410 57.8750 24.6887 0.0000 -6.2817 0.0000
# 3 41.8291 24.6887 68.5849 0.0000 -12.0949 0.0000
# 4 0.0000 0.0000 0.0000 78.1129 0.0000 -0.8001
# 5 -28.4451 -6.2817 -12.0949 0.0000 29.3091 0.0000
# 6 0.0000 0.0000 0.0000 -0.8001 0.0000 5.1546
#
#
#
# Elastic Compliance Matrix: (Units=1/GPa)
#
#
# Indices 1 2 3 4 5 6 
#
# 1 0.021053 -0.006072 -0.007852 0.000000 0.015890 0.000000
# 2 -0.006072 0.022222 -0.004848 0.000000 -0.003131 0.000000
# 3 -0.007852 -0.004848 0.021125 0.000000 0.000058 0.000000
# 4 0.000000 0.000000 0.000000 0.012822 0.000000 0.001990
# 5 0.015890 -0.003131 0.000058 0.000000 0.048894 0.000000
# 6 0.000000 0.000000 0.000000 0.001990 0.000000 0.194312
#
#
# Mechanical properties :
#
#
# Convention : Reuss Voigt Hill
#
# Bulk Modulus (GPa) = 37.23654 46.02065 41.62860
# Shear Modulus (GPa) = 13.62685 30.69593 22.16139
#
# Velocity S-wave (km/s) = 2.83110 4.24911 3.61040
# Velocity P-wave (km/s) = 5.70866 7.15135 6.47034
#
# Compressibility (1/GPa) = 0.02685534
#
# Stress axis : x y z
#
# Youngs Moduli (GPa) = 47.50028 45.00135 47.33815
#
# Poissons Ratio (x) = 0.27324 0.37169
# Poissons Ratio (y) = 0.28841 0.22951
# Poissons Ratio (z) = 0.37296 0.21818
#
# Static dielectric constant tensor:
#      x y z
#    x 1.589380 0.000000 -0.028260 
#    y 0.000000 1.565780 0.000000 
#    z -0.028260 0.000000 1.552460 
# 
# From -- ./inp_files/52861.got.cif
#   From: 2010.05.17/outbox.cif.g08.bks.cpg/sg10_27_cif.got.tgz:52861.got - 2010.06.03 11:33:40.
