data_PCOD9146898
_publ_section_title
;
Structure prediction by ZEFSAII (Michael W. Deem and Ramdas Pophale) SiO2 
 PCOD9146898
Probable space group: P 2/M
;
_chemical_formula_sum "Si O2"
_cell_formula_units_Z 32
_cell_length_a 32.315178
_cell_length_b 7.718462
_cell_length_c 12.381890
_cell_angle_alpha 90.000000
_cell_angle_beta 149.571515
_cell_angle_gamma 90.000000
_cell_volume 1564.125384
_symmetry_space_group_name_H-M "P 2/M"
_symmetry_group_IT_number 10
_symmetry_cell_setting 'monoclinic'
loop_
_space_group_symop_operation_xyz
x,y,z
-x,y,-z
-x,-y,-z
x,-y,z
loop_
_atom_site_type_symbol
_atom_site_label
_atom_site_fract_x
_atom_site_fract_y
_atom_site_fract_z
Si Si1 0.897921 0.207873 0.376440
Si Si2 0.474261 0.290245 0.063295
Si Si3 0.768561 0.207651 0.706169
Si Si4 0.287712 0.291602 0.658931
Si Si5 0.079979 0.788096 0.818469
Si Si6 0.627244 0.797284 0.549796
Si Si7 0.408924 0.700642 0.294075
Si Si8 0.745194 0.708371 0.182116
O O1 0.890911 0.265657 0.236026
O O2 0.821558 0.253302 0.277953
O O3 0.986050 0.269119 0.618898
O O4 0.902119 0.000000 0.381575
O O5 0.476626 0.500000 0.075123
O O6 0.539639 0.221756 0.295402
O O7 0.500000 0.240079 0.000000
O O8 0.381837 0.231532 0.873915
O O9 0.752106 0.245298 0.544457
O O10 0.694962 0.271493 0.617912
O O11 0.767873 0.000000 0.715186
O O12 0.854894 0.271674 0.946770
O O13 0.290030 0.500000 0.666593
O O14 0.244971 0.229981 0.672610
O O15 0.079549 0.000000 0.819634
O O16 0.625034 0.707368 0.660629
O O17 0.643920 0.000000 0.607616
O O18 0.500000 0.779781 0.500000
O O19 0.419593 0.500000 0.283683
O O20 0.339500 0.776720 0.060038
O O21 0.738040 0.500000 0.168740
#
# Coordination Sequence:
#
# PCOD9146898 Si02
#       8
#     4   4   4   4   4   4   4   4
#     4   9  17  34  60  82 103 136 175 210 256 319
#     4  10  19  34  55  74  99 142 189 220 249 306
#     4  10  20  34  52  78 109 136 169 216 267 312
#     4  10  21  37  54  74 103 142 184 219 257 308
#     4   8  16  33  57  82 106 134 169 213 260 313
#     4  11  22  33  52  82 112 135 167 222 277 316
#     4  10  21  38  57  75 102 142 183 217 256 313
#     4  10  21  36  54  77 107 139 174 220 265 306
#
# _framework density 20.458718999999999
#
# number of rings (size 3 to 8) (size 9 to 14) (size 15 to 20)
#    0.000    2.250    1.250    2.625    0.000    5.500 
#    0.000    4.375    0.000    3.750    0.000    0.000 
#    0.000    0.000    0.000    0.000    0.000    0.000 
#
# Total GULP energy -178681.226595 kJ/mol
# GULP energy per Si atom -5583.788331 kJ/mol
# Density = 2.041215 g / cm^3
# Si number density = 20.458719 Si / 1000 Ang^3
#
#
#
# Elastic Constant Matrix: (Units=GPa)
#
#
# Indices 1 2 3 4 5 6 
#
# 1 124.8924 -0.1452 76.2515 0.0000 5.2316 0.0000
# 2 -0.1452 29.8756 2.9232 0.0000 3.8685 0.0000
# 3 76.2515 2.9232 161.6957 0.0000 -2.8512 0.0000
# 4 0.0000 0.0000 0.0000 7.3336 0.0000 -2.4267
# 5 5.2316 3.8685 -2.8512 0.0000 28.6170 0.0000
# 6 0.0000 0.0000 0.0000 -2.4267 0.0000 25.7500
#
#
#
# Elastic Compliance Matrix: (Units=1/GPa)
#
#
# Indices 1 2 3 4 5 6 
#
# 1 0.011465 0.000950 -0.005473 0.000000 -0.002770 0.000000
# 2 0.000950 0.034226 -0.001153 0.000000 -0.004915 0.000000
# 3 -0.005473 -0.001153 0.008822 0.000000 0.002035 0.000000
# 4 0.000000 0.000000 0.000000 0.140748 0.000000 0.013264
# 5 -0.002770 -0.004915 0.002035 0.000000 0.036318 0.000000
# 6 0.000000 0.000000 0.000000 0.013264 0.000000 0.040085
#
#
# Mechanical properties :
#
#
# Convention : Reuss Voigt Hill
#
# Bulk Modulus (GPa) = 23.16913 52.72477 37.94695
# Shear Modulus (GPa) = 16.81214 28.16906 22.49060
#
# Velocity S-wave (km/s) = 2.86974 3.71465 3.31919
# Velocity P-wave (km/s) = 4.72546 6.65022 5.76868
#
# Compressibility (1/GPa) = 0.04316089
#
# Stress axis : x y z
#
# Youngs Moduli (GPa) = 87.21933 29.21748 113.35274
#
# Poissons Ratio (x) = -0.02775 0.62035
# Poissons Ratio (y) = -0.08284 0.13073
# Poissons Ratio (z) = 0.47733 0.03370
#
# Static dielectric constant tensor:
#      x y z
#    x 1.713490 0.000000 0.004570 
#    y 0.000000 1.783730 0.000000 
#    z 0.004570 0.000000 1.724530 
# 
# From -- ./inp_files/55253.got.cif
#   From: 2010.05.17/outbox.cif.g08.bks.cpg/sg10_28_cif.got.tgz:55253.got - 2010.06.03 11:33:40.
