data_PCOD9146864
_publ_section_title
;
Structure prediction by ZEFSAII (Michael W. Deem and Ramdas Pophale) SiO2 
 PCOD9146864
Probable space group: P 2/M
;
_chemical_formula_sum "Si O2"
_cell_formula_units_Z 32
_cell_length_a 12.760789
_cell_length_b 7.552572
_cell_length_c 19.720112
_cell_angle_alpha 90.000000
_cell_angle_beta 49.734448
_cell_angle_gamma 90.000000
_cell_volume 1450.236379
_symmetry_space_group_name_H-M "P 2/M"
_symmetry_group_IT_number 10
_symmetry_cell_setting 'monoclinic'
loop_
_space_group_symop_operation_xyz
x,y,z
-x,y,-z
-x,-y,-z
x,-y,z
loop_
_atom_site_type_symbol
_atom_site_label
_atom_site_fract_x
_atom_site_fract_y
_atom_site_fract_z
Si Si1 0.423160 0.789779 0.176265
Si Si2 0.077079 0.285900 0.036201
Si Si3 0.850280 0.794675 0.360412
Si Si4 0.818889 0.713905 0.222631
Si Si5 0.839212 0.783443 0.787829
Si Si6 0.573414 0.704921 0.536550
Si Si7 0.672696 0.203806 0.988539
Si Si8 0.544873 0.713470 0.272051
O O1 0.268266 0.731250 0.225859
O O2 0.477392 0.763355 0.229342
O O3 0.422855 0.000000 0.165138
O O4 0.530576 0.716226 0.075152
O O5 0.090163 0.500000 0.030391
O O6 0.970518 0.227450 0.138645
O O7 0.225102 0.210149 0.989940
O O8 0.000000 0.235274 0.000000
O O9 0.789216 0.777772 0.310180
O O10 0.736515 0.710670 0.456368
O O11 0.005409 0.720489 0.290104
O O12 0.859705 0.000000 0.375429
O O13 0.819898 0.500000 0.222816
O O14 0.702956 0.769634 0.217740
O O15 0.762519 0.720713 0.888896
O O16 0.849527 0.000000 0.787621
O O17 0.500000 0.783974 0.500000
O O18 0.526842 0.500000 0.558070
O O19 0.531973 0.777962 0.627461
O O20 0.646307 0.000000 0.980479
O O21 0.544202 0.500000 0.272096
#
# Coordination Sequence:
#
# PCOD9146864 Si02
#       8
#     4   4   4   4   4   4   4   4
#     4  10  21  37  58  81 109 148 189 229 276 326
#     4  10  20  32  49  75 110 149 184 222 271 327
#     4  11  21  34  57  86 112 138 178 232 275 318
#     4  10  19  34  54  76 109 149 182 217 273 335
#     4   9  19  37  57  80 112 149 187 227 275 324
#     4  10  20  38  61  82 109 148 183 218 275 339
#     4  10  19  34  56  80 107 144 190 232 269 320
#     4  10  21  38  59  81 110 145 182 227 276 329
#
# _framework density 22.065370000000001
#
# number of rings (size 3 to 8) (size 9 to 14) (size 15 to 20)
#    0.000    2.000    2.500    1.500    0.000    4.500 
#    0.000    2.500    0.000    5.250    0.000    0.000 
#    0.000    0.000    0.000    0.000    0.000    0.000 
#
# Total GULP energy -178650.318056 kJ/mol
# GULP energy per Si atom -5582.822439 kJ/mol
# Density = 2.201515 g / cm^3
# Si number density = 22.065370 Si / 1000 Ang^3
#
#
#
# Elastic Constant Matrix: (Units=GPa)
#
#
# Indices 1 2 3 4 5 6 
#
# 1 138.9863 -3.0707 40.7199 0.0000 -17.1653 0.0000
# 2 -3.0707 50.6868 -1.2924 0.0000 -0.7103 0.0000
# 3 40.7199 -1.2924 99.9676 0.0000 -14.7454 0.0000
# 4 0.0000 0.0000 0.0000 10.9920 0.0000 4.2989
# 5 -17.1653 -0.7103 -14.7454 0.0000 30.0617 0.0000
# 6 0.0000 0.0000 0.0000 4.2989 0.0000 18.7624
#
#
#
# Elastic Compliance Matrix: (Units=1/GPa)
#
#
# Indices 1 2 3 4 5 6 
#
# 1 0.008491 0.000487 -0.002949 0.000000 0.003414 0.000000
# 2 0.000487 0.019775 0.000180 0.000000 0.000834 0.000000
# 3 -0.002949 0.000180 0.011814 0.000000 0.004115 0.000000
# 4 0.000000 0.000000 0.000000 0.099930 0.000000 -0.022896
# 5 0.003414 0.000834 0.004115 0.000000 0.037252 0.000000
# 6 0.000000 0.000000 0.000000 -0.022896 0.000000 0.058544
#
#
# Mechanical properties :
#
#
# Convention : Reuss Voigt Hill
#
# Bulk Modulus (GPa) = 28.15591 40.26159 34.20875
# Shear Modulus (GPa) = 19.82489 28.84880 24.33685
#
# Velocity S-wave (km/s) = 3.00069 3.61975 3.32466
# Velocity P-wave (km/s) = 4.97930 5.97966 5.50226
#
# Compressibility (1/GPa) = 0.03551652
#
# Stress axis : x y z
#
# Youngs Moduli (GPa) = 117.76776 50.56945 84.64703
#
# Poissons Ratio (x) = -0.02463 0.24962
# Poissons Ratio (y) = -0.05736 -0.01526
# Poissons Ratio (z) = 0.34729 -0.00911
#
# Static dielectric constant tensor:
#      x y z
#    x 1.815130 0.000000 -0.004130 
#    y 0.000000 1.841470 0.000000 
#    z -0.004130 0.000000 1.826750 
# 
# From -- ./inp_files/55313.got.cif
#   From: 2010.05.17/outbox.cif.g08.bks.cpg/sg10_28_cif.got.tgz:55313.got - 2010.06.03 11:33:40.
