data_PCOD9146398
_publ_section_title
;
Structure prediction by ZEFSAII (Michael W. Deem and Ramdas Pophale) SiO2 
 PCOD9146398
Probable space group: P 2/M
;
_chemical_formula_sum "Si O2"
_cell_formula_units_Z 28
_cell_length_a 11.461604
_cell_length_b 23.282543
_cell_length_c 5.268963
_cell_angle_alpha 90.000000
_cell_angle_beta 109.036619
_cell_angle_gamma 90.000000
_cell_volume 1329.154158
_symmetry_space_group_name_H-M "P 2/M"
_symmetry_group_IT_number 10
_symmetry_cell_setting 'monoclinic'
loop_
_space_group_symop_operation_xyz
x,y,z
-x,y,-z
-x,-y,-z
x,-y,z
loop_
_atom_site_type_symbol
_atom_site_label
_atom_site_fract_x
_atom_site_fract_y
_atom_site_fract_z
Si Si1 0.253431 0.824555 0.560891
Si Si2 0.416862 0.066434 0.690174
Si Si3 0.802447 0.662038 0.868234
Si Si4 0.388014 0.718120 0.610695
Si Si5 0.120475 0.563421 0.406222
Si Si6 0.368613 0.599863 0.876387
Si Si7 0.131438 0.782448 0.959458
O O1 0.307386 0.887877 0.616126
O O2 0.358810 0.777980 0.723392
O O3 0.219652 0.810540 0.241841
O O4 0.150220 0.813023 0.702250
O O5 0.500000 0.077113 0.500000
O O6 0.375068 0.000000 0.651820
O O7 0.500000 0.073636 0.000000
O O8 0.739778 0.701374 0.613173
O O9 0.887119 0.616171 0.790881
O O10 0.852445 0.712942 0.081217
O O11 0.695774 0.622773 0.914562
O O12 0.500000 0.727143 0.500000
O O13 0.408368 0.658852 0.768013
O O14 0.122045 0.500000 0.286332
O O15 0.252568 0.571089 0.646755
O O16 0.000000 0.566031 0.500000
O O17 0.500000 0.567780 0.000000
O O18 0.000000 0.787951 0.000000
#
# Coordination Sequence:
#
# PCOD9146398 Si02
#       7
#     4   4   4   4   4   4   4
#     4  11  22  38  60  94 127 170 215 265 324 381
#     4  10  21  38  62  94 133 176 219 266 321 387
#     4  10  22  37  60  86 118 161 194 256 326 386
#     4  10  19  33  54  86 123 152 189 247 319 388
#     4  10  25  44  61  85 117 158 211 262 317 390
#     4  11  21  37  62  89 118 151 196 256 319 390
#     4  11  24  39  62  92 127 166 216 270 327 388
#
# _framework density 21.066029
#
# number of rings (size 3 to 8) (size 9 to 14) (size 15 to 20)
#    0.000    1.571    2.857    1.714    2.000    2.571 
#    0.000    2.143    0.000    2.571    0.000    0.000 
#    0.000    0.000    0.000    0.000    0.000    0.000 
#
# Total GULP energy -156027.874059 kJ/mol
# GULP energy per Si atom -5572.424074 kJ/mol
# Density = 2.101808 g / cm^3
# Si number density = 21.066029 Si / 1000 Ang^3
#
#
#
# Elastic Constant Matrix: (Units=GPa)
#
#
# Indices 1 2 3 4 5 6 
#
# 1 107.6439 45.3766 21.3605 0.0000 -1.6031 0.0000
# 2 45.3766 110.6574 18.1678 0.0000 1.8965 0.0000
# 3 21.3605 18.1678 63.8778 0.0000 -1.9811 0.0000
# 4 0.0000 0.0000 0.0000 -3.5383 0.0000 14.5294
# 5 -1.6031 1.8965 -1.9811 0.0000 39.2283 0.0000
# 6 0.0000 0.0000 0.0000 14.5294 0.0000 -35.2242
#
#
#
# Elastic Compliance Matrix: (Units=1/GPa)
#
#
# Indices 1 2 3 4 5 6 
#
# 1 0.011659 -0.004357 -0.002642 0.000000 0.000554 0.000000
# 2 -0.004357 0.011121 -0.001731 0.000000 -0.000803 0.000000
# 3 -0.002642 -0.001731 0.017057 0.000000 0.000837 0.000000
# 4 0.000000 0.000000 0.000000 0.407351 0.000000 0.168026
# 5 0.000554 -0.000803 0.000837 0.000000 0.025596 0.000000
# 6 0.000000 0.000000 0.000000 0.168026 0.000000 0.040918
#
#
# Mechanical properties :
#
#
# Convention : Reuss Voigt Hill
#
# Bulk Modulus (GPa) = 44.68920 50.22099 47.45510
# Shear Modulus (GPa) = 9.28296 13.24477 11.26386
#
# Velocity S-wave (km/s) = 2.10147 2.51016 2.31485
# Velocity P-wave (km/s) = 5.21039 5.68267 5.45165
#
# Compressibility (1/GPa) = 0.02237677
#
# Stress axis : x y z
#
# Youngs Moduli (GPa) = 85.77070 89.91705 58.62744
#
# Poissons Ratio (x) = 0.39173 0.15492
# Poissons Ratio (y) = 0.37367 0.10149
# Poissons Ratio (z) = 0.22665 0.15566
#
# Static dielectric constant tensor:
#      x y z
#    x 1.669890 0.000000 0.027290 
#    y 0.000000 1.747320 0.000000 
#    z 0.027290 0.000000 1.928640 
# 
# From -- ./inp_files/7748.got.cif
#   From: 2010.05.17/outbox.cif.g08.bks.cpg/sg10_4_cif.got.tgz:7748.got - 2010.06.03 11:33:40.
