data_PCOD9146200
_publ_section_title
;
Structure prediction by ZEFSAII (Michael W. Deem and Ramdas Pophale) SiO2 
 PCOD9146200
Probable space group: P 2/M
;
_chemical_formula_sum "Si O2"
_cell_formula_units_Z 32
_cell_length_a 28.823909
_cell_length_b 8.723717
_cell_length_c 23.350311
_cell_angle_alpha 90.000000
_cell_angle_beta 17.962027
_cell_angle_gamma 90.000000
_cell_volume 1810.683854
_symmetry_space_group_name_H-M "P 2/M"
_symmetry_group_IT_number 10
_symmetry_cell_setting 'monoclinic'
loop_
_space_group_symop_operation_xyz
x,y,z
-x,y,-z
-x,-y,-z
x,-y,z
loop_
_atom_site_type_symbol
_atom_site_label
_atom_site_fract_x
_atom_site_fract_y
_atom_site_fract_z
Si Si1 0.227959 0.814607 0.386368
Si Si2 0.625738 0.184004 0.613078
Si Si3 0.331668 0.822589 0.670689
Si Si4 0.222604 0.684480 0.911709
Si Si5 0.916728 0.315963 0.332853
Si Si6 0.161244 0.812610 0.334631
Si Si7 0.461229 0.813965 0.919631
Si Si8 0.545378 0.316967 0.584568
O O1 0.116345 0.747702 0.565037
O O2 0.188606 0.767096 0.368289
O O3 0.397323 0.769008 0.206429
O O4 0.221595 0.000000 0.396723
O O5 0.783627 0.251498 0.449359
O O6 0.504294 0.231367 0.804411
O O7 0.584870 0.243053 0.598607
O O8 0.634561 0.000000 0.603040
O O9 0.500000 0.812480 0.500000
O O10 0.226565 0.751985 0.843083
O O11 0.343086 0.735650 0.597146
O O12 0.295956 0.000000 0.703075
O O13 0.450837 0.500000 0.415135
O O14 0.377013 0.730011 0.762383
O O15 0.077030 0.731424 0.118643
O O16 0.909956 0.500000 0.341765
O O17 0.000000 0.762301 0.500000
O O18 0.161686 0.000000 0.333200
O O19 0.302153 0.759933 0.130736
O O20 0.457116 0.000000 0.925493
O O21 0.223876 0.500000 0.905600
#
# Coordination Sequence:
#
# PCOD9146200 Si02
#       8
#     4   4   4   4   4   4   4   4
#     4   9  17  30  49  70  94 127 165 203 245 295
#     4  10  20  34  52  75 102 131 168 212 254 296
#     4   9  17  30  50  76 103 131 166 208 250 293
#     4   9  19  34  52  74 100 134 171 205 247 301
#     4  10  20  35  53  73 101 135 170 207 250 301
#     4   9  16  26  44  72 100 124 157 203 250 293
#     4   8  15  28  45  65  92 127 161 196 242 294
#     4  10  19  33  53  75 102 135 168 203 248 303
#
# _framework density 17.672879999999999
#
# number of rings (size 3 to 8) (size 9 to 14) (size 15 to 20)
#    0.000    2.750    0.000    2.625    0.000    5.500 
#    0.000    1.875    0.000   10.875    0.000    0.000 
#    0.000    0.000    0.000    0.000    0.000    0.000 
#
# Total GULP energy -178413.568338 kJ/mol
# GULP energy per Si atom -5575.424011 kJ/mol
# Density = 1.763266 g / cm^3
# Si number density = 17.672880 Si / 1000 Ang^3
#
#
#
# Elastic Constant Matrix: (Units=GPa)
#
#
# Indices 1 2 3 4 5 6 
#
# 1 -73.3324 -48.3932 -198.0826 0.0000 -15.4979 0.0000
# 2 -48.3932 -4.3218 -73.2664 0.0000 -8.4880 0.0000
# 3 -198.0826 -73.2664 -201.8036 0.0000 -28.2595 0.0000
# 4 0.0000 0.0000 0.0000 19.1183 0.0000 -1.4518
# 5 -15.4979 -8.4880 -28.2595 0.0000 7.8706 0.0000
# 6 0.0000 0.0000 0.0000 -1.4518 0.0000 7.5005
#
#
#
# Elastic Compliance Matrix: (Units=1/GPa)
#
#
# Indices 1 2 3 4 5 6 
#
# 1 0.011486 -0.011317 -0.005738 0.000000 -0.010191 0.000000
# 2 -0.011317 0.056579 -0.009886 0.000000 0.003236 0.000000
# 3 -0.005738 -0.009886 0.004886 0.000000 -0.004420 0.000000
# 4 0.000000 0.000000 0.000000 0.053086 0.000000 0.010276
# 5 -0.010191 0.003236 -0.004420 0.000000 0.094608 0.000000
# 6 0.000000 0.000000 0.000000 0.010276 0.000000 0.135314
#
#
# Mechanical properties :
#
#
# Convention : Reuss Voigt Hill
#
# Bulk Modulus (GPa) = 52.44627 -102.10468 -24.82921
# Shear Modulus (GPa) = 12.01352 9.58350 10.79851
#
# Velocity S-wave (km/s) = 2.61007 2.33120 2.47457
# Velocity P-wave (km/s) = 6.23088 7.11718 2.43212
#
# Compressibility (1/GPa) = 0.01906713
#
# Stress axis : x y z
#
# Youngs Moduli (GPa) = 87.06111 17.67445 204.68704
#
# Poissons Ratio (x) = 0.20002 1.17459
# Poissons Ratio (y) = 0.98528 2.02357
# Poissons Ratio (z) = 0.49960 0.17473
#
# Static dielectric constant tensor:
#      x y z
#    x 1.581420 0.000000 0.002310 
#    y 0.000000 1.592560 0.000000 
#    z 0.002310 0.000000 1.602040 
# 
# From -- ./inp_files/86766.got.cif
#   From: 2010.05.17/outbox.cif.g08.bks.cpg/sg10_44_cif.got.tgz:86766.got - 2010.06.03 11:33:40.
