data_PCOD9146597
_publ_section_title
;
Structure prediction by ZEFSAII (Michael W. Deem and Ramdas Pophale) SiO2 
 PCOD9146597
Probable space group: P 2/M
;
_chemical_formula_sum "Si O2"
_cell_formula_units_Z 28
_cell_length_a 27.855402
_cell_length_b 8.498228
_cell_length_c 9.790276
_cell_angle_alpha 90.000000
_cell_angle_beta 41.066575
_cell_angle_gamma 90.000000
_cell_volume 1522.493653
_symmetry_space_group_name_H-M "P 2/M"
_symmetry_group_IT_number 10
_symmetry_cell_setting 'monoclinic'
loop_
_space_group_symop_operation_xyz
x,y,z
-x,y,-z
-x,-y,-z
x,-y,z
loop_
_atom_site_type_symbol
_atom_site_label
_atom_site_fract_x
_atom_site_fract_y
_atom_site_fract_z
Si Si1 0.431922 0.679396 0.246325
Si Si2 0.799475 0.814977 0.616818
Si Si3 0.736406 0.810646 0.036152
Si Si4 0.432458 0.809352 0.545548
Si Si5 0.181477 0.681260 0.877319
Si Si6 0.917549 0.690095 0.149282
Si Si7 0.709013 0.177416 0.556387
O O1 0.403508 0.500000 0.313992
O O2 0.447927 0.737505 0.364079
O O3 0.373359 0.795513 0.306106
O O4 0.500000 0.679354 0.000000
O O5 0.864151 0.740919 0.387390
O O6 0.728149 0.802870 0.673178
O O7 0.817188 0.000000 0.593643
O O8 0.776988 0.750166 0.812530
O O9 0.650961 0.759474 0.233836
O O10 0.785815 0.765835 0.060441
O O11 0.733500 0.000000 0.032887
O O12 0.500000 0.765806 0.500000
O O13 0.431368 0.000000 0.539467
O O14 0.167443 0.500000 0.942782
O O15 0.113607 0.745112 0.931869
O O16 0.245341 0.698423 0.628442
O O17 0.916525 0.500000 0.146387
O O18 0.000000 0.743358 0.000000
O O19 0.732672 0.000000 0.466390
#
# Coordination Sequence:
#
# PCOD9146597 Si02
#       7
#     4   4   4   4   4   4   4
#     4  11  24  38  52  76 109 141 180 230 279 326
#     4   9  20  35  55  83 112 141 180 225 270 321
#     4  10  20  36  55  80 113 145 182 228 270 322
#     4  10  22  38  58  80 106 146 190 230 275 323
#     4  10  19  33  56  82 108 141 178 218 269 324
#     4   9  19  37  59  83 112 144 181 223 266 321
#     4  10  19  34  56  78 101 137 182 226 269 319
#
# _framework density 18.390882000000001
#
# number of rings (size 3 to 8) (size 9 to 14) (size 15 to 20)
#    0.000    2.143    1.429    1.286    2.000    3.429 
#    0.000    0.714    0.000    4.286    0.000    0.000 
#    0.000    0.000    0.000    0.000    0.000    0.000 
#
# Total GULP energy -155977.868311 kJ/mol
# GULP energy per Si atom -5570.638154 kJ/mol
# Density = 1.834902 g / cm^3
# Si number density = 18.390882 Si / 1000 Ang^3
#
#
#
# Elastic Constant Matrix: (Units=GPa)
#
#
# Indices 1 2 3 4 5 6 
#
# 1 151.2695 22.7497 79.8770 0.0000 -3.2055 0.0000
# 2 22.7497 15.8022 15.1949 0.0000 0.4203 0.0000
# 3 79.8770 15.1949 90.7126 0.0000 12.5093 0.0000
# 4 0.0000 0.0000 0.0000 17.4915 0.0000 0.9588
# 5 -3.2055 0.4203 12.5093 0.0000 27.3298 0.0000
# 6 0.0000 0.0000 0.0000 0.9588 0.0000 16.9087
#
#
#
# Elastic Compliance Matrix: (Units=1/GPa)
#
#
# Indices 1 2 3 4 5 6 
#
# 1 0.014789 -0.009493 -0.012479 0.000000 0.007592 0.000000
# 2 -0.009493 0.082155 -0.005416 0.000000 0.000102 0.000000
# 3 -0.012479 -0.005416 0.024667 0.000000 -0.012671 0.000000
# 4 0.000000 0.000000 0.000000 0.057349 0.000000 -0.003252
# 5 0.007592 0.000102 -0.012671 0.000000 0.043279 0.000000
# 6 0.000000 0.000000 0.000000 -0.003252 0.000000 0.059325
#
#
# Mechanical properties :
#
#
# Convention : Reuss Voigt Hill
#
# Bulk Modulus (GPa) = 14.96263 54.82528 34.89396
# Shear Modulus (GPa) = 13.94239 21.67685 17.80962
#
# Velocity S-wave (km/s) = 2.75637 3.43691 3.11528
# Velocity P-wave (km/s) = 4.27594 6.75467 5.65284
#
# Compressibility (1/GPa) = 0.06683316
#
# Stress axis : x y z
#
# Youngs Moduli (GPa) = 67.61839 12.17217 40.54003
#
# Poissons Ratio (x) = 0.11555 0.50591
# Poissons Ratio (y) = 0.64191 0.21958
# Poissons Ratio (z) = 0.84382 0.06593
#
# Static dielectric constant tensor:
#      x y z
#    x 1.664310 0.000000 -0.007260 
#    y 0.000000 1.648000 0.000000 
#    z -0.007260 0.000000 1.626300 
# 
# From -- ./inp_files/37044.got.cif
#   From: 2010.05.17/outbox.cif.g08.bks.cpg/sg10_19_cif.got.tgz:37044.got - 2010.06.03 11:33:40.
