data_PCOD9146117
_publ_section_title
;
Structure prediction by ZEFSAII (Michael W. Deem and Ramdas Pophale) SiO2 
 PCOD9146117
Probable space group: P 2/M
;
_chemical_formula_sum "Si O2"
_cell_formula_units_Z 20
_cell_length_a 8.049800
_cell_length_b 25.682887
_cell_length_c 9.406544
_cell_angle_alpha 90.000000
_cell_angle_beta 147.228207
_cell_angle_gamma 90.000000
_cell_volume 1052.670615
_symmetry_space_group_name_H-M "P 2/M"
_symmetry_group_IT_number 10
_symmetry_cell_setting 'monoclinic'
loop_
_space_group_symop_operation_xyz
x,y,z
-x,y,-z
-x,-y,-z
x,-y,z
loop_
_atom_site_type_symbol
_atom_site_label
_atom_site_fract_x
_atom_site_fract_y
_atom_site_fract_z
Si Si1 0.937410 0.115482 0.621354
Si Si2 0.865746 0.781376 0.744799
Si Si3 0.702026 0.061245 0.883680
Si Si4 0.133500 0.332356 0.254921
Si Si5 0.133038 0.444061 0.255374
O O1 0.961139 0.171280 0.714119
O O2 0.592764 0.092406 0.384387
O O3 0.000000 0.119130 0.500000
O O4 0.182130 0.079031 0.878032
O O5 0.500000 0.782714 0.500000
O O6 0.954885 0.724137 0.748008
O O7 0.000000 0.787257 0.000000
O O8 0.630159 0.000000 0.828863
O O9 0.000000 0.070948 0.000000
O O10 0.500000 0.332264 0.500000
O O11 0.045274 0.388141 0.259887
O O12 0.000000 0.332603 0.000000
O O13 0.500000 0.444063 0.500000
O O14 0.044882 0.500000 0.259241
O O15 0.000000 0.444052 0.000000
#
# Coordination Sequence:
#
# PCOD9146117 Si02
#       5
#     4   4   4   4   4
#     4  12  24  37  56  82 109 134 165 208 255 296
#     4  10  19  33  52  70  95 131 169 204 240 292
#     4  11  24  42  62  81 103 134 169 202 243 301
#     4   8  14  23  37  58  81 113 155 193 232 280
#     4   8  12  18  29  48  77 109 141 183 235 282
#
# _framework density 18.999296000000001
#
# number of rings (size 3 to 8) (size 9 to 14) (size 15 to 20)
#    0.000    2.200    0.000    4.800    0.000    4.000 
#    0.000    0.000    0.000    0.000    0.000    0.000 
#    0.000    0.800    0.000    0.000    0.000  193.600 
#
# Total GULP energy -111434.657072 kJ/mol
# GULP energy per Si atom -5571.732854 kJ/mol
# Density = 1.895605 g / cm^3
# Si number density = 18.999296 Si / 1000 Ang^3
#
#
#
# Elastic Constant Matrix: (Units=GPa)
#
#
# Indices 1 2 3 4 5 6 
#
# 1 33.6547 36.9889 9.4683 0.0000 -9.9759 0.0000
# 2 36.9889 183.0186 22.2201 0.0000 -2.1981 0.0000
# 3 9.4683 22.2201 136.0086 0.0000 5.7577 0.0000
# 4 0.0000 0.0000 0.0000 28.4006 0.0000 0.1421
# 5 -9.9759 -2.1981 5.7577 0.0000 20.1041 0.0000
# 6 0.0000 0.0000 0.0000 0.1421 0.0000 -4.0843
#
#
#
# Elastic Compliance Matrix: (Units=1/GPa)
#
#
# Indices 1 2 3 4 5 6 
#
# 1 0.047199 -0.008918 -0.002813 0.000000 0.023251 0.000000
# 2 -0.008918 0.007275 -0.000419 0.000000 -0.003510 0.000000
# 3 -0.002813 -0.000419 0.007772 0.000000 -0.003668 0.000000
# 4 0.000000 0.000000 0.000000 0.035204 0.000000 0.001225
# 5 0.023251 -0.003510 -0.003668 0.000000 0.061945 0.000000
# 6 0.000000 0.000000 0.000000 0.001225 0.000000 -0.244796
#
#
# Mechanical properties :
#
#
# Convention : Reuss Voigt Hill
#
# Bulk Modulus (GPa) = 26.35389 54.44850 40.40120
# Shear Modulus (GPa) = -103.19683 27.81772 -37.68956
#
# Velocity S-wave (km/s) = -7.37794 3.83057 -4.45875
# Velocity P-wave (km/s) = 7.66013 6.94872 2.27958
#
# Compressibility (1/GPa) = 0.03794506
#
# Stress axis : x y z
#
# Youngs Moduli (GPa) = 21.18688 137.45527 128.66627
#
# Poissons Ratio (x) = 1.22587 0.36195
# Poissons Ratio (y) = 0.18895 0.05392
# Poissons Ratio (z) = 0.05960 0.05761
#
# Static dielectric constant tensor:
#      x y z
#    x 1.612260 0.000000 0.006990 
#    y 0.000000 1.778520 0.000000 
#    z 0.006990 0.000000 1.586020 
# 
# From -- ./inp_files/20798.got.cif
#   From: 2010.05.17/outbox.cif.g08.bks.cpg/sg10_11_cif.got.tgz:20798.got - 2010.06.03 11:33:40.
