data_PCOD9146954
_publ_section_title
;
Structure prediction by ZEFSAII (Michael W. Deem and Ramdas Pophale) SiO2 
 PCOD9146954
Probable space group: P 2/M
;
_chemical_formula_sum "Si O2"
_cell_formula_units_Z 20
_cell_length_a 12.080648
_cell_length_b 10.093304
_cell_length_c 9.176020
_cell_angle_alpha 90.000000
_cell_angle_beta 127.281159
_cell_angle_gamma 90.000000
_cell_volume 890.250853
_symmetry_space_group_name_H-M "P 2/M"
_symmetry_group_IT_number 10
_symmetry_cell_setting 'monoclinic'
loop_
_space_group_symop_operation_xyz
x,y,z
-x,y,-z
-x,-y,-z
x,-y,z
loop_
_atom_site_type_symbol
_atom_site_label
_atom_site_fract_x
_atom_site_fract_y
_atom_site_fract_z
Si Si1 0.037541 0.150789 0.260744
Si Si2 0.499600 0.000000 0.740614
Si Si3 0.734081 0.000000 0.698606
Si Si4 0.503349 0.707186 0.169040
Si Si5 0.196275 0.351532 0.939310
Si Si6 0.193523 0.646066 0.583757
O O1 0.162337 0.122519 0.246752
O O2 0.105737 0.235736 0.444955
O O3 0.911012 0.238139 0.102736
O O4 0.994088 0.000000 0.268758
O O5 0.485997 0.865803 0.818719
O O6 0.647999 0.000000 0.777115
O O7 0.379474 0.000000 0.521724
O O8 0.647906 0.655025 0.347853
O O9 0.500000 0.658893 0.000000
O O10 0.355151 0.669174 0.118278
O O11 0.151645 0.500000 0.943838
O O12 0.199381 0.342531 0.763790
O O13 0.136184 0.500000 0.501760
#
# Coordination Sequence:
#
# PCOD9146954 Si02
#       6
#     4   2   2   4   4   4
#     4  10  20  36  52  83 107 149 189 227 268 319
#     4  11  19  39  60  83 108 142 189 236 278 318
#     4   9  22  37  59  80 108 146 188 235 272 318
#     4  10  20  34  57  87 113 141 183 228 278 330
#     4  10  21  34  53  82 119 151 176 221 283 336
#     4  10  19  34  55  80 115 152 183 222 275 330
#
# _framework density 22.465575999999999
#
# number of rings (size 3 to 8) (size 9 to 14) (size 15 to 20)
#    0.600    1.400    2.000    2.100    1.400    5.600 
#    0.000    2.000    0.000    7.200    0.000    0.000 
#    0.000    0.000    0.000    0.000    0.000    0.000 
#
# Total GULP energy -111664.125229 kJ/mol
# GULP energy per Si atom -5583.206261 kJ/mol
# Density = 2.241444 g / cm^3
# Si number density = 22.465576 Si / 1000 Ang^3
#
#
#
# Elastic Constant Matrix: (Units=GPa)
#
#
# Indices 1 2 3 4 5 6 
#
# 1 94.4849 35.2585 29.2522 0.0000 39.6017 0.0000
# 2 35.2585 176.2872 38.4533 0.0000 21.1618 0.0000
# 3 29.2522 38.4533 61.2736 0.0000 22.3592 0.0000
# 4 0.0000 0.0000 0.0000 67.7611 0.0000 -61.1110
# 5 39.6017 21.1618 22.3592 0.0000 41.4510 0.0000
# 6 0.0000 0.0000 0.0000 -61.1110 0.0000 96.2208
#
#
#
# Elastic Compliance Matrix: (Units=1/GPa)
#
#
# Indices 1 2 3 4 5 6 
#
# 1 0.018307 -0.001301 -0.002220 0.000000 -0.015628 0.000000
# 2 -0.001301 0.006731 -0.003490 0.000000 -0.000311 0.000000
# 3 -0.002220 -0.003490 0.022593 0.000000 -0.008284 0.000000
# 4 0.000000 0.000000 0.000000 0.034544 0.000000 0.021939
# 5 -0.015628 -0.000311 -0.008284 0.000000 0.043683 0.000000
# 6 0.000000 0.000000 0.000000 0.021939 0.000000 0.024327
#
#
# Mechanical properties :
#
#
# Convention : Reuss Voigt Hill
#
# Bulk Modulus (GPa) = 29.75383 59.77487 44.76435
# Shear Modulus (GPa) = 28.50454 56.35869 42.43161
#
# Velocity S-wave (km/s) = 3.56590 5.01410 4.35068
# Velocity P-wave (km/s) = 5.49792 7.75800 6.72361
#
# Compressibility (1/GPa) = 0.03360912
#
# Stress axis : x y z
#
# Youngs Moduli (GPa) = 54.62406 148.55887 44.26096
#
# Poissons Ratio (x) = 0.19330 0.09828
# Poissons Ratio (y) = 0.07107 0.15446
# Poissons Ratio (z) = 0.12129 0.51843
#
# Static dielectric constant tensor:
#      x y z
#    x 1.855620 0.000000 0.035070 
#    y 0.000000 1.810630 0.000000 
#    z 0.035070 0.000000 1.841450 
# 
# From -- ./inp_files/48942.got.cif
#   From: 2010.05.17/outbox.cif.g08.bks.cpg/sg10_25_cif.got.tgz:48942.got - 2010.06.03 11:33:40.
