data_PCOD9146525
_publ_section_title
;
Structure prediction by ZEFSAII (Michael W. Deem and Ramdas Pophale) SiO2 
 PCOD9146525
Probable space group: P 2/M
;
_chemical_formula_sum "Si O2"
_cell_formula_units_Z 32
_cell_length_a 19.861140
_cell_length_b 10.863390
_cell_length_c 17.637955
_cell_angle_alpha 90.000000
_cell_angle_beta 153.078308
_cell_angle_gamma 90.000000
_cell_volume 1723.049015
_symmetry_space_group_name_H-M "P 2/M"
_symmetry_group_IT_number 10
_symmetry_cell_setting 'monoclinic'
loop_
_space_group_symop_operation_xyz
x,y,z
-x,y,-z
-x,-y,-z
x,-y,z
loop_
_atom_site_type_symbol
_atom_site_label
_atom_site_fract_x
_atom_site_fract_y
_atom_site_fract_z
Si Si1 0.187736 0.249897 0.867425
Si Si2 0.930612 0.146310 0.846134
Si Si3 0.422229 0.851957 0.496486
Si Si4 0.937268 0.858148 0.518936
Si Si5 0.958007 0.359760 0.748249
Si Si6 0.462099 0.144485 0.231154
Si Si7 0.565099 0.638970 0.989216
Si Si8 0.301098 0.280745 0.624097
O O1 0.070906 0.155879 0.713416
O O2 0.088658 0.343827 0.816942
O O3 0.309130 0.193201 0.044867
O O4 0.289614 0.302329 0.902064
O O5 0.753738 0.164142 0.677243
O O6 0.976189 0.249194 0.828847
O O7 0.958046 0.000000 0.852139
O O8 0.000000 0.163861 0.000000
O O9 0.500000 0.801468 0.500000
O O10 0.498938 0.799917 0.648263
O O11 0.445311 0.000000 0.519908
O O12 0.806113 0.773432 0.418923
O O13 0.000000 0.820184 0.500000
O O14 0.888947 0.000000 0.465373
O O15 0.959909 0.500000 0.780875
O O16 0.805003 0.339345 0.546664
O O17 0.602000 0.174429 0.318259
O O18 0.448457 0.000000 0.224253
O O19 0.606738 0.500000 0.050941
O O20 0.430122 0.639615 0.793090
O O21 0.500000 0.700662 0.000000
#
# Coordination Sequence:
#
# PCOD9146525 Si02
#       8
#     4   4   4   4   4   4   4   4
#     4  10  22  35  53  82 112 148 193 237 283 346
#     4  10  22  39  62  90 117 149 192 239 285 340
#     4   9  18  33  55  83 114 142 177 227 281 330
#     4  10  20  34  52  77 112 150 187 234 290 343
#     4  11  23  39  59  84 120 160 194 235 289 347
#     4  10  19  33  55  83 111 146 187 235 287 337
#     4  10  20  36  57  78 103 139 187 242 291 336
#     4  10  20  35  55  79 109 147 190 234 281 347
#
# _framework density 18.571729999999999
#
# number of rings (size 3 to 8) (size 9 to 14) (size 15 to 20)
#    0.000    2.000    1.250    2.250    1.750    2.750 
#    0.000    0.000    0.000   12.375    0.000    0.000 
#    0.000    0.000    0.000    0.000    0.000    0.000 
#
# Total GULP energy -178274.420739 kJ/mol
# GULP energy per Si atom -5571.075648 kJ/mol
# Density = 1.852946 g / cm^3
# Si number density = 18.571730 Si / 1000 Ang^3
#
#
#
# Elastic Constant Matrix: (Units=GPa)
#
#
# Indices 1 2 3 4 5 6 
#
# 1 72.4848 15.1036 8.1525 0.0000 2.0024 0.0000
# 2 15.1036 57.4811 5.3514 0.0000 1.9446 0.0000
# 3 8.1525 5.3514 72.0157 0.0000 -1.4209 0.0000
# 4 0.0000 0.0000 0.0000 3.8354 0.0000 -9.9736
# 5 2.0024 1.9446 -1.4209 0.0000 31.4676 0.0000
# 6 0.0000 0.0000 0.0000 -9.9736 0.0000 11.7102
#
#
#
# Elastic Compliance Matrix: (Units=1/GPa)
#
#
# Indices 1 2 3 4 5 6 
#
# 1 0.014751 -0.003719 -0.001409 0.000000 -0.000772 0.000000
# 2 -0.003719 0.018497 -0.000972 0.000000 -0.000950 0.000000
# 3 -0.001409 -0.000972 0.014133 0.000000 0.000788 0.000000
# 4 0.000000 0.000000 0.000000 -0.214630 0.000000 -0.182802
# 5 -0.000772 -0.000950 0.000788 0.000000 0.031922 0.000000
# 6 0.000000 0.000000 0.000000 -0.182802 0.000000 -0.070298
#
#
# Mechanical properties :
#
#
# Convention : Reuss Voigt Hill
#
# Bulk Modulus (GPa) = 28.42414 28.79962 28.61188
# Shear Modulus (GPa) = -27.51805 20.96090 -3.27858
#
# Velocity S-wave (km/s) = -3.85348 3.36318 -1.33011
# Velocity P-wave (km/s) = 2.11207 5.53373 3.61672
#
# Compressibility (1/GPa) = 0.03518137
#
# Stress axis : x y z
#
# Youngs Moduli (GPa) = 67.79377 54.06350 70.75567
#
# Poissons Ratio (x) = 0.20104 0.09968
# Poissons Ratio (y) = 0.25209 0.06879
# Poissons Ratio (z) = 0.09551 0.05256
#
# Static dielectric constant tensor:
#      x y z
#    x 1.684460 0.000000 -0.032820 
#    y 0.000000 1.647770 0.000000 
#    z -0.032820 0.000000 1.645710 
# 
# From -- ./inp_files/69155.got.cif
#   From: 2010.05.17/outbox.cif.g08.bks.cpg/sg10_35_cif.got.tgz:69155.got - 2010.06.03 11:33:40.
