data_PCOD9146884
_publ_section_title
;
Structure prediction by ZEFSAII (Michael W. Deem and Ramdas Pophale) SiO2 
 PCOD9146884
Probable space group: P 2/M
;
_chemical_formula_sum "Si O2"
_cell_formula_units_Z 24
_cell_length_a 21.344214
_cell_length_b 7.712962
_cell_length_c 29.192412
_cell_angle_alpha 90.000000
_cell_angle_beta 16.226517
_cell_angle_gamma 90.000000
_cell_volume 1342.928623
_symmetry_space_group_name_H-M "P 2/M"
_symmetry_group_IT_number 10
_symmetry_cell_setting 'monoclinic'
loop_
_space_group_symop_operation_xyz
x,y,z
-x,y,-z
-x,-y,-z
x,-y,z
loop_
_atom_site_type_symbol
_atom_site_label
_atom_site_fract_x
_atom_site_fract_y
_atom_site_fract_z
Si Si1 0.865954 0.000000 0.763406
Si Si2 0.224766 0.298396 0.521976
Si Si3 0.335446 0.710222 0.740749
Si Si4 0.474817 0.797473 0.253195
Si Si5 0.600148 0.000000 0.856392
Si Si6 0.261154 0.302082 0.308156
Si Si7 0.087502 0.290560 0.009888
O O1 0.777842 0.000000 0.773126
O O2 0.017663 0.168995 0.665606
O O3 0.646752 0.000000 0.948849
O O4 0.165962 0.500000 0.571000
O O5 0.407932 0.238217 0.431529
O O6 0.354027 0.286176 0.382244
O O7 0.337971 0.500000 0.737754
O O8 0.208934 0.758148 0.876742
O O9 0.170733 0.767243 0.815360
O O10 0.387531 0.715712 0.267782
O O11 0.743157 0.778367 0.070939
O O12 0.415873 0.000000 0.294750
O O13 0.639456 0.167688 0.797527
O O14 0.274335 0.500000 0.282394
O O15 0.000000 0.259643 0.500000
O O16 0.089064 0.500000 0.011984
#
# Coordination Sequence:
#
# PCOD9146884 Si02
#       7
#     2   4   4   4   2   4   4
#     4  11  24  40  58  80 103 143 177 220 268 307
#     4  10  19  34  54  80 112 145 182 218 259 315
#     4   7  12  24  43  67 104 145 175 211 254 305
#     4  11  19  30  50  81 115 143 175 219 269 320
#     4  11  25  42  58  79 112 135 175 223 265 315
#     4  11  23  39  61  84 107 140 175 214 268 324
#     4   8  13  24  41  68 106 144 176 207 256 318
#
# _framework density 17.871389000000001
#
# number of rings (size 3 to 8) (size 9 to 14) (size 15 to 20)
#    0.000    2.333    1.667    4.750    0.000    2.667 
#    1.500    3.333    0.000    0.000    0.000    2.333 
#    0.000    5.333    0.000    0.000    0.000    0.000 
#
# Total GULP energy -133771.183501 kJ/mol
# GULP energy per Si atom -5573.799313 kJ/mol
# Density = 1.783071 g / cm^3
# Si number density = 17.871389 Si / 1000 Ang^3
#
#
#
# Elastic Constant Matrix: (Units=GPa)
#
#
# Indices 1 2 3 4 5 6 
#
# 1 98.1055 21.9706 58.5134 0.0000 -33.4801 0.0000
# 2 21.9706 75.4115 38.1771 0.0000 -8.3312 0.0000
# 3 58.5134 38.1771 78.5201 0.0000 -33.0582 0.0000
# 4 0.0000 0.0000 0.0000 20.5770 0.0000 -23.6778
# 5 -33.4801 -8.3312 -33.0582 0.0000 32.6324 0.0000
# 6 0.0000 0.0000 0.0000 -23.6778 0.0000 16.7463
#
#
#
# Elastic Compliance Matrix: (Units=1/GPa)
#
#
# Indices 1 2 3 4 5 6 
#
# 1 0.019931 0.001048 -0.011579 0.000000 0.008987 0.000000
# 2 0.001048 0.018696 -0.012918 0.000000 -0.007239 0.000000
# 3 -0.011579 -0.012918 0.037063 0.000000 0.022369 0.000000
# 4 0.000000 0.000000 0.000000 -0.077511 0.000000 -0.109594
# 5 0.008987 -0.007239 0.022369 0.000000 0.060677 0.000000
# 6 0.000000 0.000000 0.000000 -0.109594 0.000000 -0.095242
#
#
# Mechanical properties :
#
#
# Convention : Reuss Voigt Hill
#
# Bulk Modulus (GPa) = 34.73348 54.37327 44.55337
# Shear Modulus (GPa) = 248.64907 22.88289 135.76598
#
# Velocity S-wave (km/s) = 11.80824 3.58218 8.72544
# Velocity P-wave (km/s) = 14.33144 6.89929 11.24701
#
# Compressibility (1/GPa) = 0.02879067
#
# Stress axis : x y z
#
# Youngs Moduli (GPa) = 50.17256 53.48862 26.98133
#
# Poissons Ratio (x) = -0.05604 0.31241
# Poissons Ratio (y) = -0.05257 0.34856
# Poissons Ratio (z) = 0.58093 0.69099
#
# Static dielectric constant tensor:
#      x y z
#    x 1.628500 0.000000 -0.049650 
#    y 0.000000 1.622950 0.000000 
#    z -0.049650 0.000000 1.605080 
# 
# From -- ./inp_files/90023.got.cif
#   From: 2010.05.17/outbox.cif.g08.bks.cpg/sg10_46_cif.got.tgz:90023.got - 2010.06.03 11:33:40.
