data_PCOD9146925
_publ_section_title
;
Structure prediction by ZEFSAII (Michael W. Deem and Ramdas Pophale) SiO2 
 PCOD9146925
Probable space group: P 2/M
;
_chemical_formula_sum "Si O2"
_cell_formula_units_Z 24
_cell_length_a 21.014412
_cell_length_b 7.714341
_cell_length_c 9.412633
_cell_angle_alpha 90.000000
_cell_angle_beta 48.438173
_cell_angle_gamma 90.000000
_cell_volume 1141.742780
_symmetry_space_group_name_H-M "P 2/M"
_symmetry_group_IT_number 10
_symmetry_cell_setting 'monoclinic'
loop_
_space_group_symop_operation_xyz
x,y,z
-x,y,-z
-x,-y,-z
x,-y,z
loop_
_atom_site_type_symbol
_atom_site_label
_atom_site_fract_x
_atom_site_fract_y
_atom_site_fract_z
Si Si1 0.586573 0.287903 0.951198
Si Si2 0.252438 0.290379 0.471420
Si Si3 0.091097 0.711456 0.535305
Si Si4 0.732075 0.197818 0.222531
Si Si5 0.100624 0.709779 0.193806
Si Si6 0.428049 0.698848 0.707654
O O1 0.590659 0.500000 0.945996
O O2 0.669140 0.229392 0.741761
O O3 0.500000 0.238788 0.000000
O O4 0.584386 0.225627 0.117030
O O5 0.251578 0.500000 0.467386
O O6 0.163350 0.229042 0.536272
O O7 0.264223 0.240189 0.616925
O O8 0.090658 0.500000 0.537621
O O9 0.112375 0.761751 0.341356
O O10 0.994360 0.766112 0.709999
O O11 0.660560 0.303221 0.244595
O O12 0.706223 0.000000 0.242664
O O13 0.823955 0.225615 0.016163
O O14 0.102464 0.500000 0.187139
O O15 0.500000 0.779881 0.500000
O O16 0.456593 0.500000 0.691422
#
# Coordination Sequence:
#
# PCOD9146925 Si02
#       6
#     4   4   4   4   4   4
#     4   9  17  31  56  88 112 131 167 219 269 320
#     4  10  19  34  55  78 107 143 183 225 268 316
#     4   8  16  32  59  87 105 131 179 236 281 320
#     4  12  25  37  50  76 114 151 184 218 263 319
#     4   9  17  35  60  83 106 135 178 229 280 328
#     4  10  20  37  63  88 108 136 176 222 272 322
#
# _framework density 21.020493999999999
#
# number of rings (size 3 to 8) (size 9 to 14) (size 15 to 20)
#    0.000    2.333    0.000    4.500    0.000    6.333 
#    0.000    9.167    0.000    2.000    0.000    0.000 
#    0.000    0.000    0.000    0.000    0.000    0.000 
#
# Total GULP energy -134048.435216 kJ/mol
# GULP energy per Si atom -5585.351467 kJ/mol
# Density = 2.097265 g / cm^3
# Si number density = 21.020494 Si / 1000 Ang^3
#
#
#
# Elastic Constant Matrix: (Units=GPa)
#
#
# Indices 1 2 3 4 5 6 
#
# 1 150.4645 -6.2347 89.0423 0.0000 10.3720 0.0000
# 2 -6.2347 38.0585 -1.5049 0.0000 0.4076 0.0000
# 3 89.0423 -1.5049 191.7349 0.0000 3.5516 0.0000
# 4 0.0000 0.0000 0.0000 384.9256 0.0000 -78.1553
# 5 10.3720 0.4076 3.5516 0.0000 29.6491 0.0000
# 6 0.0000 0.0000 0.0000 -78.1553 0.0000 -15.6817
#
#
#
# Elastic Compliance Matrix: (Units=1/GPa)
#
#
# Indices 1 2 3 4 5 6 
#
# 1 0.009461 0.001409 -0.004331 0.000000 -0.002810 0.000000
# 2 0.001409 0.026498 -0.000431 0.000000 -0.000805 0.000000
# 3 -0.004331 -0.000431 0.007211 0.000000 0.000657 0.000000
# 4 0.000000 0.000000 0.000000 0.001291 0.000000 -0.006435
# 5 -0.002810 -0.000805 0.000657 0.000000 0.034643 0.000000
# 6 0.000000 0.000000 0.000000 -0.006435 0.000000 -0.031695
#
#
# Mechanical properties :
#
#
# Convention : Reuss Voigt Hill
#
# Bulk Modulus (GPa) = 27.42475 60.31815 43.87145
# Shear Modulus (GPa) = 75.44920 99.70894 87.57907
#
# Velocity S-wave (km/s) = 5.99759 6.89472 6.46174
# Velocity P-wave (km/s) = 7.81258 9.59896 8.75147
#
# Compressibility (1/GPa) = 0.03646342
#
# Stress axis : x y z
#
# Youngs Moduli (GPa) = 105.69762 37.73913 138.67482
#
# Poissons Ratio (x) = -0.05316 0.60054
# Poissons Ratio (y) = -0.14890 0.05981
# Poissons Ratio (z) = 0.45773 0.01628
#
# Static dielectric constant tensor:
#      x y z
#    x 1.721420 0.000000 -0.005200 
#    y 0.000000 1.780740 0.000000 
#    z -0.005200 0.000000 1.725260 
# 
# From -- ./inp_files/27324.got.cif
#   From: 2010.05.17/outbox.cif.g08.bks.cpg/sg10_14_cif.got.tgz:27324.got - 2010.06.03 11:33:40.
