data_PCOD9146419
_publ_section_title
;
Structure prediction by ZEFSAII (Michael W. Deem and Ramdas Pophale) SiO2 
 PCOD9146419
Probable space group: P 2/M
;
_chemical_formula_sum "Si O2"
_cell_formula_units_Z 32
_cell_length_a 29.219877
_cell_length_b 7.719478
_cell_length_c 22.492402
_cell_angle_alpha 90.000000
_cell_angle_beta 161.069722
_cell_angle_gamma 90.000000
_cell_volume 1645.910452
_symmetry_space_group_name_H-M "P 2/M"
_symmetry_group_IT_number 10
_symmetry_cell_setting 'monoclinic'
loop_
_space_group_symop_operation_xyz
x,y,z
-x,y,-z
-x,-y,-z
x,-y,z
loop_
_atom_site_type_symbol
_atom_site_label
_atom_site_fract_x
_atom_site_fract_y
_atom_site_fract_z
Si Si1 0.907496 0.287786 0.942496
Si Si2 0.843334 0.297441 0.310178
Si Si3 0.664929 0.709103 0.844399
Si Si4 0.099757 0.205663 0.428875
Si Si5 0.343055 0.294865 0.812364
Si Si6 0.052780 0.708315 0.876239
Si Si7 0.182187 0.795576 0.850955
Si Si8 0.418039 0.288483 0.459184
O O1 0.908414 0.500000 0.943060
O O2 0.743904 0.232359 0.737328
O O3 0.000000 0.230463 0.000000
O O4 0.965234 0.232149 0.078160
O O5 0.861277 0.500000 0.347791
O O6 0.744957 0.220167 0.240206
O O7 0.783975 0.284818 0.170904
O O8 0.000000 0.218611 0.500000
O O9 0.666414 0.500000 0.844431
O O10 0.516924 0.767049 0.635277
O O11 0.701549 0.764396 0.955823
O O12 0.796129 0.769536 0.964415
O O13 0.245001 0.274582 0.634017
O O14 0.063286 0.244471 0.315588
O O15 0.966283 0.273594 0.304019
O O16 0.101622 0.000000 0.438066
O O17 0.359655 0.500000 0.844056
O O18 0.500000 0.220931 0.000000
O O19 0.059435 0.500000 0.886123
O O20 0.166324 0.000000 0.822644
O O21 0.500000 0.235619 0.500000
O O22 0.414912 0.500000 0.454574
#
# Coordination Sequence:
#
# PCOD9146419 Si02
#       8
#     4   4   4   4   4   4   4   4
#     4   9  16  26  43  71 101 125 157 206 256 295
#     4  10  19  33  55  79 101 128 164 205 250 299
#     4   9  16  27  47  71  96 129 168 208 249 298
#     4  10  20  33  51  75 103 135 171 208 247 299
#     4  10  21  37  56  79 105 132 165 208 253 298
#     4   9  16  28  48  71  96 129 167 206 250 299
#     4  10  20  32  49  75 106 135 167 210 253 296
#     4   9  14  24  43  68  94 121 158 200 244 293
#
# _framework density 19.442126999999999
#
# number of rings (size 3 to 8) (size 9 to 14) (size 15 to 20)
#    0.000    2.500    2.500    0.750    0.000    2.000 
#    0.000    1.250    0.000    6.000    0.000    0.000 
#    0.000    0.000    0.000    0.000    0.000    0.000 
#
# Total GULP energy -178493.612798 kJ/mol
# GULP energy per Si atom -5577.925400 kJ/mol
# Density = 1.939788 g / cm^3
# Si number density = 19.442127 Si / 1000 Ang^3
#
#
#
# Elastic Constant Matrix: (Units=GPa)
#
#
# Indices 1 2 3 4 5 6 
#
# 1 145.4842 0.8938 88.9417 0.0000 -2.6479 0.0000
# 2 0.8938 26.7899 -2.6759 0.0000 9.7401 0.0000
# 3 88.9417 -2.6759 150.5183 0.0000 -0.9535 0.0000
# 4 0.0000 0.0000 0.0000 -61.3381 0.0000 57.6114
# 5 -2.6479 9.7401 -0.9535 0.0000 25.5296 0.0000
# 6 0.0000 0.0000 0.0000 57.6114 0.0000 -51.0934
#
#
#
# Elastic Compliance Matrix: (Units=1/GPa)
#
#
# Indices 1 2 3 4 5 6 
#
# 1 0.010835 -0.001537 -0.006420 0.000000 0.001471 0.000000
# 2 -0.001537 0.043624 0.001578 0.000000 -0.016744 0.000000
# 3 -0.006420 0.001578 0.010460 0.000000 -0.000877 0.000000
# 4 0.000000 0.000000 0.000000 0.276027 0.000000 0.311239
# 5 0.001471 -0.016744 -0.000877 0.000000 0.045678 0.000000
# 6 0.000000 0.000000 0.000000 0.311239 0.000000 0.331373
#
#
# Mechanical properties :
#
#
# Convention : Reuss Voigt Hill
#
# Bulk Modulus (GPa) = 19.17200 55.23464 37.20332
# Shear Modulus (GPa) = 6.68322 -1.67153 2.50584
#
# Velocity S-wave (km/s) = 1.85606 -0.92823 1.13652
# Velocity P-wave (km/s) = 3.80470 5.22711 4.57156
#
# Compressibility (1/GPa) = 0.05215941
#
# Stress axis : x y z
#
# Youngs Moduli (GPa) = 92.29424 22.92303 95.60199
#
# Poissons Ratio (x) = 0.03524 0.61380
# Poissons Ratio (y) = 0.14190 -0.15085
# Poissons Ratio (z) = 0.59257 -0.03617
#
# Static dielectric constant tensor:
#      x y z
#    x 1.680350 0.000000 -0.002820 
#    y 0.000000 1.703370 0.000000 
#    z -0.002820 0.000000 1.682750 
# 
# From -- ./inp_files/52706.got.cif
#   From: 2010.05.17/outbox.cif.g08.bks.cpg/sg10_27_cif.got.tgz:52706.got - 2010.06.03 11:33:40.
