data_PCOD9146972
_publ_section_title
;
Structure prediction by ZEFSAII (Michael W. Deem and Ramdas Pophale) SiO2 
 PCOD9146972
Probable space group: P 2/M
;
_chemical_formula_sum "Si O2"
_cell_formula_units_Z 30
_cell_length_a 8.036456
_cell_length_b 17.645487
_cell_length_c 11.045191
_cell_angle_alpha 90.000000
_cell_angle_beta 109.634099
_cell_angle_gamma 90.000000
_cell_volume 1475.219750
_symmetry_space_group_name_H-M "P 2/M"
_symmetry_group_IT_number 10
_symmetry_cell_setting 'monoclinic'
loop_
_space_group_symop_operation_xyz
x,y,z
-x,y,-z
-x,-y,-z
x,-y,z
loop_
_atom_site_type_symbol
_atom_site_label
_atom_site_fract_x
_atom_site_fract_y
_atom_site_fract_z
Si Si1 0.754039 0.587213 0.799928
Si Si2 0.345112 0.087666 0.103716
Si Si3 0.907523 0.173933 0.779150
Si Si4 0.713264 0.852821 0.175157
Si Si5 0.405596 0.415533 0.861786
Si Si6 0.000000 0.299113 0.000000
Si Si7 0.782375 0.298014 0.321107
Si Si8 0.201705 0.297400 0.404027
O O1 0.822441 0.500000 0.813452
O O2 0.552298 0.582264 0.793507
O O3 0.766057 0.631254 0.675415
O O4 0.847976 0.641609 0.922412
O O5 0.205384 0.117319 0.166804
O O6 0.551835 0.097768 0.188778
O O7 0.313480 0.000000 0.065773
O O8 0.313559 0.137518 0.975438
O O9 0.996588 0.240433 0.885634
O O10 0.768189 0.219017 0.660439
O O11 0.075548 0.133322 0.756539
O O12 0.688463 0.770415 0.228247
O O13 0.352382 0.500000 0.886422
O O14 0.245580 0.371034 0.767849
O O15 0.500000 0.378537 0.000000
O O16 0.715751 0.304489 0.442807
O O17 0.991643 0.288203 0.373768
#
# Coordination Sequence:
#
# PCOD9146972 Si02
#       8
#     4   4   4   4   4   2   4   4
#     4  10  22  36  56  84 119 158 201 251 302 355
#     4  11  23  37  59  95 125 151 191 241 308 372
#     4  10  20  37  59  87 121 154 198 251 293 361
#     4  10  21  35  59  88 120 155 191 243 302 353
#     4  10  24  38  54  86 122 157 196 250 313 357
#     4  10  19  34  55  84 114 152 200 238 301 352
#     4  10  22  39  62  84 116 158 205 251 292 355
#     4   9  22  40  59  87 113 157 211 245 294 349
#
# _framework density 20.335953
#
# number of rings (size 3 to 8) (size 9 to 14) (size 15 to 20)
#    0.000    2.000    1.333    1.000   11.200    3.200 
#    0.000    2.667    0.000    2.400    0.000    9.333 
#    0.000    0.000    0.000    0.000    0.000    0.000 
#
# Total GULP energy -167052.360534 kJ/mol
# GULP energy per Si atom -5568.412018 kJ/mol
# Density = 2.028967 g / cm^3
# Si number density = 20.335953 Si / 1000 Ang^3
#
#
#
# Elastic Constant Matrix: (Units=GPa)
#
#
# Indices 1 2 3 4 5 6 
#
# 1 56.9612 25.3124 1.5517 0.0000 -4.6268 0.0000
# 2 25.3124 72.7954 39.1693 0.0000 6.0119 0.0000
# 3 1.5517 39.1693 90.1646 0.0000 -10.5344 0.0000
# 4 0.0000 0.0000 0.0000 -56.2346 0.0000 26.6666
# 5 -4.6268 6.0119 -10.5344 0.0000 21.1443 0.0000
# 6 0.0000 0.0000 0.0000 26.6666 0.0000 -12.1868
#
#
#
# Elastic Compliance Matrix: (Units=1/GPa)
#
#
# Indices 1 2 3 4 5 6 
#
# 1 0.024153 -0.013004 0.006672 0.000000 0.012307 0.000000
# 2 -0.013004 0.026942 -0.013493 0.000000 -0.017229 0.000000
# 3 0.006672 -0.013493 0.018536 0.000000 0.014531 0.000000
# 4 0.000000 0.000000 0.000000 0.472517 0.000000 1.033946
# 5 0.012307 -0.017229 0.014531 0.000000 0.062125 0.000000
# 6 0.000000 0.000000 0.000000 1.033946 0.000000 2.180387
#
#
# Mechanical properties :
#
#
# Convention : Reuss Voigt Hill
#
# Bulk Modulus (GPa) = 33.35789 39.10976 36.23382
# Shear Modulus (GPa) = 1.76410 0.80377 1.28393
#
# Velocity S-wave (km/s) = 0.93240 0.62937 0.79544
# Velocity P-wave (km/s) = 4.19502 4.44991 4.32434
#
# Compressibility (1/GPa) = 0.02997792
#
# Stress axis : x y z
#
# Youngs Moduli (GPa) = 41.40340 37.11629 53.95029
#
# Poissons Ratio (x) = 0.48268 -0.35993
# Poissons Ratio (y) = 0.53843 0.72797
# Poissons Ratio (z) = -0.27623 0.50083
#
# Static dielectric constant tensor:
#      x y z
#    x 1.780110 0.000000 -0.018340 
#    y 0.000000 1.727450 0.000000 
#    z -0.018340 0.000000 1.778200 
# 
# From -- ./inp_files/43020.got.cif
#   From: 2010.05.17/outbox.cif.g08.bks.cpg/sg10_22_cif.got.tgz:43020.got - 2010.06.03 11:33:40.
