data_PCOD9146659
_publ_section_title
;
Structure prediction by ZEFSAII (Michael W. Deem and Ramdas Pophale) SiO2 
 PCOD9146659
Probable space group: P 2/M
;
_chemical_formula_sum "Si O2"
_cell_formula_units_Z 16
_cell_length_a 7.094791
_cell_length_b 11.355697
_cell_length_c 11.157159
_cell_angle_alpha 90.000000
_cell_angle_beta 47.539011
_cell_angle_gamma 90.000000
_cell_volume 663.145278
_symmetry_space_group_name_H-M "P 2/M"
_symmetry_group_IT_number 10
_symmetry_cell_setting 'monoclinic'
loop_
_space_group_symop_operation_xyz
x,y,z
-x,y,-z
-x,-y,-z
x,-y,z
loop_
_atom_site_type_symbol
_atom_site_label
_atom_site_fract_x
_atom_site_fract_y
_atom_site_fract_z
Si Si1 0.190616 0.000000 0.307545
Si Si2 0.250820 0.000000 0.696795
Si Si3 0.895126 0.500000 0.178392
Si Si4 0.802245 0.500000 0.695974
Si Si5 0.691274 0.250212 0.806210
Si Si6 0.752158 0.749229 0.312403
O O1 0.339564 0.123483 0.243456
O O2 0.000000 0.000000 0.500000
O O3 0.008504 0.000000 0.269727
O O4 0.500000 0.000000 0.500000
O O5 0.244112 0.872390 0.761535
O O6 0.752219 0.623607 0.250454
O O7 0.080780 0.500000 0.217257
O O8 0.000000 0.500000 0.000000
O O9 0.659825 0.374247 0.751447
O O10 0.000000 0.500000 0.500000
O O11 0.989295 0.250238 0.718975
O O12 0.500000 0.252859 0.000000
O O13 0.500000 0.753160 0.500000
#
# Coordination Sequence:
#
# PCOD9146659 Si02
#       6
#     2   2   2   2   4   4
#     4  10  19  33  56  87 117 155 199 242 291 358
#     4   8  16  33  55  77 107 143 190 236 277 334
#     4  10  21  38  58  88 122 154 194 250 304 352
#     4  10  21  40  62  86 116 160 206 246 294 364
#     4  10  20  36  57  87 120 152 193 252 306 348
#     4   9  18  36  59  82 111 155 199 239 289 358
#
# _framework density 24.127444000000001
#
# number of rings (size 3 to 8) (size 9 to 14) (size 15 to 20)
#    0.000    2.500    0.000    1.875    0.000    0.000 
#    0.000   35.625    0.000    0.000    0.000    0.000 
#    0.000    0.000    0.000    0.000    0.000    0.000 
#
# Total GULP energy -89234.510848 kJ/mol
# GULP energy per Si atom -5577.156928 kJ/mol
# Density = 2.407253 g / cm^3
# Si number density = 24.127444 Si / 1000 Ang^3
#
#
#
# Elastic Constant Matrix: (Units=GPa)
#
#
# Indices 1 2 3 4 5 6 
#
# 1 148.3133 -0.6165 -21.0785 0.0000 -1.2945 0.0000
# 2 -0.6165 361.1226 41.3673 0.0000 15.8607 0.0000
# 3 -21.0785 41.3673 56.9841 0.0000 17.0950 0.0000
# 4 0.0000 0.0000 0.0000 -178.9449 0.0000 -62.8145
# 5 -1.2945 15.8607 17.0950 0.0000 24.4680 0.0000
# 6 0.0000 0.0000 0.0000 -62.8145 0.0000 -51.2522
#
#
#
# Elastic Compliance Matrix: (Units=1/GPa)
#
#
# Indices 1 2 3 4 5 6 
#
# 1 0.007213 -0.000301 0.003433 0.000000 -0.001822 0.000000
# 2 -0.000301 0.003038 -0.002178 0.000000 -0.000464 0.000000
# 3 0.003433 -0.002178 0.025205 0.000000 -0.016016 0.000000
# 4 0.000000 0.000000 0.000000 -0.009808 0.000000 0.012020
# 5 -0.001822 -0.000464 -0.016016 0.000000 0.052264 0.000000
# 6 0.000000 0.000000 0.000000 0.012020 0.000000 -0.034243
#
#
# Mechanical properties :
#
#
# Convention : Reuss Voigt Hill
#
# Bulk Modulus (GPa) = 26.76293 67.30719 47.03506
# Shear Modulus (GPa) = 92.22463 -4.69599 43.76432
#
# Velocity S-wave (km/s) = 6.18926 -1.39662 4.26359
# Velocity P-wave (km/s) = 7.88621 5.03551 6.61622
#
# Compressibility (1/GPa) = 0.03736512
#
# Stress axis : x y z
#
# Youngs Moduli (GPa) = 138.63342 329.11098 39.67531
#
# Poissons Ratio (x) = 0.09905 -0.13622
# Poissons Ratio (y) = 0.04172 0.08641
# Poissons Ratio (z) = -0.47597 0.71678
#
# Static dielectric constant tensor:
#      x y z
#    x 2.037520 0.000000 0.009340 
#    y 0.000000 2.063960 0.000000 
#    z 0.009340 0.000000 1.860490 
# 
# From -- ./inp_files/41517.got.cif
#   From: 2010.05.17/outbox.cif.g08.bks.cpg/sg10_21_cif.got.tgz:41517.got - 2010.06.03 11:33:40.
