data_PCOD9146651
_publ_section_title
;
Structure prediction by ZEFSAII (Michael W. Deem and Ramdas Pophale) SiO2 
 PCOD9146651
Probable space group: P 2/M
;
_chemical_formula_sum "Si O2"
_cell_formula_units_Z 24
_cell_length_a 12.321149
_cell_length_b 11.058322
_cell_length_c 18.651052
_cell_angle_alpha 90.000000
_cell_angle_beta 30.764533
_cell_angle_gamma 90.000000
_cell_volume 1299.866646
_symmetry_space_group_name_H-M "P 2/M"
_symmetry_group_IT_number 10
_symmetry_cell_setting 'monoclinic'
loop_
_space_group_symop_operation_xyz
x,y,z
-x,y,-z
-x,-y,-z
x,-y,z
loop_
_atom_site_type_symbol
_atom_site_label
_atom_site_fract_x
_atom_site_fract_y
_atom_site_fract_z
Si Si1 0.933465 0.234843 0.952795
Si Si2 0.356791 0.138490 0.644224
Si Si3 0.520256 0.140649 0.794607
Si Si4 0.940823 0.136973 0.618977
Si Si5 0.986420 0.500000 0.922151
Si Si6 0.649735 0.740591 0.579893
Si Si7 0.521830 0.500000 0.401200
O O1 0.139029 0.200669 0.789811
O O2 0.878997 0.373484 0.965158
O O3 0.729348 0.154780 0.051584
O O4 0.000000 0.224061 0.000000
O O5 0.500000 0.194423 0.500000
O O6 0.514094 0.151781 0.621442
O O7 0.310918 0.000000 0.652197
O O8 0.689135 0.160448 0.762732
O O9 0.578966 0.242808 0.702369
O O10 0.560297 0.000000 0.748954
O O11 0.000000 0.139780 0.500000
O O12 0.101360 0.228952 0.565490
O O13 0.981927 0.000000 0.621057
O O14 0.226882 0.500000 0.757201
O O15 0.000000 0.500000 0.000000
O O16 0.578754 0.617956 0.580954
O O17 0.500000 0.500000 0.500000
#
# Coordination Sequence:
#
# PCOD9146651 Si02
#       7
#     4   4   4   4   2   4   2
#     4  11  20  33  54  79 111 147 185 225 280 330
#     4  11  22  33  50  80 111 141 181 228 281 336
#     4  10  19  33  56  86 116 145 181 230 287 338
#     4   8  16  31  53  81 112 144 179 227 286 332
#     4  10  20  36  51  76 108 146 181 224 275 321
#     4  11  19  34  54  77 109 147 187 224 275 329
#     4  12  24  38  56  80 114 152 191 228 276 331
#
# _framework density 18.463432000000001
#
# number of rings (size 3 to 8) (size 9 to 14) (size 15 to 20)
#    0.000    1.667    3.333    4.500    0.000    0.667 
#    0.000    4.583    0.000    1.000    0.000    5.833 
#    0.000    0.000    0.000    0.000    0.000    0.000 
#
# Total GULP energy -133632.751844 kJ/mol
# GULP energy per Si atom -5568.031327 kJ/mol
# Density = 1.842141 g / cm^3
# Si number density = 18.463432 Si / 1000 Ang^3
#
#
#
# Elastic Constant Matrix: (Units=GPa)
#
#
# Indices 1 2 3 4 5 6 
#
# 1 33.8159 23.5894 28.3760 0.0000 -23.9204 0.0000
# 2 23.5894 93.1015 23.6935 0.0000 -4.5796 0.0000
# 3 28.3760 23.6935 106.8414 0.0000 -13.5317 0.0000
# 4 0.0000 0.0000 0.0000 1029.3245 0.0000 350.0519
# 5 -23.9204 -4.5796 -13.5317 0.0000 33.1732 0.0000
# 6 0.0000 0.0000 0.0000 350.0519 0.0000 150.6437
#
#
#
# Elastic Compliance Matrix: (Units=1/GPa)
#
#
# Indices 1 2 3 4 5 6 
#
# 1 0.098739 -0.018311 -0.014200 0.000000 0.062878 0.000000
# 2 -0.018311 0.014789 0.000179 0.000000 -0.011089 0.000000
# 3 -0.014200 0.000179 0.012440 0.000000 -0.005140 0.000000
# 4 0.000000 0.000000 0.000000 0.004632 0.000000 -0.010763
# 5 0.062878 -0.011089 -0.005140 0.000000 0.071857 0.000000
# 6 0.000000 0.000000 0.000000 -0.010763 0.000000 0.031647
#
#
# Mechanical properties :
#
#
# Convention : Reuss Voigt Hill
#
# Bulk Modulus (GPa) = 16.31181 42.78629 29.54905
# Shear Modulus (GPa) = 15.66401 253.16829 134.41615
#
# Velocity S-wave (km/s) = 2.91586 11.72248 8.54162
# Velocity P-wave (km/s) = 4.49334 14.36822 10.64509
#
# Compressibility (1/GPa) = 0.06130526
#
# Stress axis : x y z
#
# Youngs Moduli (GPa) = 10.12773 67.61570 80.38416
#
# Poissons Ratio (x) = 1.23812 1.14142
# Poissons Ratio (y) = 0.18545 -0.01439
# Poissons Ratio (z) = 0.14381 -0.01210
#
# Static dielectric constant tensor:
#      x y z
#    x 1.696150 0.000000 0.046450 
#    y 0.000000 1.656800 0.000000 
#    z 0.046450 0.000000 1.707550 
# 
# From -- ./inp_files/76635.got.cif
#   From: 2010.05.17/outbox.cif.g08.bks.cpg/sg10_39_cif.got.tgz:76635.got - 2010.06.03 11:33:40.
