data_PCOD9146774
_publ_section_title
;
Structure prediction by ZEFSAII (Michael W. Deem and Ramdas Pophale) SiO2 
 PCOD9146774
Probable space group: P 2/M
;
_chemical_formula_sum "Si O2"
_cell_formula_units_Z 24
_cell_length_a 14.386266
_cell_length_b 14.237504
_cell_length_c 14.025441
_cell_angle_alpha 90.000000
_cell_angle_beta 149.649239
_cell_angle_gamma 90.000000
_cell_volume 1451.580724
_symmetry_space_group_name_H-M "P 2/M"
_symmetry_group_IT_number 10
_symmetry_cell_setting 'monoclinic'
loop_
_space_group_symop_operation_xyz
x,y,z
-x,y,-z
-x,-y,-z
x,-y,z
loop_
_atom_site_type_symbol
_atom_site_label
_atom_site_fract_x
_atom_site_fract_y
_atom_site_fract_z
Si Si1 0.750943 0.000000 0.632722
Si Si2 0.078743 0.606346 0.462995
Si Si3 0.819789 0.253465 0.120739
Si Si4 0.653934 0.000000 0.771657
Si Si5 0.047527 0.152007 0.931053
Si Si6 0.423557 0.275620 0.830866
Si Si7 0.801552 0.891315 0.274043
O O1 0.882171 0.090189 0.739901
O O2 0.690840 0.000000 0.690531
O O3 0.564589 0.000000 0.406719
O O4 0.105087 0.500000 0.451258
O O5 0.267558 0.663453 0.642606
O O6 0.000000 0.602084 0.500000
O O7 0.930657 0.664904 0.272105
O O8 0.912850 0.238333 0.101513
O O9 0.828900 0.160792 0.196888
O O10 0.602262 0.270294 0.923377
O O11 0.766692 0.910577 0.908379
O O12 0.000000 0.169267 0.000000
O O13 0.334302 0.175494 0.784214
O O14 0.500000 0.316040 0.000000
O O15 0.000000 0.890089 0.500000
O O16 0.741658 0.000000 0.212451
#
# Coordination Sequence:
#
# PCOD9146774 Si02
#       7
#     2   4   4   2   4   4   4
#     4   8  15  31  52  67 101 137 179 220 263 286
#     4  11  21  37  57  79 105 130 165 217 273 319
#     4  11  21  34  54  77 104 139 179 207 260 312
#     4   8  15  31  48  73  97 137 179 224 255 292
#     4   9  19  33  49  75 107 137 179 223 252 297
#     4  10  19  35  51  77 107 134 170 214 250 310
#     4  10  19  34  50  71 109 147 175 203 242 301
#
# _framework density 16.533701000000001
#
# number of rings (size 3 to 8) (size 9 to 14) (size 15 to 20)
#    0.000    2.167    5.000    1.000    2.333    5.333 
#    0.000    0.000    0.000    0.500    0.000    1.167 
#    0.000    0.000    0.000    0.000    0.000    0.000 
#
# Total GULP energy -133702.513109 kJ/mol
# GULP energy per Si atom -5570.938046 kJ/mol
# Density = 1.649607 g / cm^3
# Si number density = 16.533701 Si / 1000 Ang^3
#
#
#
# Elastic Constant Matrix: (Units=GPa)
#
#
# Indices 1 2 3 4 5 6 
#
# 1 65.9401 36.8125 28.1746 0.0000 13.0333 0.0000
# 2 36.8125 107.5190 50.5272 0.0000 4.6818 0.0000
# 3 28.1746 50.5272 106.3289 0.0000 27.6024 0.0000
# 4 0.0000 0.0000 0.0000 24.7447 0.0000 -35.9946
# 5 13.0333 4.6818 27.6024 0.0000 21.3120 0.0000
# 6 0.0000 0.0000 0.0000 -35.9946 0.0000 54.5846
#
#
#
# Elastic Compliance Matrix: (Units=1/GPa)
#
#
# Indices 1 2 3 4 5 6 
#
# 1 0.021283 -0.007277 0.001179 0.000000 -0.012943 0.000000
# 2 -0.007277 0.015230 -0.008430 0.000000 0.012023 0.000000
# 3 0.001179 -0.008430 0.019291 0.000000 -0.023853 0.000000
# 4 0.000000 0.000000 0.000000 0.991177 0.000000 0.653610
# 5 -0.012943 0.012023 -0.023853 0.000000 0.083090 0.000000
# 6 0.000000 0.000000 0.000000 0.653610 0.000000 0.449329
#
#
# Mechanical properties :
#
#
# Convention : Reuss Voigt Hill
#
# Bulk Modulus (GPa) = 37.38842 56.75739 47.07291
# Shear Modulus (GPa) = 3.09143 31.07984 17.08564
#
# Velocity S-wave (km/s) = 1.36888 4.34035 3.21811
# Velocity P-wave (km/s) = 5.01607 7.71499 6.50700
#
# Compressibility (1/GPa) = 0.02674625
#
# Stress axis : x y z
#
# Youngs Moduli (GPa) = 46.98691 65.65817 51.83844
#
# Poissons Ratio (x) = 0.47780 -0.06110
# Poissons Ratio (y) = 0.34193 0.43701
# Poissons Ratio (z) = -0.05538 0.55352
#
# Static dielectric constant tensor:
#      x y z
#    x 1.560990 0.000000 0.007670 
#    y 0.000000 1.574720 0.000000 
#    z 0.007670 0.000000 1.553870 
# 
# From -- ./inp_files/67523.got.cif
#   From: 2010.05.17/outbox.cif.g08.bks.cpg/sg10_34_cif.got.tgz:67523.got - 2010.06.03 11:33:40.
