data_PCOD9146919
_publ_section_title
;
Structure prediction by ZEFSAII (Michael W. Deem and Ramdas Pophale) SiO2 
 PCOD9146919
Probable space group: P 2/M
;
_chemical_formula_sum "Si O2"
_cell_formula_units_Z 24
_cell_length_a 16.277269
_cell_length_b 8.593884
_cell_length_c 16.236898
_cell_angle_alpha 90.000000
_cell_angle_beta 143.080315
_cell_angle_gamma 90.000000
_cell_volume 1364.357119
_symmetry_space_group_name_H-M "P 2/M"
_symmetry_group_IT_number 10
_symmetry_cell_setting 'monoclinic'
loop_
_space_group_symop_operation_xyz
x,y,z
-x,y,-z
-x,-y,-z
x,-y,z
loop_
_atom_site_type_symbol
_atom_site_label
_atom_site_fract_x
_atom_site_fract_y
_atom_site_fract_z
Si Si1 0.476715 0.812690 0.238994
Si Si2 0.099569 0.811526 0.200674
Si Si3 0.763236 0.314744 0.525114
Si Si4 0.857908 0.186918 0.428605
Si Si5 0.196516 0.810952 0.098877
Si Si6 0.427970 0.313145 0.857192
O O1 0.609966 0.752560 0.394061
O O2 0.336338 0.758605 0.168850
O O3 0.492526 0.752022 0.158566
O O4 0.479552 0.000000 0.240428
O O5 0.165735 0.739697 0.334337
O O6 0.177731 0.765081 0.179184
O O7 0.104536 0.000000 0.210683
O O8 0.941166 0.765078 0.059912
O O9 0.757426 0.500000 0.515777
O O10 0.843598 0.250785 0.509714
O O11 0.726363 0.250304 0.274211
O O12 0.000000 0.232724 0.500000
O O13 0.850288 0.000000 0.425126
O O14 0.197581 0.000000 0.099460
O O15 0.425055 0.500000 0.849880
O O16 0.500000 0.266971 0.000000
#
# Coordination Sequence:
#
# PCOD9146919 Si02
#       6
#     4   4   4   4   4   4
#     4  10  19  34  55  78 102 133 175 217 256 299
#     4   9  17  35  57  77 103 134 172 215 257 303
#     4  11  22  35  51  76 108 140 171 206 255 308
#     4  10  21  37  57  79 101 131 174 218 256 298
#     4   8  17  33  56  80 101 131 172 218 261 300
#     4  10  21  36  53  76 107 140 170 205 256 311
#
# _framework density 17.590703000000001
#
# number of rings (size 3 to 8) (size 9 to 14) (size 15 to 20)
#    0.000    2.333    0.000    6.000    0.000    4.667 
#    0.000   13.333    0.000    0.000    0.000    0.000 
#    0.000    0.000    0.000    0.000    0.000    0.000 
#
# Total GULP energy -133936.572692 kJ/mol
# GULP energy per Si atom -5580.690529 kJ/mol
# Density = 1.755067 g / cm^3
# Si number density = 17.590703 Si / 1000 Ang^3
#
#
#
# Elastic Constant Matrix: (Units=GPa)
#
#
# Indices 1 2 3 4 5 6 
#
# 1 173.9917 45.9560 130.9219 0.0000 22.7558 0.0000
# 2 45.9560 58.4254 45.9034 0.0000 0.2541 0.0000
# 3 130.9219 45.9034 171.1559 0.0000 -17.6559 0.0000
# 4 0.0000 0.0000 0.0000 44.7231 0.0000 -44.7346
# 5 22.7558 0.2541 -17.6559 0.0000 27.9840 0.0000
# 6 0.0000 0.0000 0.0000 -44.7346 0.0000 30.2230
#
#
#
# Elastic Compliance Matrix: (Units=1/GPa)
#
#
# Indices 1 2 3 4 5 6 
#
# 1 0.043017 -0.003741 -0.037979 0.000000 -0.058908 0.000000
# 2 -0.003741 0.022468 -0.003071 0.000000 0.000901 0.000000
# 3 -0.037979 -0.003071 0.041614 0.000000 0.057167 0.000000
# 4 0.000000 0.000000 0.000000 -0.046531 0.000000 -0.068873
# 5 -0.058908 0.000901 0.057167 0.000000 0.119697 0.000000
# 6 0.000000 0.000000 0.000000 -0.068873 0.000000 -0.068855
#
#
# Mechanical properties :
#
#
# Convention : Reuss Voigt Hill
#
# Bulk Modulus (GPa) = 57.08596 94.34841 75.71718
# Shear Modulus (GPa) = 24.17434 32.63880 28.40657
#
# Velocity S-wave (km/s) = 3.71113 4.31217 4.02290
# Velocity P-wave (km/s) = 7.13345 8.86256 8.04460
#
# Compressibility (1/GPa) = 0.01751744
#
# Stress axis : x y z
#
# Youngs Moduli (GPa) = 23.24638 44.50867 24.03020
#
# Poissons Ratio (x) = 0.16652 0.91263
# Poissons Ratio (y) = 0.08697 0.07379
# Poissons Ratio (z) = 0.88287 0.13668
#
# Static dielectric constant tensor:
#      x y z
#    x 1.588300 0.000000 0.008780 
#    y 0.000000 1.592210 0.000000 
#    z 0.008780 0.000000 1.574570 
# 
# From -- ./inp_files/66322.got.cif
#   From: 2010.05.17/outbox.cif.g08.bks.cpg/sg10_34_cif.got.tgz:66322.got - 2010.06.03 11:33:40.
