data_PCOD9146339
_publ_section_title
;
Structure prediction by ZEFSAII (Michael W. Deem and Ramdas Pophale) SiO2 
 PCOD9146339
Probable space group: P 2/M
;
_chemical_formula_sum "Si O2"
_cell_formula_units_Z 32
_cell_length_a 14.339169
_cell_length_b 16.166695
_cell_length_c 11.109930
_cell_angle_alpha 90.000000
_cell_angle_beta 138.193644
_cell_angle_gamma 90.000000
_cell_volume 1716.847576
_symmetry_space_group_name_H-M "P 2/M"
_symmetry_group_IT_number 10
_symmetry_cell_setting 'monoclinic'
loop_
_space_group_symop_operation_xyz
x,y,z
-x,y,-z
-x,-y,-z
x,-y,z
loop_
_atom_site_type_symbol
_atom_site_label
_atom_site_fract_x
_atom_site_fract_y
_atom_site_fract_z
Si Si1 0.384094 0.249949 0.086237
Si Si2 0.797462 0.741890 0.864431
Si Si3 0.690475 0.320169 0.384925
Si Si4 0.345228 0.594505 0.403461
Si Si5 0.663569 0.594524 0.117256
Si Si6 0.083437 0.785014 0.258225
Si Si7 0.087489 0.096765 0.471727
Si Si8 0.338664 0.907069 0.878872
O O1 0.330759 0.238229 0.170789
O O2 0.552134 0.262496 0.235635
O O3 0.325033 0.337229 0.976888
O O4 0.327889 0.171555 0.956625
O O5 0.761007 0.655429 0.765635
O O6 0.829989 0.800994 0.781574
O O7 0.939112 0.742626 0.078589
O O8 0.649800 0.385025 0.450227
O O9 0.731234 0.365931 0.301478
O O10 0.819868 0.270629 0.563457
O O11 0.500000 0.609023 0.500000
O O12 0.307056 0.500000 0.346673
O O13 0.706352 0.500000 0.130323
O O14 0.500000 0.591275 0.000000
O O15 0.053208 0.863048 0.312197
O O16 0.246072 0.106644 0.670587
O O17 0.000000 0.132396 0.500000
O O18 0.056977 0.000000 0.434385
O O19 0.298422 0.000000 0.886953
O O20 0.500000 0.910679 0.000000
#
# Coordination Sequence:
#
# PCOD9146339 Si02
#       8
#     4   4   4   4   4   4   4   4
#     4  11  19  33  55  78 108 142 184 224 273 326
#     4  10  22  37  52  79 107 142 181 219 270 330
#     4  10  19  33  54  80 106 144 183 224 274 329
#     4  10  19  34  56  79 103 139 187 232 265 312
#     4   9  18  30  49  79 108 134 173 227 275 318
#     4  10  21  37  54  75 112 144 173 222 278 323
#     4  10  20  36  59  84 107 140 186 227 269 329
#     4  10  20  34  54  82 111 140 179 227 278 327
#
# _framework density 18.638812000000001
#
# number of rings (size 3 to 8) (size 9 to 14) (size 15 to 20)
#    0.000    2.000    1.250    3.750    0.000    1.000 
#    0.000    7.500    0.000    0.750    0.000    5.250 
#    0.000    0.000    0.000    0.000    0.000    0.000 
#
# Total GULP energy -178355.743708 kJ/mol
# GULP energy per Si atom -5573.616991 kJ/mol
# Density = 1.859639 g / cm^3
# Si number density = 18.638812 Si / 1000 Ang^3
#
#
#
# Elastic Constant Matrix: (Units=GPa)
#
#
# Indices 1 2 3 4 5 6 
#
# 1 57.9900 34.6539 6.8715 0.0000 -13.0016 0.0000
# 2 34.6539 97.4338 40.2875 0.0000 -14.2805 0.0000
# 3 6.8715 40.2875 90.9090 0.0000 -10.3198 0.0000
# 4 0.0000 0.0000 0.0000 15.6527 0.0000 -4.6683
# 5 -13.0016 -14.2805 -10.3198 0.0000 23.3556 0.0000
# 6 0.0000 0.0000 0.0000 -4.6683 0.0000 8.5350
#
#
#
# Elastic Compliance Matrix: (Units=1/GPa)
#
#
# Indices 1 2 3 4 5 6 
#
# 1 0.024048 -0.008383 0.002985 0.000000 0.009580 0.000000
# 2 -0.008383 0.016197 -0.006264 0.000000 0.002469 0.000000
# 3 0.002985 -0.006264 0.014007 0.000000 0.004021 0.000000
# 4 0.000000 0.000000 0.000000 0.076340 0.000000 0.041756
# 5 0.009580 0.002469 0.004021 0.000000 0.051435 0.000000
# 6 0.000000 0.000000 0.000000 0.041756 0.000000 0.140004
#
#
# Mechanical properties :
#
#
# Convention : Reuss Voigt Hill
#
# Bulk Modulus (GPa) = 32.33374 45.55096 38.94235
# Shear Modulus (GPa) = 14.05816 20.47663 17.26740
#
# Velocity S-wave (km/s) = 2.74932 3.31811 3.04702
# Velocity P-wave (km/s) = 5.24057 6.25873 5.77214
#
# Compressibility (1/GPa) = 0.03092745
#
# Stress axis : x y z
#
# Youngs Moduli (GPa) = 41.58295 61.74004 71.39410
#
# Poissons Ratio (x) = 0.51758 -0.21311
# Poissons Ratio (y) = 0.34860 0.44721
# Poissons Ratio (z) = -0.12412 0.38674
#
# Static dielectric constant tensor:
#      x y z
#    x 1.671320 0.000000 -0.000440 
#    y 0.000000 1.666290 0.000000 
#    z -0.000440 0.000000 1.660000 
# 
# From -- ./inp_files/51652.got.cif
#   From: 2010.05.17/outbox.cif.g08.bks.cpg/sg10_26_cif.got.tgz:51652.got - 2010.06.03 11:33:40.
