data_PCOD9146329
_publ_section_title
;
Structure prediction by ZEFSAII (Michael W. Deem and Ramdas Pophale) SiO2 
 PCOD9146329
Probable space group: P 2/M
;
_chemical_formula_sum "Si O2"
_cell_formula_units_Z 20
_cell_length_a 25.168121
_cell_length_b 7.419758
_cell_length_c 8.166454
_cell_angle_alpha 90.000000
_cell_angle_beta 35.850747
_cell_angle_gamma 90.000000
_cell_volume 893.164264
_symmetry_space_group_name_H-M "P 2/M"
_symmetry_group_IT_number 10
_symmetry_cell_setting 'monoclinic'
loop_
_space_group_symop_operation_xyz
x,y,z
-x,y,-z
-x,-y,-z
x,-y,z
loop_
_atom_site_type_symbol
_atom_site_label
_atom_site_fract_x
_atom_site_fract_y
_atom_site_fract_z
Si Si1 0.403988 0.281871 0.168909
Si Si2 0.598633 0.208696 0.206350
Si Si3 0.784643 0.279232 0.209852
Si Si4 0.205055 0.293733 0.174088
Si Si5 0.104797 0.279791 0.747556
O O1 0.404802 0.500000 0.165099
O O2 0.318268 0.224917 0.490862
O O3 0.500000 0.219718 0.000000
O O4 0.391466 0.222419 0.013566
O O5 0.500000 0.285031 0.500000
O O6 0.599453 0.000000 0.255080
O O7 0.686616 0.294686 0.068594
O O8 0.785344 0.500000 0.203981
O O9 0.847495 0.221942 0.203576
O O10 0.813349 0.214399 0.958702
O O11 0.172442 0.500000 0.248566
O O12 0.158779 0.215097 0.451856
O O13 0.109342 0.500000 0.737567
O O14 0.000000 0.228179 0.000000
#
# Coordination Sequence:
#
# PCOD9146329 Si02
#       5
#     4   4   4   4   4
#     4  10  19  33  54  79 108 141 181 224 264 317
#     4  11  23  36  51  76 111 145 181 223 268 321
#     4   9  17  30  50  80 110 137 177 219 264 321
#     4  10  19  34  57  79 107 144 179 222 268 315
#     4   9  17  30  51  82 115 140 171 223 276 318
#
# _framework density 22.392299999999999
#
# number of rings (size 3 to 8) (size 9 to 14) (size 15 to 20)
#    0.000    2.200    2.000    1.800    0.000    4.400 
#    0.000    5.000    0.000    0.600    0.000    1.400 
#    0.000    0.000    0.000    0.000    0.000    0.000 
#
# Total GULP energy -111780.693559 kJ/mol
# GULP energy per Si atom -5589.034678 kJ/mol
# Density = 2.234133 g / cm^3
# Si number density = 22.392300 Si / 1000 Ang^3
#
#
#
# Elastic Constant Matrix: (Units=GPa)
#
#
# Indices 1 2 3 4 5 6 
#
# 1 196.0573 -0.2418 100.9448 0.0000 19.9123 0.0000
# 2 -0.2418 73.1433 1.0739 0.0000 -0.6291 0.0000
# 3 100.9448 1.0739 136.7803 0.0000 9.3388 0.0000
# 4 0.0000 0.0000 0.0000 1.7892 0.0000 -5.9874
# 5 19.9123 -0.6291 9.3388 0.0000 44.6115 0.0000
# 6 0.0000 0.0000 0.0000 -5.9874 0.0000 -46.9761
#
#
#
# Elastic Compliance Matrix: (Units=1/GPa)
#
#
# Indices 1 2 3 4 5 6 
#
# 1 0.008497 0.000096 -0.006100 0.000000 -0.002514 0.000000
# 2 0.000096 0.013677 -0.000191 0.000000 0.000190 0.000000
# 3 -0.006100 -0.000191 0.011797 0.000000 0.000250 0.000000
# 4 0.000000 0.000000 0.000000 0.391804 0.000000 -0.049938
# 5 -0.002514 0.000190 0.000250 0.000000 0.023488 0.000000
# 6 0.000000 0.000000 0.000000 -0.049938 0.000000 -0.014923
#
#
# Mechanical properties :
#
#
# Convention : Reuss Voigt Hill
#
# Bulk Modulus (GPa) = 46.33823 67.72609 57.03216
# Shear Modulus (GPa) = 11.01508 20.16518 15.59013
#
# Velocity S-wave (km/s) = 2.22032 3.00416 2.64147
# Velocity P-wave (km/s) = 5.22607 6.50724 5.90153
#
# Compressibility (1/GPa) = 0.02158045
#
# Stress axis : x y z
#
# Youngs Moduli (GPa) = 117.69476 73.11783 84.76755
#
# Poissons Ratio (x) = -0.00702 0.51705
# Poissons Ratio (y) = -0.01130 0.01621
# Poissons Ratio (z) = 0.71789 0.01398
#
# Static dielectric constant tensor:
#      x y z
#    x 1.777920 0.000000 0.014070 
#    y 0.000000 1.834870 0.000000 
#    z 0.014070 0.000000 1.796930 
# 
# From -- ./inp_files/26909.got.cif
#   From: 2010.05.17/outbox.cif.g08.bks.cpg/sg10_14_cif.got.tgz:26909.got - 2010.06.03 11:33:40.
