data_PCOD9146821
_publ_section_title
;
Structure prediction by ZEFSAII (Michael W. Deem and Ramdas Pophale) SiO2 
 PCOD9146821
Probable space group: P 2/M
;
_chemical_formula_sum "Si O2"
_cell_formula_units_Z 32
_cell_length_a 8.201434
_cell_length_b 13.012499
_cell_length_c 20.670582
_cell_angle_alpha 90.000000
_cell_angle_beta 128.754783
_cell_angle_gamma 90.000000
_cell_volume 1720.300787
_symmetry_space_group_name_H-M "P 2/M"
_symmetry_group_IT_number 10
_symmetry_cell_setting 'monoclinic'
loop_
_space_group_symop_operation_xyz
x,y,z
-x,y,-z
-x,-y,-z
x,-y,z
loop_
_atom_site_type_symbol
_atom_site_label
_atom_site_fract_x
_atom_site_fract_y
_atom_site_fract_z
Si Si1 0.253561 0.674316 0.695598
Si Si2 0.705799 0.383200 0.813390
Si Si3 0.955906 0.120691 0.192118
Si Si4 0.800883 0.617918 0.586308
Si Si5 0.873622 0.815336 0.904987
Si Si6 0.326849 0.744847 0.327892
Si Si7 0.387490 0.880516 0.791788
Si Si8 0.225596 0.251871 0.550765
O O1 0.462080 0.620972 0.772993
O O2 0.281751 0.795072 0.719455
O O3 0.235091 0.667919 0.613155
O O4 0.041577 0.627661 0.669366
O O5 0.777887 0.500000 0.826946
O O6 0.838518 0.307631 0.891360
O O7 0.699194 0.324359 0.742769
O O8 0.726756 0.138970 0.166974
O O9 0.002737 0.151926 0.129420
O O10 0.129500 0.180025 0.277689
O O11 0.994080 0.000000 0.206017
O O12 0.749920 0.500000 0.560913
O O13 0.671324 0.668472 0.611421
O O14 0.780978 0.687870 0.518117
O O15 0.637348 0.861177 0.849686
O O16 0.000000 0.844930 0.000000
O O17 0.550361 0.802960 0.385418
O O18 0.347963 0.000000 0.765183
O O19 0.000000 0.196500 0.500000
#
# Coordination Sequence:
#
# PCOD9146821 Si02
#       8
#     4   4   4   4   4   4   4   4
#     4   9  18  34  51  75 107 139 182 231 269 318
#     4   9  18  33  54  77 105 148 190 220 265 324
#     4  10  21  38  62  85 107 144 185 227 279 329
#     4  11  20  30  50  77 106 140 179 227 281 325
#     4  10  22  37  56  87 121 144 175 224 272 329
#     4  10  19  34  53  76 108 138 184 236 271 324
#     4  10  20  37  62  85 109 145 185 225 276 330
#     4   9  20  32  47  71 106 142 174 220 280 324
#
# _framework density 18.601396999999999
#
# number of rings (size 3 to 8) (size 9 to 14) (size 15 to 20)
#    0.000    2.250    1.250    2.250    0.000    7.000 
#    0.000    1.250    0.000    9.000    0.000    3.500 
#    0.000    0.000    0.000    0.000    0.000    0.000 
#
# Total GULP energy -178152.875392 kJ/mol
# GULP energy per Si atom -5567.277356 kJ/mol
# Density = 1.855906 g / cm^3
# Si number density = 18.601397 Si / 1000 Ang^3
#
#
#
# Elastic Constant Matrix: (Units=GPa)
#
#
# Indices 1 2 3 4 5 6 
#
# 1 88.6143 8.5546 18.9844 0.0000 -4.1096 0.0000
# 2 8.5546 78.4996 9.1136 0.0000 -2.3078 0.0000
# 3 18.9844 9.1136 44.8584 0.0000 -6.5142 0.0000
# 4 0.0000 0.0000 0.0000 4.3838 0.0000 -0.2859
# 5 -4.1096 -2.3078 -6.5142 0.0000 18.5022 0.0000
# 6 0.0000 0.0000 0.0000 -0.2859 0.0000 11.9993
#
#
#
# Elastic Compliance Matrix: (Units=1/GPa)
#
#
# Indices 1 2 3 4 5 6 
#
# 1 0.012469 -0.000752 -0.004991 0.000000 0.000919 0.000000
# 2 -0.000752 0.013101 -0.002245 0.000000 0.000677 0.000000
# 3 -0.004991 -0.002245 0.025988 0.000000 0.007761 0.000000
# 4 0.000000 0.000000 0.000000 0.228466 0.000000 0.005444
# 5 0.000919 0.000677 0.007761 0.000000 0.057069 0.000000
# 6 0.000000 0.000000 0.000000 0.005444 0.000000 0.083468
#
#
# Mechanical properties :
#
#
# Convention : Reuss Voigt Hill
#
# Bulk Modulus (GPa) = 28.10425 31.69751 29.90088
# Shear Modulus (GPa) = 11.15079 18.66502 14.90791
#
# Velocity S-wave (km/s) = 2.45104 3.17112 2.83404
# Velocity P-wave (km/s) = 4.81161 5.52136 5.17866
#
# Compressibility (1/GPa) = 0.03558181
#
# Stress axis : x y z
#
# Youngs Moduli (GPa) = 80.19676 76.32742 38.47973
#
# Poissons Ratio (x) = 0.05743 0.19205
# Poissons Ratio (y) = 0.06034 0.08639
# Poissons Ratio (z) = 0.40025 0.17136
#
# Static dielectric constant tensor:
#      x y z
#    x 1.722930 0.000000 0.019880 
#    y 0.000000 1.627100 0.000000 
#    z 0.019880 0.000000 1.636820 
# 
# From -- ./inp_files/34885.got.cif
#   From: 2010.05.17/outbox.cif.g08.bks.cpg/sg10_18_cif.got.tgz:34885.got - 2010.06.03 11:33:40.
