data_PCOD9146698
_publ_section_title
;
Structure prediction by ZEFSAII (Michael W. Deem and Ramdas Pophale) SiO2 
 PCOD9146698
Probable space group: P 2/M
;
_chemical_formula_sum "Si O2"
_cell_formula_units_Z 32
_cell_length_a 12.591280
_cell_length_b 8.480084
_cell_length_c 16.611329
_cell_angle_alpha 90.000000
_cell_angle_beta 88.702728
_cell_angle_gamma 90.000000
_cell_volume 1773.221902
_symmetry_space_group_name_H-M "P 2/M"
_symmetry_group_IT_number 10
_symmetry_cell_setting 'monoclinic'
loop_
_space_group_symop_operation_xyz
x,y,z
-x,y,-z
-x,-y,-z
x,-y,z
loop_
_atom_site_type_symbol
_atom_site_label
_atom_site_fract_x
_atom_site_fract_y
_atom_site_fract_z
Si Si1 0.634237 0.187918 0.213527
Si Si2 0.853077 0.809165 0.291495
Si Si3 0.736691 0.811780 0.884434
Si Si4 0.116954 0.310930 0.528511
Si Si5 0.762815 0.810828 0.624743
Si Si6 0.080140 0.808519 0.233175
Si Si7 0.408073 0.313762 0.256962
Si Si8 0.614168 0.687429 0.035026
O O1 0.743990 0.242713 0.251983
O O2 0.530886 0.267527 0.254079
O O3 0.633745 0.228583 0.119101
O O4 0.625289 0.000000 0.223832
O O5 0.861871 0.753314 0.383034
O O6 0.959305 0.754211 0.242967
O O7 0.854267 0.000000 0.290804
O O8 0.848907 0.758321 0.844086
O O9 0.649767 0.772209 0.817084
O O10 0.738928 0.000000 0.896282
O O11 0.701660 0.729536 0.966892
O O12 0.118486 0.500000 0.529784
O O13 0.202108 0.249313 0.462607
O O14 0.000000 0.258733 0.500000
O O15 0.854548 0.762974 0.687576
O O16 0.654733 0.740166 0.662483
O O17 0.756008 0.000000 0.625298
O O18 0.079820 0.000000 0.231514
O O19 0.396127 0.500000 0.245432
O O20 0.610143 0.500000 0.048810
O O21 0.500000 0.736175 0.000000
#
# Coordination Sequence:
#
# PCOD9146698 Si02
#       8
#     4   4   4   4   4   4   4   4
#     4  11  23  38  59  84 112 150 194 235 279 339
#     4  10  21  39  60  83 113 152 193 232 280 338
#     4  10  19  33  57  86 112 143 188 236 279 331
#     4  11  22  35  55  88 121 150 188 233 283 336
#     4  10  19  34  59  85 112 147 191 237 278 327
#     4   8  16  32  55  83 111 142 182 229 280 325
#     4  11  21  35  55  82 118 150 182 230 290 343
#     4  11  22  36  56  83 113 149 189 234 288 338
#
# _framework density 18.046247999999999
#
# number of rings (size 3 to 8) (size 9 to 14) (size 15 to 20)
#    0.000    1.750    2.500    3.750    0.000    2.000 
#    0.000    1.875    0.000    7.500    0.000    0.000 
#    0.000    0.000    0.000    0.000    0.000    0.000 
#
# Total GULP energy -178693.354847 kJ/mol
# GULP energy per Si atom -5584.167339 kJ/mol
# Density = 1.800517 g / cm^3
# Si number density = 18.046248 Si / 1000 Ang^3
#
#
#
# Elastic Constant Matrix: (Units=GPa)
#
#
# Indices 1 2 3 4 5 6 
#
# 1 137.7434 7.1170 63.9341 0.0000 -16.3584 0.0000
# 2 7.1170 17.4929 0.6091 0.0000 1.9973 0.0000
# 3 63.9341 0.6091 87.4243 0.0000 -12.7056 0.0000
# 4 0.0000 0.0000 0.0000 -94.7579 0.0000 32.7105
# 5 -16.3584 1.9973 -12.7056 0.0000 32.5052 0.0000
# 6 0.0000 0.0000 0.0000 32.7105 0.0000 1.3428
#
#
#
# Elastic Compliance Matrix: (Units=1/GPa)
#
#
# Indices 1 2 3 4 5 6 
#
# 1 0.011573 -0.004772 -0.007995 0.000000 0.002992 0.000000
# 2 -0.004772 0.059615 0.002325 0.000000 -0.005156 0.000000
# 3 -0.007995 0.002325 0.017667 0.000000 0.002739 0.000000
# 4 0.000000 0.000000 0.000000 -0.001122 0.000000 0.027322
# 5 0.002992 -0.005156 0.002739 0.000000 0.033658 0.000000
# 6 0.000000 0.000000 0.000000 0.027322 0.000000 0.079148
#
#
# Mechanical properties :
#
#
# Convention : Reuss Voigt Hill
#
# Bulk Modulus (GPa) = 14.71209 42.88678 28.79944
# Shear Modulus (GPa) = 20.48507 -0.78193 9.85157
#
# Velocity S-wave (km/s) = 3.37284 -0.65897 2.33900
# Velocity P-wave (km/s) = 4.83097 4.82053 4.82575
#
# Compressibility (1/GPa) = 0.06797129
#
# Stress axis : x y z
#
# Youngs Moduli (GPa) = 86.40997 16.77430 56.60175
#
# Poissons Ratio (x) = 0.08004 0.45254
# Poissons Ratio (y) = 0.41232 -0.13159
# Poissons Ratio (z) = 0.69086 -0.03900
#
# Static dielectric constant tensor:
#      x y z
#    x 1.628240 0.000000 -0.015310 
#    y 0.000000 1.605150 0.000000 
#    z -0.015310 0.000000 1.588550 
# 
# From -- ./inp_files/55379.got.cif
#   From: 2010.05.17/outbox.cif.g08.bks.cpg/sg10_28_cif.got.tgz:55379.got - 2010.06.03 11:33:40.
