data_PCOD9146330
_publ_section_title
;
Structure prediction by ZEFSAII (Michael W. Deem and Ramdas Pophale) SiO2 
 PCOD9146330
Probable space group: P 2/M
;
_chemical_formula_sum "Si O2"
_cell_formula_units_Z 32
_cell_length_a 14.965409
_cell_length_b 8.733800
_cell_length_c 25.822266
_cell_angle_alpha 90.000000
_cell_angle_beta 148.709796
_cell_angle_gamma 90.000000
_cell_volume 1752.934002
_symmetry_space_group_name_H-M "P 2/M"
_symmetry_group_IT_number 10
_symmetry_cell_setting 'monoclinic'
loop_
_space_group_symop_operation_xyz
x,y,z
-x,y,-z
-x,-y,-z
x,-y,z
loop_
_atom_site_type_symbol
_atom_site_label
_atom_site_fract_x
_atom_site_fract_y
_atom_site_fract_z
Si Si1 0.886938 0.818034 0.327249
Si Si2 0.322808 0.818601 0.381013
Si Si3 0.009626 0.317139 0.731549
Si Si4 0.199514 0.681044 0.538444
Si Si5 0.511511 0.818138 0.642726
Si Si6 0.504191 0.317155 0.146397
Si Si7 0.345203 0.685991 0.960941
Si Si8 0.489913 0.820355 0.745341
O O1 0.961074 0.766500 0.308325
O O2 0.694103 0.753904 0.235149
O O3 0.015051 0.747625 0.433369
O O4 0.886053 0.000000 0.331421
O O5 0.500000 0.798685 0.500000
O O6 0.366177 0.773113 0.343411
O O7 0.170246 0.726436 0.331723
O O8 0.280163 0.000000 0.360898
O O9 0.021527 0.500000 0.728743
O O10 0.163929 0.268871 0.846642
O O11 0.192384 0.500000 0.541515
O O12 0.331730 0.726547 0.557080
O O13 0.299181 0.758006 0.636050
O O14 0.585536 0.797678 0.737529
O O15 0.471331 0.000000 0.616839
O O16 0.519824 0.500000 0.151903
O O17 0.437800 0.266471 0.169646
O O18 0.388115 0.264935 0.040553
O O19 0.347349 0.500000 0.961997
O O20 0.500000 0.736755 0.000000
O O21 0.480461 0.000000 0.751573
#
# Coordination Sequence:
#
# PCOD9146330 Si02
#       8
#     4   4   4   4   4   4   4   4
#     4  12  23  35  51  77 114 151 185 230 284 339
#     4  10  20  35  57  84 116 153 187 226 284 345
#     4  11  22  37  58  86 115 149 191 236 282 337
#     4  10  19  33  54  79 108 144 188 232 275 331
#     4   8  17  34  53  75 111 149 178 221 280 333
#     4  11  21  36  59  82 105 143 192 235 281 337
#     4   9  18  37  60  81 112 148 183 234 295 337
#     4   9  19  36  54  79 112 149 186 228 283 338
#
# _framework density 18.255108
#
# number of rings (size 3 to 8) (size 9 to 14) (size 15 to 20)
#    0.750    1.250    1.250    3.750    0.000    2.250 
#    0.000    5.625    0.000    0.750    0.000    5.250 
#    0.000    0.000    0.000    0.000    0.000    0.000 
#
# Total GULP energy -178463.921264 kJ/mol
# GULP energy per Si atom -5576.997539 kJ/mol
# Density = 1.821356 g / cm^3
# Si number density = 18.255108 Si / 1000 Ang^3
#
#
#
# Elastic Constant Matrix: (Units=GPa)
#
#
# Indices 1 2 3 4 5 6 
#
# 1 68.2700 0.1515 1.8619 0.0000 -11.1051 0.0000
# 2 0.1515 44.9790 3.5759 0.0000 -0.4651 0.0000
# 3 1.8619 3.5759 50.3127 0.0000 -16.3323 0.0000
# 4 0.0000 0.0000 0.0000 41.6989 0.0000 -6.3127
# 5 -11.1051 -0.4651 -16.3323 0.0000 30.9140 0.0000
# 6 0.0000 0.0000 0.0000 -6.3127 0.0000 25.9361
#
#
#
# Elastic Compliance Matrix: (Units=1/GPa)
#
#
# Indices 1 2 3 4 5 6 
#
# 1 0.015651 -0.000107 0.001512 0.000000 0.006420 0.000000
# 2 -0.000107 0.022369 -0.001797 0.000000 -0.000651 0.000000
# 3 0.001512 -0.001797 0.024279 0.000000 0.013343 0.000000
# 4 0.000000 0.000000 0.000000 0.024899 0.000000 0.006060
# 5 0.006420 -0.000651 0.013343 0.000000 0.041693 0.000000
# 6 0.000000 0.000000 0.000000 0.006060 0.000000 0.040031
#
#
# Mechanical properties :
#
#
# Convention : Reuss Voigt Hill
#
# Bulk Modulus (GPa) = 16.25602 19.41561 17.83581
# Shear Modulus (GPa) = 26.28661 30.24130 28.26396
#
# Velocity S-wave (km/s) = 3.79880 4.07454 3.93908
# Velocity P-wave (km/s) = 5.30711 5.72666 5.52087
#
# Compressibility (1/GPa) = 0.06151566
#
# Stress axis : x y z
#
# Youngs Moduli (GPa) = 63.89390 44.70452 41.18814
#
# Poissons Ratio (x) = 0.00476 -0.06229
# Poissons Ratio (y) = 0.00681 0.07403
# Poissons Ratio (z) = -0.09663 0.08035
#
# Static dielectric constant tensor:
#      x y z
#    x 1.665330 0.000000 -0.025910 
#    y 0.000000 1.615140 0.000000 
#    z -0.025910 0.000000 1.610890 
# 
# From -- ./inp_files/93133.got.cif
#   From: 2010.05.17/outbox.cif.g08.bks.cpg/sg10_47_cif.got.tgz:93133.got - 2010.06.03 11:33:40.
