data_PCOD9146053
_publ_section_title
;
Structure prediction by ZEFSAII (Michael W. Deem and Ramdas Pophale) SiO2 
 PCOD9146053
Probable space group: P 2/M
;
_chemical_formula_sum "Si O2"
_cell_formula_units_Z 26
_cell_length_a 16.760829
_cell_length_b 7.666101
_cell_length_c 25.126690
_cell_angle_alpha 90.000000
_cell_angle_beta 18.159285
_cell_angle_gamma 90.000000
_cell_volume 1006.204077
_symmetry_space_group_name_H-M "P 2/M"
_symmetry_group_IT_number 10
_symmetry_cell_setting 'monoclinic'
loop_
_space_group_symop_operation_xyz
x,y,z
-x,y,-z
-x,-y,-z
x,-y,z
loop_
_atom_site_type_symbol
_atom_site_label
_atom_site_fract_x
_atom_site_fract_y
_atom_site_fract_z
Si Si1 0.121573 0.000000 0.087209
Si Si2 0.229004 0.701585 0.950076
Si Si3 0.263736 0.707417 0.309914
Si Si4 0.088264 0.791893 0.307288
Si Si5 0.144665 0.689433 0.155353
Si Si6 0.499963 0.795755 0.323104
Si Si7 0.529369 0.696563 0.539094
O O1 0.043718 0.843150 0.093484
O O2 0.198379 0.848339 0.082672
O O3 0.176924 0.500000 0.996594
O O4 0.497354 0.769661 0.806987
O O5 0.292974 0.711748 0.847182
O O6 0.260853 0.500000 0.319611
O O7 0.252597 0.745197 0.254560
O O8 0.000000 0.783097 0.500000
O O9 0.203364 0.719446 0.179933
O O10 0.792168 0.728150 0.502158
O O11 0.074270 0.000000 0.310506
O O12 0.243390 0.500000 0.074939
O O13 0.835484 0.684638 0.350658
O O14 0.552464 0.770429 0.352174
O O15 0.500673 0.000000 0.310317
O O16 0.500000 0.787703 0.500000
O O17 0.420990 0.500000 0.603290
#
# Coordination Sequence:
#
# PCOD9146053 Si02
#       7
#     2   4   4   4   4   4   4
#     4  12  24  42  57  81 112 160 212 238 267 338
#     4  11  23  38  58  84 116 155 196 244 287 336
#     4  10  20  33  53  83 116 148 188 240 301 351
#     4  10  19  32  57  86 116 147 189 240 299 352
#     4  10  21  40  63  84 115 155 192 236 284 341
#     4  10  19  33  55  89 122 150 183 232 295 354
#     4   9  19  36  63  97 123 144 177 230 297 355
#
# _framework density 25.839687999999999
#
# number of rings (size 3 to 8) (size 9 to 14) (size 15 to 20)
#    0.000    1.846    3.077    1.385    2.154    1.846 
#    0.000    1.538    0.000    4.615    0.000    4.308 
#    0.000    0.000    0.000    0.000    0.000    0.000 
#
# Total GULP energy -145022.923152 kJ/mol
# GULP energy per Si atom -5577.804737 kJ/mol
# Density = 2.578088 g / cm^3
# Si number density = 25.839688 Si / 1000 Ang^3
#
#
#
# Elastic Constant Matrix: (Units=GPa)
#
#
# Indices 1 2 3 4 5 6 
#
# 1 152.0717 15.7994 54.7254 0.0000 17.4958 0.0000
# 2 15.7994 137.3525 8.7841 0.0000 22.5671 0.0000
# 3 54.7254 8.7841 69.2657 0.0000 25.1890 0.0000
# 4 0.0000 0.0000 0.0000 7.3223 0.0000 25.1034
# 5 17.4958 22.5671 25.1890 0.0000 51.7977 0.0000
# 6 0.0000 0.0000 0.0000 25.1034 0.0000 30.3558
#
#
#
# Elastic Compliance Matrix: (Units=1/GPa)
#
#
# Indices 1 2 3 4 5 6 
#
# 1 0.009266 -0.000724 -0.007539 0.000000 0.000852 0.000000
# 2 -0.000724 0.007904 0.000890 0.000000 -0.003632 0.000000
# 3 -0.007539 0.000890 0.023684 0.000000 -0.009359 0.000000
# 4 0.000000 0.000000 0.000000 -0.074419 0.000000 0.061542
# 5 0.000852 -0.003632 -0.009359 0.000000 0.025152 0.000000
# 6 0.000000 0.000000 0.000000 0.061542 0.000000 -0.017951
#
#
# Mechanical properties :
#
#
# Convention : Reuss Voigt Hill
#
# Bulk Modulus (GPa) = 38.30095 57.47862 47.88978
# Shear Modulus (GPa) = -1713.90345 36.52057 -838.69144
#
# Velocity S-wave (km/s) = -25.78223 3.76354 -18.03551
# Velocity P-wave (km/s) = 29.52021 6.41702 20.37480
#
# Compressibility (1/GPa) = 0.02610901
#
# Stress axis : x y z
#
# Youngs Moduli (GPa) = 107.92144 126.52521 42.22277
#
# Poissons Ratio (x) = 0.09156 0.31831
# Poissons Ratio (y) = 0.07810 -0.03759
# Poissons Ratio (z) = 0.81360 -0.11263
#
# Static dielectric constant tensor:
#      x y z
#    x 2.009540 0.000000 -0.038300 
#    y 0.000000 1.939830 0.000000 
#    z -0.038300 0.000000 2.173260 
# 
# From -- ./inp_files/70062.got.cif
#   From: 2010.05.17/outbox.cif.g08.bks.cpg/sg10_36_cif.got.tgz:70062.got - 2010.06.03 11:33:40.
