data_PCOD9146939
_publ_section_title
;
Structure prediction by ZEFSAII (Michael W. Deem and Ramdas Pophale) SiO2 
 PCOD9146939
Probable space group: P 2/M
;
_chemical_formula_sum "Si O2"
_cell_formula_units_Z 32
_cell_length_a 15.913971
_cell_length_b 13.327059
_cell_length_c 23.177289
_cell_angle_alpha 90.000000
_cell_angle_beta 160.282632
_cell_angle_gamma 90.000000
_cell_volume 1658.424341
_symmetry_space_group_name_H-M "P 2/M"
_symmetry_group_IT_number 10
_symmetry_cell_setting 'monoclinic'
loop_
_space_group_symop_operation_xyz
x,y,z
-x,y,-z
-x,-y,-z
x,-y,z
loop_
_atom_site_type_symbol
_atom_site_label
_atom_site_fract_x
_atom_site_fract_y
_atom_site_fract_z
Si Si1 0.310708 0.883741 0.964609
Si Si2 0.429428 0.119859 0.337269
Si Si3 0.032987 0.794099 0.168029
Si Si4 0.842498 0.884332 0.346276
Si Si5 0.033991 0.186448 0.354855
Si Si6 0.722774 0.385891 0.471040
Si Si7 0.237991 0.275189 0.121009
Si Si8 0.249032 0.390527 0.374449
O O1 0.111088 0.875193 0.887021
O O2 0.198867 0.827094 0.837455
O O3 0.345015 0.000000 0.969967
O O4 0.572252 0.840832 0.156424
O O5 0.280468 0.163749 0.296199
O O6 0.719251 0.151155 0.520406
O O7 0.308352 0.175686 0.203608
O O8 0.404936 0.000000 0.319635
O O9 0.093466 0.701926 0.249687
O O10 0.852383 0.755343 0.000446
O O11 0.000000 0.837269 0.500000
O O12 0.000420 0.880286 0.389879
O O13 0.791831 0.000000 0.330364
O O14 0.071613 0.299351 0.402223
O O15 0.786706 0.500000 0.496888
O O16 0.475450 0.347137 0.279144
O O17 0.677668 0.382474 0.511160
O O18 0.000000 0.321967 0.000000
O O19 0.500000 0.390473 0.500000
O O20 0.124875 0.500000 0.286520
#
# Coordination Sequence:
#
# PCOD9146939 Si02
#       8
#     4   4   4   4   4   4   4   4
#     4  11  23  37  59  90 121 156 194 238 286 344
#     4  10  21  35  56  84 122 167 196 233 291 355
#     4  11  22  35  54  88 125 155 194 242 288 351
#     4  10  23  41  64  90 115 153 200 243 289 344
#     4  11  21  40  62  85 120 154 198 245 291 349
#     4  10  21  37  59  83 111 153 199 246 300 351
#     4   9  20  34  51  78 115 159 202 240 283 342
#     4  10  19  34  55  79 113 156 199 241 287 341
#
# _framework density 19.295424000000001
#
# number of rings (size 3 to 8) (size 9 to 14) (size 15 to 20)
#    0.000    1.750    1.250    4.125    3.500    4.500 
#    0.000    1.250    0.000    2.625    0.000    0.000 
#    0.000    0.000    0.000    0.000    0.000    0.000 
#
# Total GULP energy -178567.257716 kJ/mol
# GULP energy per Si atom -5580.226804 kJ/mol
# Density = 1.925151 g / cm^3
# Si number density = 19.295424 Si / 1000 Ang^3
#
#
#
# Elastic Constant Matrix: (Units=GPa)
#
#
# Indices 1 2 3 4 5 6 
#
# 1 55.0839 -2.1515 28.5888 0.0000 -5.7700 0.0000
# 2 -2.1515 93.5286 33.2078 0.0000 1.5379 0.0000
# 3 28.5888 33.2078 134.8208 0.0000 -12.3416 0.0000
# 4 0.0000 0.0000 0.0000 -81.5817 0.0000 5.6252
# 5 -5.7700 1.5379 -12.3416 0.0000 25.9943 0.0000
# 6 0.0000 0.0000 0.0000 5.6252 0.0000 9.5904
#
#
#
# Elastic Compliance Matrix: (Units=1/GPa)
#
#
# Indices 1 2 3 4 5 6 
#
# 1 0.020945 0.002135 -0.004760 0.000000 0.002263 0.000000
# 2 0.002135 0.012051 -0.003599 0.000000 -0.001948 0.000000
# 3 -0.004760 -0.003599 0.009656 0.000000 0.003741 0.000000
# 4 0.000000 0.000000 0.000000 -0.011781 0.000000 0.006910
# 5 0.002263 -0.001948 0.003741 0.000000 0.040863 0.000000
# 6 0.000000 0.000000 0.000000 0.006910 0.000000 0.100218
#
#
# Mechanical properties :
#
#
# Convention : Reuss Voigt Hill
#
# Bulk Modulus (GPa) = 33.11006 44.74707 38.92856
# Shear Modulus (GPa) = 25.71108 5.71981 15.71545
#
# Velocity S-wave (km/s) = 3.65430 1.72359 2.85698
# Velocity P-wave (km/s) = 5.91625 5.21554 5.57691
#
# Compressibility (1/GPa) = 0.03020230
#
# Stress axis : x y z
#
# Youngs Moduli (GPa) = 47.74407 82.98075 103.56710
#
# Poissons Ratio (x) = -0.17714 0.49298
# Poissons Ratio (y) = -0.10192 0.37277
# Poissons Ratio (z) = 0.22726 0.29867
#
# Static dielectric constant tensor:
#      x y z
#    x 1.672060 0.000000 0.005540 
#    y 0.000000 1.703600 0.000000 
#    z 0.005540 0.000000 1.699360 
# 
# From -- ./inp_files/85417.got.cif
#   From: 2010.05.17/outbox.cif.g08.bks.cpg/sg10_43_cif.got.tgz:85417.got - 2010.06.03 11:33:40.
