data_PCOD9146766
_publ_section_title
;
Structure prediction by ZEFSAII (Michael W. Deem and Ramdas Pophale) SiO2 
 PCOD9146766
Probable space group: P 2/M
;
_chemical_formula_sum "Si O2"
_cell_formula_units_Z 20
_cell_length_a 10.428297
_cell_length_b 7.722213
_cell_length_c 29.681086
_cell_angle_alpha 90.000000
_cell_angle_beta 26.278767
_cell_angle_gamma 90.000000
_cell_volume 1058.236341
_symmetry_space_group_name_H-M "P 2/M"
_symmetry_group_IT_number 10
_symmetry_cell_setting 'monoclinic'
loop_
_space_group_symop_operation_xyz
x,y,z
-x,y,-z
-x,-y,-z
x,-y,z
loop_
_atom_site_type_symbol
_atom_site_label
_atom_site_fract_x
_atom_site_fract_y
_atom_site_fract_z
Si Si1 0.670327 0.000000 0.085673
Si Si2 0.748179 0.210103 0.456677
Si Si3 0.313525 0.790281 0.420758
Si Si4 0.596994 0.301328 0.772471
Si Si5 0.768423 0.000000 0.949051
Si Si6 0.229577 0.697946 0.797869
O O1 0.511293 0.167627 0.156118
O O2 0.671258 0.000000 0.031653
O O3 0.000000 0.000000 0.000000
O O4 0.500000 0.263462 0.500000
O O5 0.671394 0.261763 0.531867
O O6 0.062721 0.279259 0.344142
O O7 0.767118 0.000000 0.449978
O O8 0.564613 0.716915 0.310307
O O9 0.000000 0.739277 0.500000
O O10 0.331552 0.000000 0.412652
O O11 0.534616 0.500000 0.804370
O O12 0.425881 0.261048 0.779974
O O13 0.969873 0.167173 0.877667
O O14 0.500000 0.000000 0.000000
O O15 0.129570 0.500000 0.833424
#
# Coordination Sequence:
#
# PCOD9146766 Si02
#       6
#     2   4   4   4   2   4
#     4  12  24  44  72  90 123 166 213 275 318 371
#     4  10  21  37  60  93 134 172 206 251 309 372
#     4  10  19  33  63  93 125 169 208 247 301 375
#     4  11  23  40  68  99 126 165 218 261 310 378
#     4  12  28  48  68  93 127 164 208 271 335 373
#     4  11  23  41  68  98 127 164 215 262 312 382
#
# _framework density 18.899370999999999
#
# number of rings (size 3 to 8) (size 9 to 14) (size 15 to 20)
#    0.000    1.200    6.000    0.000    0.000    4.800 
#    0.000    2.000    0.000    0.000    0.000    0.000 
#    0.000    0.000    0.000    0.000    0.000    0.000 
#
# Total GULP energy -111849.651343 kJ/mol
# GULP energy per Si atom -5592.482567 kJ/mol
# Density = 1.885636 g / cm^3
# Si number density = 18.899371 Si / 1000 Ang^3
#
#
#
# Elastic Constant Matrix: (Units=GPa)
#
#
# Indices 1 2 3 4 5 6 
#
# 1 171.8722 64.8047 85.4137 0.0000 -2.2361 0.0000
# 2 64.8047 92.3738 72.5726 0.0000 -4.3202 0.0000
# 3 85.4137 72.5726 144.6675 0.0000 9.4686 0.0000
# 4 0.0000 0.0000 0.0000 -22.6845 0.0000 -3.7228
# 5 -2.2361 -4.3202 9.4686 0.0000 39.4154 0.0000
# 6 0.0000 0.0000 0.0000 -3.7228 0.0000 11.4627
#
#
#
# Elastic Compliance Matrix: (Units=1/GPa)
#
#
# Indices 1 2 3 4 5 6 
#
# 1 0.008901 -0.003327 -0.003653 0.000000 0.001018 0.000000
# 2 -0.003327 0.019815 -0.008235 0.000000 0.003961 0.000000
# 3 -0.003653 -0.008235 0.013485 0.000000 -0.004349 0.000000
# 4 0.000000 0.000000 0.000000 -0.041852 0.000000 -0.013592
# 5 0.001018 0.003961 -0.004349 0.000000 0.026908 0.000000
# 6 0.000000 0.000000 0.000000 -0.013592 0.000000 0.082825
#
#
# Mechanical properties :
#
#
# Convention : Reuss Voigt Hill
#
# Bulk Modulus (GPa) = 84.95639 94.94393 89.95016
# Shear Modulus (GPa) = 34.61762 18.04690 26.33226
#
# Velocity S-wave (km/s) = 4.28446 3.09349 3.73673
# Velocity P-wave (km/s) = 8.33816 7.94388 8.14341
#
# Compressibility (1/GPa) = 0.01177075
#
# Stress axis : x y z
#
# Youngs Moduli (GPa) = 112.34080 50.46752 74.15676
#
# Poissons Ratio (x) = 0.16792 0.27090
# Poissons Ratio (y) = 0.37378 0.61067
# Poissons Ratio (z) = 0.41039 0.41560
#
# Static dielectric constant tensor:
#      x y z
#    x 1.627150 0.000000 0.006710 
#    y 0.000000 1.674910 0.000000 
#    z 0.006710 0.000000 1.611280 
# 
# From -- ./inp_files/87797.got.cif
#   From: 2010.05.17/outbox.cif.g08.bks.cpg/sg10_44_cif.got.tgz:87797.got - 2010.06.03 11:33:40.
