data_PCOD9146011
_publ_section_title
;
Structure prediction by ZEFSAII (Michael W. Deem and Ramdas Pophale) SiO2 
 PCOD9146011
Probable space group: P 2/M
;
_chemical_formula_sum "Si O2"
_cell_formula_units_Z 30
_cell_length_a 11.908795
_cell_length_b 18.756324
_cell_length_c 8.887139
_cell_angle_alpha 90.000000
_cell_angle_beta 58.725735
_cell_angle_gamma 90.000000
_cell_volume 1696.630241
_symmetry_space_group_name_H-M "P 2/M"
_symmetry_group_IT_number 10
_symmetry_cell_setting 'monoclinic'
loop_
_space_group_symop_operation_xyz
x,y,z
-x,y,-z
-x,-y,-z
x,-y,z
loop_
_atom_site_type_symbol
_atom_site_label
_atom_site_fract_x
_atom_site_fract_y
_atom_site_fract_z
Si Si1 0.903838 0.212448 0.784629
Si Si2 0.311513 0.701445 0.874418
Si Si3 0.500000 0.731614 0.000000
Si Si4 0.275069 0.779143 0.359150
Si Si5 0.858176 0.920474 0.022357
Si Si6 0.143683 0.582721 0.826672
Si Si7 0.649126 0.164766 0.370920
Si Si8 0.900432 0.668523 0.432876
O O1 0.849466 0.199676 0.655148
O O2 0.034801 0.260823 0.691525
O O3 0.804440 0.262346 0.947801
O O4 0.891843 0.136688 0.870962
O O5 0.249882 0.634039 0.832221
O O6 0.356695 0.761221 0.721501
O O7 0.422951 0.688754 0.923301
O O8 0.399463 0.781101 0.163014
O O9 0.296393 0.818824 0.500242
O O10 0.240461 0.696142 0.413492
O O11 0.747421 0.886616 0.209815
O O12 0.816907 0.000000 0.002306
O O13 0.000000 0.926746 0.000000
O O14 0.179715 0.500000 0.814464
O O15 0.121589 0.607166 0.670799
O O16 0.000000 0.593236 0.000000
O O17 0.500000 0.138223 0.500000
O O18 0.000000 0.650854 0.500000
#
# Coordination Sequence:
#
# PCOD9146011 Si02
#       8
#     4   4   2   4   4   4   4   4
#     4   9  19  33  56  82 111 146 183 234 279 334
#     4  10  19  34  57  81 113 148 185 237 281 335
#     4  10  20  34  53  82 111 140 194 238 282 330
#     4  10  19  32  55  85 108 138 189 240 280 326
#     4  10  22  38  57  83 119 157 186 225 288 349
#     4  11  22  35  55  86 120 151 185 231 294 353
#     4  11  20  34  61  87 110 144 194 247 279 329
#     4  10  19  33  56  85 113 144 188 240 286 332
#
# _framework density 17.682107999999999
#
# number of rings (size 3 to 8) (size 9 to 14) (size 15 to 20)
#    0.000    1.867    4.000    0.800    1.867    0.533 
#    0.000    1.000    0.000    9.600    0.000    0.000 
#    0.000    0.000    0.000    0.000    0.000    0.000 
#
# Total GULP energy -167049.357114 kJ/mol
# GULP energy per Si atom -5568.311904 kJ/mol
# Density = 1.764186 g / cm^3
# Si number density = 17.682108 Si / 1000 Ang^3
#
#
#
# Elastic Constant Matrix: (Units=GPa)
#
#
# Indices 1 2 3 4 5 6 
#
# 1 70.1650 37.9565 14.6202 0.0000 5.0599 0.0000
# 2 37.9565 89.9437 18.1145 0.0000 8.9233 0.0000
# 3 14.6202 18.1145 67.4889 0.0000 -0.0350 0.0000
# 4 0.0000 0.0000 0.0000 21.0393 0.0000 -10.2946
# 5 5.0599 8.9233 -0.0350 0.0000 35.7076 0.0000
# 6 0.0000 0.0000 0.0000 -10.2946 0.0000 16.5951
#
#
#
# Elastic Compliance Matrix: (Units=1/GPa)
#
#
# Indices 1 2 3 4 5 6 
#
# 1 0.018754 -0.007417 -0.002072 0.000000 -0.000806 0.000000
# 2 -0.007417 0.015004 -0.002422 0.000000 -0.002701 0.000000
# 3 -0.002072 -0.002422 0.015917 0.000000 0.000914 0.000000
# 4 0.000000 0.000000 0.000000 0.068245 0.000000 0.042335
# 5 -0.000806 -0.002701 0.000914 0.000000 0.028795 0.000000
# 6 0.000000 0.000000 0.000000 0.042335 0.000000 0.086521
#
#
# Mechanical properties :
#
#
# Convention : Reuss Voigt Hill
#
# Bulk Modulus (GPa) = 38.68113 40.99779 39.83946
# Shear Modulus (GPa) = 18.81996 25.12884 21.97440
#
# Velocity S-wave (km/s) = 3.26598 3.77390 3.52909
# Velocity P-wave (km/s) = 6.01211 6.49816 6.25986
#
# Compressibility (1/GPa) = 0.02585240
#
# Stress axis : x y z
#
# Youngs Moduli (GPa) = 53.32084 66.64996 62.82717
#
# Poissons Ratio (x) = 0.49435 0.13020
# Poissons Ratio (y) = 0.39548 0.15215
# Poissons Ratio (z) = 0.11050 0.16141
#
# Static dielectric constant tensor:
#      x y z
#    x 1.643670 0.000000 -0.000990 
#    y 0.000000 1.604180 0.000000 
#    z -0.000990 0.000000 1.705830 
# 
# From -- ./inp_files/25846.got.cif
#   From: 2010.05.17/outbox.cif.g08.bks.cpg/sg10_13_cif.got.tgz:25846.got - 2010.06.03 11:33:40.
