data_PCOD9146813
_publ_section_title
;
Structure prediction by ZEFSAII (Michael W. Deem and Ramdas Pophale) SiO2 
 PCOD9146813
Probable space group: P 2/M
;
_chemical_formula_sum "Si O2"
_cell_formula_units_Z 28
_cell_length_a 9.601286
_cell_length_b 7.431665
_cell_length_c 28.127464
_cell_angle_alpha 90.000000
_cell_angle_beta 39.228661
_cell_angle_gamma 90.000000
_cell_volume 1269.256971
_symmetry_space_group_name_H-M "P 2/M"
_symmetry_group_IT_number 10
_symmetry_cell_setting 'monoclinic'
loop_
_space_group_symop_operation_xyz
x,y,z
-x,y,-z
-x,-y,-z
x,-y,z
loop_
_atom_site_type_symbol
_atom_site_label
_atom_site_fract_x
_atom_site_fract_y
_atom_site_fract_z
Si Si1 0.705962 0.208294 0.283822
Si Si2 0.751761 0.791497 0.449711
Si Si3 0.482783 0.219516 0.857675
Si Si4 0.011195 0.779399 0.288964
Si Si5 0.666280 0.219454 0.997784
Si Si6 0.765609 0.701568 0.552530
Si Si7 0.174504 0.220021 0.851938
O O1 0.455859 0.214722 0.368264
O O2 0.732111 0.281864 0.223749
O O3 0.865502 0.284149 0.282633
O O4 0.772796 0.000000 0.262060
O O5 0.500000 0.789845 0.500000
O O6 0.755391 0.694612 0.498638
O O7 0.901964 0.720943 0.367336
O O8 0.814890 0.000000 0.441784
O O9 0.735038 0.273104 0.782108
O O10 0.319974 0.279098 0.858552
O O11 0.478824 0.000000 0.858708
O O12 0.408891 0.276596 0.929803
O O13 0.000462 0.000000 0.292083
O O14 0.918977 0.273371 0.922800
O O15 0.662404 0.000000 0.998284
O O16 0.500000 0.278228 0.000000
O O17 0.772937 0.500000 0.571184
O O18 0.000000 0.791959 0.500000
O O19 0.181117 0.000000 0.851496
#
# Coordination Sequence:
#
# PCOD9146813 Si02
#       7
#     4   4   4   4   4   4   4
#     4  10  19  34  53  74 101 133 173 217 260 307
#     4  10  19  35  57  80 103 133 175 219 265 311
#     4   9  16  25  39  64  99 134 167 206 252 305
#     4   9  17  29  46  71 100 129 166 213 258 305
#     4   9  15  24  38  59  95 140 171 198 248 306
#     4  11  25  40  53  74 106 140 175 215 265 317
#     4   9  17  26  41  67  97 132 171 209 250 301
#
# _framework density 22.060151999999999
#
# number of rings (size 3 to 8) (size 9 to 14) (size 15 to 20)
#    0.000    2.429    1.429    1.714    2.000    6.571 
#    0.000    0.000    0.000    0.000    0.000    0.000 
#    0.000    8.571    0.000    0.000    0.000    0.286 
#
# Total GULP energy -156379.320685 kJ/mol
# GULP energy per Si atom -5584.975739 kJ/mol
# Density = 2.200994 g / cm^3
# Si number density = 22.060152 Si / 1000 Ang^3
#
#
#
# Elastic Constant Matrix: (Units=GPa)
#
#
# Indices 1 2 3 4 5 6 
#
# 1 154.0114 0.9652 132.9275 0.0000 -1.2938 0.0000
# 2 0.9652 63.3968 1.8821 0.0000 0.7143 0.0000
# 3 132.9275 1.8821 216.2039 0.0000 16.4486 0.0000
# 4 0.0000 0.0000 0.0000 -35.3506 0.0000 8.3780
# 5 -1.2938 0.7143 16.4486 0.0000 40.5425 0.0000
# 6 0.0000 0.0000 0.0000 8.3780 0.0000 -18.6358
#
#
#
# Elastic Compliance Matrix: (Units=1/GPa)
#
#
# Indices 1 2 3 4 5 6 
#
# 1 0.014498 0.000006 -0.009234 0.000000 0.004209 0.000000
# 2 0.000006 0.015780 -0.000124 0.000000 -0.000228 0.000000
# 3 -0.009234 -0.000124 0.010655 0.000000 -0.004615 0.000000
# 4 0.000000 0.000000 0.000000 -0.031661 0.000000 -0.014234
# 5 0.004209 -0.000228 -0.004615 0.000000 0.026676 0.000000
# 6 0.000000 0.000000 0.000000 -0.014234 0.000000 -0.060059
#
#
# Mechanical properties :
#
#
# Convention : Reuss Voigt Hill
#
# Bulk Modulus (GPa) = 44.98592 78.35129 61.66861
# Shear Modulus (GPa) = 2496.57461 17.16704 1256.87082
#
# Velocity S-wave (km/s) = 33.67743 2.79264 23.89527
# Velocity P-wave (km/s) = 39.14923 6.78179 28.09497
#
# Compressibility (1/GPa) = 0.02222918
#
# Stress axis : x y z
#
# Youngs Moduli (GPa) = 68.97272 63.37208 93.85306
#
# Poissons Ratio (x) = -0.00038 0.86667
# Poissons Ratio (y) = -0.00041 0.01161
# Poissons Ratio (z) = 0.63691 0.00784
#
# Static dielectric constant tensor:
#      x y z
#    x 1.736040 0.000000 -0.004020 
#    y 0.000000 1.882930 0.000000 
#    z -0.004020 0.000000 1.746970 
# 
# From -- ./inp_files/36984.got.cif
#   From: 2010.05.17/outbox.cif.g08.bks.cpg/sg10_19_cif.got.tgz:36984.got - 2010.06.03 11:33:40.
