data_PCOD9146030
_publ_section_title
;
Structure prediction by ZEFSAII (Michael W. Deem and Ramdas Pophale) SiO2 
 PCOD9146030
Probable space group: P 2/M
;
_chemical_formula_sum "Si O2"
_cell_formula_units_Z 32
_cell_length_a 8.468478
_cell_length_b 20.272293
_cell_length_c 13.262422
_cell_angle_alpha 90.000000
_cell_angle_beta 143.195937
_cell_angle_gamma 90.000000
_cell_volume 1364.005674
_symmetry_space_group_name_H-M "P 2/M"
_symmetry_group_IT_number 10
_symmetry_cell_setting 'monoclinic'
loop_
_space_group_symop_operation_xyz
x,y,z
-x,y,-z
-x,-y,-z
x,-y,z
loop_
_atom_site_type_symbol
_atom_site_label
_atom_site_fract_x
_atom_site_fract_y
_atom_site_fract_z
Si Si1 0.920138 0.574734 0.120010
Si Si2 0.334502 0.570745 0.726324
Si Si3 0.216362 0.314559 0.800665
Si Si4 0.060520 0.841904 0.922677
Si Si5 0.539662 0.763304 0.637330
Si Si6 0.466748 0.393674 0.367880
Si Si7 0.803523 0.074766 0.195071
Si Si8 0.669054 0.811068 0.261281
O O1 0.936291 0.500000 0.171474
O O2 0.178424 0.582933 0.185429
O O3 0.632745 0.576778 0.923528
O O4 0.947171 0.640871 0.203689
O O5 0.235492 0.500000 0.709733
O O6 0.209094 0.636361 0.703367
O O7 0.335879 0.573345 0.607694
O O8 0.184001 0.243064 0.733960
O O9 0.500000 0.310877 0.000000
O O10 0.039046 0.889228 0.814933
O O11 0.842450 0.784615 0.810484
O O12 0.357011 0.813239 0.071358
O O13 0.000000 0.876422 0.000000
O O14 0.500000 0.782522 0.500000
O O15 0.505451 0.684926 0.627373
O O16 0.358402 0.795092 0.633466
O O17 0.500000 0.413949 0.500000
O O18 0.790521 0.119571 0.288414
O O19 0.892564 0.000000 0.257596
O O20 0.500000 0.072377 0.000000
#
# Coordination Sequence:
#
# PCOD9146030 Si02
#       8
#     4   4   4   4   4   4   4   4
#     4  10  22  36  55  81 108 142 182 231 287 335
#     4  10  20  35  55  79 107 140 180 229 282 330
#     4  10  19  32  56  82 108 137 179 231 272 330
#     4   9  19  33  59  89 116 149 190 227 273 328
#     4  10  22  38  56  82 114 147 188 241 287 327
#     4  11  23  37  55  77 107 146 186 231 285 334
#     4   9  18  33  57  92 127 149 179 229 279 330
#     4  10  19  35  60  89 110 148 189 227 282 332
#
# _framework density 23.460311999999998
#
# number of rings (size 3 to 8) (size 9 to 14) (size 15 to 20)
#    0.000    2.125    1.250    2.250    5.250    4.750 
#    0.000    3.125    0.000    3.750    0.000    0.000 
#    0.000    0.000    0.000    0.000    0.000    0.000 
#
# Total GULP energy -178595.455626 kJ/mol
# GULP energy per Si atom -5581.107988 kJ/mol
# Density = 2.340692 g / cm^3
# Si number density = 23.460312 Si / 1000 Ang^3
#
#
#
# Elastic Constant Matrix: (Units=GPa)
#
#
# Indices 1 2 3 4 5 6 
#
# 1 110.5365 61.8707 18.5875 0.0000 -34.7102 0.0000
# 2 61.8707 149.4202 21.8113 0.0000 -20.0026 0.0000
# 3 18.5875 21.8113 81.6246 0.0000 -3.9485 0.0000
# 4 0.0000 0.0000 0.0000 16.1585 0.0000 -5.2240
# 5 -34.7102 -20.0026 -3.9485 0.0000 32.8722 0.0000
# 6 0.0000 0.0000 0.0000 -5.2240 0.0000 29.2596
#
#
#
# Elastic Compliance Matrix: (Units=1/GPa)
#
#
# Indices 1 2 3 4 5 6 
#
# 1 0.016439 -0.004624 -0.001815 0.000000 0.014326 0.000000
# 2 -0.004624 0.008842 -0.001293 0.000000 0.000342 0.000000
# 3 -0.001815 -0.001293 0.012955 0.000000 -0.001147 0.000000
# 4 0.000000 0.000000 0.000000 0.065678 0.000000 0.011726
# 5 0.014326 0.000342 -0.001147 0.000000 0.045619 0.000000
# 6 0.000000 0.000000 0.000000 0.011726 0.000000 0.036270
#
#
# Mechanical properties :
#
#
# Convention : Reuss Voigt Hill
#
# Bulk Modulus (GPa) = 43.91517 60.68005 52.29761
# Shear Modulus (GPa) = 23.93985 31.61218 27.77602
#
# Velocity S-wave (km/s) = 3.19790 3.67478 3.44460
# Velocity P-wave (km/s) = 5.69166 6.62770 6.17744
#
# Compressibility (1/GPa) = 0.02277118
#
# Stress axis : x y z
#
# Youngs Moduli (GPa) = 60.83115 113.09868 77.19312
#
# Poissons Ratio (x) = 0.52299 0.14009
# Poissons Ratio (y) = 0.28129 0.09982
# Poissons Ratio (z) = 0.11040 0.14625
#
# Static dielectric constant tensor:
#      x y z
#    x 1.934210 0.000000 -0.004670 
#    y 0.000000 1.824720 0.000000 
#    z -0.004670 0.000000 1.955520 
# 
# From -- ./inp_files/62516.got.cif
#   From: 2010.05.17/outbox.cif.g08.bks.cpg/sg10_32_cif.got.tgz:62516.got - 2010.06.03 11:33:40.
