data_PCOD9146281
_publ_section_title
;
Structure prediction by ZEFSAII (Michael W. Deem and Ramdas Pophale) SiO2 
 PCOD9146281
Probable space group: P 2/M
;
_chemical_formula_sum "Si O2"
_cell_formula_units_Z 28
_cell_length_a 15.878029
_cell_length_b 8.536284
_cell_length_c 15.417701
_cell_angle_alpha 90.000000
_cell_angle_beta 140.804836
_cell_angle_gamma 90.000000
_cell_volume 1320.618359
_symmetry_space_group_name_H-M "P 2/M"
_symmetry_group_IT_number 10
_symmetry_cell_setting 'monoclinic'
loop_
_space_group_symop_operation_xyz
x,y,z
-x,y,-z
-x,-y,-z
x,-y,z
loop_
_atom_site_type_symbol
_atom_site_label
_atom_site_fract_x
_atom_site_fract_y
_atom_site_fract_z
Si Si1 0.403613 0.000000 0.341411
Si Si2 0.666724 0.324839 0.768580
Si Si3 0.510170 0.813731 0.107252
Si Si4 0.207580 0.688494 0.626281
Si Si5 0.758414 0.315025 0.027562
Si Si6 0.089363 0.665977 0.158734
Si Si7 0.903707 0.000000 0.839106
Si Si8 0.953892 0.309768 0.327952
O O1 0.500000 0.000000 0.500000
O O2 0.421182 0.167632 0.307289
O O3 0.247891 0.000000 0.245956
O O4 0.604793 0.500000 0.730303
O O5 0.764170 0.299205 0.928807
O O6 0.759561 0.334710 0.757704
O O7 0.643933 0.751652 0.258301
O O8 0.377713 0.763958 0.050949
O O9 0.517922 0.000000 0.110021
O O10 0.500000 0.752505 0.000000
O O11 0.213337 0.500000 0.628186
O O12 0.140364 0.731814 0.665223
O O13 0.103034 0.743997 0.469744
O O14 0.745759 0.500000 0.035512
O O15 0.880106 0.255480 0.182599
O O16 0.063432 0.500000 0.185347
O O17 0.072658 0.834664 0.188825
O O18 0.000000 0.663044 0.000000
O O19 0.000000 0.000000 0.000000
O O20 0.960166 0.500000 0.331527
#
# Coordination Sequence:
#
# PCOD9146281 Si02
#       8
#     2   4   4   4   4   4   2   4
#     4  10  20  34  56  80 105 140 171 210 270 315
#     4   9  19  33  52  81 110 140 181 222 269 330
#     4  11  22  32  45  72 106 142 187 231 270 317
#     4   9  16  30  50  70  96 130 176 229 271 315
#     4  10  19  33  54  76 101 138 182 229 274 320
#     4   8  13  24  44  70  99 126 157 202 252 301
#     4   8  14  26  46  72  98 123 157 195 235 294
#     4   8  15  28  50  75  95 126 173 225 277 319
#
# _framework density 21.202188
#
# number of rings (size 3 to 8) (size 9 to 14) (size 15 to 20)
#    0.000    2.857    1.429    1.286    1.000    0.857 
#    0.000    2.143    0.000    6.857    0.000   16.000 
#    0.000    0.000    0.000    0.000    0.000    0.000 
#
# Total GULP energy -156048.893023 kJ/mol
# GULP energy per Si atom -5573.174751 kJ/mol
# Density = 2.115393 g / cm^3
# Si number density = 21.202188 Si / 1000 Ang^3
#
#
#
# Elastic Constant Matrix: (Units=GPa)
#
#
# Indices 1 2 3 4 5 6 
#
# 1 56.7527 15.9861 32.7852 0.0000 11.5464 0.0000
# 2 15.9861 136.7810 41.2621 0.0000 -8.9951 0.0000
# 3 32.7852 41.2621 150.3888 0.0000 7.4969 0.0000
# 4 0.0000 0.0000 0.0000 -2.1944 0.0000 -8.1136
# 5 11.5464 -8.9951 7.4969 0.0000 20.3367 0.0000
# 6 0.0000 0.0000 0.0000 -8.1136 0.0000 8.4268
#
#
#
# Elastic Compliance Matrix: (Units=1/GPa)
#
#
# Indices 1 2 3 4 5 6 
#
# 1 0.023053 -0.002410 -0.003727 0.000000 -0.012781 0.000000
# 2 -0.002410 0.008631 -0.002141 0.000000 0.005975 0.000000
# 3 -0.003727 -0.002141 0.008141 0.000000 -0.001832 0.000000
# 4 0.000000 0.000000 0.000000 -0.099937 0.000000 -0.096222
# 5 -0.012781 0.005975 -0.001832 0.000000 0.059747 0.000000
# 6 0.000000 0.000000 0.000000 -0.096222 0.000000 0.026024
#
#
# Mechanical properties :
#
#
# Convention : Reuss Voigt Hill
#
# Bulk Modulus (GPa) = 42.97677 58.22102 50.59889
# Shear Modulus (GPa) = 100.05913 22.23977 61.14945
#
# Velocity S-wave (km/s) = 6.87716 3.24224 5.37622
# Velocity P-wave (km/s) = 9.13096 6.44482 7.90285
#
# Compressibility (1/GPa) = 0.02326839
#
# Stress axis : x y z
#
# Youngs Moduli (GPa) = 43.37912 115.85648 122.84163
#
# Poissons Ratio (x) = 0.27926 0.45784
# Poissons Ratio (y) = 0.10456 0.26295
# Poissons Ratio (z) = 0.16168 0.24800
#
# Static dielectric constant tensor:
#      x y z
#    x 1.758010 0.000000 -0.008250 
#    y 0.000000 1.823170 0.000000 
#    z -0.008250 0.000000 1.758170 
# 
# From -- ./inp_files/79338.got.cif
#   From: 2010.05.17/outbox.cif.g08.bks.cpg/sg10_40_cif.got.tgz:79338.got - 2010.06.03 11:33:40.
