data_PCOD9146679
_publ_section_title
;
Structure prediction by ZEFSAII (Michael W. Deem and Ramdas Pophale) SiO2 
 PCOD9146679
Probable space group: P 2/M
;
_chemical_formula_sum "Si O2"
_cell_formula_units_Z 16
_cell_length_a 13.808386
_cell_length_b 11.316025
_cell_length_c 9.275528
_cell_angle_alpha 90.000000
_cell_angle_beta 28.639191
_cell_angle_gamma 90.000000
_cell_volume 694.665782
_symmetry_space_group_name_H-M "P 2/M"
_symmetry_group_IT_number 10
_symmetry_cell_setting 'monoclinic'
loop_
_space_group_symop_operation_xyz
x,y,z
-x,y,-z
-x,-y,-z
x,-y,z
loop_
_atom_site_type_symbol
_atom_site_label
_atom_site_fract_x
_atom_site_fract_y
_atom_site_fract_z
Si Si1 0.217320 0.361048 0.286007
Si Si2 0.630228 0.286577 0.615695
Si Si3 0.256414 0.624376 0.810036
Si Si4 0.207608 0.871058 0.817257
O O1 0.231033 0.500000 0.306964
O O2 0.266047 0.284657 0.364464
O O3 0.000000 0.339014 0.500000
O O4 0.406011 0.335861 0.933461
O O5 0.767793 0.368777 0.332382
O O6 0.631867 0.167874 0.516636
O O7 0.500000 0.622606 0.500000
O O8 0.178969 0.500000 0.972197
O O9 0.192175 0.755919 0.939558
O O10 0.248246 0.000000 0.826722
O O11 0.000000 0.876409 0.000000
#
# Coordination Sequence:
#
# PCOD9146679 Si02
#       4
#     4   4   4   4
#     4  10  19  33  57  82 111 149 185 228 286 339
#     4   9  19  35  55  79 114 142 182 233 276 325
#     4   9  18  32  53  81 110 140 179 230 279 327
#     4   9  20  37  55  77 111 154 190 225 278 339
#
# _framework density 23.032658000000001
#
# number of rings (size 3 to 8) (size 9 to 14) (size 15 to 20)
#    1.500    1.250    0.000    3.000    0.000    3.000 
#    0.000    5.000    0.000    1.500    0.000    0.000 
#    0.000    0.000    0.000    0.000    0.000    0.000 
#
# Total GULP energy -89111.005850 kJ/mol
# GULP energy per Si atom -5569.437866 kJ/mol
# Density = 2.298023 g / cm^3
# Si number density = 23.032658 Si / 1000 Ang^3
#
#
#
# Elastic Constant Matrix: (Units=GPa)
#
#
# Indices 1 2 3 4 5 6 
#
# 1 61.3951 12.1491 16.7328 0.0000 -2.9227 0.0000
# 2 12.1491 203.3428 17.9033 0.0000 -8.8014 0.0000
# 3 16.7328 17.9033 119.7307 0.0000 -6.4206 0.0000
# 4 0.0000 0.0000 0.0000 13.8798 0.0000 -0.7513
# 5 -2.9227 -8.8014 -6.4206 0.0000 37.4008 0.0000
# 6 0.0000 0.0000 0.0000 -0.7513 0.0000 12.9317
#
#
#
# Elastic Compliance Matrix: (Units=1/GPa)
#
#
# Indices 1 2 3 4 5 6 
#
# 1 0.017088 -0.000792 -0.002229 0.000000 0.000766 0.000000
# 2 -0.000792 0.005062 -0.000591 0.000000 0.001028 0.000000
# 3 -0.002229 -0.000591 0.008816 0.000000 0.001200 0.000000
# 4 0.000000 0.000000 0.000000 0.072275 0.000000 0.004199
# 5 0.000766 0.001028 0.001200 0.000000 0.027245 0.000000
# 6 0.000000 0.000000 0.000000 0.004199 0.000000 0.077573
#
#
# Mechanical properties :
#
#
# Convention : Reuss Voigt Hill
#
# Bulk Modulus (GPa) = 42.11665 53.11547 47.61606
# Shear Modulus (GPa) = 22.40175 35.35468 28.87822
#
# Velocity S-wave (km/s) = 3.12205 3.92213 3.54474
# Velocity P-wave (km/s) = 5.59657 6.60468 6.12141
#
# Compressibility (1/GPa) = 0.02374358
#
# Stress axis : x y z
#
# Youngs Moduli (GPa) = 58.51893 197.56483 113.42621
#
# Poissons Ratio (x) = 0.15639 0.25279
# Poissons Ratio (y) = 0.04632 0.06705
# Poissons Ratio (z) = 0.13042 0.11679
#
# Static dielectric constant tensor:
#      x y z
#    x 1.922840 0.000000 -0.040310 
#    y 0.000000 1.900000 0.000000 
#    z -0.040310 0.000000 1.907720 
# 
# From -- ./inp_files/45574.got.cif
#   From: 2010.05.17/outbox.cif.g08.bks.cpg/sg10_23_cif.got.tgz:45574.got - 2010.06.03 11:33:40.
