data_PCOD9146168
_publ_section_title
;
Structure prediction by ZEFSAII (Michael W. Deem and Ramdas Pophale) SiO2 
 PCOD9146168
Probable space group: P 2/M
;
_chemical_formula_sum "Si O2"
_cell_formula_units_Z 30
_cell_length_a 5.221751
_cell_length_b 15.953174
_cell_length_c 17.682910
_cell_angle_alpha 90.000000
_cell_angle_beta 115.186228
_cell_angle_gamma 90.000000
_cell_volume 1333.004700
_symmetry_space_group_name_H-M "P 2/M"
_symmetry_group_IT_number 10
_symmetry_cell_setting 'monoclinic'
loop_
_space_group_symop_operation_xyz
x,y,z
-x,y,-z
-x,-y,-z
x,-y,z
loop_
_atom_site_type_symbol
_atom_site_label
_atom_site_fract_x
_atom_site_fract_y
_atom_site_fract_z
Si Si1 0.277426 0.098025 0.253482
Si Si2 0.992835 0.410621 0.200206
Si Si3 0.201322 0.226153 0.658358
Si Si4 0.865536 0.237731 0.182044
Si Si5 0.345717 0.409103 0.683960
Si Si6 0.807012 0.909492 0.576236
Si Si7 0.331672 0.000000 0.057764
Si Si8 0.670163 0.817147 0.942091
O O1 0.544437 0.161669 0.287840
O O2 0.215035 0.089615 0.335416
O O3 0.021487 0.150420 0.180440
O O4 0.310386 0.000000 0.232241
O O5 0.939882 0.500000 0.153623
O O6 0.316403 0.410745 0.267570
O O7 0.958635 0.322630 0.152616
O O8 0.787877 0.408934 0.247993
O O9 0.050988 0.244849 0.719814
O O10 0.275274 0.318783 0.638196
O O11 0.997705 0.170000 0.582404
O O12 0.525898 0.239934 0.134005
O O13 0.255622 0.500000 0.638680
O O14 0.500000 0.903834 0.500000
O O15 0.937235 0.000000 0.572310
O O16 0.383724 0.909817 0.099511
O O17 0.500000 0.000000 0.000000
O O18 0.000000 0.000000 0.000000
O O19 0.500000 0.814461 0.000000
O O20 0.000000 0.802638 0.000000
#
# Coordination Sequence:
#
# PCOD9146168 Si02
#       8
#     4   4   4   4   4   4   2   4
#     4  10  20  33  51  80 109 138 177 224 274 317
#     4   9  17  31  52  79 105 135 175 221 272 326
#     4  10  19  33  52  79 109 136 181 226 278 319
#     4  10  21  34  53  76 108 138 176 227 279 320
#     4   9  17  30  51  78 108 138 175 222 271 322
#     4   9  19  35  53  75 109 149 185 219 261 323
#     4   8  16  34  48  64  90 126 177 214 245 302
#     4  10  22  36  52  72 101 142 184 221 264 325
#
# _framework density 22.505545999999999
#
# number of rings (size 3 to 8) (size 9 to 14) (size 15 to 20)
#    0.000    2.533    1.333    0.400    2.800    1.067 
#    0.000    2.000    0.000    1.200    0.000    0.933 
#    0.000    0.000    0.000    0.000    0.000    0.000 
#
# Total GULP energy -167042.767666 kJ/mol
# GULP energy per Si atom -5568.092256 kJ/mol
# Density = 2.245432 g / cm^3
# Si number density = 22.505546 Si / 1000 Ang^3
#
#
#
# Elastic Constant Matrix: (Units=GPa)
#
#
# Indices 1 2 3 4 5 6 
#
# 1 84.4969 27.0668 15.7015 0.0000 8.8427 0.0000
# 2 27.0668 240.7367 45.7033 0.0000 31.8034 0.0000
# 3 15.7015 45.7033 60.2466 0.0000 13.9255 0.0000
# 4 0.0000 0.0000 0.0000 -29.8240 0.0000 32.1041
# 5 8.8427 31.8034 13.9255 0.0000 36.3529 0.0000
# 6 0.0000 0.0000 0.0000 32.1041 0.0000 24.8586
#
#
#
# Elastic Compliance Matrix: (Units=1/GPa)
#
#
# Indices 1 2 3 4 5 6 
#
# 1 0.012681 -0.000778 -0.002369 0.000000 -0.001496 0.000000
# 2 -0.000778 0.005244 -0.003027 0.000000 -0.003239 0.000000
# 3 -0.002369 -0.003027 0.020590 0.000000 -0.004663 0.000000
# 4 0.000000 0.000000 0.000000 -0.014028 0.000000 0.018117
# 5 -0.001496 -0.003239 -0.004663 0.000000 0.032492 0.000000
# 6 0.000000 0.000000 0.000000 0.018117 0.000000 0.016830
#
#
# Mechanical properties :
#
#
# Convention : Reuss Voigt Hill
#
# Bulk Modulus (GPa) = 38.21560 62.49148 50.35354
# Shear Modulus (GPa) = 52.69942 26.07805 39.38874
#
# Velocity S-wave (km/s) = 4.84428 3.40772 4.18805
# Velocity P-wave (km/s) = 6.95031 6.58110 6.76822
#
# Compressibility (1/GPa) = 0.02616732
#
# Stress axis : x y z
#
# Youngs Moduli (GPa) = 78.85922 190.69749 48.56842
#
# Poissons Ratio (x) = 0.14844 0.11504
# Poissons Ratio (y) = 0.06139 0.14699
# Poissons Ratio (z) = 0.18678 0.57715
#
# Static dielectric constant tensor:
#      x y z
#    x 1.914230 0.000000 -0.026970 
#    y 0.000000 1.978520 0.000000 
#    z -0.026970 0.000000 1.816500 
# 
# From -- ./inp_files/11451.got.cif
#   From: 2010.05.17/outbox.cif.g08.bks.cpg/sg10_6_cif.got.tgz:11451.got - 2010.06.03 11:33:40.
