data_PCOD9146787
_publ_section_title
;
Structure prediction by ZEFSAII (Michael W. Deem and Ramdas Pophale) SiO2 
 PCOD9146787
Probable space group: P 2/M
;
_chemical_formula_sum "Si O2"
_cell_formula_units_Z 28
_cell_length_a 26.561632
_cell_length_b 8.855279
_cell_length_c 21.273457
_cell_angle_alpha 90.000000
_cell_angle_beta 160.354643
_cell_angle_gamma 90.000000
_cell_volume 1682.244813
_symmetry_space_group_name_H-M "P 2/M"
_symmetry_group_IT_number 10
_symmetry_cell_setting 'monoclinic'
loop_
_space_group_symop_operation_xyz
x,y,z
-x,y,-z
-x,-y,-z
x,-y,z
loop_
_atom_site_type_symbol
_atom_site_label
_atom_site_fract_x
_atom_site_fract_y
_atom_site_fract_z
Si Si1 0.839081 0.683347 0.546841
Si Si2 0.762164 0.682637 0.194942
Si Si3 0.415641 0.820174 0.337321
Si Si4 0.862466 0.323110 0.038837
Si Si5 0.517875 0.179224 0.200166
Si Si6 0.056763 0.316938 0.468452
Si Si7 0.585773 0.675821 0.792884
O O1 0.831733 0.500000 0.538234
O O2 0.679370 0.750176 0.375992
O O3 0.891526 0.733906 0.539098
O O4 0.970270 0.726886 0.749970
O O5 0.748376 0.500000 0.175725
O O6 0.826013 0.723485 0.338681
O O7 0.892089 0.730027 0.298375
O O8 0.606051 0.756097 0.993317
O O9 0.500000 0.775258 0.500000
O O10 0.478872 0.738627 0.349120
O O11 0.426196 0.000000 0.342467
O O12 0.240956 0.770029 0.130604
O O13 0.861490 0.500000 0.019923
O O14 0.764403 0.313582 0.988298
O O15 0.465011 0.231043 0.207217
O O16 0.524264 0.000000 0.203796
O O17 0.052408 0.500000 0.462044
O O18 0.549340 0.500000 0.759125
#
# Coordination Sequence:
#
# PCOD9146787 Si02
#       7
#     4   4   4   4   4   4   4
#     4  10  19  34  52  73 101 136 176 216 256 303
#     4   9  17  34  57  77  97 128 170 220 264 306
#     4   9  17  30  52  83 114 138 161 197 248 304
#     4   8  17  31  53  79 101 130 172 214 250 293
#     4  12  24  34  46  72 106 140 173 211 261 315
#     4   8  16  32  57  80  96 123 173 222 261 304
#     4   9  18  34  55  77  99 131 172 216 251 292
#
# _framework density 16.644425999999999
#
# number of rings (size 3 to 8) (size 9 to 14) (size 15 to 20)
#    0.857    1.857    0.000    3.429    0.000    4.571 
#    0.000    5.714    0.000    0.857    0.000    6.000 
#    0.000    0.000    0.000    0.000    0.000    0.000 
#
# Total GULP energy -155875.703407 kJ/mol
# GULP energy per Si atom -5566.989407 kJ/mol
# Density = 1.660654 g / cm^3
# Si number density = 16.644426 Si / 1000 Ang^3
#
#
#
# Elastic Constant Matrix: (Units=GPa)
#
#
# Indices 1 2 3 4 5 6 
#
# 1 16.1602 12.2692 37.9991 0.0000 -0.5119 0.0000
# 2 12.2692 43.5651 41.0524 0.0000 -0.7915 0.0000
# 3 37.9991 41.0524 141.9941 0.0000 -0.1706 0.0000
# 4 0.0000 0.0000 0.0000 -12.3169 0.0000 -1.7147
# 5 -0.5119 -0.7915 -0.1706 0.0000 18.1142 0.0000
# 6 0.0000 0.0000 0.0000 -1.7147 0.0000 17.9357
#
#
#
# Elastic Compliance Matrix: (Units=1/GPa)
#
#
# Indices 1 2 3 4 5 6 
#
# 1 0.168668 -0.006733 -0.043186 0.000000 0.004066 0.000000
# 2 -0.006733 0.031848 -0.007405 0.000000 0.001132 0.000000
# 3 -0.043186 -0.007405 0.020739 0.000000 -0.001349 0.000000
# 4 0.000000 0.000000 0.000000 -0.080123 0.000000 -0.007660
# 5 0.004066 0.001132 -0.001349 0.000000 0.055357 0.000000
# 6 0.000000 0.000000 0.000000 -0.007660 0.000000 0.055022
#
#
# Mechanical properties :
#
#
# Convention : Reuss Voigt Hill
#
# Bulk Modulus (GPa) = 9.38011 42.70676 26.04343
# Shear Modulus (GPa) = 12.44727 12.10653 12.27690
#
# Velocity S-wave (km/s) = 2.73762 2.69989 2.71882
# Velocity P-wave (km/s) = 3.95482 5.95258 5.05340
#
# Compressibility (1/GPa) = 0.10660861
#
# Stress axis : x y z
#
# Youngs Moduli (GPa) = 5.92880 31.39869 48.21892
#
# Poissons Ratio (x) = 0.21140 2.08238
# Poissons Ratio (y) = 0.03992 0.35705
# Poissons Ratio (z) = 0.25604 0.23250
#
# Static dielectric constant tensor:
#      x y z
#    x 1.554170 0.000000 -0.008140 
#    y 0.000000 1.553420 0.000000 
#    z -0.008140 0.000000 1.563220 
# 
# From -- ./inp_files/86693.got.cif
#   From: 2010.05.17/outbox.cif.g08.bks.cpg/sg10_44_cif.got.tgz:86693.got - 2010.06.03 11:33:40.
