data_PCOD9146194
_publ_section_title
;
Structure prediction by ZEFSAII (Michael W. Deem and Ramdas Pophale) SiO2 
 PCOD9146194
Probable space group: P 2/M
;
_chemical_formula_sum "Si O2"
_cell_formula_units_Z 24
_cell_length_a 19.508869
_cell_length_b 17.115343
_cell_length_c 12.769619
_cell_angle_alpha 90.000000
_cell_angle_beta 18.422013
_cell_angle_gamma 90.000000
_cell_volume 1347.414985
_symmetry_space_group_name_H-M "P 2/M"
_symmetry_group_IT_number 10
_symmetry_cell_setting 'monoclinic'
loop_
_space_group_symop_operation_xyz
x,y,z
-x,y,-z
-x,-y,-z
x,-y,z
loop_
_atom_site_type_symbol
_atom_site_label
_atom_site_fract_x
_atom_site_fract_y
_atom_site_fract_z
Si Si1 0.731423 0.170661 0.715047
Si Si2 0.652557 0.000000 0.073213
Si Si3 0.406129 0.411514 0.755001
Si Si4 0.764837 0.296843 0.296622
Si Si5 0.849459 0.731495 0.930393
Si Si6 0.875214 0.000000 0.520568
Si Si7 0.443718 0.830231 0.800375
O O1 0.911688 0.233984 0.425735
O O2 0.804692 0.082960 0.574063
O O3 0.500000 0.187444 0.000000
O O4 0.700177 0.171554 0.885894
O O5 0.753919 0.000000 0.809128
O O6 0.866614 0.000000 0.835575
O O7 0.519893 0.920633 0.278708
O O8 0.500000 0.414567 0.500000
O O9 0.361989 0.500000 0.852476
O O10 0.592604 0.367755 0.551318
O O11 0.200739 0.353396 0.047063
O O12 0.657067 0.221648 0.507661
O O13 0.787834 0.274855 0.141107
O O14 0.000000 0.316485 0.000000
O O15 0.690980 0.790004 0.097622
#
# Coordination Sequence:
#
# PCOD9146194 Si02
#       7
#     4   2   4   4   4   2   4
#     4  11  20  31  51  77 103 131 167 211 254 289
#     4   9  16  30  51  69  92 132 180 210 231 285
#     4   8  16  32  54  76  97 128 167 200 237 295
#     4  10  20  34  51  76 106 128 159 208 256 296
#     4  10  19  33  53  75 100 131 168 206 244 295
#     4   9  17  30  47  72  99 129 172 214 242 279
#     4  10  19  34  52  71  98 137 174 205 242 295
#
# _framework density 17.811885
#
# number of rings (size 3 to 8) (size 9 to 14) (size 15 to 20)
#    0.000    2.333    1.667    3.250    0.000    0.333 
#    0.000    2.917    0.000    8.500    0.000    0.000 
#    0.000    0.000    0.000    0.000    0.000    0.000 
#
# Total GULP energy -133779.082823 kJ/mol
# GULP energy per Si atom -5574.128451 kJ/mol
# Density = 1.777134 g / cm^3
# Si number density = 17.811885 Si / 1000 Ang^3
#
#
#
# Elastic Constant Matrix: (Units=GPa)
#
#
# Indices 1 2 3 4 5 6 
#
# 1 29.8618 17.1885 0.4824 0.0000 -1.6519 0.0000
# 2 17.1885 173.8246 61.8135 0.0000 -14.7646 0.0000
# 3 0.4824 61.8135 69.9995 0.0000 -21.2294 0.0000
# 4 0.0000 0.0000 0.0000 25.5960 0.0000 4.6742
# 5 -1.6519 -14.7646 -21.2294 0.0000 27.5165 0.0000
# 6 0.0000 0.0000 0.0000 4.6742 0.0000 13.5450
#
#
#
# Elastic Compliance Matrix: (Units=1/GPa)
#
#
# Indices 1 2 3 4 5 6 
#
# 1 0.036632 -0.005270 0.005497 0.000000 0.003612 0.000000
# 2 -0.005270 0.009198 -0.008727 0.000000 -0.002114 0.000000
# 3 0.005497 -0.008727 0.026937 0.000000 0.016430 0.000000
# 4 0.000000 0.000000 0.000000 0.041696 0.000000 -0.014389
# 5 0.003612 -0.002114 0.016430 0.000000 0.048100 0.000000
# 6 0.000000 0.000000 0.000000 -0.014389 0.000000 0.078793
#
#
# Mechanical properties :
#
#
# Convention : Reuss Voigt Hill
#
# Bulk Modulus (GPa) = 17.93180 48.07273 33.00226
# Shear Modulus (GPa) = 18.05399 26.27827 22.16613
#
# Velocity S-wave (km/s) = 3.18715 3.84516 3.53151
# Velocity P-wave (km/s) = 4.86139 6.83823 5.93273
#
# Compressibility (1/GPa) = 0.05576686
#
# Stress axis : x y z
#
# Youngs Moduli (GPa) = 27.29834 108.71973 37.12307
#
# Poissons Ratio (x) = 0.57299 -0.20407
# Poissons Ratio (y) = 0.14387 0.32398
# Poissons Ratio (z) = -0.15006 0.94882
#
# Static dielectric constant tensor:
#      x y z
#    x 1.621390 0.000000 0.002830 
#    y 0.000000 1.627730 0.000000 
#    z 0.002830 0.000000 1.604700 
# 
# From -- ./inp_files/25748.got.cif
#   From: 2010.05.17/outbox.cif.g08.bks.cpg/sg10_13_cif.got.tgz:25748.got - 2010.06.03 11:33:40.
