data_PCOD9146502
_publ_section_title
;
Structure prediction by ZEFSAII (Michael W. Deem and Ramdas Pophale) SiO2 
 PCOD9146502
Probable space group: P 2/M
;
_chemical_formula_sum "Si O2"
_cell_formula_units_Z 28
_cell_length_a 15.104403
_cell_length_b 7.380114
_cell_length_c 12.728783
_cell_angle_alpha 90.000000
_cell_angle_beta 123.844843
_cell_angle_gamma 90.000000
_cell_volume 1178.470420
_symmetry_space_group_name_H-M "P 2/M"
_symmetry_group_IT_number 10
_symmetry_cell_setting 'monoclinic'
loop_
_space_group_symop_operation_xyz
x,y,z
-x,y,-z
-x,-y,-z
x,-y,z
loop_
_atom_site_type_symbol
_atom_site_label
_atom_site_fract_x
_atom_site_fract_y
_atom_site_fract_z
Si Si1 0.693984 0.718896 0.846728
Si Si2 0.762666 0.221391 0.469647
Si Si3 0.420754 0.706533 0.033122
Si Si4 0.932039 0.719382 0.056210
Si Si5 0.768786 0.219711 0.240967
Si Si6 0.000044 0.208010 0.333734
Si Si7 0.381832 0.786746 0.435574
O O1 0.692959 0.500000 0.852375
O O2 0.675632 0.768648 0.714281
O O3 0.603070 0.785715 0.867631
O O4 0.810307 0.780090 0.961523
O O5 0.726242 0.268243 0.328199
O O6 0.687625 0.286872 0.513988
O O7 0.884485 0.285934 0.564301
O O8 0.765602 0.000000 0.477018
O O9 0.458752 0.500000 0.074330
O O10 0.306601 0.705924 0.899459
O O11 0.500000 0.792881 0.000000
O O12 0.932709 0.500000 0.061423
O O13 0.982549 0.787132 0.197232
O O14 0.000000 0.774253 0.000000
O O15 0.890767 0.284080 0.309431
O O16 0.768434 0.000000 0.230913
O O17 0.003756 0.000000 0.372963
O O18 0.500000 0.708415 0.500000
O O19 0.394462 0.000000 0.466719
#
# Coordination Sequence:
#
# PCOD9146502 Si02
#       7
#     4   4   4   4   4   4   4
#     4  10  21  38  57  79 110 144 178 223 273 322
#     4   9  19  36  55  79 114 147 178 225 275 321
#     4  10  22  39  58  81 111 146 183 225 276 326
#     4  10  20  34  54  79 110 145 180 222 271 320
#     4  10  20  35  58  85 110 142 184 226 273 326
#     4  10  19  33  55  82 109 142 182 221 271 329
#     4  10  22  38  57  81 109 144 184 226 271 320
#
# _framework density 23.759612000000001
#
# number of rings (size 3 to 8) (size 9 to 14) (size 15 to 20)
#    0.000    2.143    1.429    1.286    2.000    3.714 
#    0.000    1.429    0.000    1.714    0.000    0.000 
#    0.000    0.000    0.000    0.000    0.000    0.000 
#
# Total GULP energy -156547.621851 kJ/mol
# GULP energy per Si atom -5590.986495 kJ/mol
# Density = 2.370553 g / cm^3
# Si number density = 23.759612 Si / 1000 Ang^3
#
#
#
# Elastic Constant Matrix: (Units=GPa)
#
#
# Indices 1 2 3 4 5 6 
#
# 1 132.9856 5.9272 10.5498 0.0000 -37.7628 0.0000
# 2 5.9272 88.2222 -14.0405 0.0000 0.3479 0.0000
# 3 10.5498 -14.0405 73.8792 0.0000 -27.3372 0.0000
# 4 0.0000 0.0000 0.0000 -23.0883 0.0000 12.9131
# 5 -37.7628 0.3479 -27.3372 0.0000 49.2010 0.0000
# 6 0.0000 0.0000 0.0000 12.9131 0.0000 -12.9475
#
#
#
# Elastic Compliance Matrix: (Units=1/GPa)
#
#
# Indices 1 2 3 4 5 6 
#
# 1 0.009805 -0.000431 0.001641 0.000000 0.008441 0.000000
# 2 -0.000431 0.011790 0.002705 0.000000 0.001089 0.000000
# 3 0.001641 0.002705 0.017969 0.000000 0.011224 0.000000
# 4 0.000000 0.000000 0.000000 -0.097949 0.000000 -0.097689
# 5 0.008441 0.001089 0.011224 0.000000 0.033032 0.000000
# 6 0.000000 0.000000 0.000000 -0.097689 0.000000 -0.174665
#
#
# Mechanical properties :
#
#
# Convention : Reuss Voigt Hill
#
# Bulk Modulus (GPa) = 21.09911 33.32891 27.21401
# Shear Modulus (GPa) = -26.03493 22.14307 -1.94593
#
# Velocity S-wave (km/s) = -3.31382 3.05612 -0.90597
# Velocity P-wave (km/s) = 2.39633 5.14890 3.22248
#
# Compressibility (1/GPa) = 0.04739537
#
# Stress axis : x y z
#
# Youngs Moduli (GPa) = 101.98367 84.81630 55.65257
#
# Poissons Ratio (x) = 0.03654 -0.09134
# Poissons Ratio (y) = 0.04394 -0.15055
# Poissons Ratio (z) = -0.16738 -0.22944
#
# Static dielectric constant tensor:
#      x y z
#    x 1.911330 0.000000 -0.003400 
#    y 0.000000 1.906750 0.000000 
#    z -0.003400 0.000000 1.831310 
# 
# From -- ./inp_files/46041.got.cif
#   From: 2010.05.17/outbox.cif.g08.bks.cpg/sg10_24_cif.got.tgz:46041.got - 2010.06.03 11:33:40.
