data_PCOD9146007
_publ_section_title
;
Structure prediction by ZEFSAII (Michael W. Deem and Ramdas Pophale) SiO2 
 PCOD9146007
Probable space group: P 2/M
;
_chemical_formula_sum "Si O2"
_cell_formula_units_Z 28
_cell_length_a 13.044338
_cell_length_b 7.477459
_cell_length_c 14.939347
_cell_angle_alpha 90.000000
_cell_angle_beta 123.226643
_cell_angle_gamma 90.000000
_cell_volume 1218.929616
_symmetry_space_group_name_H-M "P 2/M"
_symmetry_group_IT_number 10
_symmetry_cell_setting 'monoclinic'
loop_
_space_group_symop_operation_xyz
x,y,z
-x,y,-z
-x,-y,-z
x,-y,z
loop_
_atom_site_type_symbol
_atom_site_label
_atom_site_fract_x
_atom_site_fract_y
_atom_site_fract_z
Si Si1 0.754349 0.283351 0.268972
Si Si2 0.439096 0.710405 0.559545
Si Si3 0.025245 0.714557 0.736539
Si Si4 0.177186 0.718707 0.501540
Si Si5 0.352757 0.782979 0.198025
Si Si6 0.517387 0.793539 0.910537
Si Si7 0.915755 0.213518 0.879106
O O1 0.744207 0.500000 0.264086
O O2 0.821414 0.231000 0.393494
O O3 0.616812 0.212319 0.198512
O O4 0.838695 0.224714 0.226123
O O5 0.500000 0.789509 0.500000
O O6 0.418054 0.500000 0.532429
O O7 0.306644 0.781506 0.523002
O O8 0.535986 0.728191 0.685190
O O9 0.027654 0.500000 0.731097
O O10 0.931168 0.779385 0.615069
O O11 0.975638 0.755913 0.811131
O O12 0.173864 0.500000 0.499715
O O13 0.385061 0.718173 0.113350
O O14 0.223270 0.719475 0.175367
O O15 0.352186 0.000000 0.195745
O O16 0.554103 0.000000 0.942451
O O17 0.500000 0.709395 0.000000
O O18 0.908266 0.000000 0.886430
O O19 0.000000 0.283605 0.000000
#
# Coordination Sequence:
#
# PCOD9146007 Si02
#       7
#     4   4   4   4   4   4   4
#     4  10  20  36  59  87 116 148 185 227 280 334
#     4  10  19  32  55  84 112 147 185 223 272 331
#     4  10  21  37  59  86 114 147 189 232 275 330
#     4   9  17  33  55  82 116 148 180 221 277 335
#     4  10  21  38  57  82 111 144 187 231 278 329
#     4  10  22  38  59  84 112 149 190 231 278 332
#     4  10  23  41  60  80 109 150 191 232 281 334
#
# _framework density 22.970973999999998
#
# number of rings (size 3 to 8) (size 9 to 14) (size 15 to 20)
#    0.000    2.143    1.429    1.286    2.000    4.857 
#    0.000    1.429    0.000    1.714    0.000    0.000 
#    0.000    0.000    0.000    0.000    0.000    0.000 
#
# Total GULP energy -156459.680899 kJ/mol
# GULP energy per Si atom -5587.845746 kJ/mol
# Density = 2.291869 g / cm^3
# Si number density = 22.970974 Si / 1000 Ang^3
#
#
#
# Elastic Constant Matrix: (Units=GPa)
#
#
# Indices 1 2 3 4 5 6 
#
# 1 149.8114 -5.0613 5.0573 0.0000 -24.8630 0.0000
# 2 -5.0613 59.7457 -14.7365 0.0000 -0.1329 0.0000
# 3 5.0573 -14.7365 50.2238 0.0000 -23.0983 0.0000
# 4 0.0000 0.0000 0.0000 12.1735 0.0000 5.2576
# 5 -24.8630 -0.1329 -23.0983 0.0000 45.0719 0.0000
# 6 0.0000 0.0000 0.0000 5.2576 0.0000 -5.1525
#
#
#
# Elastic Compliance Matrix: (Units=1/GPa)
#
#
# Indices 1 2 3 4 5 6 
#
# 1 0.007499 0.001124 0.001935 0.000000 0.005132 0.000000
# 2 0.001124 0.018675 0.007427 0.000000 0.004481 0.000000
# 3 0.001935 0.007427 0.029303 0.000000 0.016106 0.000000
# 4 0.000000 0.000000 0.000000 0.057018 0.000000 0.058181
# 5 0.005132 0.004481 0.016106 0.000000 0.033285 0.000000
# 6 0.000000 0.000000 0.000000 0.058181 0.000000 -0.134712
#
#
# Mechanical properties :
#
#
# Convention : Reuss Voigt Hill
#
# Bulk Modulus (GPa) = 13.08063 25.58886 19.33474
# Shear Modulus (GPa) = 320.95680 28.72000 174.83840
#
# Velocity S-wave (km/s) = 11.83326 3.53976 8.73373
# Velocity P-wave (km/s) = 13.87113 5.27924 10.49473
#
# Compressibility (1/GPa) = 0.07644894
#
# Stress axis : x y z
#
# Youngs Moduli (GPa) = 133.34411 53.54819 34.12654
#
# Poissons Ratio (x) = -0.06018 -0.06603
# Poissons Ratio (y) = -0.14987 -0.25347
# Poissons Ratio (z) = -0.25799 -0.39772
#
# Static dielectric constant tensor:
#      x y z
#    x 1.861110 0.000000 -0.021220 
#    y 0.000000 1.900420 0.000000 
#    z -0.021220 0.000000 1.820170 
# 
# From -- ./inp_files/49188.got.cif
#   From: 2010.05.17/outbox.cif.g08.bks.cpg/sg10_25_cif.got.tgz:49188.got - 2010.06.03 11:33:40.
