data_PCOD9146961
_publ_section_title
;
Structure prediction by ZEFSAII (Michael W. Deem and Ramdas Pophale) SiO2 
 PCOD9146961
Probable space group: P 2/M
;
_chemical_formula_sum "Si O2"
_cell_formula_units_Z 28
_cell_length_a 12.097293
_cell_length_b 14.105081
_cell_length_c 9.070718
_cell_angle_alpha 90.000000
_cell_angle_beta 58.724264
_cell_angle_gamma 90.000000
_cell_volume 1322.843178
_symmetry_space_group_name_H-M "P 2/M"
_symmetry_group_IT_number 10
_symmetry_cell_setting 'monoclinic'
loop_
_space_group_symop_operation_xyz
x,y,z
-x,y,-z
-x,-y,-z
x,-y,z
loop_
_atom_site_type_symbol
_atom_site_label
_atom_site_fract_x
_atom_site_fract_y
_atom_site_fract_z
Si Si1 0.362567 0.610377 0.668655
Si Si2 0.924113 0.110373 0.359080
Si Si3 0.163439 0.236537 0.165405
Si Si4 0.681230 0.109072 0.749620
Si Si5 0.635843 0.389418 0.975894
Si Si6 0.196316 0.223020 0.817513
Si Si7 0.449921 0.890396 0.703406
O O1 0.500000 0.636797 0.500000
O O2 0.337006 0.500000 0.649629
O O3 0.247579 0.681811 0.702267
O O4 0.372982 0.617526 0.839636
O O5 0.802414 0.113518 0.552835
O O6 0.871210 0.146335 0.238736
O O7 0.036689 0.185309 0.318014
O O8 0.970526 0.000000 0.323855
O O9 0.277024 0.163926 0.134341
O O10 0.234446 0.333674 0.162439
O O11 0.127277 0.247496 0.018330
O O12 0.558701 0.144284 0.741744
O O13 0.657720 0.000000 0.802419
O O14 0.647787 0.500000 0.928254
O O15 0.500000 0.354761 0.000000
O O16 0.326348 0.174152 0.785434
O O17 0.500000 0.889470 0.500000
O O18 0.419577 0.000000 0.758893
#
# Coordination Sequence:
#
# PCOD9146961 Si02
#       7
#     4   4   4   4   4   4   4
#     4   9  19  35  57  87 117 144 184 237 290 342
#     4  11  23  41  59  79 115 163 201 231 280 346
#     4  11  24  36  58  86 115 148 193 236 284 343
#     4  10  22  38  58  81 113 154 196 241 288 336
#     4   9  20  39  61  85 116 150 185 233 295 351
#     4  11  22  35  58  85 115 151 191 239 289 344
#     4  10  19  34  55  82 111 146 190 240 292 341
#
# _framework density 21.166530000000002
#
# number of rings (size 3 to 8) (size 9 to 14) (size 15 to 20)
#    0.000    1.857    1.429    2.143    4.000    4.000 
#    0.000    2.143    0.000    5.143    0.000    0.000 
#    0.000    0.000    0.000    0.000    0.000    0.000 
#
# Total GULP energy -156211.928595 kJ/mol
# GULP energy per Si atom -5578.997450 kJ/mol
# Density = 2.111835 g / cm^3
# Si number density = 21.166530 Si / 1000 Ang^3
#
#
#
# Elastic Constant Matrix: (Units=GPa)
#
#
# Indices 1 2 3 4 5 6 
#
# 1 91.4240 31.9869 10.3729 0.0000 1.2254 0.0000
# 2 31.9869 87.3842 26.8755 0.0000 -13.8551 0.0000
# 3 10.3729 26.8755 40.8050 0.0000 -9.1893 0.0000
# 4 0.0000 0.0000 0.0000 24.5124 0.0000 -21.3420
# 5 1.2254 -13.8551 -9.1893 0.0000 32.0650 0.0000
# 6 0.0000 0.0000 0.0000 -21.3420 0.0000 160.4694
#
#
#
# Elastic Compliance Matrix: (Units=1/GPa)
#
#
# Indices 1 2 3 4 5 6 
#
# 1 0.012770 -0.004923 -0.000634 0.000000 -0.002797 0.000000
# 2 -0.004923 0.016679 -0.008625 0.000000 0.004923 0.000000
# 3 -0.000634 -0.008625 0.031551 0.000000 0.005339 0.000000
# 4 0.000000 0.000000 0.000000 0.046138 0.000000 0.006136
# 5 -0.002797 0.004923 0.005339 0.000000 0.034951 0.000000
# 6 0.000000 0.000000 0.000000 0.006136 0.000000 0.007048
#
#
# Mechanical properties :
#
#
# Convention : Reuss Voigt Hill
#
# Bulk Modulus (GPa) = 30.64052 39.78707 35.21380
# Shear Modulus (GPa) = 26.54214 53.43455 39.98835
#
# Velocity S-wave (km/s) = 3.54498 5.02987 4.35124
# Velocity P-wave (km/s) = 5.59135 7.25057 6.47434
#
# Compressibility (1/GPa) = 0.03263652
#
# Stress axis : x y z
#
# Youngs Moduli (GPa) = 78.30950 59.95523 31.69457
#
# Poissons Ratio (x) = 0.29516 0.02008
# Poissons Ratio (y) = 0.38551 0.27337
# Poissons Ratio (z) = 0.04962 0.51713
#
# Static dielectric constant tensor:
#      x y z
#    x 1.777680 0.000000 -0.014050 
#    y 0.000000 1.778970 0.000000 
#    z -0.014050 0.000000 1.818790 
# 
# From -- ./inp_files/25220.got.cif
#   From: 2010.05.17/outbox.cif.g08.bks.cpg/sg10_13_cif.got.tgz:25220.got - 2010.06.03 11:33:40.
