data_PCOD9146481
_publ_section_title
;
Structure prediction by ZEFSAII (Michael W. Deem and Ramdas Pophale) SiO2 
 PCOD9146481
Probable space group: P 2/M
;
_chemical_formula_sum "Si O2"
_cell_formula_units_Z 29
_cell_length_a 9.043701
_cell_length_b 37.701142
_cell_length_c 5.163019
_cell_angle_alpha 90.000000
_cell_angle_beta 57.592474
_cell_angle_gamma 90.000000
_cell_volume 1486.207231
_symmetry_space_group_name_H-M "P 2/M"
_symmetry_group_IT_number 10
_symmetry_cell_setting 'monoclinic'
loop_
_space_group_symop_operation_xyz
x,y,z
-x,y,-z
-x,-y,-z
x,-y,z
loop_
_atom_site_type_symbol
_atom_site_label
_atom_site_fract_x
_atom_site_fract_y
_atom_site_fract_z
Si Si1 0.877006 0.039176 0.865282
Si Si2 0.797148 0.560574 0.220035
Si Si3 0.500000 0.500000 0.500000
Si Si4 0.374373 0.182673 0.868109
Si Si5 0.376266 0.740364 0.864728
Si Si6 0.376136 0.105771 0.866596
Si Si7 0.888492 0.676775 0.845827
Si Si8 0.291508 0.394549 0.195066
O O1 0.000000 0.042612 0.500000
O O2 0.790065 0.000000 0.934763
O O3 0.748015 0.072086 0.003795
O O4 0.000000 0.039669 0.000000
O O5 0.651871 0.530733 0.410560
O O6 0.777151 0.590224 0.465763
O O7 0.749268 0.576705 0.986566
O O8 0.000000 0.548657 0.000000
O O9 0.500000 0.182639 0.500000
O O10 0.281399 0.220978 0.962056
O O11 0.280676 0.144431 0.952407
O O12 0.500000 0.182698 0.000000
O O13 0.500000 0.740622 0.500000
O O14 0.500000 0.736908 0.000000
O O15 0.250799 0.706972 0.959392
O O16 0.500000 0.103526 0.500000
O O17 0.500000 0.105291 0.000000
O O18 0.800422 0.641355 0.813088
O O19 0.000000 0.691182 0.500000
O O20 0.000000 0.668931 0.000000
O O21 0.500000 0.389036 0.000000
#
# Coordination Sequence:
#
# PCOD9146481 Si02
#       8
#     4   4   1   4   4   4   4   4
#     4  10  21  36  51  72 107 146 183 230 293 360
#     4  12  26  46  73 101 136 171 212 264 311 359
#     4  12  26  50  72 108 136 174 222 254 316 380
#     4   8  16  31  53  79 110 143 186 238 289 348
#     4  10  20  38  61  86 115 159 203 238 291 359
#     4  10  19  33  55  81 105 139 188 241 289 343
#     4  12  25  40  61  92 128 160 200 252 306 352
#     4  12  24  46  68  96 128 169 213 255 304 372
#
# _framework density 19.512758000000002
#
# number of rings (size 3 to 8) (size 9 to 14) (size 15 to 20)
#    0.000    1.379    1.379    4.759    0.000    2.759 
#    0.000    2.759    0.000    0.000    0.000    0.000 
#    0.000    0.000    0.000    0.000    0.000    0.000 
#
# Total GULP energy -161575.178473 kJ/mol
# GULP energy per Si atom -5571.557878 kJ/mol
# Density = 1.946835 g / cm^3
# Si number density = 19.512758 Si / 1000 Ang^3
#
#
#
# Elastic Constant Matrix: (Units=GPa)
#
#
# Indices 1 2 3 4 5 6 
#
# 1 100.0896 50.2887 44.8809 0.0000 0.4179 0.0000
# 2 50.2887 141.7317 19.3821 0.0000 -31.4715 0.0000
# 3 44.8809 19.3821 96.7779 0.0000 16.9562 0.0000
# 4 0.0000 0.0000 0.0000 756.0395 0.0000 -258.2905
# 5 0.4179 -31.4715 16.9562 0.0000 35.6752 0.0000
# 6 0.0000 0.0000 0.0000 -258.2905 0.0000 139.6317
#
#
#
# Elastic Compliance Matrix: (Units=1/GPa)
#
#
# Indices 1 2 3 4 5 6 
#
# 1 0.015032 -0.004981 -0.005643 0.000000 -0.001889 0.000000
# 2 -0.004981 0.011584 -0.001975 0.000000 0.011216 0.000000
# 3 -0.005643 -0.001975 0.014878 0.000000 -0.008747 0.000000
# 4 0.000000 0.000000 0.000000 0.003594 0.000000 0.006648
# 5 -0.001889 0.011216 -0.008747 0.000000 0.042104 0.000000
# 6 0.000000 0.000000 0.000000 0.006648 0.000000 0.019459
#
#
# Mechanical properties :
#
#
# Convention : Reuss Voigt Hill
#
# Bulk Modulus (GPa) = 61.36543 63.07807 62.22175
# Shear Modulus (GPa) = 36.42200 201.20577 118.81389
#
# Velocity S-wave (km/s) = 4.32507 10.16557 7.81169
# Velocity P-wave (km/s) = 7.51391 13.04538 10.64520
#
# Compressibility (1/GPa) = 0.01629582
#
# Stress axis : x y z
#
# Youngs Moduli (GPa) = 66.52531 86.32962 67.21424
#
# Poissons Ratio (x) = 0.43003 0.37926
# Poissons Ratio (y) = 0.33138 0.13274
# Poissons Ratio (z) = 0.37537 0.17049
#
# Static dielectric constant tensor:
#      x y z
#    x 1.660150 0.000000 -0.021090 
#    y 0.000000 1.724420 0.000000 
#    z -0.021090 0.000000 1.704510 
# 
# From -- ./inp_files/5504.got.cif
#   From: 2010.05.17/outbox.cif.g08.bks.cpg/sg10_3_cif.got.tgz:5504.got - 2010.06.03 11:33:40.
