data_PCOD9146863
_publ_section_title
;
Structure prediction by ZEFSAII (Michael W. Deem and Ramdas Pophale) SiO2 
 PCOD9146863
Probable space group: P 2/M
;
_chemical_formula_sum "Si O2"
_cell_formula_units_Z 32
_cell_length_a 17.883659
_cell_length_b 22.668820
_cell_length_c 11.437285
_cell_angle_alpha 90.000000
_cell_angle_beta 158.960998
_cell_angle_gamma 90.000000
_cell_volume 1664.587999
_symmetry_space_group_name_H-M "P 2/M"
_symmetry_group_IT_number 10
_symmetry_cell_setting 'monoclinic'
loop_
_space_group_symop_operation_xyz
x,y,z
-x,y,-z
-x,-y,-z
x,-y,z
loop_
_atom_site_type_symbol
_atom_site_label
_atom_site_fract_x
_atom_site_fract_y
_atom_site_fract_z
Si Si1 0.888511 0.161307 0.678126
Si Si2 0.619899 0.430346 0.550419
Si Si3 0.966468 0.333403 0.082573
Si Si4 0.805660 0.851911 0.295632
Si Si5 0.569494 0.377908 0.222180
Si Si6 0.447712 0.067924 0.783639
Si Si7 0.467769 0.248922 0.782744
Si Si8 0.301649 0.772022 0.287386
O O1 0.896086 0.139294 0.556301
O O2 0.747408 0.110148 0.531246
O O3 0.741021 0.219674 0.467035
O O4 0.122813 0.179530 0.054725
O O5 0.500000 0.420504 0.500000
O O6 0.659924 0.500000 0.601499
O O7 0.534772 0.410192 0.296745
O O8 0.822416 0.390278 0.858832
O O9 0.189749 0.358238 0.444054
O O10 0.836052 0.283411 0.961579
O O11 0.000000 0.308049 0.000000
O O12 0.000000 0.839742 0.500000
O O13 0.659724 0.905573 0.039430
O O14 0.648398 0.797354 0.069225
O O15 0.465296 0.313285 0.079218
O O16 0.500000 0.408493 0.000000
O O17 0.410196 0.000000 0.700997
O O18 0.500000 0.072787 0.000000
O O19 0.411111 0.251330 0.564001
O O20 0.500000 0.791469 0.500000
#
# Coordination Sequence:
#
# PCOD9146863 Si02
#       8
#     4   4   4   4   4   4   4   4
#     4  10  19  34  54  76 108 146 189 233 281 346
#     4  10  22  42  65  87 118 158 202 248 294 352
#     4  10  19  36  58  83 111 150 198 232 282 353
#     4  10  20  33  50  82 115 144 183 237 296 342
#     4  11  22  37  59  89 118 153 200 248 297 351
#     4   8  16  32  55  77 104 148 195 234 282 351
#     4  11  20  35  53  77 114 154 186 229 288 359
#     4  12  21  32  54  83 112 145 188 239 291 353
#
# _framework density 19.223976
#
# number of rings (size 3 to 8) (size 9 to 14) (size 15 to 20)
#    0.000    1.750    3.750    3.375    0.000    2.750 
#    0.000    0.625    0.000    7.875    0.000    0.000 
#    0.000    0.000    0.000    0.000    0.000    0.000 
#
# Total GULP energy -178157.584726 kJ/mol
# GULP energy per Si atom -5567.424523 kJ/mol
# Density = 1.918022 g / cm^3
# Si number density = 19.223976 Si / 1000 Ang^3
#
#
#
# Elastic Constant Matrix: (Units=GPa)
#
#
# Indices 1 2 3 4 5 6 
#
# 1 60.9134 9.0857 30.3729 0.0000 -3.8714 0.0000
# 2 9.0857 91.8967 21.1994 0.0000 0.5656 0.0000
# 3 30.3729 21.1994 83.4227 0.0000 9.2690 0.0000
# 4 0.0000 0.0000 0.0000 14.7113 0.0000 -0.9263
# 5 -3.8714 0.5656 9.2690 0.0000 26.3135 0.0000
# 6 0.0000 0.0000 0.0000 -0.9263 0.0000 14.9237
#
#
#
# Elastic Compliance Matrix: (Units=1/GPa)
#
#
# Indices 1 2 3 4 5 6 
#
# 1 0.020934 -0.000207 -0.008234 0.000000 0.005985 0.000000
# 2 -0.000207 0.011578 -0.002951 0.000000 0.000760 0.000000
# 3 -0.008234 -0.002951 0.016509 0.000000 -0.006963 0.000000
# 4 0.000000 0.000000 0.000000 0.068242 0.000000 0.004236
# 5 0.005985 0.000760 -0.006963 0.000000 0.041320 0.000000
# 6 0.000000 0.000000 0.000000 0.004236 0.000000 0.067270
#
#
# Mechanical properties :
#
#
# Convention : Reuss Voigt Hill
#
# Bulk Modulus (GPa) = 38.11565 39.72764 38.92165
# Shear Modulus (GPa) = 19.42628 22.89468 21.16048
#
# Velocity S-wave (km/s) = 3.18232 3.45475 3.32133
# Velocity P-wave (km/s) = 5.77694 6.05180 5.91597
#
# Compressibility (1/GPa) = 0.02623594
#
# Stress axis : x y z
#
# Youngs Moduli (GPa) = 47.76991 86.36747 60.57410
#
# Poissons Ratio (x) = 0.01788 0.49877
# Poissons Ratio (y) = 0.00989 0.17878
# Poissons Ratio (z) = 0.39334 0.25491
#
# Static dielectric constant tensor:
#      x y z
#    x 1.736650 0.000000 -0.017450 
#    y 0.000000 1.678450 0.000000 
#    z -0.017450 0.000000 1.704420 
# 
# From -- ./inp_files/54269.got.cif
#   From: 2010.05.17/outbox.cif.g08.bks.cpg/sg10_28_cif.got.tgz:54269.got - 2010.06.03 11:33:40.
