data_PCOD9146630
_publ_section_title
;
Structure prediction by ZEFSAII (Michael W. Deem and Ramdas Pophale) SiO2 
 PCOD9146630
Probable space group: P 2/M
;
_chemical_formula_sum "Si O2"
_cell_formula_units_Z 32
_cell_length_a 22.255647
_cell_length_b 8.679751
_cell_length_c 28.772593
_cell_angle_alpha 90.000000
_cell_angle_beta 161.254186
_cell_angle_gamma 90.000000
_cell_volume 1786.208729
_symmetry_space_group_name_H-M "P 2/M"
_symmetry_group_IT_number 10
_symmetry_cell_setting 'monoclinic'
loop_
_space_group_symop_operation_xyz
x,y,z
-x,y,-z
-x,-y,-z
x,-y,z
loop_
_atom_site_type_symbol
_atom_site_label
_atom_site_fract_x
_atom_site_fract_y
_atom_site_fract_z
Si Si1 0.501899 0.812845 0.948499
Si Si2 0.407354 0.313820 0.324940
Si Si3 0.216492 0.186476 0.659850
Si Si4 0.194464 0.815399 0.903618
Si Si5 0.482602 0.683499 0.188696
Si Si6 0.682459 0.816934 0.841807
Si Si7 0.912864 0.686091 0.835834
Si Si8 0.182165 0.314333 0.339629
O O1 0.326616 0.766350 0.787629
O O2 0.497687 0.000000 0.947174
O O3 0.500000 0.755853 0.000000
O O4 0.688510 0.770216 0.056580
O O5 0.403612 0.500000 0.318152
O O6 0.366826 0.241801 0.245438
O O7 0.247552 0.270925 0.244943
O O8 0.611796 0.268551 0.493112
O O9 0.334451 0.253987 0.703520
O O10 0.000000 0.232496 0.500000
O O11 0.225614 0.000000 0.663926
O O12 0.983398 0.757601 0.751252
O O13 0.201267 0.000000 0.912679
O O14 0.307941 0.743764 0.029981
O O15 0.481307 0.500000 0.187958
O O16 0.454994 0.746663 0.220125
O O17 0.674038 0.000000 0.837847
O O18 0.890772 0.760403 0.006996
O O19 0.933989 0.500000 0.852533
O O20 0.852911 0.729365 0.739757
O O21 0.169611 0.500000 0.333119
#
# Coordination Sequence:
#
# PCOD9146630 Si02
#       8
#     4   4   4   4   4   4   4   4
#     4   8  15  30  52  77 107 142 178 215 259 317
#     4  10  22  39  57  82 116 151 188 230 282 343
#     4   9  18  34  56  83 113 143 180 225 275 329
#     4  10  19  33  56  84 112 144 188 233 276 327
#     4  11  21  36  59  82 109 148 193 233 277 332
#     4  12  24  38  57  83 114 148 190 238 289 336
#     4  10  20  37  62  85 108 147 192 231 277 342
#     4  10  20  36  59  84 113 149 188 229 279 337
#
# _framework density 17.915039
#
# number of rings (size 3 to 8) (size 9 to 14) (size 15 to 20)
#    0.000    2.000    1.250    4.125    0.000    4.250 
#    2.250    0.000    0.000   11.625    0.000    0.000 
#    0.000    0.000    0.000    0.000    0.000    0.000 
#
# Total GULP energy -178675.638168 kJ/mol
# GULP energy per Si atom -5583.613693 kJ/mol
# Density = 1.787426 g / cm^3
# Si number density = 17.915039 Si / 1000 Ang^3
#
#
#
# Elastic Constant Matrix: (Units=GPa)
#
#
# Indices 1 2 3 4 5 6 
#
# 1 168.3359 43.7401 97.2345 0.0000 1.2740 0.0000
# 2 43.7401 37.5938 45.3507 0.0000 1.5055 0.0000
# 3 97.2345 45.3507 144.0389 0.0000 7.8082 0.0000
# 4 0.0000 0.0000 0.0000 62.1824 0.0000 -20.3669
# 5 1.2740 1.5055 7.8082 0.0000 28.7374 0.0000
# 6 0.0000 0.0000 0.0000 -20.3669 0.0000 44.2210
#
#
#
# Elastic Compliance Matrix: (Units=1/GPa)
#
#
# Indices 1 2 3 4 5 6 
#
# 1 0.010539 -0.005881 -0.005333 0.000000 0.001290 0.000000
# 2 -0.005881 0.046231 -0.010625 0.000000 0.000726 0.000000
# 3 -0.005333 -0.010625 0.014052 0.000000 -0.003025 0.000000
# 4 0.000000 0.000000 0.000000 0.018939 0.000000 0.008723
# 5 0.001290 0.000726 -0.003025 0.000000 0.035525 0.000000
# 6 0.000000 0.000000 0.000000 0.008723 0.000000 0.026631
#
#
# Mechanical properties :
#
#
# Convention : Reuss Voigt Hill
#
# Bulk Modulus (GPa) = 36.84038 80.29103 58.56570
# Shear Modulus (GPa) = 24.43289 37.93771 31.18530
#
# Velocity S-wave (km/s) = 3.69700 4.60678 4.17674
# Velocity P-wave (km/s) = 6.23156 8.55637 7.48478
#
# Compressibility (1/GPa) = 0.02714413
#
# Stress axis : x y z
#
# Youngs Moduli (GPa) = 94.88406 21.63060 71.16408
#
# Poissons Ratio (x) = 0.12720 0.37952
# Poissons Ratio (y) = 0.55797 0.75615
# Poissons Ratio (z) = 0.50602 0.22983
#
# Static dielectric constant tensor:
#      x y z
#    x 1.602840 0.000000 0.004380 
#    y 0.000000 1.603870 0.000000 
#    z 0.004380 0.000000 1.593130 
# 
# From -- ./inp_files/93787.got.cif
#   From: 2010.05.17/outbox.cif.g08.bks.cpg/sg10_47_cif.got.tgz:93787.got - 2010.06.03 11:33:40.
