data_PCOD9146015
_publ_section_title
;
Structure prediction by ZEFSAII (Michael W. Deem and Ramdas Pophale) SiO2 
 PCOD9146015
Probable space group: P 2/M
;
_chemical_formula_sum "Si O2"
_cell_formula_units_Z 30
_cell_length_a 14.876940
_cell_length_b 22.289065
_cell_length_c 4.992699
_cell_angle_alpha 90.000000
_cell_angle_beta 115.875550
_cell_angle_gamma 90.000000
_cell_volume 1489.566345
_symmetry_space_group_name_H-M "P 2/M"
_symmetry_group_IT_number 10
_symmetry_cell_setting 'monoclinic'
loop_
_space_group_symop_operation_xyz
x,y,z
-x,y,-z
-x,-y,-z
x,-y,z
loop_
_atom_site_type_symbol
_atom_site_label
_atom_site_fract_x
_atom_site_fract_y
_atom_site_fract_z
Si Si1 0.429619 0.570138 0.168239
Si Si2 0.231254 0.929850 0.364790
Si Si3 0.242946 0.346004 0.788320
Si Si4 0.387641 0.840415 0.311781
Si Si5 0.107989 0.071003 0.693890
Si Si6 0.613394 0.760084 0.192800
Si Si7 0.073673 0.500000 0.847833
Si Si8 0.118570 0.373577 0.097140
O O1 0.500000 0.592935 0.500000
O O2 0.404556 0.500000 0.189763
O O3 0.500000 0.572300 0.000000
O O4 0.329452 0.607821 0.993864
O O5 0.313947 0.890146 0.328765
O O6 0.193674 0.906858 0.603467
O O7 0.261828 0.000000 0.420621
O O8 0.137807 0.925514 0.040497
O O9 0.303760 0.288263 0.768726
O O10 0.177827 0.370740 0.453572
O O11 0.169911 0.331201 0.942840
O O12 0.500000 0.862948 0.500000
O O13 0.377245 0.782744 0.492324
O O14 0.376333 0.816629 0.995813
O O15 0.000000 0.098353 0.500000
O O16 0.102590 0.000000 0.618021
O O17 0.500000 0.736558 0.000000
O O18 0.000000 0.500000 0.500000
O O19 0.131332 0.438187 0.964758
O O20 0.000000 0.500000 0.000000
O O21 0.000000 0.364065 0.000000
#
# Coordination Sequence:
#
# PCOD9146015 Si02
#       8
#     4   4   4   4   4   4   2   4
#     4  10  22  38  56  85 123 149 178 232 294 350
#     4  10  19  32  55  85 115 149 187 234 290 352
#     4  12  23  38  66  86 112 157 200 238 291 348
#     4  10  21  38  59  83 116 149 186 240 290 340
#     4   9  17  30  50  78 113 151 188 228 273 328
#     4  10  22  40  62  86 109 147 200 244 282 340
#     4  10  20  38  58  82 118 154 190 238 282 336
#     4  11  24  39  60  89 120 154 196 244 289 345
#
# _framework density 20.140091000000002
#
# number of rings (size 3 to 8) (size 9 to 14) (size 15 to 20)
#    0.000    1.733    0.000    5.200    1.867    3.467 
#    0.000    0.000    0.000   20.800    0.000    0.000 
#    0.000    0.000    0.000    0.000    0.000    0.000 
#
# Total GULP energy -167456.177786 kJ/mol
# GULP energy per Si atom -5581.872593 kJ/mol
# Density = 2.009425 g / cm^3
# Si number density = 20.140091 Si / 1000 Ang^3
#
#
#
# Elastic Constant Matrix: (Units=GPa)
#
#
# Indices 1 2 3 4 5 6 
#
# 1 95.1814 12.3842 34.9140 0.0000 7.4948 0.0000
# 2 12.3842 19.7628 13.0050 0.0000 19.3120 0.0000
# 3 34.9140 13.0050 123.5709 0.0000 1.5070 0.0000
# 4 0.0000 0.0000 0.0000 12.4085 0.0000 -3.1303
# 5 7.4948 19.3120 1.5070 0.0000 40.4553 0.0000
# 6 0.0000 0.0000 0.0000 -3.1303 0.0000 20.0893
#
#
#
# Elastic Compliance Matrix: (Units=1/GPa)
#
#
# Indices 1 2 3 4 5 6 
#
# 1 0.012346 -0.007101 -0.002756 0.000000 0.001205 0.000000
# 2 -0.007101 0.111359 -0.009085 0.000000 -0.051505 0.000000
# 3 -0.002756 -0.009085 0.009773 0.000000 0.004484 0.000000
# 4 0.000000 0.000000 0.000000 0.083887 0.000000 0.013071
# 5 0.001205 -0.051505 0.004484 0.000000 0.048915 0.000000
# 6 0.000000 0.000000 0.000000 0.013071 0.000000 0.051814
#
#
# Mechanical properties :
#
#
# Convention : Reuss Voigt Hill
#
# Bulk Modulus (GPa) = 10.46093 39.90236 25.18164
# Shear Modulus (GPa) = 12.89185 26.47142 19.68163
#
# Velocity S-wave (km/s) = 2.53278 3.62935 3.12947
# Velocity P-wave (km/s) = 3.70927 6.11705 5.05851
#
# Compressibility (1/GPa) = 0.09559383
#
# Stress axis : x y z
#
# Youngs Moduli (GPa) = 80.99739 8.98000 102.32691
#
# Poissons Ratio (x) = 0.06376 0.28198
# Poissons Ratio (y) = 0.57514 0.92967
# Poissons Ratio (z) = 0.22320 0.08159
#
# Static dielectric constant tensor:
#      x y z
#    x 4.147610 0.000000 -1.945540 
#    y 0.000000 1.767890 0.000000 
#    z -1.945540 0.000000 3.256790 
# 
# From -- ./inp_files/10220.got.cif
#   From: 2010.05.17/outbox.cif.g08.bks.cpg/sg10_6_cif.got.tgz:10220.got - 2010.06.03 11:33:40.
