data_PCOD9146214
_publ_section_title
;
Structure prediction by ZEFSAII (Michael W. Deem and Ramdas Pophale) SiO2 
 PCOD9146214
Probable space group: P 2/M
;
_chemical_formula_sum "Si O2"
_cell_formula_units_Z 32
_cell_length_a 14.544511
_cell_length_b 8.986020
_cell_length_c 21.019457
_cell_angle_alpha 90.000000
_cell_angle_beta 136.592995
_cell_angle_gamma 90.000000
_cell_volume 1887.800922
_symmetry_space_group_name_H-M "P 2/M"
_symmetry_group_IT_number 10
_symmetry_cell_setting 'monoclinic'
loop_
_space_group_symop_operation_xyz
x,y,z
-x,y,-z
-x,-y,-z
x,-y,z
loop_
_atom_site_type_symbol
_atom_site_label
_atom_site_fract_x
_atom_site_fract_y
_atom_site_fract_z
Si Si1 0.653391 0.823512 0.843774
Si Si2 0.364650 0.177327 0.316679
Si Si3 0.648773 0.177909 0.313136
Si Si4 0.925801 0.178194 0.781736
Si Si5 0.908528 0.321284 0.393029
Si Si6 0.640589 0.678081 0.448712
Si Si7 0.081834 0.677581 0.977140
Si Si8 0.923987 0.321485 0.648852
O O1 0.659288 0.793958 0.770692
O O2 0.501023 0.788509 0.786685
O O3 0.676917 0.000000 0.864370
O O4 0.767157 0.732393 0.936328
O O5 0.229703 0.221682 0.284700
O O6 0.499906 0.260911 0.403870
O O7 0.385481 0.000000 0.334199
O O8 0.767110 0.241018 0.329697
O O9 0.660292 0.251862 0.388603
O O10 0.658637 0.000000 0.325060
O O11 0.968141 0.239753 0.734727
O O12 0.013119 0.246063 0.882324
O O13 0.933062 0.000000 0.787814
O O14 0.889429 0.500000 0.385409
O O15 0.000000 0.281443 0.500000
O O16 0.986667 0.283873 0.367743
O O17 0.635721 0.500000 0.440373
O O18 0.770191 0.718012 0.555188
O O19 0.076409 0.500000 0.967539
O O20 0.000000 0.719079 0.000000
O O21 0.930508 0.500000 0.660899
#
# Coordination Sequence:
#
# PCOD9146214 Si02
#       8
#     4   4   4   4   4   4   4   4
#     4   9  18  34  54  78 111 143 175 220 274 322
#     4   9  19  34  51  76 109 145 184 224 264 318
#     4  10  20  33  53  84 114 140 179 228 271 321
#     4  11  23  38  56  77 109 150 185 223 276 329
#     4  10  19  36  58  80 109 146 185 225 276 326
#     4  10  19  33  53  76 108 149 185 222 270 321
#     4  11  22  35  56  85 110 138 182 229 269 319
#     4  10  22  38  54  77 111 146 185 230 271 323
#
# _framework density 16.950939000000002
#
# number of rings (size 3 to 8) (size 9 to 14) (size 15 to 20)
#    0.000    2.000    2.500    2.250    0.000    6.250 
#    0.000    2.500    0.000    0.750    0.000    5.250 
#    0.000    0.000    0.000    0.000    0.000    0.000 
#
# Total GULP energy -178648.090858 kJ/mol
# GULP energy per Si atom -5582.752839 kJ/mol
# Density = 1.691236 g / cm^3
# Si number density = 16.950939 Si / 1000 Ang^3
#
#
#
# Elastic Constant Matrix: (Units=GPa)
#
#
# Indices 1 2 3 4 5 6 
#
# 1 101.4250 41.8800 64.3970 0.0000 2.1738 0.0000
# 2 41.8800 40.3049 50.5601 0.0000 -0.6452 0.0000
# 3 64.3970 50.5601 106.7798 0.0000 -0.4149 0.0000
# 4 0.0000 0.0000 0.0000 34.4609 0.0000 -3.3873
# 5 2.1738 -0.6452 -0.4149 0.0000 23.4880 0.0000
# 6 0.0000 0.0000 0.0000 -3.3873 0.0000 43.4485
#
#
#
# Elastic Compliance Matrix: (Units=1/GPa)
#
#
# Indices 1 2 3 4 5 6 
#
# 1 0.018401 -0.012864 -0.005015 0.000000 -0.002145 0.000000
# 2 -0.012864 0.070132 -0.025439 0.000000 0.002668 0.000000
# 3 -0.005015 -0.025439 0.024435 0.000000 0.000197 0.000000
# 4 0.000000 0.000000 0.000000 0.029243 0.000000 0.002280
# 5 -0.002145 0.002668 0.000197 0.000000 0.042850 0.000000
# 6 0.000000 0.000000 0.000000 0.002280 0.000000 0.023193
#
#
# Mechanical properties :
#
#
# Convention : Reuss Voigt Hill
#
# Bulk Modulus (GPa) = 37.97484 62.46489 50.21987
# Shear Modulus (GPa) = 16.46536 26.39099 21.42817
#
# Velocity S-wave (km/s) = 3.12004 3.95004 3.55932
# Velocity P-wave (km/s) = 5.95239 7.59830 6.82514
#
# Compressibility (1/GPa) = 0.02633322
#
# Stress axis : x y z
#
# Youngs Moduli (GPa) = 54.34444 14.25883 40.92420
#
# Poissons Ratio (x) = 0.18343 0.20522
# Poissons Ratio (y) = 0.69909 1.04107
# Poissons Ratio (z) = 0.27252 0.36273
#
# Static dielectric constant tensor:
#      x y z
#    x 1.574390 0.000000 0.010820 
#    y 0.000000 1.562860 0.000000 
#    z 0.010820 0.000000 1.553560 
# 
# From -- ./inp_files/84742.got.cif
#   From: 2010.05.17/outbox.cif.g08.bks.cpg/sg10_43_cif.got.tgz:84742.got - 2010.06.03 11:33:40.
