data_PCOD9146650
_publ_section_title
;
Structure prediction by ZEFSAII (Michael W. Deem and Ramdas Pophale) SiO2 
 PCOD9146650
Probable space group: P 2/M
;
_chemical_formula_sum "Si O2"
_cell_formula_units_Z 32
_cell_length_a 8.696811
_cell_length_b 16.354909
_cell_length_c 11.006391
_cell_angle_alpha 90.000000
_cell_angle_beta 92.658819
_cell_angle_gamma 90.000000
_cell_volume 1563.814804
_symmetry_space_group_name_H-M "P 2/M"
_symmetry_group_IT_number 10
_symmetry_cell_setting 'monoclinic'
loop_
_space_group_symop_operation_xyz
x,y,z
-x,y,-z
-x,-y,-z
x,-y,z
loop_
_atom_site_type_symbol
_atom_site_label
_atom_site_fract_x
_atom_site_fract_y
_atom_site_fract_z
Si Si1 0.303967 0.588290 0.703220
Si Si2 0.983282 0.406400 0.144031
Si Si3 0.848897 0.095012 0.061435
Si Si4 0.309818 0.093946 0.189279
Si Si5 0.517522 0.674099 0.861276
Si Si6 0.182064 0.260091 0.251655
Si Si7 0.680377 0.270094 0.477682
Si Si8 0.357106 0.168897 0.750165
O O1 0.291540 0.500000 0.645088
O O2 0.472183 0.603904 0.765275
O O3 0.263693 0.656049 0.603892
O O4 0.191128 0.591700 0.814655
O O5 0.045026 0.500000 0.174406
O O6 0.052424 0.326037 0.212734
O O7 0.000000 0.395982 0.000000
O O8 0.785531 0.132862 0.181876
O O9 0.883855 0.000000 0.086095
O O10 0.711404 0.099353 0.957343
O O11 0.000000 0.131153 0.000000
O O12 0.188641 0.161632 0.233434
O O13 0.483975 0.116987 0.235131
O O14 0.275415 0.000000 0.222043
O O15 0.682144 0.709691 0.833406
O O16 0.401042 0.747090 0.821047
O O17 0.500000 0.651371 0.000000
O O18 0.230121 0.268400 0.393586
O O19 0.500000 0.283035 0.500000
O O20 0.683857 0.191048 0.389863
#
# Coordination Sequence:
#
# PCOD9146650 Si02
#       8
#     4   4   4   4   4   4   4   4
#     4  10  22  38  59  86 119 158 201 254 308 371
#     4  10  23  43  65  95 130 160 202 257 319 386
#     4  10  21  36  56  88 124 155 198 258 319 375
#     4  10  20  35  59  90 123 160 211 263 315 376
#     4  10  19  33  56  86 115 152 199 251 306 371
#     4  11  22  39  62  88 124 166 207 254 316 366
#     4  11  21  42  58  85 122 161 213 259 295 367
#     4  10  19  35  60  82 117 158 207 252 305 365
#
# _framework density 20.462779000000001
#
# number of rings (size 3 to 8) (size 9 to 14) (size 15 to 20)
#    0.000    1.750    3.750    3.000    0.000    6.500 
#    0.000    3.125    0.000    0.000    0.000    4.375 
#    0.000    0.000    0.000    0.000    0.000    0.000 
#
# Total GULP energy -178377.644347 kJ/mol
# GULP energy per Si atom -5574.301386 kJ/mol
# Density = 2.041621 g / cm^3
# Si number density = 20.462779 Si / 1000 Ang^3
#
#
#
# Elastic Constant Matrix: (Units=GPa)
#
#
# Indices 1 2 3 4 5 6 
#
# 1 31.8633 26.4333 -5.2651 0.0000 0.9417 0.0000
# 2 26.4333 110.6994 26.0272 0.0000 4.6199 0.0000
# 3 -5.2651 26.0272 89.7022 0.0000 8.3326 0.0000
# 4 0.0000 0.0000 0.0000 21.6403 0.0000 -8.0366
# 5 0.9417 4.6199 8.3326 0.0000 25.3408 0.0000
# 6 0.0000 0.0000 0.0000 -8.0366 0.0000 26.6259
#
#
#
# Elastic Compliance Matrix: (Units=1/GPa)
#
#
# Indices 1 2 3 4 5 6 
#
# 1 0.041760 -0.011290 0.005859 0.000000 -0.001420 0.000000
# 2 -0.011290 0.012766 -0.004321 0.000000 -0.000487 0.000000
# 3 0.005859 -0.004321 0.013093 0.000000 -0.003735 0.000000
# 4 0.000000 0.000000 0.000000 0.052044 0.000000 0.015708
# 5 -0.001420 -0.000487 -0.003735 0.000000 0.040832 0.000000
# 6 0.000000 0.000000 0.000000 0.015708 0.000000 0.042299
#
#
# Mechanical properties :
#
#
# Convention : Reuss Voigt Hill
#
# Bulk Modulus (GPa) = 20.78419 36.29509 28.53964
# Shear Modulus (GPa) = 20.97883 27.05938 24.01910
#
# Velocity S-wave (km/s) = 3.20538 3.64039 3.42979
# Velocity P-wave (km/s) = 4.88655 5.95361 5.44628
#
# Compressibility (1/GPa) = 0.04811350
#
# Stress axis : x y z
#
# Youngs Moduli (GPa) = 23.94629 78.33499 76.37834
#
# Poissons Ratio (x) = 0.88440 -0.44749
# Poissons Ratio (y) = 0.27035 0.33006
# Poissons Ratio (z) = -0.14030 0.33852
#
# Static dielectric constant tensor:
#      x y z
#    x 1.765350 0.000000 0.015760 
#    y 0.000000 1.806860 0.000000 
#    z 0.015760 0.000000 1.705450 
# 
# From -- ./inp_files/42978.got.cif
#   From: 2010.05.17/outbox.cif.g08.bks.cpg/sg10_22_cif.got.tgz:42978.got - 2010.06.03 11:33:40.
