data_PCOD9146039
_publ_section_title
;
Structure prediction by ZEFSAII (Michael W. Deem and Ramdas Pophale) SiO2 
 PCOD9146039
Probable space group: P 2/M
;
_chemical_formula_sum "Si O2"
_cell_formula_units_Z 32
_cell_length_a 16.566270
_cell_length_b 8.503783
_cell_length_c 25.373136
_cell_angle_alpha 90.000000
_cell_angle_beta 153.310540
_cell_angle_gamma 90.000000
_cell_volume 1605.487581
_symmetry_space_group_name_H-M "P 2/M"
_symmetry_group_IT_number 10
_symmetry_cell_setting 'monoclinic'
loop_
_space_group_symop_operation_xyz
x,y,z
-x,y,-z
-x,-y,-z
x,-y,z
loop_
_atom_site_type_symbol
_atom_site_label
_atom_site_fract_x
_atom_site_fract_y
_atom_site_fract_z
Si Si1 0.597894 0.685457 0.687679
Si Si2 0.727026 0.807681 0.987515
Si Si3 0.450349 0.813646 0.223320
Si Si4 0.437070 0.191900 0.905215
Si Si5 0.159982 0.686017 0.554312
Si Si6 0.262368 0.187439 0.426087
Si Si7 0.974971 0.812328 0.344273
Si Si8 0.134058 0.189450 0.239619
O O1 0.615046 0.500000 0.695530
O O2 0.586739 0.737998 0.741745
O O3 0.418370 0.735943 0.551548
O O4 0.763339 0.761940 0.753066
O O5 0.672883 0.758154 0.896978
O O6 0.576807 0.756216 0.941969
O O7 0.725299 0.000000 0.987089
O O8 0.927587 0.756440 0.119295
O O9 0.655966 0.776363 0.328040
O O10 0.428070 0.000000 0.216023
O O11 0.231522 0.240356 0.775418
O O12 0.436807 0.000000 0.904875
O O13 0.500000 0.241622 0.000000
O O14 0.191807 0.500000 0.578762
O O15 0.000000 0.734195 0.500000
O O16 0.091057 0.724326 0.455706
O O17 0.241459 0.245373 0.354140
O O18 0.072434 0.209579 0.345122
O O19 0.300149 0.000000 0.447218
O O20 0.980994 0.000000 0.359146
O O21 0.131324 0.000000 0.241209
#
# Coordination Sequence:
#
# PCOD9146039 Si02
#       8
#     4   4   4   4   4   4   4   4
#     4  12  25  40  59  85 118 155 197 247 303 354
#     4   9  19  35  57  86 118 154 195 243 293 344
#     4  11  22  39  62  86 116 153 199 247 293 348
#     4   9  16  29  53  88 124 152 187 237 289 341
#     4  11  23  37  54  81 117 156 194 236 288 343
#     4  10  20  36  60  90 120 152 193 243 295 354
#     4  10  19  32  56  87 116 151 193 236 285 342
#     4  10  21  39  62  87 117 153 196 244 298 356
#
# _framework density 19.931639000000001
#
# number of rings (size 3 to 8) (size 9 to 14) (size 15 to 20)
#    0.000    1.750    1.250    3.750    0.000    7.500 
#    0.000    3.750    0.000    1.125    0.000    0.000 
#    0.000    0.000    0.000    0.000    0.000    0.000 
#
# Total GULP energy -178811.267288 kJ/mol
# GULP energy per Si atom -5587.852103 kJ/mol
# Density = 1.988627 g / cm^3
# Si number density = 19.931639 Si / 1000 Ang^3
#
#
#
# Elastic Constant Matrix: (Units=GPa)
#
#
# Indices 1 2 3 4 5 6 
#
# 1 70.4927 -3.6905 11.0771 0.0000 -9.6823 0.0000
# 2 -3.6905 4.3470 3.9722 0.0000 -4.1676 0.0000
# 3 11.0771 3.9722 80.1397 0.0000 -8.8703 0.0000
# 4 0.0000 0.0000 0.0000 -25.4054 0.0000 11.6376
# 5 -9.6823 -4.1676 -8.8703 0.0000 37.4163 0.0000
# 6 0.0000 0.0000 0.0000 11.6376 0.0000 -4.3289
#
#
#
# Elastic Compliance Matrix: (Units=1/GPa)
#
#
# Indices 1 2 3 4 5 6 
#
# 1 0.016643 0.022544 -0.002735 0.000000 0.006170 0.000000
# 2 0.022544 0.295886 -0.013852 0.000000 0.035507 0.000000
# 3 -0.002735 -0.013852 0.013652 0.000000 0.000986 0.000000
# 4 0.000000 0.000000 0.000000 0.170055 0.000000 0.457168
# 5 0.006170 0.035507 0.000986 0.000000 0.032512 0.000000
# 6 0.000000 0.000000 0.000000 0.457168 0.000000 0.998022
#
#
# Mechanical properties :
#
#
# Convention : Reuss Voigt Hill
#
# Bulk Modulus (GPa) = 2.95774 19.74410 11.35092
# Shear Modulus (GPa) = 3.07210 11.11111 7.09160
#
# Velocity S-wave (km/s) = 1.24284 2.36362 1.88830
# Velocity P-wave (km/s) = 1.88327 4.16850 3.23443
#
# Compressibility (1/GPa) = 0.33809581
#
# Stress axis : x y z
#
# Youngs Moduli (GPa) = 60.08422 3.37968 73.24961
#
# Poissons Ratio (x) = -0.07619 0.20034
# Poissons Ratio (y) = -1.35456 1.01465
# Poissons Ratio (z) = 0.16433 0.04682
#
# Static dielectric constant tensor:
#      x y z
#    x 1.701670 0.000000 0.000570 
#    y 0.000000 1.675620 0.000000 
#    z 0.000570 0.000000 1.688660 
# 
# From -- ./inp_files/89618.got.cif
#   From: 2010.05.17/outbox.cif.g08.bks.cpg/sg10_45_cif.got.tgz:89618.got - 2010.06.03 11:33:40.
