data_PCOD9146376
_publ_section_title
;
Structure prediction by ZEFSAII (Michael W. Deem and Ramdas Pophale) SiO2 
 PCOD9146376
Probable space group: P 2/M
;
_chemical_formula_sum "Si O2"
_cell_formula_units_Z 26
_cell_length_a 11.547497
_cell_length_b 9.739087
_cell_length_c 20.321641
_cell_angle_alpha 90.000000
_cell_angle_beta 39.855457
_cell_angle_gamma 90.000000
_cell_volume 1464.614462
_symmetry_space_group_name_H-M "P 2/M"
_symmetry_group_IT_number 10
_symmetry_cell_setting 'monoclinic'
loop_
_space_group_symop_operation_xyz
x,y,z
-x,y,-z
-x,-y,-z
x,-y,z
loop_
_atom_site_type_symbol
_atom_site_label
_atom_site_fract_x
_atom_site_fract_y
_atom_site_fract_z
Si Si1 0.994447 0.660955 0.170910
Si Si2 0.570944 0.348220 0.326968
Si Si3 0.072727 0.166379 0.397777
Si Si4 0.158098 0.162661 0.985247
Si Si5 0.500000 0.754787 0.500000
Si Si6 0.526978 0.836211 0.748676
Si Si7 0.095645 0.158327 0.665964
O O1 0.041118 0.500000 0.157614
O O2 0.788029 0.667058 0.234045
O O3 0.988301 0.742164 0.242490
O O4 0.116051 0.742134 0.065683
O O5 0.525678 0.500000 0.322157
O O6 0.507655 0.331311 0.429554
O O7 0.488591 0.235711 0.315012
O O8 0.283887 0.202596 0.300337
O O9 0.000000 0.217083 0.500000
O O10 0.960577 0.207094 0.382406
O O11 0.060437 0.000000 0.405119
O O12 0.157416 0.000000 0.003262
O O13 0.350030 0.197123 0.868450
O O14 0.000000 0.181868 0.000000
O O15 0.687504 0.837014 0.420633
O O16 0.527399 0.000000 0.738571
O O17 0.035728 0.000000 0.701177
#
# Coordination Sequence:
#
# PCOD9146376 Si02
#       7
#     4   4   4   4   2   4   4
#     4  10  21  35  53  78 110 144 175 218 272 323
#     4  10  20  33  50  75 108 142 176 216 266 321
#     4   9  18  34  55  80 109 140 176 219 266 318
#     4  10  19  33  54  82 110 138 176 226 270 313
#     4  10  20  32  52  80 106 138 176 222 268 318
#     4  10  20  34  55  80 107 138 177 221 268 317
#     4  10  20  35  56  80 107 140 180 224 269 317
#
# _framework density 17.752113000000001
#
# number of rings (size 3 to 8) (size 9 to 14) (size 15 to 20)
#    0.000    2.154    1.538    1.846    0.000    5.846 
#    0.000    1.538    0.000    6.462    0.000    0.000 
#    0.000    0.000    0.000    0.000    0.000    0.000 
#
# Total GULP energy -145003.271067 kJ/mol
# GULP energy per Si atom -5577.048887 kJ/mol
# Density = 1.771171 g / cm^3
# Si number density = 17.752113 Si / 1000 Ang^3
#
#
#
# Elastic Constant Matrix: (Units=GPa)
#
#
# Indices 1 2 3 4 5 6 
#
# 1 105.8589 38.9463 54.7172 0.0000 13.1179 0.0000
# 2 38.9463 60.7688 47.6892 0.0000 13.6819 0.0000
# 3 54.7172 47.6892 113.4977 0.0000 10.6242 0.0000
# 4 0.0000 0.0000 0.0000 7.0018 0.0000 2.2734
# 5 13.1179 13.6819 10.6242 0.0000 26.7062 0.0000
# 6 0.0000 0.0000 0.0000 2.2734 0.0000 -3.0195
#
#
#
# Elastic Compliance Matrix: (Units=1/GPa)
#
#
# Indices 1 2 3 4 5 6 
#
# 1 0.013809 -0.004829 -0.004388 0.000000 -0.002563 0.000000
# 2 -0.004829 0.028408 -0.008795 0.000000 -0.008683 0.000000
# 3 -0.004388 -0.008795 0.014540 0.000000 0.000877 0.000000
# 4 0.000000 0.000000 0.000000 0.114764 0.000000 0.086408
# 5 -0.002563 -0.008683 0.000877 0.000000 0.042803 0.000000
# 6 0.000000 0.000000 0.000000 0.086408 0.000000 -0.266125
#
#
# Mechanical properties :
#
#
# Convention : Reuss Voigt Hill
#
# Bulk Modulus (GPa) = 48.23697 62.53676 55.38686
# Shear Modulus (GPa) = -564.05904 15.38923 -274.33490
#
# Velocity S-wave (km/s) = -17.84465 2.94750 -12.44476
# Velocity P-wave (km/s) = 19.93349 6.84748 13.23737
#
# Compressibility (1/GPa) = 0.02073099
#
# Stress axis : x y z
#
# Youngs Moduli (GPa) = 72.41573 35.20113 68.77628
#
# Poissons Ratio (x) = 0.17000 0.30181
# Poissons Ratio (y) = 0.34972 0.60492
# Poissons Ratio (z) = 0.31778 0.30961
#
# Static dielectric constant tensor:
#      x y z
#    x 1.589090 0.000000 -0.008870 
#    y 0.000000 1.599250 0.000000 
#    z -0.008870 0.000000 1.606370 
# 
# From -- ./inp_files/55433.got.cif
#   From: 2010.05.17/outbox.cif.g08.bks.cpg/sg10_28_cif.got.tgz:55433.got - 2010.06.03 11:33:40.
