data_PCOD9146763
_publ_section_title
;
Structure prediction by ZEFSAII (Michael W. Deem and Ramdas Pophale) SiO2 
 PCOD9146763
Probable space group: P 2/M
;
_chemical_formula_sum "Si O2"
_cell_formula_units_Z 28
_cell_length_a 11.038121
_cell_length_b 16.711234
_cell_length_c 19.686580
_cell_angle_alpha 90.000000
_cell_angle_beta 20.803690
_cell_angle_gamma 90.000000
_cell_volume 1289.753628
_symmetry_space_group_name_H-M "P 2/M"
_symmetry_group_IT_number 10
_symmetry_cell_setting 'monoclinic'
loop_
_space_group_symop_operation_xyz
x,y,z
-x,y,-z
-x,-y,-z
x,-y,z
loop_
_atom_site_type_symbol
_atom_site_label
_atom_site_fract_x
_atom_site_fract_y
_atom_site_fract_z
Si Si1 0.595110 0.591223 0.227849
Si Si2 0.639821 0.744999 0.713662
Si Si3 0.842293 0.174524 0.361973
Si Si4 0.724372 0.593726 0.313761
Si Si5 0.413511 0.833700 0.709449
Si Si6 0.116335 0.000000 0.230198
Si Si7 0.837029 0.248294 0.921303
Si Si8 0.225960 0.000000 0.450052
O O1 0.514003 0.500000 0.254110
O O2 0.390024 0.652183 0.289352
O O3 0.534451 0.604043 0.340467
O O4 0.000000 0.602848 0.000000
O O5 0.385160 0.786246 0.793836
O O6 0.000000 0.777590 0.500000
O O7 0.517485 0.758040 0.853788
O O8 0.500000 0.194628 0.500000
O O9 0.735853 0.194064 0.494135
O O10 0.925569 0.080961 0.308858
O O11 0.137594 0.220972 0.169267
O O12 0.500000 0.606295 0.500000
O O13 0.839066 0.500000 0.254750
O O14 0.014638 0.661488 0.156247
O O15 0.522794 0.924041 0.670672
O O16 0.088889 0.811166 0.832917
O O17 0.500000 0.000000 0.000000
O O18 0.062849 0.000000 0.339469
O O19 0.000000 0.000000 0.500000
#
# Coordination Sequence:
#
# PCOD9146763 Si02
#       8
#     4   4   4   4   4   2   4   2
#     4  10  19  36  61  84 112 150 193 238 283 336
#     4  12  24  37  54  81 119 156 191 236 285 342
#     4   9  20  36  61  85 110 144 189 246 287 332
#     4  10  19  33  61  93 117 144 187 242 290 334
#     4  10  20  39  61  83 113 148 192 238 287 341
#     4  10  21  37  58  83 118 152 189 227 284 359
#     4  11  21  37  59  87 115 148 196 242 286 342
#     4  10  22  39  59  87 120 154 188 235 292 347
#
# _framework density 21.709572999999999
#
# number of rings (size 3 to 8) (size 9 to 14) (size 15 to 20)
#    0.000    1.714    2.857    2.357    0.000    5.429 
#    0.000    1.429    0.000    0.000    0.000    3.000 
#    0.000    0.000    0.000    0.000    0.000    0.000 
#
# Total GULP energy -156164.274187 kJ/mol
# GULP energy per Si atom -5577.295507 kJ/mol
# Density = 2.166016 g / cm^3
# Si number density = 21.709573 Si / 1000 Ang^3
#
#
#
# Elastic Constant Matrix: (Units=GPa)
#
#
# Indices 1 2 3 4 5 6 
#
# 1 59.3890 15.6271 34.5254 0.0000 23.3259 0.0000
# 2 15.6271 87.5057 25.7302 0.0000 7.8691 0.0000
# 3 34.5254 25.7302 123.8821 0.0000 23.0080 0.0000
# 4 0.0000 0.0000 0.0000 28.4163 0.0000 19.8971
# 5 23.3259 7.8691 23.0080 0.0000 45.1042 0.0000
# 6 0.0000 0.0000 0.0000 19.8971 0.0000 3.2365
#
#
#
# Elastic Compliance Matrix: (Units=1/GPa)
#
#
# Indices 1 2 3 4 5 6 
#
# 1 0.023735 -0.002079 -0.004386 0.000000 -0.009674 0.000000
# 2 -0.002079 0.012388 -0.001979 0.000000 -0.000076 0.000000
# 3 -0.004386 -0.001979 0.010185 0.000000 -0.002582 0.000000
# 4 0.000000 0.000000 0.000000 -0.010649 0.000000 0.065467
# 5 -0.009674 -0.000076 -0.002582 0.000000 0.028504 0.000000
# 6 0.000000 0.000000 0.000000 0.065467 0.000000 -0.093498
#
#
# Mechanical properties :
#
#
# Convention : Reuss Voigt Hill
#
# Bulk Modulus (GPa) = 33.99166 46.94912 40.47039
# Shear Modulus (GPa) = -1894.22108 28.34437 -932.93835
#
# Velocity S-wave (km/s) = -29.57063 3.61725 -20.75256
# Velocity P-wave (km/s) = 33.91467 6.25451 23.56996
#
# Compressibility (1/GPa) = 0.02941898
#
# Stress axis : x y z
#
# Youngs Moduli (GPa) = 42.13217 80.72344 98.18128
#
# Poissons Ratio (x) = 0.16782 0.43064
# Poissons Ratio (y) = 0.08759 0.19434
# Poissons Ratio (z) = 0.18480 0.15978
#
# Static dielectric constant tensor:
#      x y z
#    x 1.793030 0.000000 0.005900 
#    y 0.000000 1.827720 0.000000 
#    z 0.005900 0.000000 1.843480 
# 
# From -- ./inp_files/84217.got.cif
#   From: 2010.05.17/outbox.cif.g08.bks.cpg/sg10_43_cif.got.tgz:84217.got - 2010.06.03 11:33:40.
