data_PCOD9146835
_publ_section_title
;
Structure prediction by ZEFSAII (Michael W. Deem and Ramdas Pophale) SiO2 
 PCOD9146835
Probable space group: P 2/M
;
_chemical_formula_sum "Si O2"
_cell_formula_units_Z 32
_cell_length_a 21.455752
_cell_length_b 9.076614
_cell_length_c 28.351304
_cell_angle_alpha 90.000000
_cell_angle_beta 21.265633
_cell_angle_gamma 90.000000
_cell_volume 2002.529886
_symmetry_space_group_name_H-M "P 2/M"
_symmetry_group_IT_number 10
_symmetry_cell_setting 'monoclinic'
loop_
_space_group_symop_operation_xyz
x,y,z
-x,y,-z
-x,-y,-z
x,-y,z
loop_
_atom_site_type_symbol
_atom_site_label
_atom_site_fract_x
_atom_site_fract_y
_atom_site_fract_z
Si Si1 0.833345 0.330168 0.152407
Si Si2 0.970200 0.675117 0.465401
Si Si3 0.044023 0.830258 0.079878
Si Si4 0.272354 0.823037 0.195444
Si Si5 0.623274 0.830212 0.224395
Si Si6 0.583369 0.323629 0.708124
Si Si7 0.735737 0.324073 0.000330
Si Si8 0.371064 0.322086 0.029684
O O1 0.791317 0.500000 0.190222
O O2 0.682602 0.249669 0.230192
O O3 0.893894 0.252191 0.157566
O O4 0.000000 0.325728 0.000000
O O5 0.997321 0.500000 0.436428
O O6 0.774801 0.713068 0.589530
O O7 0.000000 0.696471 0.500000
O O8 0.104404 0.771238 0.341557
O O9 0.999883 0.000000 0.118596
O O10 0.209697 0.824928 0.927958
O O11 0.110022 0.754536 0.080987
O O12 0.274120 0.753338 0.141762
O O13 0.289627 0.000000 0.181635
O O14 0.438697 0.748666 0.102872
O O15 0.474517 0.751541 0.299630
O O16 0.582457 0.000000 0.262043
O O17 0.573286 0.500000 0.709519
O O18 0.442151 0.282777 0.847465
O O19 0.755759 0.500000 0.991584
O O20 0.715866 0.291122 0.959255
O O21 0.382383 0.500000 0.027780
#
# Coordination Sequence:
#
# PCOD9146835 Si02
#       8
#     4   4   4   4   4   4   4   4
#     4   9  15  23  36  53  77 112 152 188 219 257
#     4  10  20  35  53  70  91 122 158 192 227 272
#     4   9  16  24  36  57  86 117 146 180 223 270
#     4  11  22  34  49  71  96 119 149 191 237 279
#     4   9  16  25  37  55  82 115 149 183 223 269
#     4   9  17  29  45  65  89 117 152 190 226 268
#     4   9  17  29  46  67  89 117 153 190 226 266
#     4  10  19  34  54  70  89 120 157 192 228 274
#
# _framework density 15.979785
#
# number of rings (size 3 to 8) (size 9 to 14) (size 15 to 20)
#    0.000    2.500    0.000    4.125    0.000    8.250 
#    0.000    2.500    0.000    0.000    0.000    0.000 
#    0.000    1.000    0.000   10.500    0.000    8.000 
#
# Total GULP energy -178379.055849 kJ/mol
# GULP energy per Si atom -5574.345495 kJ/mol
# Density = 1.594341 g / cm^3
# Si number density = 15.979785 Si / 1000 Ang^3
#
#
#
# Elastic Constant Matrix: (Units=GPa)
#
#
# Indices 1 2 3 4 5 6 
#
# 1 167.4922 81.8842 37.2066 0.0000 -18.9208 0.0000
# 2 81.8842 89.5423 28.7423 0.0000 -8.9904 0.0000
# 3 37.2066 28.7423 34.3971 0.0000 -8.7889 0.0000
# 4 0.0000 0.0000 0.0000 13.0711 0.0000 2.7667
# 5 -18.9208 -8.9904 -8.7889 0.0000 15.9896 0.0000
# 6 0.0000 0.0000 0.0000 2.7667 0.0000 -2.3329
#
#
#
# Elastic Compliance Matrix: (Units=1/GPa)
#
#
# Indices 1 2 3 4 5 6 
#
# 1 0.012043 -0.009156 -0.003548 0.000000 0.007152 0.000000
# 2 -0.009156 0.022268 -0.009625 0.000000 -0.003604 0.000000
# 3 -0.003548 -0.009625 0.044788 0.000000 0.015008 0.000000
# 4 0.000000 0.000000 0.000000 0.061153 0.000000 0.072527
# 5 0.007152 -0.003604 0.015008 0.000000 0.077227 0.000000
# 6 0.000000 0.000000 0.000000 0.072527 0.000000 -0.342643
#
#
# Mechanical properties :
#
#
# Convention : Reuss Voigt Hill
#
# Bulk Modulus (GPa) = 29.03521 65.23310 47.13416
# Shear Modulus (GPa) = -72.43466 14.91880 -28.75793
#
# Velocity S-wave (km/s) = -6.73998 3.05881 -4.24682
# Velocity P-wave (km/s) = 6.50848 7.30657 2.34793
#
# Compressibility (1/GPa) = 0.03444094
#
# Stress axis : x y z
#
# Youngs Moduli (GPa) = 83.03864 44.90737 22.32761
#
# Poissons Ratio (x) = 0.41115 0.07923
# Poissons Ratio (y) = 0.76027 0.21490
# Poissons Ratio (z) = 0.29465 0.43222
#
# Static dielectric constant tensor:
#      x y z
#    x 1.530240 0.000000 -0.001370 
#    y 0.000000 1.534880 0.000000 
#    z -0.001370 0.000000 1.514430 
# 
# From -- ./inp_files/54829.got.cif
#   From: 2010.05.17/outbox.cif.g08.bks.cpg/sg10_28_cif.got.tgz:54829.got - 2010.06.03 11:33:40.
