data_PCOD9146296
_publ_section_title
;
Structure prediction by ZEFSAII (Michael W. Deem and Ramdas Pophale) SiO2 
 PCOD9146296
Probable space group: P 2/M
;
_chemical_formula_sum "Si O2"
_cell_formula_units_Z 30
_cell_length_a 26.339203
_cell_length_b 12.647380
_cell_length_c 26.225730
_cell_angle_alpha 90.000000
_cell_angle_beta 11.380699
_cell_angle_gamma 90.000000
_cell_volume 1723.921699
_symmetry_space_group_name_H-M "P 2/M"
_symmetry_group_IT_number 10
_symmetry_cell_setting 'monoclinic'
loop_
_space_group_symop_operation_xyz
x,y,z
-x,y,-z
-x,-y,-z
x,-y,z
loop_
_atom_site_type_symbol
_atom_site_label
_atom_site_fract_x
_atom_site_fract_y
_atom_site_fract_z
Si Si1 0.405799 0.625930 0.934104
Si Si2 0.264231 0.268326 0.771889
Si Si3 0.102877 0.249294 0.590326
Si Si4 0.736032 0.500000 0.228415
Si Si5 0.795599 0.126559 0.405394
Si Si6 0.083588 0.125465 0.505096
Si Si7 0.575143 0.249065 0.981341
Si Si8 0.270508 0.874317 0.864286
O O1 0.397142 0.500000 0.938220
O O2 0.408344 0.662903 0.990844
O O3 0.156974 0.682027 0.154584
O O4 0.659973 0.675180 0.658304
O O5 0.500000 0.257990 0.500000
O O6 0.274870 0.385784 0.786851
O O7 0.277196 0.184287 0.803966
O O8 0.000000 0.258990 0.000000
O O9 0.152012 0.191090 0.594985
O O10 0.079179 0.162283 0.568558
O O11 0.500000 0.500000 0.500000
O O12 0.000000 0.500000 0.000000
O O13 0.519062 0.152346 0.653588
O O14 0.804473 0.000000 0.407033
O O15 0.014351 0.150767 0.148309
O O16 0.843973 0.186073 0.715453
O O17 0.060397 0.000000 0.522829
O O18 0.350592 0.167920 0.219232
O O19 0.500000 0.291865 0.000000
O O20 0.275795 0.000000 0.850186
#
# Coordination Sequence:
#
# PCOD9146296 Si02
#       8
#     4   4   4   2   4   4   4   4
#     4  10  21  37  57  77 102 136 175 221 265 309
#     4  10  19  33  54  77 105 143 182 222 259 307
#     4  10  20  36  58  79 100 135 178 220 260 316
#     4   8  16  30  50  72  92 130 178 214 252 290
#     4  10  20  36  57  79 107 141 173 214 264 317
#     4  10  20  33  51  77 106 135 173 216 260 316
#     4  10  21  34  50  76 105 138 176 210 258 317
#     4  10  21  34  52  81 113 143 175 215 268 321
#
# _framework density 17.402182
#
# number of rings (size 3 to 8) (size 9 to 14) (size 15 to 20)
#    0.000    2.133    0.000    3.200    0.000    2.400 
#    0.000    4.000    8.800    4.800    0.000    0.000 
#    0.000    0.000    0.000    0.000    0.000    0.000 
#
# Total GULP energy -167419.685448 kJ/mol
# GULP energy per Si atom -5580.656182 kJ/mol
# Density = 1.736257 g / cm^3
# Si number density = 17.402182 Si / 1000 Ang^3
#
#
#
# Elastic Constant Matrix: (Units=GPa)
#
#
# Indices 1 2 3 4 5 6 
#
# 1 65.6934 23.6973 -11.5671 0.0000 -4.6776 0.0000
# 2 23.6973 45.9056 0.8238 0.0000 -2.8042 0.0000
# 3 -11.5671 0.8238 76.1868 0.0000 -15.1062 0.0000
# 4 0.0000 0.0000 0.0000 10.8110 0.0000 -0.4982
# 5 -4.6776 -2.8042 -15.1062 0.0000 16.9300 0.0000
# 6 0.0000 0.0000 0.0000 -0.4982 0.0000 9.4101
#
#
#
# Elastic Compliance Matrix: (Units=1/GPa)
#
#
# Indices 1 2 3 4 5 6 
#
# 1 0.020285 -0.010055 0.004823 0.000000 0.008243 0.000000
# 2 -0.010055 0.027012 -0.001801 0.000000 0.000089 0.000000
# 3 0.004823 -0.001801 0.017109 0.000000 0.016300 0.000000
# 4 0.000000 0.000000 0.000000 0.092725 0.000000 0.004909
# 5 0.008243 0.000089 0.016300 0.000000 0.075904 0.000000
# 6 0.000000 0.000000 0.000000 0.004909 0.000000 0.106528
#
#
# Mechanical properties :
#
#
# Convention : Reuss Voigt Hill
#
# Bulk Modulus (GPa) = 19.86446 23.74374 21.80410
# Shear Modulus (GPa) = 13.49858 19.08567 16.29212
#
# Velocity S-wave (km/s) = 2.78813 3.31530 3.06308
# Velocity P-wave (km/s) = 4.66954 5.32247 5.00666
#
# Compressibility (1/GPa) = 0.05034116
#
# Stress axis : x y z
#
# Youngs Moduli (GPa) = 49.29675 37.02057 58.44751
#
# Poissons Ratio (x) = 0.37223 -0.28189
# Poissons Ratio (y) = 0.49566 0.10526
# Poissons Ratio (z) = -0.23775 0.06667
#
# Static dielectric constant tensor:
#      x y z
#    x 1.560390 0.000000 -0.004830 
#    y 0.000000 1.572000 0.000000 
#    z -0.004830 0.000000 1.588260 
# 
# From -- ./inp_files/12451.got.cif
#   From: 2010.05.17/outbox.cif.g08.bks.cpg/sg10_7_cif.got.tgz:12451.got - 2010.06.03 11:33:40.
