data_PCOD9146275
_publ_section_title
;
Structure prediction by ZEFSAII (Michael W. Deem and Ramdas Pophale) SiO2 
 PCOD9146275
Probable space group: P 2/M
;
_chemical_formula_sum "Si O2"
_cell_formula_units_Z 32
_cell_length_a 25.099218
_cell_length_b 7.519227
_cell_length_c 18.645812
_cell_angle_alpha 90.000000
_cell_angle_beta 26.052652
_cell_angle_gamma 90.000000
_cell_volume 1545.517627
_symmetry_space_group_name_H-M "P 2/M"
_symmetry_group_IT_number 10
_symmetry_cell_setting 'monoclinic'
loop_
_space_group_symop_operation_xyz
x,y,z
-x,y,-z
-x,-y,-z
x,-y,z
loop_
_atom_site_type_symbol
_atom_site_label
_atom_site_fract_x
_atom_site_fract_y
_atom_site_fract_z
Si Si1 0.212095 0.205784 0.589387
Si Si2 0.298864 0.707221 0.058206
Si Si3 0.475070 0.715495 0.307431
Si Si4 0.403847 0.283121 0.554381
Si Si5 0.367106 0.784912 0.138590
Si Si6 0.156269 0.782494 0.502083
Si Si7 0.971686 0.797326 0.611498
Si Si8 0.862771 0.702106 0.163616
O O1 0.357384 0.216191 0.407980
O O2 0.158790 0.280703 0.580478
O O3 0.176808 0.300898 0.705349
O O4 0.175876 0.000000 0.642323
O O5 0.280484 0.500000 0.063866
O O6 0.335269 0.723718 0.097344
O O7 0.170328 0.799034 0.204663
O O8 0.404010 0.775876 0.878889
O O9 0.472478 0.500000 0.308221
O O10 0.458607 0.768233 0.410437
O O11 0.500000 0.227813 0.500000
O O12 0.398766 0.500000 0.562841
O O13 0.260280 0.224246 0.727250
O O14 0.270913 0.729204 0.315093
O O15 0.365165 0.000000 0.139033
O O16 0.500000 0.724753 0.000000
O O17 0.041535 0.721460 0.594789
O O18 0.159072 0.000000 0.504635
O O19 0.000000 0.712221 0.500000
O O20 0.019787 0.000000 0.547696
O O21 0.877698 0.500000 0.117922
O O22 0.000000 0.782328 0.000000
#
# Coordination Sequence:
#
# PCOD9146275 Si02
#       8
#     4   4   4   4   4   4   4   4
#     4  10  19  33  56  81 104 132 171 216 260 304
#     4  11  22  34  49  75 108 134 166 215 267 313
#     4   9  19  35  52  74 107 137 164 207 261 311
#     4   8  14  29  54  76  96 131 174 209 244 297
#     4  10  19  33  54  75  96 130 177 217 250 307
#     4   9  18  33  51  74  99 129 172 215 256 302
#     4  10  19  36  57  69  93 139 181 216 254 305
#     4   9  18  34  54  79 109 141 175 210 255 315
#
# _framework density 20.705036
#
# number of rings (size 3 to 8) (size 9 to 14) (size 15 to 20)
#    0.000    2.500    1.250    2.250    0.000    2.750 
#    2.250    2.500    0.000    6.000    0.000    0.000 
#    0.000    0.000    0.000    0.000    0.000    0.000 
#
# Total GULP energy -178437.657043 kJ/mol
# GULP energy per Si atom -5576.176783 kJ/mol
# Density = 2.065791 g / cm^3
# Si number density = 20.705036 Si / 1000 Ang^3
#
#
#
# Elastic Constant Matrix: (Units=GPa)
#
#
# Indices 1 2 3 4 5 6 
#
# 1 160.5752 -1.4109 43.3128 0.0000 -23.6552 0.0000
# 2 -1.4109 54.8340 -6.1465 0.0000 0.7218 0.0000
# 3 43.3128 -6.1465 108.2271 0.0000 -23.5292 0.0000
# 4 0.0000 0.0000 0.0000 24.2629 0.0000 -3.4317
# 5 -23.6552 0.7218 -23.5292 0.0000 30.0144 0.0000
# 6 0.0000 0.0000 0.0000 -3.4317 0.0000 25.5998
#
#
#
# Elastic Compliance Matrix: (Units=1/GPa)
#
#
# Indices 1 2 3 4 5 6 
#
# 1 0.007402 -0.000095 -0.002048 0.000000 0.004231 0.000000
# 2 -0.000095 0.018360 0.001167 0.000000 0.000399 0.000000
# 3 -0.002048 0.001167 0.011776 0.000000 0.007589 0.000000
# 4 0.000000 0.000000 0.000000 0.042012 0.000000 0.005632
# 5 0.004231 0.000399 0.007589 0.000000 0.042592 0.000000
# 6 0.000000 0.000000 0.000000 0.005632 0.000000 0.039818
#
#
# Mechanical properties :
#
#
# Convention : Reuss Voigt Hill
#
# Bulk Modulus (GPa) = 28.09996 43.90521 36.00259
# Shear Modulus (GPa) = 28.44585 35.16748 31.80667
#
# Velocity S-wave (km/s) = 3.71058 4.12576 3.92367
# Velocity P-wave (km/s) = 5.65322 6.62925 6.16060
#
# Compressibility (1/GPa) = 0.03558724
#
# Stress axis : x y z
#
# Youngs Moduli (GPa) = 135.08974 54.46614 84.92070
#
# Poissons Ratio (x) = 0.00516 0.17392
# Poissons Ratio (y) = 0.01281 -0.09913
# Poissons Ratio (z) = 0.27667 -0.06358
#
# Static dielectric constant tensor:
#      x y z
#    x 1.729210 0.000000 -0.022480 
#    y 0.000000 1.823230 0.000000 
#    z -0.022480 0.000000 1.723160 
# 
# From -- ./inp_files/79928.got.cif
#   From: 2010.05.17/outbox.cif.g08.bks.cpg/sg10_40_cif.got.tgz:79928.got - 2010.06.03 11:33:40.
