data_PCOD9146624
_publ_section_title
;
Structure prediction by ZEFSAII (Michael W. Deem and Ramdas Pophale) SiO2 
 PCOD9146624
Probable space group: P 2/M
;
_chemical_formula_sum "Si O2"
_cell_formula_units_Z 32
_cell_length_a 24.711121
_cell_length_b 7.723351
_cell_length_c 24.774216
_cell_angle_alpha 90.000000
_cell_angle_beta 18.811342
_cell_angle_gamma 90.000000
_cell_volume 1524.630745
_symmetry_space_group_name_H-M "P 2/M"
_symmetry_group_IT_number 10
_symmetry_cell_setting 'monoclinic'
loop_
_space_group_symop_operation_xyz
x,y,z
-x,y,-z
-x,-y,-z
x,-y,z
loop_
_atom_site_type_symbol
_atom_site_label
_atom_site_fract_x
_atom_site_fract_y
_atom_site_fract_z
Si Si1 0.668015 0.212109 0.504793
Si Si2 0.079152 0.297687 0.980661
Si Si3 0.384804 0.213120 0.856330
Si Si4 0.857622 0.706077 0.705107
Si Si5 0.029946 0.798729 0.147310
Si Si6 0.459490 0.210009 0.598870
Si Si7 0.419405 0.203480 0.945584
Si Si8 0.773727 0.290499 0.664242
O O1 0.537320 0.267512 0.673844
O O2 0.595869 0.263312 0.514431
O O3 0.857407 0.276348 0.333205
O O4 0.671778 0.000000 0.501510
O O5 0.034303 0.500000 0.026698
O O6 0.278474 0.276489 0.787714
O O7 0.021345 0.211170 0.090572
O O8 0.000000 0.226415 0.000000
O O9 0.406361 0.274499 0.897248
O O10 0.386109 0.000000 0.853741
O O11 0.206759 0.274307 0.000470
O O12 0.871595 0.500000 0.685838
O O13 0.785643 0.769717 0.715445
O O14 0.050384 0.768454 0.529087
O O15 0.728183 0.737296 0.875203
O O16 0.033266 0.000000 0.160089
O O17 0.500000 0.267550 0.500000
O O18 0.452213 0.000000 0.605830
O O19 0.602649 0.234850 0.797663
O O20 0.396357 0.000000 0.962239
O O21 0.770006 0.500000 0.667563
#
# Coordination Sequence:
#
# PCOD9146624 Si02
#       8
#     4   4   4   4   4   4   4   4
#     4   9  17  32  56  82 103 130 175 227 271 311
#     4  11  23  36  51  77 114 145 170 210 273 339
#     4   9  19  35  53  79 112 145 181 223 273 330
#     4   9  19  37  59  81 110 151 196 237 277 329
#     4  10  19  36  62  80  99 137 183 229 267 308
#     4  10  19  33  56  84 107 131 177 227 263 315
#     4  11  22  33  53  86 119 149 185 231 289 345
#     4   9  19  37  59  81 109 151 197 236 278 329
#
# _framework density 20.988688
#
# number of rings (size 3 to 8) (size 9 to 14) (size 15 to 20)
#    0.000    2.250    1.250    2.625    0.000    5.750 
#    0.000    5.625    0.000    0.000    0.000    0.000 
#    0.000    0.000    0.000    0.000    0.000    0.000 
#
# Total GULP energy -178674.061290 kJ/mol
# GULP energy per Si atom -5583.564415 kJ/mol
# Density = 2.094092 g / cm^3
# Si number density = 20.988688 Si / 1000 Ang^3
#
#
#
# Elastic Constant Matrix: (Units=GPa)
#
#
# Indices 1 2 3 4 5 6 
#
# 1 104.8434 -9.0124 82.3839 0.0000 20.8494 0.0000
# 2 -9.0124 23.2623 -12.5788 0.0000 0.9994 0.0000
# 3 82.3839 -12.5788 184.6821 0.0000 5.7557 0.0000
# 4 0.0000 0.0000 0.0000 34.8070 0.0000 -13.4823
# 5 20.8494 0.9994 5.7557 0.0000 17.9418 0.0000
# 6 0.0000 0.0000 0.0000 -13.4823 0.0000 48.1806
#
#
#
# Elastic Compliance Matrix: (Units=1/GPa)
#
#
# Indices 1 2 3 4 5 6 
#
# 1 0.020734 0.004495 -0.008267 0.000000 -0.021693 0.000000
# 2 0.004495 0.045824 0.001372 0.000000 -0.008216 0.000000
# 3 -0.008267 0.001372 0.008989 0.000000 0.006647 0.000000
# 4 0.000000 0.000000 0.000000 0.032222 0.000000 0.009017
# 5 -0.021693 -0.008216 0.006647 0.000000 0.079270 0.000000
# 6 0.000000 0.000000 0.000000 0.009017 0.000000 0.023278
#
#
# Mechanical properties :
#
#
# Convention : Reuss Voigt Hill
#
# Bulk Modulus (GPa) = 14.13483 48.26367 31.19925
# Shear Modulus (GPa) = 20.94668 36.98555 28.96612
#
# Velocity S-wave (km/s) = 3.16254 4.20237 3.71898
# Velocity P-wave (km/s) = 4.48159 6.82580 5.77392
#
# Compressibility (1/GPa) = 0.07074722
#
# Stress axis : x y z
#
# Youngs Moduli (GPa) = 48.22888 21.82245 111.24886
#
# Poissons Ratio (x) = -0.09809 0.91971
# Poissons Ratio (y) = -0.21678 -0.15265
# Poissons Ratio (z) = 0.39871 -0.02994
#
# Static dielectric constant tensor:
#      x y z
#    x 1.746130 0.000000 0.005070 
#    y 0.000000 1.767820 0.000000 
#    z 0.005070 0.000000 1.759510 
# 
# From -- ./inp_files/90578.got.cif
#   From: 2010.05.17/outbox.cif.g08.bks.cpg/sg10_46_cif.got.tgz:90578.got - 2010.06.03 11:33:40.
