data_PCOD9146429
_publ_section_title
;
Structure prediction by ZEFSAII (Michael W. Deem and Ramdas Pophale) SiO2 
 PCOD9146429
Probable space group: P 2/M
;
_chemical_formula_sum "Si O2"
_cell_formula_units_Z 24
_cell_length_a 30.483387
_cell_length_b 8.798294
_cell_length_c 15.213901
_cell_angle_alpha 90.000000
_cell_angle_beta 160.223917
_cell_angle_gamma 90.000000
_cell_volume 1380.582031
_symmetry_space_group_name_H-M "P 2/M"
_symmetry_group_IT_number 10
_symmetry_cell_setting 'monoclinic'
loop_
_space_group_symop_operation_xyz
x,y,z
-x,y,-z
-x,-y,-z
x,-y,z
loop_
_atom_site_type_symbol
_atom_site_label
_atom_site_fract_x
_atom_site_fract_y
_atom_site_fract_z
Si Si1 0.830115 0.681899 0.432486
Si Si2 0.591133 0.817679 0.753672
Si Si3 0.885654 0.816799 0.720176
Si Si4 0.534699 0.318224 0.834298
Si Si5 0.872144 0.316167 0.312703
Si Si6 0.608935 0.816789 0.276808
O O1 0.839939 0.500000 0.458268
O O2 0.895513 0.756291 0.639914
O O3 0.883429 0.726724 0.437045
O O4 0.677094 0.722357 0.141683
O O5 0.500000 0.774432 0.500000
O O6 0.531432 0.753574 0.731547
O O7 0.597632 0.000000 0.770421
O O8 0.737395 0.752720 0.023459
O O9 0.748107 0.769322 0.502153
O O10 0.887083 0.000000 0.719546
O O11 0.000000 0.765593 0.000000
O O12 0.528285 0.500000 0.815276
O O13 0.428535 0.255861 0.701099
O O14 0.860527 0.500000 0.287212
O O15 0.000000 0.271162 0.500000
O O16 0.607244 0.000000 0.282297
O O17 0.500000 0.773718 0.000000
#
# Coordination Sequence:
#
# PCOD9146429 Si02
#       6
#     4   4   4   4   4   4
#     4   9  18  33  54  78 104 137 176 219 262 311
#     4  10  21  37  57  82 113 144 179 225 274 324
#     4  10  21  36  52  74 106 142 174 214 267 315
#     4  10  20  34  56  83 107 138 181 224 268 317
#     4   9  19  37  59  82 110 143 181 224 271 326
#     4  10  19  33  55  79 104 138 179 219 262 314
#
# _framework density 17.383972
#
# number of rings (size 3 to 8) (size 9 to 14) (size 15 to 20)
#    0.000    2.333    1.667    2.000    0.000    5.667 
#    3.000    0.000    0.000    0.000    0.000    0.000 
#    0.000    0.000    0.000    0.000    0.000    0.000 
#
# Total GULP energy -133897.110259 kJ/mol
# GULP energy per Si atom -5579.046261 kJ/mol
# Density = 1.734441 g / cm^3
# Si number density = 17.383972 Si / 1000 Ang^3
#
#
#
# Elastic Constant Matrix: (Units=GPa)
#
#
# Indices 1 2 3 4 5 6 
#
# 1 152.5465 35.9639 96.4351 0.0000 -4.5642 0.0000
# 2 35.9639 18.7055 35.2341 0.0000 -5.6206 0.0000
# 3 96.4351 35.2341 133.7747 0.0000 -14.7241 0.0000
# 4 0.0000 0.0000 0.0000 14.6256 0.0000 -3.4595
# 5 -4.5642 -5.6206 -14.7241 0.0000 34.1428 0.0000
# 6 0.0000 0.0000 0.0000 -3.4595 0.0000 29.9150
#
#
#
# Elastic Compliance Matrix: (Units=1/GPa)
#
#
# Indices 1 2 3 4 5 6 
#
# 1 0.014451 -0.016862 -0.006372 0.000000 -0.003592 0.000000
# 2 -0.016862 0.126831 -0.020157 0.000000 0.009932 0.000000
# 3 -0.006372 -0.020157 0.017762 0.000000 0.003490 0.000000
# 4 0.000000 0.000000 0.000000 0.070296 0.000000 0.008129
# 5 -0.003592 0.009932 0.003490 0.000000 0.031949 0.000000
# 6 0.000000 0.000000 0.000000 0.008129 0.000000 0.034368
#
#
# Mechanical properties :
#
#
# Convention : Reuss Voigt Hill
#
# Bulk Modulus (GPa) = 13.83829 71.14367 42.49098
# Shear Modulus (GPa) = 12.29937 24.89626 18.59782
#
# Velocity S-wave (km/s) = 2.66280 3.78847 3.27437
# Velocity P-wave (km/s) = 4.17512 7.75567 6.22824
#
# Compressibility (1/GPa) = 0.07226327
#
# Stress axis : x y z
#
# Youngs Moduli (GPa) = 69.19841 7.88451 56.30102
#
# Poissons Ratio (x) = 0.13294 0.35874
# Poissons Ratio (y) = 1.16679 1.13486
# Poissons Ratio (z) = 0.44092 0.15893
#
# Static dielectric constant tensor:
#      x y z
#    x 1.579450 0.000000 0.003770 
#    y 0.000000 1.583170 0.000000 
#    z 0.003770 0.000000 1.576360 
# 
# From -- ./inp_files/37876.got.cif
#   From: 2010.05.17/outbox.cif.g08.bks.cpg/sg10_19_cif.got.tgz:37876.got - 2010.06.03 11:33:40.
