data_PCOD9146125
_publ_section_title
;
Structure prediction by ZEFSAII (Michael W. Deem and Ramdas Pophale) SiO2 
 PCOD9146125
Probable space group: P 2/M
;
_chemical_formula_sum "Si O2"
_cell_formula_units_Z 28
_cell_length_a 16.762881
_cell_length_b 7.709192
_cell_length_c 21.705960
_cell_angle_alpha 90.000000
_cell_angle_beta 30.974070
_cell_angle_gamma 90.000000
_cell_volume 1443.605683
_symmetry_space_group_name_H-M "P 2/M"
_symmetry_group_IT_number 10
_symmetry_cell_setting 'monoclinic'
loop_
_space_group_symop_operation_xyz
x,y,z
-x,y,-z
-x,-y,-z
x,-y,z
loop_
_atom_site_type_symbol
_atom_site_label
_atom_site_fract_x
_atom_site_fract_y
_atom_site_fract_z
Si Si1 0.668299 0.198797 0.378679
Si Si2 0.879415 0.209419 0.027124
Si Si3 0.935887 0.796688 0.722273
Si Si4 0.132309 0.500000 0.322960
Si Si5 0.395218 0.297025 0.709824
Si Si6 0.288940 0.196732 0.442928
Si Si7 0.998276 0.212517 0.815491
Si Si8 0.772014 0.500000 0.605370
O O1 0.500000 0.281974 0.500000
O O2 0.686309 0.200470 0.292983
O O3 0.823543 0.276352 0.303771
O O4 0.657974 0.000000 0.408391
O O5 0.709191 0.264876 0.161224
O O6 0.885339 0.000000 0.022944
O O7 0.000000 0.271194 0.000000
O O8 0.923995 0.269145 0.929105
O O9 0.121187 0.782048 0.585899
O O10 0.914428 0.742052 0.807509
O O11 0.852611 0.669815 0.729582
O O12 0.895564 0.000000 0.741303
O O13 0.234834 0.500000 0.316534
O O14 0.953880 0.500000 0.465419
O O15 0.398154 0.500000 0.694068
O O16 0.569139 0.230893 0.604997
O O17 0.299290 0.332478 0.380504
O O18 0.298471 0.000000 0.414208
O O19 0.005182 0.000000 0.812010
#
# Coordination Sequence:
#
# PCOD9146125 Si02
#       8
#     4   4   4   2   4   4   4   2
#     4  10  19  33  52  72  97 136 182 218 259 312
#     4  10  19  35  54  69  94 138 187 229 268 305
#     4   9  18  33  53  80 109 140 176 213 261 316
#     4   9  18  32  54  80 113 144 162 210 259 319
#     4  12  23  34  48  73 108 138 180 227 264 314
#     4  10  19  34  55  77 109 144 174 216 263 313
#     4   9  17  32  51  72 100 135 181 225 257 306
#     4   9  18  34  52  82 113 136 176 204 255 325
#
# _framework density 19.395879000000001
#
# number of rings (size 3 to 8) (size 9 to 14) (size 15 to 20)
#    0.000    2.143    2.143    2.143    0.000    3.429 
#    2.571    2.857    0.000    0.000    0.000    2.000 
#    0.000    4.571    0.000    0.000    0.000    0.000 
#
# Total GULP energy -156268.405169 kJ/mol
# GULP energy per Si atom -5581.014470 kJ/mol
# Density = 1.935173 g / cm^3
# Si number density = 19.395879 Si / 1000 Ang^3
#
#
#
# Elastic Constant Matrix: (Units=GPa)
#
#
# Indices 1 2 3 4 5 6 
#
# 1 79.7016 32.0723 -1.4352 0.0000 35.7777 0.0000
# 2 32.0723 82.8036 10.4059 0.0000 17.3654 0.0000
# 3 -1.4352 10.4059 52.9820 0.0000 21.7738 0.0000
# 4 0.0000 0.0000 0.0000 27.8710 0.0000 7.1628
# 5 35.7777 17.3654 21.7738 0.0000 31.6216 0.0000
# 6 0.0000 0.0000 0.0000 7.1628 0.0000 14.8149
#
#
#
# Elastic Compliance Matrix: (Units=1/GPa)
#
#
# Indices 1 2 3 4 5 6 
#
# 1 0.051106 -0.007931 0.034749 0.000000 -0.077395 0.000000
# 2 -0.007931 0.014891 -0.004834 0.000000 0.004124 0.000000
# 3 0.034749 -0.004834 0.049973 0.000000 -0.071071 0.000000
# 4 0.000000 0.000000 0.000000 0.040970 0.000000 -0.019809
# 5 -0.077395 0.004124 -0.071071 0.000000 0.165865 0.000000
# 6 0.000000 0.000000 0.000000 -0.019809 0.000000 0.077077
#
#
# Mechanical properties :
#
#
# Convention : Reuss Voigt Hill
#
# Bulk Modulus (GPa) = 6.25242 33.06369 19.65805
# Shear Modulus (GPa) = 12.21814 26.49112 19.35463
#
# Velocity S-wave (km/s) = 2.51257 3.69970 3.16234
# Velocity P-wave (km/s) = 3.41291 5.94425 4.84676
#
# Compressibility (1/GPa) = 0.15993813
#
# Stress axis : x y z
#
# Youngs Moduli (GPa) = 19.56709 67.15390 20.01078
#
# Poissons Ratio (x) = 0.53257 -0.69535
# Poissons Ratio (y) = 0.15518 0.09674
# Poissons Ratio (z) = -0.67993 0.32465
#
# Static dielectric constant tensor:
#      x y z
#    x 1.653330 0.000000 0.025880 
#    y 0.000000 1.705240 0.000000 
#    z 0.025880 0.000000 1.710280 
# 
# From -- ./inp_files/77740.got.cif
#   From: 2010.05.17/outbox.cif.g08.bks.cpg/sg10_39_cif.got.tgz:77740.got - 2010.06.03 11:33:40.
