data_PCOD9146738
_publ_section_title
;
Structure prediction by ZEFSAII (Michael W. Deem and Ramdas Pophale) SiO2 
 PCOD9146738
Probable space group: P 2/M
;
_chemical_formula_sum "Si O2"
_cell_formula_units_Z 32
_cell_length_a 24.830177
_cell_length_b 8.536848
_cell_length_c 16.343453
_cell_angle_alpha 90.000000
_cell_angle_beta 153.456185
_cell_angle_gamma 90.000000
_cell_volume 1548.153776
_symmetry_space_group_name_H-M "P 2/M"
_symmetry_group_IT_number 10
_symmetry_cell_setting 'monoclinic'
loop_
_space_group_symop_operation_xyz
x,y,z
-x,y,-z
-x,-y,-z
x,-y,z
loop_
_atom_site_type_symbol
_atom_site_label
_atom_site_fract_x
_atom_site_fract_y
_atom_site_fract_z
Si Si1 0.839467 0.814544 0.985258
Si Si2 0.259284 0.313806 0.856961
Si Si3 0.498237 0.185352 0.255934
Si Si4 0.295416 0.681795 0.567762
Si Si5 0.400702 0.809588 0.432013
Si Si6 0.936018 0.185025 0.828993
Si Si7 0.199421 0.183044 0.605530
Si Si8 0.934678 0.685140 0.276716
O O1 0.730278 0.761145 0.778725
O O2 0.821730 0.000000 0.979150
O O3 0.850290 0.722086 0.084202
O O4 0.964758 0.799072 0.107110
O O5 0.253874 0.500000 0.835647
O O6 0.266398 0.226967 0.780294
O O7 0.138388 0.267117 0.741741
O O8 0.374103 0.271493 0.067734
O O9 0.592195 0.218220 0.311088
O O10 0.559708 0.242023 0.424057
O O11 0.474687 0.000000 0.231205
O O12 0.326948 0.500000 0.605713
O O13 0.182260 0.721164 0.355540
O O14 0.252831 0.725160 0.600950
O O15 0.500000 0.763542 0.500000
O O16 0.397876 0.000000 0.431208
O O17 0.903953 0.000000 0.793003
O O18 0.000000 0.232889 0.000000
O O19 0.060181 0.228433 0.431865
O O20 0.207495 0.000000 0.598215
O O21 0.959095 0.500000 0.314905
#
# Coordination Sequence:
#
# PCOD9146738 Si02
#       8
#     4   4   4   4   4   4   4   4
#     4  10  19  33  58  89 122 164 210 257 306 365
#     4  11  25  44  65  93 129 167 208 259 324 386
#     4  11  23  42  67  94 126 168 219 266 313 374
#     4  12  25  42  64  91 129 169 209 261 325 384
#     4   9  18  34  59  92 127 165 211 261 310 361
#     4  10  20  36  59  88 122 163 212 260 308 366
#     4  12  25  43  68  96 124 162 215 267 318 378
#     4  11  23  40  63  94 133 169 203 257 324 385
#
# _framework density 20.669782000000001
#
# number of rings (size 3 to 8) (size 9 to 14) (size 15 to 20)
#    0.000    1.250    1.250    5.250    0.000    7.250 
#    0.000    5.000    0.000    3.375    0.000    0.000 
#    0.000    0.000    0.000    0.000    0.000    0.000 
#
# Total GULP energy -179021.900956 kJ/mol
# GULP energy per Si atom -5594.434405 kJ/mol
# Density = 2.062274 g / cm^3
# Si number density = 20.669782 Si / 1000 Ang^3
#
#
#
# Elastic Constant Matrix: (Units=GPa)
#
#
# Indices 1 2 3 4 5 6 
#
# 1 62.1363 -2.5295 -0.6224 0.0000 -8.2469 0.0000
# 2 -2.5295 19.7628 -1.0104 0.0000 -2.6069 0.0000
# 3 -0.6224 -1.0104 65.9607 0.0000 -3.3854 0.0000
# 4 0.0000 0.0000 0.0000 89.8853 0.0000 -39.6463
# 5 -8.2469 -2.6069 -3.3854 0.0000 35.5333 0.0000
# 6 0.0000 0.0000 0.0000 -39.6463 0.0000 50.7917
#
#
#
# Elastic Compliance Matrix: (Units=1/GPa)
#
#
# Indices 1 2 3 4 5 6 
#
# 1 0.016756 0.002710 0.000411 0.000000 0.004127 0.000000
# 2 0.002710 0.051596 0.001048 0.000000 0.004514 0.000000
# 3 0.000411 0.001048 0.015264 0.000000 0.001627 0.000000
# 4 0.000000 0.000000 0.000000 0.016967 0.000000 0.013244
# 5 0.004127 0.004514 0.001627 0.000000 0.029587 0.000000
# 6 0.000000 0.000000 0.000000 0.013244 0.000000 0.030026
#
#
# Mechanical properties :
#
#
# Convention : Reuss Voigt Hill
#
# Bulk Modulus (GPa) = 10.87501 15.50392 13.18946
# Shear Modulus (GPa) = 27.39604 45.37686 36.38645
#
# Velocity S-wave (km/s) = 3.64457 4.69051 4.20023
# Velocity P-wave (km/s) = 4.79409 6.07055 5.46968
#
# Compressibility (1/GPa) = 0.09195391
#
# Stress axis : x y z
#
# Youngs Moduli (GPa) = 59.68077 19.38134 65.51384
#
# Poissons Ratio (x) = -0.05252 -0.02695
# Poissons Ratio (y) = -0.16174 -0.06863
# Poissons Ratio (z) = -0.02455 -0.02030
#
# Static dielectric constant tensor:
#      x y z
#    x 1.722930 0.000000 -0.011040 
#    y 0.000000 1.701080 0.000000 
#    z -0.011040 0.000000 1.736890 
# 
# From -- ./inp_files/71700.got.cif
#   From: 2010.05.17/outbox.cif.g08.bks.cpg/sg10_36_cif.got.tgz:71700.got - 2010.06.03 11:33:40.
