data_PCOD9146372
_publ_section_title
;
Structure prediction by ZEFSAII (Michael W. Deem and Ramdas Pophale) SiO2 
 PCOD9146372
Probable space group: P 2/M
;
_chemical_formula_sum "Si O2"
_cell_formula_units_Z 32
_cell_length_a 11.225223
_cell_length_b 8.990314
_cell_length_c 30.704559
_cell_angle_alpha 90.000000
_cell_angle_beta 146.822961
_cell_angle_gamma 90.000000
_cell_volume 1695.668272
_symmetry_space_group_name_H-M "P 2/M"
_symmetry_group_IT_number 10
_symmetry_cell_setting 'monoclinic'
loop_
_space_group_symop_operation_xyz
x,y,z
-x,y,-z
-x,-y,-z
x,-y,z
loop_
_atom_site_type_symbol
_atom_site_label
_atom_site_fract_x
_atom_site_fract_y
_atom_site_fract_z
Si Si1 0.713132 0.678809 0.037278
Si Si2 0.671900 0.822125 0.673675
Si Si3 0.435107 0.822571 0.094105
Si Si4 0.426930 0.678672 0.184157
Si Si5 0.099260 0.329039 0.766112
Si Si6 0.917408 0.669852 0.343145
Si Si7 0.196259 0.676781 0.202881
Si Si8 0.638562 0.821070 0.499803
O O1 0.707440 0.500000 0.029327
O O2 0.941339 0.715537 0.130214
O O3 0.500000 0.720900 0.000000
O O4 0.706255 0.757619 0.988486
O O5 0.653703 0.762969 0.717101
O O6 0.485803 0.776473 0.582400
O O7 0.895434 0.750246 0.725146
O O8 0.686462 0.000000 0.677481
O O9 0.371706 0.758916 0.122117
O O10 0.677684 0.759513 0.159185
O O11 0.433559 0.000000 0.094030
O O12 0.437325 0.500000 0.178908
O O13 0.670389 0.725077 0.273874
O O14 0.264766 0.706612 0.174157
O O15 0.124170 0.500000 0.789029
O O16 0.057337 0.331677 0.701480
O O17 0.929949 0.500000 0.362882
O O18 0.116860 0.761446 0.423170
O O19 0.220747 0.500000 0.217761
O O20 0.500000 0.770271 0.500000
O O21 0.643416 0.000000 0.502982
#
# Coordination Sequence:
#
# PCOD9146372 Si02
#       8
#     4   4   4   4   4   4   4   4
#     4  10  21  38  60  86 116 149 187 231 285 344
#     4  11  22  35  54  82 116 150 186 233 288 342
#     4  11  22  35  57  87 116 149 187 234 288 333
#     4   9  20  40  60  81 111 150 198 239 279 333
#     4  10  19  33  54  81 114 149 187 230 279 339
#     4   9  18  32  54  81 107 140 186 238 278 322
#     4  10  22  40  61  81 109 153 195 237 285 337
#     4  10  20  34  52  80 118 151 181 222 281 350
#
# _framework density 18.871616
#
# number of rings (size 3 to 8) (size 9 to 14) (size 15 to 20)
#    0.000    2.000    1.250    3.375    0.000    6.000 
#    0.000    3.125    0.000    3.750    0.000    0.000 
#    0.000    0.000    0.000    0.000    0.000    0.000 
#
# Total GULP energy -178662.678504 kJ/mol
# GULP energy per Si atom -5583.208703 kJ/mol
# Density = 1.882866 g / cm^3
# Si number density = 18.871616 Si / 1000 Ang^3
#
#
#
# Elastic Constant Matrix: (Units=GPa)
#
#
# Indices 1 2 3 4 5 6 
#
# 1 67.2700 26.2870 33.0511 0.0000 -3.8765 0.0000
# 2 26.2870 46.8864 44.6176 0.0000 -10.4502 0.0000
# 3 33.0511 44.6176 117.2733 0.0000 -17.4713 0.0000
# 4 0.0000 0.0000 0.0000 21.3331 0.0000 -6.3135
# 5 -3.8765 -10.4502 -17.4713 0.0000 19.5404 0.0000
# 6 0.0000 0.0000 0.0000 -6.3135 0.0000 20.5287
#
#
#
# Elastic Compliance Matrix: (Units=1/GPa)
#
#
# Indices 1 2 3 4 5 6 
#
# 1 0.019533 -0.009376 -0.002431 0.000000 -0.003313 0.000000
# 2 -0.009376 0.038915 -0.010775 0.000000 0.009318 0.000000
# 3 -0.002431 -0.010775 0.014284 0.000000 0.006527 0.000000
# 4 0.000000 0.000000 0.000000 0.051569 0.000000 0.015860
# 5 -0.003313 0.009318 0.006527 0.000000 0.061337 0.000000
# 6 0.000000 0.000000 0.000000 0.015860 0.000000 0.053590
#
#
# Mechanical properties :
#
#
# Convention : Reuss Voigt Hill
#
# Bulk Modulus (GPa) = 36.27455 48.81570 42.54513
# Shear Modulus (GPa) = 17.03097 20.77871 18.90484
#
# Velocity S-wave (km/s) = 3.00736 3.32182 3.16849
# Velocity P-wave (km/s) = 5.59665 6.37464 5.99827
#
# Compressibility (1/GPa) = 0.02756754
#
# Stress axis : x y z
#
# Youngs Moduli (GPa) = 51.19551 25.69687 70.00769
#
# Poissons Ratio (x) = 0.24093 0.17022
# Poissons Ratio (y) = 0.48001 0.75434
# Poissons Ratio (z) = 0.12448 0.27689
#
# Static dielectric constant tensor:
#      x y z
#    x 1.668410 0.000000 -0.007600 
#    y 0.000000 1.633700 0.000000 
#    z -0.007600 0.000000 1.650450 
# 
# From -- ./inp_files/83624.got.cif
#   From: 2010.05.17/outbox.cif.g08.bks.cpg/sg10_42_cif.got.tgz:83624.got - 2010.06.03 11:33:40.
