data_PCOD9146853
_publ_section_title
;
Structure prediction by ZEFSAII (Michael W. Deem and Ramdas Pophale) SiO2 
 PCOD9146853
Probable space group: P 2/M
;
_chemical_formula_sum "Si O2"
_cell_formula_units_Z 30
_cell_length_a 14.106034
_cell_length_b 24.948063
_cell_length_c 14.051434
_cell_angle_alpha 90.000000
_cell_angle_beta 159.720306
_cell_angle_gamma 90.000000
_cell_volume 1713.937650
_symmetry_space_group_name_H-M "P 2/M"
_symmetry_group_IT_number 10
_symmetry_cell_setting 'monoclinic'
loop_
_space_group_symop_operation_xyz
x,y,z
-x,y,-z
-x,-y,-z
x,-y,z
loop_
_atom_site_type_symbol
_atom_site_label
_atom_site_fract_x
_atom_site_fract_y
_atom_site_fract_z
Si Si1 0.285502 0.662022 0.480174
Si Si2 0.402880 0.777473 0.007881
Si Si3 0.217417 0.000000 0.288746
Si Si4 0.548448 0.173320 0.737717
Si Si5 0.844871 0.719625 0.954114
Si Si6 0.107246 0.700180 0.503529
Si Si7 0.787366 0.560120 0.716989
Si Si8 0.941112 0.883963 0.830198
O O1 0.597975 0.678822 0.749727
O O2 0.182494 0.659761 0.490898
O O3 0.217559 0.607145 0.363490
O O4 0.093113 0.709877 0.259914
O O5 0.103017 0.749545 0.719986
O O6 0.500000 0.805214 0.000000
O O7 0.463259 0.809418 0.162322
O O8 0.605428 0.727557 0.204796
O O9 0.500000 0.000000 0.500000
O O10 0.173687 0.943330 0.298234
O O11 0.000000 0.000000 0.000000
O O12 0.702415 0.222686 0.829659
O O13 0.275236 0.156984 0.422595
O O14 0.761795 0.124666 0.934148
O O15 0.000000 0.711787 0.000000
O O16 0.000000 0.675205 0.500000
O O17 0.500000 0.558985 0.500000
O O18 0.845224 0.500000 0.734108
O O19 0.000000 0.572890 0.000000
O O20 0.000000 0.877168 0.000000
#
# Coordination Sequence:
#
# PCOD9146853 Si02
#       8
#     4   4   2   4   4   4   4   4
#     4  12  20  36  53  75 105 142 180 216 269 316
#     4  10  20  36  55  77 107 143 182 224 262 316
#     4  10  20  38  56  74 101 142 193 226 252 302
#     4  12  21  36  53  80 112 143 177 219 267 325
#     4  12  24  33  49  77 114 146 174 205 262 333
#     4  10  19  34  54  76 103 139 181 223 266 317
#     4  10  21  36  53  73  99 136 183 226 260 307
#     4  11  23  36  55  78 109 147 181 220 262 312
#
# _framework density 17.503553
#
# number of rings (size 3 to 8) (size 9 to 14) (size 15 to 20)
#    0.000    1.067    2.667    6.400    0.000    1.067 
#    0.000    0.667    0.000    0.400    0.000    2.800 
#    0.000    8.533    0.000    0.000    0.000    2.133 
#
# Total GULP energy -167183.048220 kJ/mol
# GULP energy per Si atom -5572.768274 kJ/mol
# Density = 1.746371 g / cm^3
# Si number density = 17.503553 Si / 1000 Ang^3
#
#
#
# Elastic Constant Matrix: (Units=GPa)
#
#
# Indices 1 2 3 4 5 6 
#
# 1 142.5925 43.5281 27.6324 0.0000 -3.3806 0.0000
# 2 43.5281 76.8787 9.6793 0.0000 -2.3902 0.0000
# 3 27.6324 9.6793 98.5093 0.0000 4.1247 0.0000
# 4 0.0000 0.0000 0.0000 12.4775 0.0000 7.7245
# 5 -3.3806 -2.3902 4.1247 0.0000 16.8283 0.0000
# 6 0.0000 0.0000 0.0000 7.7245 0.0000 4.4530
#
#
#
# Elastic Compliance Matrix: (Units=1/GPa)
#
#
# Indices 1 2 3 4 5 6 
#
# 1 0.008901 -0.004724 -0.002101 0.000000 0.001632 0.000000
# 2 -0.004724 0.015760 -0.000280 0.000000 0.001358 0.000000
# 3 -0.002101 -0.000280 0.010899 0.000000 -0.003133 0.000000
# 4 0.000000 0.000000 0.000000 -1.084906 0.000000 1.881932
# 5 0.001632 0.001358 -0.003133 0.000000 0.060713 0.000000
# 6 0.000000 0.000000 0.000000 1.881932 0.000000 -3.039927
#
#
# Mechanical properties :
#
#
# Convention : Reuss Voigt Hill
#
# Bulk Modulus (GPa) = 46.83993 53.29557 50.06775
# Shear Modulus (GPa) = -1.24774 22.56114 10.65670
#
# Velocity S-wave (km/s) = -0.84522 3.59408 2.47013
# Velocity P-wave (km/s) = 5.08584 6.90925 6.06645
#
# Compressibility (1/GPa) = 0.02134931
#
# Stress axis : x y z
#
# Youngs Moduli (GPa) = 112.34696 63.45203 91.74843
#
# Poissons Ratio (x) = 0.29977 0.19275
# Poissons Ratio (y) = 0.53078 0.02570
# Poissons Ratio (z) = 0.23603 0.01778
#
# Static dielectric constant tensor:
#      x y z
#    x 1.736710 0.000000 -0.026790 
#    y 0.000000 1.626750 0.000000 
#    z -0.026790 0.000000 1.622400 
# 
# From -- ./inp_files/68019.got.cif
#   From: 2010.05.17/outbox.cif.g08.bks.cpg/sg10_35_cif.got.tgz:68019.got - 2010.06.03 11:33:40.
