data_PCOD9146803
_publ_section_title
;
Structure prediction by ZEFSAII (Michael W. Deem and Ramdas Pophale) SiO2 
 PCOD9146803
Probable space group: P 2/M
;
_chemical_formula_sum "Si O2"
_cell_formula_units_Z 32
_cell_length_a 12.607581
_cell_length_b 8.574369
_cell_length_c 21.391646
_cell_angle_alpha 90.000000
_cell_angle_beta 127.843495
_cell_angle_gamma 90.000000
_cell_volume 1826.141842
_symmetry_space_group_name_H-M "P 2/M"
_symmetry_group_IT_number 10
_symmetry_cell_setting 'monoclinic'
loop_
_space_group_symop_operation_xyz
x,y,z
-x,y,-z
-x,-y,-z
x,-y,z
loop_
_atom_site_type_symbol
_atom_site_label
_atom_site_fract_x
_atom_site_fract_y
_atom_site_fract_z
Si Si1 0.240896 0.812876 0.052016
Si Si2 0.946758 0.811760 0.130233
Si Si3 0.533750 0.687075 0.161871
Si Si4 0.779411 0.313240 0.815904
Si Si5 0.788481 0.812267 0.446323
Si Si6 0.477976 0.312767 0.697250
Si Si7 0.807798 0.189036 0.208702
Si Si8 0.962199 0.189655 0.387995
O O1 0.391235 0.757462 0.089955
O O2 0.206329 0.745024 0.107514
O O3 0.238009 0.000000 0.054828
O O4 0.136828 0.761701 0.961174
O O5 0.870604 0.761885 0.165537
O O6 0.097495 0.750132 0.179466
O O7 0.950649 0.000000 0.131448
O O8 0.525847 0.500000 0.156931
O O9 0.552334 0.734601 0.241629
O O10 0.659482 0.746764 0.167991
O O11 0.781265 0.500000 0.817032
O O12 0.630965 0.261926 0.739678
O O13 0.637823 0.751152 0.389021
O O14 0.863368 0.763687 0.408962
O O15 0.887874 0.760556 0.537943
O O16 0.784972 0.000000 0.445477
O O17 0.474326 0.500000 0.693950
O O18 0.902781 0.241292 0.300579
O O19 0.801379 0.000000 0.207377
O O20 0.962891 0.000000 0.387732
#
# Coordination Sequence:
#
# PCOD9146803 Si02
#       8
#     4   4   4   4   4   4   4   4
#     4  10  20  35  54  75 100 127 163 213 256 293
#     4  10  22  36  52  75  98 129 173 210 246 298
#     4  10  20  33  49  74 104 133 168 204 246 300
#     4  10  21  36  54  75 100 129 165 210 255 296
#     4   9  15  26  48  76 100 126 162 199 241 290
#     4   9  18  31  47  72 102 127 158 203 247 292
#     4  10  19  34  53  71 101 139 168 201 247 297
#     4   8  15  27  46  74 103 128 160 200 239 288
#
# _framework density 17.523282999999999
#
# number of rings (size 3 to 8) (size 9 to 14) (size 15 to 20)
#    0.000    2.500    1.250    3.000    0.000    6.000 
#    0.000    4.375    0.000    0.750    0.000    5.250 
#    0.000    0.000    0.000    0.000    0.000    0.000 
#
# Total GULP energy -178461.708441 kJ/mol
# GULP energy per Si atom -5576.928389 kJ/mol
# Density = 1.748340 g / cm^3
# Si number density = 17.523283 Si / 1000 Ang^3
#
#
#
# Elastic Constant Matrix: (Units=GPa)
#
#
# Indices 1 2 3 4 5 6 
#
# 1 99.0555 9.0131 15.2853 0.0000 23.9462 0.0000
# 2 9.0131 5.3055 2.0855 0.0000 4.4867 0.0000
# 3 15.2853 2.0855 37.7100 0.0000 24.1652 0.0000
# 4 0.0000 0.0000 0.0000 1153.3743 0.0000 722.1403
# 5 23.9462 4.4867 24.1652 0.0000 23.6134 0.0000
# 6 0.0000 0.0000 0.0000 722.1403 0.0000 472.1252
#
#
#
# Elastic Compliance Matrix: (Units=1/GPa)
#
#
# Indices 1 2 3 4 5 6 
#
# 1 0.015058 -0.010179 0.008732 0.000000 -0.022272 0.000000
# 2 -0.010179 0.258821 0.042739 0.000000 -0.082593 0.000000
# 3 0.008732 0.042739 0.091495 0.000000 -0.110608 0.000000
# 4 0.000000 0.000000 0.000000 0.020482 0.000000 -0.031329
# 5 -0.022272 -0.082593 -0.110608 0.000000 0.193820 0.000000
# 6 0.000000 0.000000 0.000000 -0.031329 0.000000 0.050037
#
#
# Mechanical properties :
#
#
# Convention : Reuss Voigt Hill
#
# Bulk Modulus (GPa) = 2.23236 21.64875 11.94055
# Shear Modulus (GPa) = 7.17928 337.53506 172.35717
#
# Velocity S-wave (km/s) = 2.02630 13.89385 9.92837
# Velocity P-wave (km/s) = 2.59831 16.42457 11.75835
#
# Compressibility (1/GPa) = 0.44795726
#
# Stress axis : x y z
#
# Youngs Moduli (GPa) = 66.40833 3.86367 10.92961
#
# Poissons Ratio (x) = 0.03933 -0.09543
# Poissons Ratio (y) = 0.67596 -0.46712
# Poissons Ratio (z) = -0.57985 -0.16513
#
# Static dielectric constant tensor:
#      x y z
#    x 1.579530 0.000000 0.012440 
#    y 0.000000 1.598520 0.000000 
#    z 0.012440 0.000000 1.607200 
# 
# From -- ./inp_files/55281.got.cif
#   From: 2010.05.17/outbox.cif.g08.bks.cpg/sg10_28_cif.got.tgz:55281.got - 2010.06.03 11:33:40.
