data_PCOD9146589
_publ_section_title
;
Structure prediction by ZEFSAII (Michael W. Deem and Ramdas Pophale) SiO2 
 PCOD9146589
Probable space group: P 2/M
;
_chemical_formula_sum "Si O2"
_cell_formula_units_Z 28
_cell_length_a 25.491791
_cell_length_b 7.397680
_cell_length_c 9.711451
_cell_angle_alpha 90.000000
_cell_angle_beta 138.775217
_cell_angle_gamma 90.000000
_cell_volume 1206.910917
_symmetry_space_group_name_H-M "P 2/M"
_symmetry_group_IT_number 10
_symmetry_cell_setting 'monoclinic'
loop_
_space_group_symop_operation_xyz
x,y,z
-x,y,-z
-x,-y,-z
x,-y,z
loop_
_atom_site_type_symbol
_atom_site_label
_atom_site_fract_x
_atom_site_fract_y
_atom_site_fract_z
Si Si1 0.005519 0.720813 0.670404
Si Si2 0.418382 0.279022 0.773095
Si Si3 0.159206 0.720244 0.149706
Si Si4 0.314976 0.709760 0.809964
Si Si5 0.577949 0.794203 0.728547
Si Si6 0.324503 0.718657 0.334606
Si Si7 0.143138 0.279589 0.438396
O O1 0.005105 0.500000 0.667580
O O2 0.000000 0.778530 0.500000
O O3 0.931179 0.781437 0.617203
O O4 0.086285 0.774645 0.907941
O O5 0.419756 0.500000 0.776834
O O6 0.348307 0.213803 0.734088
O O7 0.397057 0.225918 0.577544
O O8 0.500000 0.216713 0.000000
O O9 0.161587 0.500000 0.158136
O O10 0.242284 0.776969 0.243070
O O11 0.145806 0.775888 0.282439
O O12 0.300809 0.500000 0.753061
O O13 0.227419 0.779334 0.671798
O O14 0.385204 0.716485 0.059686
O O15 0.500000 0.711320 0.500000
O O16 0.651340 0.786431 0.766783
O O17 0.557119 0.000000 0.719591
O O18 0.322195 0.500000 0.322072
O O19 0.137050 0.500000 0.426480
#
# Coordination Sequence:
#
# PCOD9146589 Si02
#       7
#     4   4   4   4   4   4   4
#     4   9  17  25  39  69 111 150 175 202 252 314
#     4   9  16  28  49  78 106 128 163 219 271 313
#     4   9  16  28  46  73 108 141 172 213 265 315
#     4  10  19  33  56  82 105 135 178 223 267 314
#     4  11  25  41  53  72 107 146 180 217 267 325
#     4  10  19  33  56  82 105 135 178 223 267 314
#     4   9  16  28  46  73 108 141 172 213 265 315
#
# _framework density 23.199724
#
# number of rings (size 3 to 8) (size 9 to 14) (size 15 to 20)
#    0.000    2.429    1.429    1.714    2.000    4.000 
#    0.000    0.714    0.000    2.571    0.000    2.000 
#    0.000    2.286    0.000    0.000    0.000    0.000 
#
# Total GULP energy -156354.561490 kJ/mol
# GULP energy per Si atom -5584.091482 kJ/mol
# Density = 2.314692 g / cm^3
# Si number density = 23.199724 Si / 1000 Ang^3
#
#
#
# Elastic Constant Matrix: (Units=GPa)
#
#
# Indices 1 2 3 4 5 6 
#
# 1 107.0207 1.3641 29.6026 0.0000 0.6607 0.0000
# 2 1.3641 74.5405 -1.7463 0.0000 3.9944 0.0000
# 3 29.6026 -1.7463 110.1874 0.0000 7.4337 0.0000
# 4 0.0000 0.0000 0.0000 -29.3741 0.0000 -2.4251
# 5 0.6607 3.9944 7.4337 0.0000 42.1490 0.0000
# 6 0.0000 0.0000 0.0000 -2.4251 0.0000 21.7403
#
#
#
# Elastic Compliance Matrix: (Units=1/GPa)
#
#
# Indices 1 2 3 4 5 6 
#
# 1 0.010104 -0.000268 -0.002742 0.000000 0.000351 0.000000
# 2 -0.000268 0.013501 0.000376 0.000000 -0.001342 0.000000
# 3 -0.002742 0.000376 0.009936 0.000000 -0.001745 0.000000
# 4 0.000000 0.000000 0.000000 -0.033733 0.000000 -0.003763
# 5 0.000351 -0.001342 -0.001745 0.000000 0.024155 0.000000
# 6 0.000000 0.000000 0.000000 -0.003763 0.000000 0.045578
#
#
# Mechanical properties :
#
#
# Convention : Reuss Voigt Hill
#
# Bulk Modulus (GPa) = 35.36919 38.90992 37.13956
# Shear Modulus (GPa) = 59.35950 24.40492 41.88221
#
# Velocity S-wave (km/s) = 5.06378 3.24689 4.25348
# Velocity P-wave (km/s) = 7.03333 5.55559 6.33768
#
# Compressibility (1/GPa) = 0.02827319
#
# Stress axis : x y z
#
# Youngs Moduli (GPa) = 98.97281 74.06776 100.64520
#
# Poissons Ratio (x) = 0.01985 0.27600
# Poissons Ratio (y) = 0.02652 -0.03789
# Poissons Ratio (z) = 0.27142 -0.02788
#
# Static dielectric constant tensor:
#      x y z
#    x 1.848300 0.000000 0.041160 
#    y 0.000000 1.954990 0.000000 
#    z 0.041160 0.000000 1.831790 
# 
# From -- ./inp_files/37342.got.cif
#   From: 2010.05.17/outbox.cif.g08.bks.cpg/sg10_19_cif.got.tgz:37342.got - 2010.06.03 11:33:40.
