data_PCOD9146715
_publ_section_title
;
Structure prediction by ZEFSAII (Michael W. Deem and Ramdas Pophale) SiO2 
 PCOD9146715
Probable space group: P 2/M
;
_chemical_formula_sum "Si O2"
_cell_formula_units_Z 30
_cell_length_a 15.726801
_cell_length_b 16.092448
_cell_length_c 9.932772
_cell_angle_alpha 90.000000
_cell_angle_beta 147.579709
_cell_angle_gamma 90.000000
_cell_volume 1347.719959
_symmetry_space_group_name_H-M "P 2/M"
_symmetry_group_IT_number 10
_symmetry_cell_setting 'monoclinic'
loop_
_space_group_symop_operation_xyz
x,y,z
-x,y,-z
-x,-y,-z
x,-y,z
loop_
_atom_site_type_symbol
_atom_site_label
_atom_site_fract_x
_atom_site_fract_y
_atom_site_fract_z
Si Si1 0.801227 0.909306 0.050706
Si Si2 0.683528 0.728219 0.602486
Si Si3 0.157777 0.088068 0.424513
Si Si4 0.363813 0.908525 0.449807
Si Si5 0.804457 0.734103 0.471382
Si Si6 0.500000 0.369109 0.000000
Si Si7 0.570872 0.593331 0.799089
Si Si8 0.166641 0.727439 0.903591
O O1 0.674823 0.910784 0.759993
O O2 0.794474 0.000000 0.113244
O O3 0.795588 0.818399 0.111447
O O4 0.971639 0.908270 0.203968
O O5 0.580425 0.813825 0.447231
O O6 0.794318 0.719606 0.619566
O O7 0.566389 0.649853 0.451562
O O8 0.783142 0.736705 0.871820
O O9 0.204465 0.092184 0.329856
O O10 0.227664 0.168180 0.588340
O O11 0.218445 0.000000 0.557608
O O12 0.433166 0.000000 0.579717
O O13 0.977786 0.713343 0.646332
O O14 0.659060 0.684797 0.217885
O O15 0.486260 0.414284 0.123117
O O16 0.592590 0.500000 0.773374
O O17 0.728904 0.650189 0.006188
#
# Coordination Sequence:
#
# PCOD9146715 Si02
#       8
#     4   4   4   4   4   2   4   4
#     4   8  13  22  40  71 112 150 178 210 256 310
#     4   9  18  33  55  85 120 152 178 214 273 331
#     4   8  12  20  40  72 108 145 184 220 256 302
#     4   8  12  20  39  71 110 149 184 213 246 302
#     4   9  18  34  57  83 115 151 185 225 267 316
#     4  10  23  44  63  78 100 138 185 232 286 332
#     4  11  24  42  62  80 104 140 181 229 282 337
#     4  10  19  33  57  89 117 144 182 225 271 324
#
# _framework density 22.259817000000002
#
# number of rings (size 3 to 8) (size 9 to 14) (size 15 to 20)
#    0.000    2.933    0.000    1.400    0.000    6.400 
#    0.000    5.000    0.000    9.600    0.000    3.733 
#    0.000    0.000    0.000    0.000    0.000    0.000 
#
# Total GULP energy -167178.251226 kJ/mol
# GULP energy per Si atom -5572.608374 kJ/mol
# Density = 2.220915 g / cm^3
# Si number density = 22.259817 Si / 1000 Ang^3
#
#
#
# Elastic Constant Matrix: (Units=GPa)
#
#
# Indices 1 2 3 4 5 6 
#
# 1 65.6762 21.0356 15.1686 0.0000 5.6862 0.0000
# 2 21.0356 207.9991 45.1358 0.0000 23.4855 0.0000
# 3 15.1686 45.1358 66.1191 0.0000 18.3764 0.0000
# 4 0.0000 0.0000 0.0000 1813.4471 0.0000 -560.2900
# 5 5.6862 23.4855 18.3764 0.0000 35.6797 0.0000
# 6 0.0000 0.0000 0.0000 -560.2900 0.0000 199.6620
#
#
#
# Elastic Compliance Matrix: (Units=1/GPa)
#
#
# Indices 1 2 3 4 5 6 
#
# 1 0.016252 -0.000952 -0.002956 0.000000 -0.000441 0.000000
# 2 -0.000952 0.005827 -0.003192 0.000000 -0.002040 0.000000
# 3 -0.002956 -0.003192 0.020151 0.000000 -0.007806 0.000000
# 4 0.000000 0.000000 0.000000 0.004147 0.000000 0.011636
# 5 -0.000441 -0.002040 -0.007806 0.000000 0.033460 0.000000
# 6 0.000000 0.000000 0.000000 0.011636 0.000000 0.037661
#
#
# Mechanical properties :
#
#
# Convention : Reuss Voigt Hill
#
# Bulk Modulus (GPa) = 35.67728 55.83050 45.75389
# Shear Modulus (GPa) = 35.45023 426.98806 231.21914
#
# Velocity S-wave (km/s) = 3.99503 13.86494 10.20286
# Velocity P-wave (km/s) = 6.11087 16.77651 12.62525
#
# Compressibility (1/GPa) = 0.02802904
#
# Stress axis : x y z
#
# Youngs Moduli (GPa) = 61.53050 171.61219 49.62482
#
# Poissons Ratio (x) = 0.16345 0.14668
# Poissons Ratio (y) = 0.05861 0.15843
# Poissons Ratio (z) = 0.18187 0.54787
#
# Static dielectric constant tensor:
#      x y z
#    x 1.868550 0.000000 0.012730 
#    y 0.000000 1.861550 0.000000 
#    z 0.012730 0.000000 1.828780 
# 
# From -- ./inp_files/53927.got.cif
#   From: 2010.05.17/outbox.cif.g08.bks.cpg/sg10_27_cif.got.tgz:53927.got - 2010.06.03 11:33:40.
