data_PCOD9146425
_publ_section_title
;
Structure prediction by ZEFSAII (Michael W. Deem and Ramdas Pophale) SiO2 
 PCOD9146425
Probable space group: P 2/M
;
_chemical_formula_sum "Si O2"
_cell_formula_units_Z 24
_cell_length_a 13.807105
_cell_length_b 12.126663
_cell_length_c 17.762358
_cell_angle_alpha 90.000000
_cell_angle_beta 154.770645
_cell_angle_gamma 90.000000
_cell_volume 1267.656617
_symmetry_space_group_name_H-M "P 2/M"
_symmetry_group_IT_number 10
_symmetry_cell_setting 'monoclinic'
loop_
_space_group_symop_operation_xyz
x,y,z
-x,y,-z
-x,-y,-z
x,-y,z
loop_
_atom_site_type_symbol
_atom_site_label
_atom_site_fract_x
_atom_site_fract_y
_atom_site_fract_z
Si Si1 0.527584 0.500000 0.143470
Si Si2 0.124758 0.500000 0.740639
Si Si3 0.503383 0.263079 0.198696
Si Si4 0.782898 0.126201 0.896935
Si Si5 0.792776 0.873161 0.292776
Si Si6 0.910668 0.736920 0.605982
Si Si7 0.625007 0.126200 0.510969
O O1 0.770608 0.500000 0.270611
O O2 0.492888 0.389531 0.166776
O O3 0.337066 0.500000 0.945686
O O4 0.985444 0.610468 0.659327
O O5 0.284170 0.209030 0.083662
O O6 0.585931 0.191121 0.185784
O O7 0.705120 0.254774 0.401704
O O8 0.569945 0.123240 0.689983
O O9 0.818091 0.000000 0.949116
O O10 0.000000 0.158552 0.000000
O O11 0.000000 0.872334 0.500000
O O12 0.885496 0.808881 0.285641
O O13 0.739496 0.000000 0.239497
O O14 0.817344 0.790966 0.616838
O O15 0.500000 0.158546 0.500000
O O16 0.711171 0.000000 0.580139
#
# Coordination Sequence:
#
# PCOD9146425 Si02
#       7
#     2   2   4   4   4   4   4
#     4  11  23  37  52  73 106 143 176 214 263 316
#     4  11  23  37  52  73 106 143 176 214 263 316
#     4  10  19  33  55  79 103 135 178 217 254 307
#     4   9  18  33  54  81 110 139 172 212 259 311
#     4   9  16  27  49  80 106 127 160 213 264 303
#     4  10  19  33  55  79 103 135 178 217 254 307
#     4   9  18  33  54  81 110 139 172 212 259 311
#
# _framework density 18.932570999999999
#
# number of rings (size 3 to 8) (size 9 to 14) (size 15 to 20)
#    0.000    2.333    1.667    1.500    0.000    6.000 
#    0.000    0.833    0.000    4.000    0.000    0.000 
#    0.000    0.000    0.000    0.000    0.000    0.000 
#
# Total GULP energy -133946.719203 kJ/mol
# GULP energy per Si atom -5581.113300 kJ/mol
# Density = 1.888948 g / cm^3
# Si number density = 18.932571 Si / 1000 Ang^3
#
#
#
# Elastic Constant Matrix: (Units=GPa)
#
#
# Indices 1 2 3 4 5 6 
#
# 1 162.2609 116.0190 28.1748 0.0000 46.2072 0.0000
# 2 116.0190 187.0289 23.8141 0.0000 46.3484 0.0000
# 3 28.1748 23.8141 32.2556 0.0000 19.1439 0.0000
# 4 0.0000 0.0000 0.0000 1.4577 0.0000 1.6226
# 5 46.2072 46.3484 19.1439 0.0000 34.6866 0.0000
# 6 0.0000 0.0000 0.0000 1.6226 0.0000 4.6848
#
#
#
# Elastic Compliance Matrix: (Units=1/GPa)
#
#
# Indices 1 2 3 4 5 6 
#
# 1 0.013053 -0.005693 -0.002072 0.000000 -0.008638 0.000000
# 2 -0.005693 0.010486 0.001555 0.000000 -0.007286 0.000000
# 3 -0.002072 0.001555 0.046486 0.000000 -0.024974 0.000000
# 4 0.000000 0.000000 0.000000 1.116440 0.000000 -0.386683
# 5 -0.008638 -0.007286 -0.024974 0.000000 0.063856 0.000000
# 6 0.000000 0.000000 0.000000 -0.386683 0.000000 0.347385
#
#
# Mechanical properties :
#
#
# Convention : Reuss Voigt Hill
#
# Bulk Modulus (GPa) = 17.35920 79.72902 48.54411
# Shear Modulus (GPa) = 3.06875 22.40165 12.73520
#
# Velocity S-wave (km/s) = 1.27452 3.44355 2.59638
# Velocity P-wave (km/s) = 3.36968 7.61671 5.88935
#
# Compressibility (1/GPa) = 0.05760635
#
# Stress axis : x y z
#
# Youngs Moduli (GPa) = 76.61164 95.36949 21.51171
#
# Poissons Ratio (x) = 0.54289 0.04457
# Poissons Ratio (y) = 0.43611 -0.03345
# Poissons Ratio (z) = 0.15873 -0.14832
#
# Static dielectric constant tensor:
#      x y z
#    x 1.658660 0.000000 -0.013660 
#    y 0.000000 1.632520 0.000000 
#    z -0.013660 0.000000 1.685840 
# 
# From -- ./inp_files/36103.got.cif
#   From: 2010.05.17/outbox.cif.g08.bks.cpg/sg10_19_cif.got.tgz:36103.got - 2010.06.03 11:33:40.
