data_PCOD9146455
_publ_section_title
;
Structure prediction by ZEFSAII (Michael W. Deem and Ramdas Pophale) SiO2 
 PCOD9146455
Probable space group: P 2/M
;
_chemical_formula_sum "Si O2"
_cell_formula_units_Z 32
_cell_length_a 27.898317
_cell_length_b 9.179154
_cell_length_c 23.094343
_cell_angle_alpha 90.000000
_cell_angle_beta 162.749407
_cell_angle_gamma 90.000000
_cell_volume 1753.825329
_symmetry_space_group_name_H-M "P 2/M"
_symmetry_group_IT_number 10
_symmetry_cell_setting 'monoclinic'
loop_
_space_group_symop_operation_xyz
x,y,z
-x,y,-z
-x,-y,-z
x,-y,z
loop_
_atom_site_type_symbol
_atom_site_label
_atom_site_fract_x
_atom_site_fract_y
_atom_site_fract_z
Si Si1 0.700133 0.670262 0.581444
Si Si2 0.942503 0.671531 0.062095
Si Si3 0.677649 0.171289 0.677746
Si Si4 0.428434 0.833209 0.672767
Si Si5 0.819282 0.668997 0.314863
Si Si6 0.454907 0.174274 0.071472
Si Si7 0.069954 0.831831 0.317687
Si Si8 0.217278 0.326320 0.591739
O O1 0.671392 0.500000 0.559129
O O2 0.680817 0.760938 0.617498
O O3 0.584173 0.730242 0.396997
O O4 0.883852 0.686564 0.769735
O O5 0.911188 0.500000 0.033039
O O6 0.959364 0.749823 0.143568
O O7 0.807021 0.746220 0.866804
O O8 0.500000 0.187587 0.500000
O O9 0.717551 0.000000 0.721351
O O10 0.547260 0.791087 0.862236
O O11 0.250510 0.831040 0.497630
O O12 0.460414 0.000000 0.691740
O O13 0.765823 0.500000 0.245928
O O14 0.817212 0.700987 0.380774
O O15 0.000000 0.681685 0.500000
O O16 0.700494 0.771887 0.142127
O O17 0.609158 0.256576 0.222738
O O18 0.477711 0.000000 0.093052
O O19 0.090413 0.748596 0.401818
O O20 0.022536 0.000000 0.270680
O O21 0.220465 0.500000 0.585216
#
# Coordination Sequence:
#
# PCOD9146455 Si02
#       8
#     4   4   4   4   4   4   4   4
#     4  10  20  34  56  84 108 135 173 216 262 313
#     4  10  20  35  57  84 110 137 174 217 262 315
#     4  11  24  39  54  75 106 144 182 219 261 309
#     4   8  16  31  51  77 107 136 168 211 260 309
#     4  10  22  38  53  73 105 143 181 220 263 314
#     4  10  20  34  55  82 108 136 174 219 266 316
#     4   9  17  31  53  81 110 138 171 214 263 312
#     4  10  19  33  55  80 106 139 177 218 265 313
#
# _framework density 18.245830999999999
#
# number of rings (size 3 to 8) (size 9 to 14) (size 15 to 20)
#    0.000    2.250    0.000    3.750    0.000   10.250 
#    0.000    1.250    0.000    3.000    0.000    0.000 
#    0.000    0.000    0.000    0.000    0.000    0.000 
#
# Total GULP energy -178627.128889 kJ/mol
# GULP energy per Si atom -5582.097778 kJ/mol
# Density = 1.820430 g / cm^3
# Si number density = 18.245831 Si / 1000 Ang^3
#
#
#
# Elastic Constant Matrix: (Units=GPa)
#
#
# Indices 1 2 3 4 5 6 
#
# 1 58.4193 76.1303 85.8918 0.0000 -37.0829 0.0000
# 2 76.1303 141.6294 80.6585 0.0000 -33.0103 0.0000
# 3 85.8918 80.6585 63.5459 0.0000 -40.6988 0.0000
# 4 0.0000 0.0000 0.0000 32.1328 0.0000 -13.1120
# 5 -37.0829 -33.0103 -40.6988 0.0000 28.6008 0.0000
# 6 0.0000 0.0000 0.0000 -13.1120 0.0000 25.6425
#
#
#
# Elastic Compliance Matrix: (Units=1/GPa)
#
#
# Indices 1 2 3 4 5 6 
#
# 1 0.010781 -0.018137 0.045076 0.000000 0.057188 0.000000
# 2 -0.018137 0.020303 -0.014769 0.000000 -0.021099 0.000000
# 3 0.045076 -0.014769 0.000792 0.000000 0.042525 0.000000
# 4 0.000000 0.000000 0.000000 0.039326 0.000000 0.020109
# 5 0.057188 -0.021099 0.042525 0.000000 0.145273 0.000000
# 6 0.000000 0.000000 0.000000 0.020109 0.000000 0.049280
#
#
# Mechanical properties :
#
#
# Convention : Reuss Voigt Hill
#
# Bulk Modulus (GPa) = 17.78863 83.21731 50.50297
# Shear Modulus (GPa) = 19.21925 18.66948 18.94436
#
# Velocity S-wave (km/s) = 3.24906 3.20225 3.22574
# Velocity P-wave (km/s) = 4.88321 7.70587 6.45082
#
# Compressibility (1/GPa) = 0.05621570
#
# Stress axis : x y z
#
# Youngs Moduli (GPa) = 92.75892 49.25269 1261.99772
#
# Poissons Ratio (x) = 0.89329 -56.88568
# Poissons Ratio (y) = 1.68235 18.63900
# Poissons Ratio (z) = -4.18119 0.72743
#
# Static dielectric constant tensor:
#      x y z
#    x 1.606920 0.000000 -0.008260 
#    y 0.000000 1.613470 0.000000 
#    z -0.008260 0.000000 1.609730 
# 
# From -- ./inp_files/86970.got.cif
#   From: 2010.05.17/outbox.cif.g08.bks.cpg/sg10_44_cif.got.tgz:86970.got - 2010.06.03 11:33:40.
