data_PCOD9146012
_publ_section_title
;
Structure prediction by ZEFSAII (Michael W. Deem and Ramdas Pophale) SiO2 
 PCOD9146012
Probable space group: P 2/M
;
_chemical_formula_sum "Si O2"
_cell_formula_units_Z 32
_cell_length_a 15.373953
_cell_length_b 7.537950
_cell_length_c 22.730678
_cell_angle_alpha 90.000000
_cell_angle_beta 32.063183
_cell_angle_gamma 90.000000
_cell_volume 1398.383820
_symmetry_space_group_name_H-M "P 2/M"
_symmetry_group_IT_number 10
_symmetry_cell_setting 'monoclinic'
loop_
_space_group_symop_operation_xyz
x,y,z
-x,y,-z
-x,-y,-z
x,-y,z
loop_
_atom_site_type_symbol
_atom_site_label
_atom_site_fract_x
_atom_site_fract_y
_atom_site_fract_z
Si Si1 0.000076 0.704847 0.262157
Si Si2 0.424263 0.794857 0.690774
Si Si3 0.710428 0.217922 0.601631
Si Si4 0.950137 0.797032 0.635244
Si Si5 0.318693 0.212936 0.628047
Si Si6 0.396885 0.785623 0.207092
Si Si7 0.167510 0.715161 0.935881
Si Si8 0.235615 0.707529 0.027199
O O1 0.039649 0.500000 0.252496
O O2 0.000067 0.796816 0.325148
O O3 0.827227 0.712509 0.327468
O O4 0.136603 0.781690 0.139281
O O5 0.598692 0.719300 0.611111
O O6 0.326218 0.720595 0.691236
O O7 0.313458 0.785065 0.811985
O O8 0.455517 0.000000 0.656931
O O9 0.628772 0.268673 0.710175
O O10 0.896486 0.281093 0.488129
O O11 0.711105 0.000000 0.599750
O O12 0.768201 0.722930 0.730794
O O13 0.936627 0.000000 0.621431
O O14 0.500000 0.251548 0.500000
O O15 0.294221 0.000000 0.640512
O O16 0.568512 0.721280 0.082782
O O17 0.406818 0.000000 0.199311
O O18 0.178619 0.500000 0.929750
O O19 0.180637 0.780628 0.995221
O O20 0.000000 0.766042 0.000000
O O21 0.190220 0.500000 0.052085
#
# Coordination Sequence:
#
# PCOD9146012 Si02
#       8
#     4   4   4   4   4   4   4   4
#     4  11  24  41  59  82 115 158 203 241 283 341
#     4  10  19  32  55  85 112 141 180 228 280 334
#     4   9  17  34  59  88 119 146 181 232 291 351
#     4  10  21  38  61  87 115 150 191 241 298 348
#     4  10  21  38  60  86 117 154 192 236 290 342
#     4  10  20  36  62  90 114 147 193 241 290 349
#     4  10  20  35  54  76 106 146 187 227 277 334
#     4  10  22  39  57  79 115 158 194 238 292 341
#
# _framework density 22.883559999999999
#
# number of rings (size 3 to 8) (size 9 to 14) (size 15 to 20)
#    0.000    2.000    1.250    2.250    0.000    7.500 
#    0.000    5.000    0.000    1.500    0.000    0.000 
#    0.000    0.000    0.000    0.000    0.000    0.000 
#
# Total GULP energy -178812.457214 kJ/mol
# GULP energy per Si atom -5587.889288 kJ/mol
# Density = 2.283148 g / cm^3
# Si number density = 22.883560 Si / 1000 Ang^3
#
#
#
# Elastic Constant Matrix: (Units=GPa)
#
#
# Indices 1 2 3 4 5 6 
#
# 1 86.1950 -8.2655 15.6870 0.0000 -20.6156 0.0000
# 2 -8.2655 56.1535 -10.6243 0.0000 1.4100 0.0000
# 3 15.6870 -10.6243 95.4863 0.0000 -12.3820 0.0000
# 4 0.0000 0.0000 0.0000 19.2995 0.0000 -3.7166
# 5 -20.6156 1.4100 -12.3820 0.0000 43.1451 0.0000
# 6 0.0000 0.0000 0.0000 -3.7166 0.0000 7.5619
#
#
#
# Elastic Compliance Matrix: (Units=1/GPa)
#
#
# Indices 1 2 3 4 5 6 
#
# 1 0.013416 0.001588 -0.001249 0.000000 0.006000 0.000000
# 2 0.001588 0.018379 0.001874 0.000000 0.000696 0.000000
# 3 -0.001249 0.001874 0.011219 0.000000 0.002561 0.000000
# 4 0.000000 0.000000 0.000000 0.057232 0.000000 0.028129
# 5 0.006000 0.000696 0.002561 0.000000 0.026757 0.000000
# 6 0.000000 0.000000 0.000000 0.028129 0.000000 0.146067
#
#
# Mechanical properties :
#
#
# Convention : Reuss Voigt Hill
#
# Bulk Modulus (GPa) = 21.07940 25.71436 23.39688
# Shear Modulus (GPa) = 17.57732 30.07046 23.82389
#
# Velocity S-wave (km/s) = 2.77450 3.62893 3.23010
# Velocity P-wave (km/s) = 4.41536 5.36846 4.91507
#
# Compressibility (1/GPa) = 0.04743967
#
# Stress axis : x y z
#
# Youngs Moduli (GPa) = 74.53606 54.40935 89.13723
#
# Poissons Ratio (x) = -0.08639 0.11137
# Poissons Ratio (y) = -0.11835 -0.16708
# Poissons Ratio (z) = 0.09312 -0.10198
#
# Static dielectric constant tensor:
#      x y z
#    x 1.850660 0.000000 -0.005260 
#    y 0.000000 1.869880 0.000000 
#    z -0.005260 0.000000 1.843370 
# 
# From -- ./inp_files/89476.got.cif
#   From: 2010.05.17/outbox.cif.g08.bks.cpg/sg10_45_cif.got.tgz:89476.got - 2010.06.03 11:33:40.
