data_PCOD9146588
_publ_section_title
;
Structure prediction by ZEFSAII (Michael W. Deem and Ramdas Pophale) SiO2 
 PCOD9146588
Probable space group: P 2/M
;
_chemical_formula_sum "Si O2"
_cell_formula_units_Z 20
_cell_length_a 9.838331
_cell_length_b 7.623482
_cell_length_c 10.068288
_cell_angle_alpha 90.000000
_cell_angle_beta 87.707551
_cell_angle_gamma 90.000000
_cell_volume 754.540791
_symmetry_space_group_name_H-M "P 2/M"
_symmetry_group_IT_number 10
_symmetry_cell_setting 'monoclinic'
loop_
_space_group_symop_operation_xyz
x,y,z
-x,y,-z
-x,-y,-z
x,-y,z
loop_
_atom_site_type_symbol
_atom_site_label
_atom_site_fract_x
_atom_site_fract_y
_atom_site_fract_z
Si Si1 0.469759 0.204438 0.796652
Si Si2 0.898127 0.288899 0.392975
Si Si3 0.826387 0.788920 0.117686
Si Si4 0.332908 0.701772 0.428683
Si Si5 0.763513 0.212805 0.840052
O O1 0.322741 0.282465 0.831239
O O2 0.531597 0.223326 0.644896
O O3 0.454148 0.000000 0.825274
O O4 0.603306 0.260540 0.874764
O O5 0.894792 0.500000 0.403647
O O6 0.922696 0.247550 0.238639
O O7 0.750239 0.218457 0.446516
O O8 0.000000 0.219481 0.500000
O O9 0.846566 0.728121 0.965481
O O10 0.824740 0.000000 0.107223
O O11 0.360001 0.500000 0.456031
O O12 0.225441 0.710008 0.307776
O O13 0.772134 0.000000 0.826371
#
# Coordination Sequence:
#
# PCOD9146588 Si02
#       5
#     4   4   4   4   4
#     4   8  16  31  53  79 111 136 158 201 256 307
#     4  10  23  41  54  68  99 140 178 218 259 296
#     4  10  19  33  56  82 104 134 172 206 249 305
#     4   9  18  33  53  75 102 136 173 208 250 304
#     4   8  16  32  53  79 110 136 159 201 257 307
#
# _framework density 26.506186
#
# number of rings (size 3 to 8) (size 9 to 14) (size 15 to 20)
#    1.200    1.800    0.000    0.600    0.000    6.800 
#    0.000    6.000    0.000    6.000    0.000    0.000 
#    0.000    0.000    0.000    0.000    0.000    0.000 
#
# Total GULP energy -111540.811178 kJ/mol
# GULP energy per Si atom -5577.040559 kJ/mol
# Density = 2.644586 g / cm^3
# Si number density = 26.506186 Si / 1000 Ang^3
#
#
#
# Elastic Constant Matrix: (Units=GPa)
#
#
# Indices 1 2 3 4 5 6 
#
# 1 89.4384 -2.0522 51.9090 0.0000 -9.3705 0.0000
# 2 -2.0522 53.8845 -3.0341 0.0000 8.5035 0.0000
# 3 51.9090 -3.0341 169.0048 0.0000 -11.9945 0.0000
# 4 0.0000 0.0000 0.0000 -238.2849 0.0000 98.9488
# 5 -9.3705 8.5035 -11.9945 0.0000 40.7859 0.0000
# 6 0.0000 0.0000 0.0000 98.9488 0.0000 -28.5857
#
#
#
# Elastic Compliance Matrix: (Units=1/GPa)
#
#
# Indices 1 2 3 4 5 6 
#
# 1 0.013758 -0.000016 -0.004087 0.000000 0.001962 0.000000
# 2 -0.000016 0.019190 0.000067 0.000000 -0.003985 0.000000
# 3 -0.004087 0.000067 0.007257 0.000000 0.001181 0.000000
# 4 0.000000 0.000000 0.000000 0.009595 0.000000 0.033212
# 5 0.001962 -0.003985 0.001181 0.000000 0.026147 0.000000
# 6 0.000000 0.000000 0.000000 0.033212 0.000000 0.079979
#
#
# Mechanical properties :
#
#
# Convention : Reuss Voigt Hill
#
# Bulk Modulus (GPa) = 31.12012 45.10812 38.11412
# Shear Modulus (GPa) = 28.61884 -27.51660 0.55112
#
# Velocity S-wave (km/s) = 3.28945 -3.22548 0.45648
# Velocity P-wave (km/s) = 5.11796 1.78417 3.83254
#
# Compressibility (1/GPa) = 0.03213356
#
# Stress axis : x y z
#
# Youngs Moduli (GPa) = 72.68505 52.10978 137.79317
#
# Poissons Ratio (x) = 0.00082 0.56312
# Poissons Ratio (y) = 0.00115 -0.00917
# Poissons Ratio (z) = 0.29704 -0.00347
#
# Static dielectric constant tensor:
#      x y z
#    x 2.214160 0.000000 0.047670 
#    y 0.000000 1.975350 0.000000 
#    z 0.047670 0.000000 2.150740 
# 
# From -- ./inp_files/44755.got.cif
#   From: 2010.05.17/outbox.cif.g08.bks.cpg/sg10_23_cif.got.tgz:44755.got - 2010.06.03 11:33:40.
