data_PCOD9146848
_publ_section_title
;
Structure prediction by ZEFSAII (Michael W. Deem and Ramdas Pophale) SiO2 
 PCOD9146848
Probable space group: P 2/M
;
_chemical_formula_sum "Si O2"
_cell_formula_units_Z 28
_cell_length_a 17.614750
_cell_length_b 7.547564
_cell_length_c 11.883525
_cell_angle_alpha 90.000000
_cell_angle_beta 109.323001
_cell_angle_gamma 90.000000
_cell_volume 1490.897853
_symmetry_space_group_name_H-M "P 2/M"
_symmetry_group_IT_number 10
_symmetry_cell_setting 'monoclinic'
loop_
_space_group_symop_operation_xyz
x,y,z
-x,y,-z
-x,-y,-z
x,-y,z
loop_
_atom_site_type_symbol
_atom_site_label
_atom_site_fract_x
_atom_site_fract_y
_atom_site_fract_z
Si Si1 0.150300 0.214257 0.832966
Si Si2 0.835950 0.205407 0.688701
Si Si3 0.446806 0.500000 0.858303
Si Si4 0.689856 0.207926 0.214496
Si Si5 0.313279 0.791436 0.527549
Si Si6 0.011070 0.706977 0.380978
Si Si7 0.906868 0.782984 0.953023
Si Si8 0.550696 0.500000 0.407022
O O1 0.235177 0.270825 0.823372
O O2 0.072752 0.274468 0.725188
O O3 0.149708 0.000000 0.828746
O O4 0.136631 0.270505 0.954228
O O5 0.757941 0.277403 0.587382
O O6 0.915059 0.210667 0.650094
O O7 0.861758 0.283893 0.820482
O O8 0.816280 0.000000 0.699500
O O9 0.388395 0.328884 0.837088
O O10 0.480760 0.500000 0.742390
O O11 0.500000 0.500000 0.000000
O O12 0.715925 0.221038 0.357721
O O13 0.673262 0.000000 0.182638
O O14 0.392122 0.672358 0.557369
O O15 0.329813 0.000000 0.514178
O O16 0.031486 0.500000 0.401214
O O17 0.000000 0.782600 0.500000
O O18 0.908147 0.000000 0.950073
O O19 0.000000 0.727066 0.000000
O O20 0.500000 0.500000 0.500000
#
# Coordination Sequence:
#
# PCOD9146848 Si02
#       8
#     4   4   2   4   4   4   4   2
#     4  10  19  34  54  75 104 143 188 229 272 325
#     4  10  19  34  54  75 104 143 188 229 272 325
#     4  10  22  42  66  89 120 149 177 226 287 350
#     4   9  19  36  60  87 113 147 189 232 281 334
#     4   9  19  36  60  87 113 147 189 232 281 334
#     4  11  23  32  45  72 106 143 186 233 274 317
#     4   9  16  30  50  72 104 146 184 224 274 321
#     4  10  22  42  66  89 120 149 177 226 287 350
#
# _framework density 18.780628
#
# number of rings (size 3 to 8) (size 9 to 14) (size 15 to 20)
#    0.000    2.286    1.429    1.286    2.000    2.857 
#    2.571    1.429    0.000    0.000    0.000    0.000 
#    0.000    0.000    0.000    0.000    0.000    0.000 
#
# Total GULP energy -156115.984809 kJ/mol
# GULP energy per Si atom -5575.570886 kJ/mol
# Density = 1.873788 g / cm^3
# Si number density = 18.780628 Si / 1000 Ang^3
#
#
#
# Elastic Constant Matrix: (Units=GPa)
#
#
# Indices 1 2 3 4 5 6 
#
# 1 94.2153 20.5454 62.3587 0.0000 -22.7040 0.0000
# 2 20.5454 63.0099 27.5892 0.0000 -0.2405 0.0000
# 3 62.3587 27.5892 169.5032 0.0000 -3.7649 0.0000
# 4 0.0000 0.0000 0.0000 13.7132 0.0000 4.1295
# 5 -22.7040 -0.2405 -3.7649 0.0000 34.6210 0.0000
# 6 0.0000 0.0000 0.0000 4.1295 0.0000 25.5818
#
#
#
# Elastic Compliance Matrix: (Units=1/GPa)
#
#
# Indices 1 2 3 4 5 6 
#
# 1 0.017798 -0.003232 -0.005777 0.000000 0.011021 0.000000
# 2 -0.003232 0.017676 -0.001737 0.000000 -0.002186 0.000000
# 3 -0.005777 -0.001737 0.008243 0.000000 -0.002904 0.000000
# 4 0.000000 0.000000 0.000000 0.076649 0.000000 -0.012373
# 5 0.011021 -0.002186 -0.002904 0.000000 0.035781 0.000000
# 6 0.000000 0.000000 0.000000 -0.012373 0.000000 0.041088
#
#
# Mechanical properties :
#
#
# Convention : Reuss Voigt Hill
#
# Bulk Modulus (GPa) = 44.99099 60.85722 52.92410
# Shear Modulus (GPa) = 22.11072 29.19885 25.65478
#
# Velocity S-wave (km/s) = 3.43492 3.94729 3.69999
# Velocity P-wave (km/s) = 6.30394 7.29722 6.81869
#
# Compressibility (1/GPa) = 0.02222667
#
# Stress axis : x y z
#
# Youngs Moduli (GPa) = 56.18506 56.57257 121.31402
#
# Poissons Ratio (x) = 0.18284 0.70083
# Poissons Ratio (y) = 0.18158 0.21068
# Poissons Ratio (z) = 0.32458 0.09825
#
# Static dielectric constant tensor:
#      x y z
#    x 1.612310 0.000000 -0.021220 
#    y 0.000000 1.692080 0.000000 
#    z -0.021220 0.000000 1.671980 
# 
# From -- ./inp_files/49424.got.cif
#   From: 2010.05.17/outbox.cif.g08.bks.cpg/sg10_25_cif.got.tgz:49424.got - 2010.06.03 11:33:40.
