data_PCOD9146790
_publ_section_title
;
Structure prediction by ZEFSAII (Michael W. Deem and Ramdas Pophale) SiO2 
 PCOD9146790
Probable space group: P 2/M
;
_chemical_formula_sum "Si O2"
_cell_formula_units_Z 24
_cell_length_a 20.244956
_cell_length_b 8.972114
_cell_length_c 9.868423
_cell_angle_alpha 90.000000
_cell_angle_beta 129.787765
_cell_angle_gamma 90.000000
_cell_volume 1377.393876
_symmetry_space_group_name_H-M "P 2/M"
_symmetry_group_IT_number 10
_symmetry_cell_setting 'monoclinic'
loop_
_space_group_symop_operation_xyz
x,y,z
-x,y,-z
-x,-y,-z
x,-y,z
loop_
_atom_site_type_symbol
_atom_site_label
_atom_site_fract_x
_atom_site_fract_y
_atom_site_fract_z
Si Si1 0.633457 0.178722 0.476521
Si Si2 0.214512 0.178127 0.534782
Si Si3 0.537083 0.822463 0.897200
Si Si4 0.097173 0.320421 0.162892
Si Si5 0.722552 0.321669 0.112175
Si Si6 0.752397 0.678853 0.846205
O O1 0.700296 0.216034 0.442835
O O2 0.538074 0.222673 0.305652
O O3 0.671502 0.251521 0.661166
O O4 0.634368 0.000000 0.492227
O O5 0.134973 0.244249 0.346564
O O6 0.226055 0.247572 0.697380
O O7 0.209376 0.000000 0.535949
O O8 0.554147 0.000000 0.903703
O O9 0.500000 0.802282 0.000000
O O10 0.624256 0.732843 0.993559
O O11 0.100220 0.500000 0.183286
O O12 0.162707 0.279526 0.127541
O O13 0.000000 0.277819 0.000000
O O14 0.726927 0.500000 0.130024
O O15 0.755897 0.276649 0.007260
O O16 0.744507 0.500000 0.830618
#
# Coordination Sequence:
#
# PCOD9146790 Si02
#       6
#     4   4   4   4   4   4
#     4   9  18  33  53  74  98 136 179 217 255 300
#     4  10  19  34  55  78 105 137 174 214 258 307
#     4  10  19  34  52  73 104 138 180 222 254 296
#     4   9  18  36  61  83 102 131 172 214 258 312
#     4  11  22  34  50  76 108 141 174 211 261 308
#     4   9  20  36  52  75 108 137 167 214 263 310
#
# _framework density 17.424209999999999
#
# number of rings (size 3 to 8) (size 9 to 14) (size 15 to 20)
#    0.000    2.333    1.667    1.000    0.000    4.000 
#    0.000    4.167    0.000    5.000    0.000    0.000 
#    0.000    0.000    0.000    0.000    0.000    0.000 
#
# Total GULP energy -133926.402568 kJ/mol
# GULP energy per Si atom -5580.266774 kJ/mol
# Density = 1.738455 g / cm^3
# Si number density = 17.424210 Si / 1000 Ang^3
#
#
#
# Elastic Constant Matrix: (Units=GPa)
#
#
# Indices 1 2 3 4 5 6 
#
# 1 59.0589 30.1260 78.6222 0.0000 -2.5573 0.0000
# 2 30.1260 29.4133 55.9696 0.0000 -4.0582 0.0000
# 3 78.6222 55.9696 190.2415 0.0000 -5.1934 0.0000
# 4 0.0000 0.0000 0.0000 24.7933 0.0000 2.0138
# 5 -2.5573 -4.0582 -5.1934 0.0000 33.7759 0.0000
# 6 0.0000 0.0000 0.0000 2.0138 0.0000 16.4132
#
#
#
# Elastic Compliance Matrix: (Units=1/GPa)
#
#
# Indices 1 2 3 4 5 6 
#
# 1 0.043938 -0.023987 -0.011136 0.000000 -0.001268 0.000000
# 2 -0.023987 0.091487 -0.016822 0.000000 0.006589 0.000000
# 3 -0.011136 -0.016822 0.014792 0.000000 -0.000590 0.000000
# 4 0.000000 0.000000 0.000000 0.040739 0.000000 -0.004999
# 5 -0.001268 0.006589 -0.000590 0.000000 0.030212 0.000000
# 6 0.000000 0.000000 0.000000 -0.004999 0.000000 0.061540
#
#
# Mechanical properties :
#
#
# Convention : Reuss Voigt Hill
#
# Bulk Modulus (GPa) = 21.58654 67.57217 44.57935
# Shear Modulus (GPa) = 12.43653 22.59621 17.51637
#
# Velocity S-wave (km/s) = 2.67451 3.60506 3.17407
# Velocity P-wave (km/s) = 4.68541 7.49623 6.25086
#
# Compressibility (1/GPa) = 0.04632517
#
# Stress axis : x y z
#
# Youngs Moduli (GPa) = 22.75924 10.93054 67.60487
#
# Poissons Ratio (x) = 0.26219 0.75285
# Poissons Ratio (y) = 0.54593 1.13728
# Poissons Ratio (z) = 0.25345 0.18388
#
# Static dielectric constant tensor:
#      x y z
#    x 1.585110 0.000000 -0.009610 
#    y 0.000000 1.580770 0.000000 
#    z -0.009610 0.000000 1.579190 
# 
# From -- ./inp_files/27047.got.cif
#   From: 2010.05.17/outbox.cif.g08.bks.cpg/sg10_14_cif.got.tgz:27047.got - 2010.06.03 11:33:40.
