data_PCOD9146317
_publ_section_title
;
Structure prediction by ZEFSAII (Michael W. Deem and Ramdas Pophale) SiO2 
 PCOD9146317
Probable space group: P 2/M
;
_chemical_formula_sum "Si O2"
_cell_formula_units_Z 32
_cell_length_a 30.373733
_cell_length_b 7.560799
_cell_length_c 12.374732
_cell_angle_alpha 90.000000
_cell_angle_beta 149.972766
_cell_angle_gamma 90.000000
_cell_volume 1422.096349
_symmetry_space_group_name_H-M "P 2/M"
_symmetry_group_IT_number 10
_symmetry_cell_setting 'monoclinic'
loop_
_space_group_symop_operation_xyz
x,y,z
-x,y,-z
-x,-y,-z
x,-y,z
loop_
_atom_site_type_symbol
_atom_site_label
_atom_site_fract_x
_atom_site_fract_y
_atom_site_fract_z
Si Si1 0.668389 0.784498 0.116730
Si Si2 0.495947 0.783573 0.616172
Si Si3 0.073344 0.785416 0.068287
Si Si4 0.807141 0.799056 0.240199
Si Si5 0.343776 0.201243 0.449077
Si Si6 0.276353 0.782975 0.531135
Si Si7 0.996421 0.296469 0.315664
Si Si8 0.179692 0.702065 0.968946
O O1 0.752275 0.727878 0.224100
O O2 0.678968 0.725278 0.262380
O O3 0.668397 0.000000 0.121275
O O4 0.581864 0.732167 0.867116
O O5 0.500000 0.723839 0.500000
O O6 0.411903 0.721100 0.507176
O O7 0.493009 0.000000 0.605114
O O8 0.173235 0.731440 0.308253
O O9 0.072341 0.000000 0.061129
O O10 0.044686 0.715718 0.890793
O O11 0.000000 0.731520 0.000000
O O12 0.791986 0.705332 0.094653
O O13 0.910350 0.797185 0.484148
O O14 0.776947 0.000000 0.158015
O O15 0.327361 0.280340 0.532503
O O16 0.374453 0.000000 0.532790
O O17 0.249015 0.199375 0.190333
O O18 0.276568 0.000000 0.528452
O O19 0.015190 0.500000 0.385746
O O20 0.919417 0.226617 0.229936
O O21 0.177102 0.500000 0.002446
#
# Coordination Sequence:
#
# PCOD9146317 Si02
#       8
#     4   4   4   4   4   4   4   4
#     4   9  18  33  53  82 116 143 175 228 287 332
#     4   9  17  30  51  82 116 145 179 227 281 334
#     4  10  19  33  54  78 109 148 190 237 281 324
#     4  11  22  36  58  82 108 146 189 232 282 336
#     4  10  19  33  57  84 109 144 188 231 275 331
#     4   9  17  30  50  79 112 142 181 228 272 327
#     4  11  23  37  53  78 112 148 186 230 283 338
#     4  11  23  38  55  78 113 150 185 231 285 335
#
# _framework density 22.501991
#
# number of rings (size 3 to 8) (size 9 to 14) (size 15 to 20)
#    0.000    2.000    1.250    3.000    0.000    7.750 
#    0.000    2.500    0.000    4.875    0.000    0.875 
#    0.000    0.000    0.000    0.000    0.000    0.000 
#
# Total GULP energy -178827.818401 kJ/mol
# GULP energy per Si atom -5588.369325 kJ/mol
# Density = 2.245078 g / cm^3
# Si number density = 22.501991 Si / 1000 Ang^3
#
#
#
# Elastic Constant Matrix: (Units=GPa)
#
#
# Indices 1 2 3 4 5 6 
#
# 1 208.6976 8.6127 78.7872 0.0000 -7.7446 0.0000
# 2 8.6127 52.6367 -2.8513 0.0000 2.0227 0.0000
# 3 78.7872 -2.8513 106.6894 0.0000 -14.9498 0.0000
# 4 0.0000 0.0000 0.0000 -64.2983 0.0000 3.4733
# 5 -7.7446 2.0227 -14.9498 0.0000 42.4359 0.0000
# 6 0.0000 0.0000 0.0000 3.4733 0.0000 11.3364
#
#
#
# Elastic Compliance Matrix: (Units=1/GPa)
#
#
# Indices 1 2 3 4 5 6 
#
# 1 0.006752 -0.001361 -0.005092 0.000000 -0.000497 0.000000
# 2 -0.001361 0.019324 0.001428 0.000000 -0.000666 0.000000
# 3 -0.005092 0.001428 0.013708 0.000000 0.003832 0.000000
# 4 0.000000 0.000000 0.000000 -0.015299 0.000000 0.004687
# 5 -0.000497 -0.000666 0.003832 0.000000 0.024856 0.000000
# 6 0.000000 0.000000 0.000000 0.004687 0.000000 0.086775
#
#
# Mechanical properties :
#
#
# Convention : Reuss Voigt Hill
#
# Bulk Modulus (GPa) = 33.63137 59.68010 46.65574
# Shear Modulus (GPa) = 32.03547 16.79313 24.41430
#
# Velocity S-wave (km/s) = 3.77725 2.73480 3.29748
# Velocity P-wave (km/s) = 5.83112 6.04582 5.93944
#
# Compressibility (1/GPa) = 0.02973414
#
# Stress axis : x y z
#
# Youngs Moduli (GPa) = 148.11149 51.74934 72.94806
#
# Poissons Ratio (x) = 0.07046 0.37145
# Poissons Ratio (y) = 0.20165 -0.10421
# Poissons Ratio (z) = 0.75417 -0.07392
#
# Static dielectric constant tensor:
#      x y z
#    x 1.835390 0.000000 0.019170 
#    y 0.000000 1.855220 0.000000 
#    z 0.019170 0.000000 1.777390 
# 
# From -- ./inp_files/49803.got.cif
#   From: 2010.05.17/outbox.cif.g08.bks.cpg/sg10_25_cif.got.tgz:49803.got - 2010.06.03 11:33:40.
