data_PCOD9146999
_publ_section_title
;
Structure prediction by ZEFSAII (Michael W. Deem and Ramdas Pophale) SiO2 
 PCOD9146999
Probable space group: P 2/M
;
_chemical_formula_sum "Si O2"
_cell_formula_units_Z 32
_cell_length_a 13.214928
_cell_length_b 7.888509
_cell_length_c 32.990688
_cell_angle_alpha 90.000000
_cell_angle_beta 26.647142
_cell_angle_gamma 90.000000
_cell_volume 1542.440244
_symmetry_space_group_name_H-M "P 2/M"
_symmetry_group_IT_number 10
_symmetry_cell_setting 'monoclinic'
loop_
_space_group_symop_operation_xyz
x,y,z
-x,y,-z
-x,-y,-z
x,-y,z
loop_
_atom_site_type_symbol
_atom_site_label
_atom_site_fract_x
_atom_site_fract_y
_atom_site_fract_z
Si Si1 0.161738 0.700453 0.714462
Si Si2 0.246087 0.795410 0.898922
Si Si3 0.112633 0.798437 0.643031
Si Si4 0.400761 0.792684 0.161422
Si Si5 0.572233 0.292193 0.622984
Si Si6 0.583170 0.296142 0.712073
Si Si7 0.061340 0.703870 0.572934
Si Si8 0.641927 0.797283 0.911676
O O1 0.150989 0.500000 0.723268
O O2 0.222537 0.733892 0.645370
O O3 0.350321 0.765912 0.677989
O O4 0.910920 0.767296 0.814179
O O5 0.424309 0.731871 0.868277
O O6 0.353091 0.748738 0.817553
O O7 0.240399 0.000000 0.902659
O O8 0.000000 0.733357 0.000000
O O9 0.176990 0.753257 0.574135
O O10 0.852983 0.736705 0.738411
O O11 0.117907 0.000000 0.644444
O O12 0.453792 0.735642 0.097019
O O13 0.399960 0.000000 0.162550
O O14 0.570063 0.500000 0.624234
O O15 0.584253 0.235686 0.665214
O O16 0.787236 0.240883 0.519239
O O17 0.600014 0.500000 0.705028
O O18 0.804501 0.232645 0.657613
O O19 0.053867 0.500000 0.575482
O O20 0.613404 0.000000 0.922131
O O21 0.500000 0.726735 0.000000
#
# Coordination Sequence:
#
# PCOD9146999 Si02
#       8
#     4   4   4   4   4   4   4   4
#     4  10  20  35  54  77 109 144 183 225 273 327
#     4  10  20  34  53  78 108 143 181 220 274 329
#     4  10  19  34  56  78 108 142 176 225 274 318
#     4   8  15  30  49  70 100 136 169 212 264 312
#     4   9  20  37  55  79 114 149 177 223 282 327
#     4  10  20  36  58  81 108 142 186 230 270 320
#     4  10  19  34  59  84 105 141 190 225 267 333
#     4   9  18  33  54  77 104 141 182 223 272 325
#
# _framework density 20.746348000000001
#
# number of rings (size 3 to 8) (size 9 to 14) (size 15 to 20)
#    0.000    2.500    1.250    1.875    0.000    3.500 
#    0.000    6.875    0.000    1.500    0.000    0.000 
#    0.000    0.000    0.000    0.000    0.000    0.000 
#
# Total GULP energy -178495.632962 kJ/mol
# GULP energy per Si atom -5577.988530 kJ/mol
# Density = 2.069913 g / cm^3
# Si number density = 20.746348 Si / 1000 Ang^3
#
#
#
# Elastic Constant Matrix: (Units=GPa)
#
#
# Indices 1 2 3 4 5 6 
#
# 1 93.8823 -6.4898 37.0156 0.0000 20.5757 0.0000
# 2 -6.4898 11.8117 -8.1295 0.0000 3.1068 0.0000
# 3 37.0156 -8.1295 98.6125 0.0000 26.1634 0.0000
# 4 0.0000 0.0000 0.0000 25.8729 0.0000 6.6436
# 5 20.5757 3.1068 26.1634 0.0000 36.3002 0.0000
# 6 0.0000 0.0000 0.0000 6.6436 0.0000 14.2636
#
#
#
# Elastic Compliance Matrix: (Units=1/GPa)
#
#
# Indices 1 2 3 4 5 6 
#
# 1 0.013657 0.007187 -0.002865 0.000000 -0.006291 0.000000
# 2 0.007187 0.101843 0.011241 0.000000 -0.020892 0.000000
# 3 -0.002865 0.011241 0.014797 0.000000 -0.010003 0.000000
# 4 0.000000 0.000000 0.000000 0.043901 0.000000 -0.020448
# 5 -0.006291 -0.020892 -0.010003 0.000000 0.040112 0.000000
# 6 0.000000 0.000000 0.000000 -0.020448 0.000000 0.079633
#
#
# Mechanical properties :
#
#
# Convention : Reuss Voigt Hill
#
# Bulk Modulus (GPa) = 6.19491 27.67766 16.93629
# Shear Modulus (GPa) = 15.79167 27.41469 21.60318
#
# Velocity S-wave (km/s) = 2.76194 3.63908 3.23042
# Velocity P-wave (km/s) = 3.62817 5.57020 4.70057
#
# Compressibility (1/GPa) = 0.16142276
#
# Stress axis : x y z
#
# Youngs Moduli (GPa) = 73.22409 9.81906 67.58288
#
# Poissons Ratio (x) = -0.07057 0.19360
# Poissons Ratio (y) = -0.52624 -0.75971
# Poissons Ratio (z) = 0.20976 -0.11038
#
# Static dielectric constant tensor:
#      x y z
#    x 1.759040 0.000000 0.010290 
#    y 0.000000 1.747160 0.000000 
#    z 0.010290 0.000000 1.749120 
# 
# From -- ./inp_files/94997.got.cif
#   From: 2010.05.17/outbox.cif.g08.bks.cpg/sg10_48_cif.got.tgz:94997.got - 2010.06.03 11:33:40.
