data_PCOD9146926
_publ_section_title
;
Structure prediction by ZEFSAII (Michael W. Deem and Ramdas Pophale) SiO2 
 PCOD9146926
Probable space group: P 2/M
;
_chemical_formula_sum "Si O2"
_cell_formula_units_Z 24
_cell_length_a 10.432774
_cell_length_b 12.256417
_cell_length_c 11.918827
_cell_angle_alpha 90.000000
_cell_angle_beta 35.846971
_cell_angle_gamma 90.000000
_cell_volume 892.512927
_symmetry_space_group_name_H-M "P 2/M"
_symmetry_group_IT_number 10
_symmetry_cell_setting 'monoclinic'
loop_
_space_group_symop_operation_xyz
x,y,z
-x,y,-z
-x,-y,-z
x,-y,z
loop_
_atom_site_type_symbol
_atom_site_label
_atom_site_fract_x
_atom_site_fract_y
_atom_site_fract_z
Si Si1 0.053249 0.795568 0.225063
Si Si2 0.773858 0.875977 0.228691
Si Si3 0.788455 0.614382 0.480397
Si Si4 0.469886 0.323066 0.891955
Si Si5 0.241932 0.372944 0.770193
Si Si6 0.247746 0.888040 0.281814
O O1 0.210270 0.879303 0.175093
O O2 0.940717 0.716678 0.395571
O O3 0.866669 0.855938 0.288272
O O4 0.218383 0.709435 0.049038
O O5 0.674784 0.000000 0.287310
O O6 0.000000 0.880240 0.000000
O O7 0.669884 0.755327 0.272240
O O8 0.908050 0.500000 0.414367
O O9 0.580892 0.615039 0.710050
O O10 0.748986 0.623744 0.373957
O O11 0.606197 0.212344 0.792028
O O12 0.500000 0.365496 0.000000
O O13 0.316617 0.500000 0.743071
O O14 0.000000 0.369983 0.000000
O O15 0.000000 0.889320 0.500000
O O16 0.352644 0.000000 0.245516
#
# Coordination Sequence:
#
# PCOD9146926 Si02
#       6
#     4   4   4   4   4   4
#     4  10  20  35  57  80 111 149 188 233 290 345
#     4   9  17  30  53  85 115 145 184 231 287 348
#     4  10  20  36  56  80 112 147 190 238 286 343
#     4  10  22  36  53  81 114 147 190 235 284 346
#     4   8  15  30  54  80 106 143 189 234 282 336
#     4  10  19  34  55  78 107 146 192 237 282 338
#
# _framework density 26.890367000000001
#
# number of rings (size 3 to 8) (size 9 to 14) (size 15 to 20)
#    0.000    2.500    1.667    0.500    0.000    4.667 
#    0.000    5.833    0.000   16.000    0.000   50.167 
#    0.000    0.000    0.000    0.000    0.000    0.000 
#
# Total GULP energy -133616.269328 kJ/mol
# GULP energy per Si atom -5567.344555 kJ/mol
# Density = 2.682916 g / cm^3
# Si number density = 26.890367 Si / 1000 Ang^3
#
#
#
# Elastic Constant Matrix: (Units=GPa)
#
#
# Indices 1 2 3 4 5 6 
#
# 1 69.0142 46.7580 13.1603 0.0000 13.7503 0.0000
# 2 46.7580 252.7377 33.4614 0.0000 5.4719 0.0000
# 3 13.1603 33.4614 181.7679 0.0000 16.0915 0.0000
# 4 0.0000 0.0000 0.0000 221.1237 0.0000 56.2057
# 5 13.7503 5.4719 16.0915 0.0000 30.7426 0.0000
# 6 0.0000 0.0000 0.0000 56.2057 0.0000 51.1641
#
#
#
# Elastic Compliance Matrix: (Units=1/GPa)
#
#
# Indices 1 2 3 4 5 6 
#
# 1 0.018161 -0.003189 -0.000062 0.000000 -0.007523 0.000000
# 2 -0.003189 0.004619 -0.000706 0.000000 0.000973 0.000000
# 3 -0.000062 -0.000706 0.005896 0.000000 -0.002933 0.000000
# 4 0.000000 0.000000 0.000000 0.006274 0.000000 -0.006893
# 5 -0.007523 0.000973 -0.002933 0.000000 0.037255 0.000000
# 6 0.000000 0.000000 0.000000 -0.006893 0.000000 0.027117
#
#
# Mechanical properties :
#
#
# Convention : Reuss Voigt Hill
#
# Bulk Modulus (GPa) = 48.16310 76.69768 62.43039
# Shear Modulus (GPa) = 43.80032 87.94876 65.87454
#
# Velocity S-wave (km/s) = 4.04028 5.72516 4.95486
# Velocity P-wave (km/s) = 6.30198 8.50221 7.48340
#
# Compressibility (1/GPa) = 0.02076278
#
# Stress axis : x y z
#
# Youngs Moduli (GPa) = 55.06344 216.49885 169.62055
#
# Poissons Ratio (x) = 0.69037 0.01049
# Poissons Ratio (y) = 0.17559 0.11968
# Poissons Ratio (z) = 0.00341 0.15276
#
# Static dielectric constant tensor:
#      x y z
#    x 2.270890 0.000000 0.070800 
#    y 0.000000 3.702540 0.000000 
#    z 0.070800 0.000000 2.213420 
# 
# From -- ./inp_files/67249.got.cif
#   From: 2010.05.17/outbox.cif.g08.bks.cpg/sg10_34_cif.got.tgz:67249.got - 2010.06.03 11:33:40.
