data_PCOD9146029
_publ_section_title
;
Structure prediction by ZEFSAII (Michael W. Deem and Ramdas Pophale) SiO2 
 PCOD9146029
Probable space group: P 2/M
;
_chemical_formula_sum "Si O2"
_cell_formula_units_Z 28
_cell_length_a 13.322894
_cell_length_b 7.395067
_cell_length_c 14.996721
_cell_angle_alpha 90.000000
_cell_angle_beta 132.197672
_cell_angle_gamma 90.000000
_cell_volume 1094.603079
_symmetry_space_group_name_H-M "P 2/M"
_symmetry_group_IT_number 10
_symmetry_cell_setting 'monoclinic'
loop_
_space_group_symop_operation_xyz
x,y,z
-x,y,-z
-x,-y,-z
x,-y,z
loop_
_atom_site_type_symbol
_atom_site_label
_atom_site_fract_x
_atom_site_fract_y
_atom_site_fract_z
Si Si1 0.675937 0.717337 0.014205
Si Si2 0.962432 0.209675 0.191289
Si Si3 0.700089 0.718447 0.412045
Si Si4 0.617884 0.719409 0.178636
Si Si5 0.133646 0.704293 0.133271
Si Si6 0.006445 0.206457 0.404685
Si Si7 0.562436 0.279567 0.634588
O O1 0.680845 0.500000 0.016808
O O2 0.815355 0.782327 0.057276
O O3 0.656233 0.784304 0.104126
O O4 0.534965 0.770646 0.886522
O O5 0.074001 0.302194 0.198037
O O6 0.937669 0.289337 0.275866
O O7 0.999218 0.000000 0.221986
O O8 0.705071 0.500000 0.419078
O O9 0.708566 0.776698 0.314066
O O10 0.837513 0.790485 0.534762
O O11 0.559107 0.772419 0.371457
O O12 0.620263 0.500000 0.175233
O O13 0.150637 0.500000 0.106674
O O14 0.287448 0.779984 0.240485
O O15 0.000000 0.783300 0.000000
O O16 0.000000 0.290761 0.500000
O O17 0.959185 0.000000 0.385600
O O18 0.500000 0.226122 0.500000
O O19 0.572442 0.500000 0.637995
#
# Coordination Sequence:
#
# PCOD9146029 Si02
#       7
#     4   4   4   4   4   4   4
#     4   9  17  32  54  78 108 142 178 222 276 339
#     4  11  23  37  55  80 113 151 189 235 288 335
#     4  10  19  32  56  82 107 138 181 233 281 331
#     4   8  16  30  51  81 109 136 175 228 281 327
#     4  10  22  39  62  88 112 150 198 241 293 356
#     4  10  22  39  56  79 116 157 193 231 279 340
#     4   9  18  33  54  82 113 141 179 235 290 336
#
# _framework density 25.58005
#
# number of rings (size 3 to 8) (size 9 to 14) (size 15 to 20)
#    0.000    2.429    0.000    3.000    2.000    2.857 
#    0.000    2.857    0.000    2.571    0.000    0.000 
#    0.000    0.000    0.000    0.000    0.000    0.000 
#
# Total GULP energy -156236.058360 kJ/mol
# GULP energy per Si atom -5579.859227 kJ/mol
# Density = 2.552183 g / cm^3
# Si number density = 25.580050 Si / 1000 Ang^3
#
#
#
# Elastic Constant Matrix: (Units=GPa)
#
#
# Indices 1 2 3 4 5 6 
#
# 1 101.1939 6.1229 37.4486 0.0000 27.4745 0.0000
# 2 6.1229 96.4849 4.6415 0.0000 -0.0309 0.0000
# 3 37.4486 4.6415 148.1135 0.0000 33.3717 0.0000
# 4 0.0000 0.0000 0.0000 12.2081 0.0000 11.3672
# 5 27.4745 -0.0309 33.3717 0.0000 60.3239 0.0000
# 6 0.0000 0.0000 0.0000 11.3672 0.0000 11.9148
#
#
#
# Elastic Compliance Matrix: (Units=1/GPa)
#
#
# Indices 1 2 3 4 5 6 
#
# 1 0.011825 -0.000655 -0.002006 0.000000 -0.004276 0.000000
# 2 -0.000655 0.010419 -0.000262 0.000000 0.000449 0.000000
# 3 -0.002006 -0.000262 0.008067 0.000000 -0.003549 0.000000
# 4 0.000000 0.000000 0.000000 0.733506 0.000000 -0.699795
# 5 -0.004276 0.000449 -0.003549 0.000000 0.020489 0.000000
# 6 0.000000 0.000000 0.000000 -0.699795 0.000000 0.751563
#
#
# Mechanical properties :
#
#
# Convention : Reuss Voigt Hill
#
# Bulk Modulus (GPa) = 40.87580 49.13536 45.00558
# Shear Modulus (GPa) = 3.22608 36.72796 19.97702
#
# Velocity S-wave (km/s) = 1.12424 3.79331 2.79760
# Velocity P-wave (km/s) = 4.20707 6.19966 5.29789
#
# Compressibility (1/GPa) = 0.02446435
#
# Stress axis : x y z
#
# Youngs Moduli (GPa) = 84.56661 95.98181 123.96842
#
# Poissons Ratio (x) = 0.06290 0.24865
# Poissons Ratio (y) = 0.05542 0.03247
# Poissons Ratio (z) = 0.16962 0.02514
#
# Static dielectric constant tensor:
#      x y z
#    x 1.993890 0.000000 -0.028460 
#    y 0.000000 1.968320 0.000000 
#    z -0.028460 0.000000 2.036830 
# 
# From -- ./inp_files/77804.got.cif
#   From: 2010.05.17/outbox.cif.g08.bks.cpg/sg10_39_cif.got.tgz:77804.got - 2010.06.03 11:33:40.
