data_PCOD9146547
_publ_section_title
;
Structure prediction by ZEFSAII (Michael W. Deem and Ramdas Pophale) SiO2 
 PCOD9146547
Probable space group: P 2/M
;
_chemical_formula_sum "Si O2"
_cell_formula_units_Z 32
_cell_length_a 18.733423
_cell_length_b 9.188377
_cell_length_c 23.453162
_cell_angle_alpha 90.000000
_cell_angle_beta 24.293636
_cell_angle_gamma 90.000000
_cell_volume 1660.869426
_symmetry_space_group_name_H-M "P 2/M"
_symmetry_group_IT_number 10
_symmetry_cell_setting 'monoclinic'
loop_
_space_group_symop_operation_xyz
x,y,z
-x,y,-z
-x,-y,-z
x,-y,z
loop_
_atom_site_type_symbol
_atom_site_label
_atom_site_fract_x
_atom_site_fract_y
_atom_site_fract_z
Si Si1 0.007892 0.826516 0.088617
Si Si2 0.327319 0.330019 0.804894
Si Si3 0.978193 0.828116 0.343170
Si Si4 0.706903 0.332073 0.357782
Si Si5 0.490901 0.669567 0.202897
Si Si6 0.909216 0.675177 0.506828
Si Si7 0.807711 0.826373 0.923106
Si Si8 0.637004 0.828989 0.521733
O O1 0.822963 0.746356 0.225492
O O2 0.087033 0.798658 0.094706
O O3 0.992742 0.000000 0.091020
O O4 0.147297 0.755381 0.944520
O O5 0.299727 0.500000 0.811012
O O6 0.427300 0.321724 0.793211
O O7 0.461229 0.254363 0.664677
O O8 0.001359 0.743960 0.384947
O O9 0.778000 0.812584 0.469104
O O10 0.093827 0.775779 0.205498
O O11 0.010560 0.000000 0.327471
O O12 0.500000 0.331095 0.500000
O O13 0.763041 0.500000 0.322513
O O14 0.725168 0.240642 0.402290
O O15 0.491605 0.500000 0.186071
O O16 0.292855 0.721572 0.345979
O O17 0.620200 0.756389 0.068111
O O18 0.912295 0.500000 0.499115
O O19 0.000000 0.715174 0.500000
O O20 0.793080 0.000000 0.929955
O O21 0.604996 0.000000 0.535870
#
# Coordination Sequence:
#
# PCOD9146547 Si02
#       8
#     4   4   4   4   4   4   4   4
#     4  10  19  35  57  83 114 148 185 228 278 333
#     4  10  19  33  55  85 115 144 183 233 282 332
#     4  10  20  35  55  82 111 140 183 230 274 326
#     4  11  24  40  58  83 116 152 187 228 280 335
#     4   9  18  32  51  79 108 141 182 222 272 328
#     4  10  21  37  55  78 111 148 186 228 275 330
#     4   9  18  33  53  80 109 139 177 226 274 321
#     4  11  21  36  58  85 113 146 188 234 279 330
#
# _framework density 19.267018
#
# number of rings (size 3 to 8) (size 9 to 14) (size 15 to 20)
#    0.000    2.000    2.500    1.500    0.000    3.750 
#    0.000    1.250    0.000    7.500    0.000    0.000 
#    0.000    0.000    0.000    0.000    0.000    0.000 
#
# Total GULP energy -178694.852311 kJ/mol
# GULP energy per Si atom -5584.214135 kJ/mol
# Density = 1.922317 g / cm^3
# Si number density = 19.267018 Si / 1000 Ang^3
#
#
#
# Elastic Constant Matrix: (Units=GPa)
#
#
# Indices 1 2 3 4 5 6 
#
# 1 45.7696 15.9940 6.7993 0.0000 5.7894 0.0000
# 2 15.9940 57.7506 39.0587 0.0000 7.3782 0.0000
# 3 6.7993 39.0587 119.1144 0.0000 19.6704 0.0000
# 4 0.0000 0.0000 0.0000 36.8284 0.0000 3.6295
# 5 5.7894 7.3782 19.6704 0.0000 26.1174 0.0000
# 6 0.0000 0.0000 0.0000 3.6295 0.0000 -52.0747
#
#
#
# Elastic Compliance Matrix: (Units=1/GPa)
#
#
# Indices 1 2 3 4 5 6 
#
# 1 0.024798 -0.007497 0.001828 0.000000 -0.004756 0.000000
# 2 -0.007497 0.024535 -0.007706 0.000000 0.000534 0.000000
# 3 0.001828 -0.007706 0.012020 0.000000 -0.007281 0.000000
# 4 0.000000 0.000000 0.000000 0.026968 0.000000 0.001880
# 5 -0.004756 0.000534 -0.007281 0.000000 0.044676 0.000000
# 6 0.000000 0.000000 0.000000 0.001880 0.000000 -0.019072
#
#
# Mechanical properties :
#
#
# Convention : Reuss Voigt Hill
#
# Bulk Modulus (GPa) = 28.89723 38.48207 33.68965
# Shear Modulus (GPa) = 32.84961 12.89305 22.87133
#
# Velocity S-wave (km/s) = 4.13360 2.58965 3.44913
# Velocity P-wave (km/s) = 6.14923 5.38128 5.77803
#
# Compressibility (1/GPa) = 0.03460539
#
# Stress axis : x y z
#
# Youngs Moduli (GPa) = 40.32545 40.75745 83.19383
#
# Poissons Ratio (x) = 0.30554 -0.15208
# Poissons Ratio (y) = 0.30230 0.64106
# Poissons Ratio (z) = -0.07372 0.31406
#
# Static dielectric constant tensor:
#      x y z
#    x 1.693210 0.000000 -0.011030 
#    y 0.000000 1.646530 0.000000 
#    z -0.011030 0.000000 1.668770 
# 
# From -- ./inp_files/86780.got.cif
#   From: 2010.05.17/outbox.cif.g08.bks.cpg/sg10_44_cif.got.tgz:86780.got - 2010.06.03 11:33:40.
