data_PCOD9146621
_publ_section_title
;
Structure prediction by ZEFSAII (Michael W. Deem and Ramdas Pophale) SiO2 
 PCOD9146621
Probable space group: P 2/M
;
_chemical_formula_sum "Si O2"
_cell_formula_units_Z 32
_cell_length_a 25.549652
_cell_length_b 8.556557
_cell_length_c 10.871931
_cell_angle_alpha 90.000000
_cell_angle_beta 143.245735
_cell_angle_gamma 90.000000
_cell_volume 1422.233399
_symmetry_space_group_name_H-M "P 2/M"
_symmetry_group_IT_number 10
_symmetry_cell_setting 'monoclinic'
loop_
_space_group_symop_operation_xyz
x,y,z
-x,y,-z
-x,-y,-z
x,-y,z
loop_
_atom_site_type_symbol
_atom_site_label
_atom_site_fract_x
_atom_site_fract_y
_atom_site_fract_z
Si Si1 0.093653 0.183001 0.227916
Si Si2 0.272444 0.676292 0.985898
Si Si3 0.087992 0.688542 0.738695
Si Si4 0.631661 0.686986 0.483762
Si Si5 0.822290 0.185455 0.871906
Si Si6 0.444787 0.688701 0.193848
Si Si7 0.621530 0.179078 0.190280
Si Si8 0.779536 0.332015 0.394260
O O1 0.157655 0.213474 0.233543
O O2 0.121532 0.290673 0.392714
O O3 0.094843 0.000000 0.263170
O O4 0.000000 0.221256 0.000000
O O5 0.283069 0.500000 0.060110
O O6 0.184253 0.750905 0.875233
O O7 0.242402 0.659537 0.788282
O O8 0.369619 0.747699 0.147025
O O9 0.090235 0.500000 0.729403
O O10 0.000000 0.741525 0.500000
O O11 0.099771 0.736447 0.902652
O O12 0.636479 0.500000 0.490412
O O13 0.723591 0.752029 0.706965
O O14 0.545920 0.733748 0.401320
O O15 0.614030 0.745819 0.310743
O O16 0.824447 0.000000 0.897011
O O17 0.439149 0.500000 0.189444
O O18 0.422256 0.736887 0.010040
O O19 0.722916 0.194720 0.345355
O O20 0.594460 0.000000 0.143681
O O21 0.755195 0.500000 0.404962
#
# Coordination Sequence:
#
# PCOD9146621 Si02
#       8
#     4   4   4   4   4   4   4   4
#     4  10  22  38  55  80 117 155 189 232 294 358
#     4   8  17  36  58  84 115 146 189 244 291 336
#     4  10  22  41  66  89 113 148 195 247 293 345
#     4  11  21  35  57  83 113 154 198 242 290 345
#     4  11  24  41  60  85 120 156 192 241 295 353
#     4   9  19  35  56  82 115 154 198 242 287 343
#     4  11  20  31  50  80 120 159 192 232 284 344
#     4  10  19  33  56  83 113 151 193 238 286 341
#
# _framework density 22.499824
#
# number of rings (size 3 to 8) (size 9 to 14) (size 15 to 20)
#    0.000    2.000    1.250    3.375    1.750    3.500 
#    0.000    3.750    0.000    3.750    0.000    0.000 
#    0.000    0.000    0.000    0.000    0.000    0.000 
#
# Total GULP energy -178361.448170 kJ/mol
# GULP energy per Si atom -5573.795255 kJ/mol
# Density = 2.244861 g / cm^3
# Si number density = 22.499824 Si / 1000 Ang^3
#
#
#
# Elastic Constant Matrix: (Units=GPa)
#
#
# Indices 1 2 3 4 5 6 
#
# 1 40.9169 6.8953 20.0104 0.0000 15.1012 0.0000
# 2 6.8953 13.9708 4.2661 0.0000 9.3493 0.0000
# 3 20.0104 4.2661 88.7393 0.0000 16.1853 0.0000
# 4 0.0000 0.0000 0.0000 5.3537 0.0000 5.4182
# 5 15.1012 9.3493 16.1853 0.0000 27.4946 0.0000
# 6 0.0000 0.0000 0.0000 5.4182 0.0000 3.4241
#
#
#
# Elastic Compliance Matrix: (Units=1/GPa)
#
#
# Indices 1 2 3 4 5 6 
#
# 1 0.032558 -0.005845 -0.004662 0.000000 -0.013150 0.000000
# 2 -0.005845 0.093880 0.002287 0.000000 -0.030059 0.000000
# 3 -0.004662 0.002287 0.013315 0.000000 -0.006055 0.000000
# 4 0.000000 0.000000 0.000000 -0.310575 0.000000 0.491443
# 5 -0.013150 -0.030059 -0.006055 0.000000 0.057379 0.000000
# 6 0.000000 0.000000 0.000000 0.491443 0.000000 -0.485594
#
#
# Mechanical properties :
#
#
# Convention : Reuss Voigt Hill
#
# Bulk Modulus (GPa) = 8.10951 22.88563 15.49757
# Shear Modulus (GPa) = -9.23373 14.75150 2.75888
#
# Velocity S-wave (km/s) = -2.02801 2.56330 1.10853
# Velocity P-wave (km/s) = 1.36810 4.35365 2.92255
#
# Compressibility (1/GPa) = 0.12331206
#
# Stress axis : x y z
#
# Youngs Moduli (GPa) = 30.71424 10.65192 75.10490
#
# Poissons Ratio (x) = 0.06226 0.35016
# Poissons Ratio (y) = 0.17954 -0.17179
# Poissons Ratio (z) = 0.14320 -0.02436
#
# Static dielectric constant tensor:
#      x y z
#    x 1.916040 0.000000 0.046220 
#    y 0.000000 1.784120 0.000000 
#    z 0.046220 0.000000 1.885440 
# 
# From -- ./inp_files/58255.got.cif
#   From: 2010.05.17/outbox.cif.g08.bks.cpg/sg10_30_cif.got.tgz:58255.got - 2010.06.03 11:33:40.
