data_PCOD9146271
_publ_section_title
;
Structure prediction by ZEFSAII (Michael W. Deem and Ramdas Pophale) SiO2 
 PCOD9146271
Probable space group: P 2/M
;
_chemical_formula_sum "Si O2"
_cell_formula_units_Z 32
_cell_length_a 22.236872
_cell_length_b 15.433967
_cell_length_c 18.640584
_cell_angle_alpha 90.000000
_cell_angle_beta 16.962628
_cell_angle_gamma 90.000000
_cell_volume 1866.459133
_symmetry_space_group_name_H-M "P 2/M"
_symmetry_group_IT_number 10
_symmetry_cell_setting 'monoclinic'
loop_
_space_group_symop_operation_xyz
x,y,z
-x,y,-z
-x,-y,-z
x,-y,z
loop_
_atom_site_type_symbol
_atom_site_label
_atom_site_fract_x
_atom_site_fract_y
_atom_site_fract_z
Si Si1 0.878755 0.597431 0.309301
Si Si2 0.009824 0.598382 0.651388
Si Si3 0.832246 0.901616 0.006546
Si Si4 0.441265 0.337550 0.852476
Si Si5 0.245162 0.902569 0.442898
Si Si6 0.642948 0.731809 0.767845
Si Si7 0.035448 0.231812 0.875349
Si Si8 0.471266 0.837536 0.322473
O O1 0.924148 0.500000 0.232713
O O2 0.969130 0.608870 0.286369
O O3 0.632235 0.610121 0.600166
O O4 0.962462 0.673665 0.163762
O O5 0.074582 0.500000 0.560189
O O6 0.160586 0.669384 0.445087
O O7 0.773502 0.613386 0.900510
O O8 0.019891 0.891127 0.735613
O O9 0.871924 0.830621 0.022412
O O10 0.844093 0.000000 0.021137
O O11 0.621532 0.886597 0.204456
O O12 0.517327 0.309466 0.844479
O O13 0.420009 0.250006 0.829995
O O14 0.285133 0.826334 0.341095
O O15 0.402993 0.889877 0.329410
O O16 0.262172 0.000000 0.394694
O O17 0.500000 0.736960 0.000000
O O18 0.259062 0.190547 0.602741
O O19 0.000000 0.236964 0.000000
#
# Coordination Sequence:
#
# PCOD9146271 Si02
#       8
#     4   4   4   4   4   4   4   4
#     4   9  18  33  54  77  97 124 166 208 244 287
#     4  10  19  33  54  74  95 127 168 209 244 283
#     4  10  19  33  54  74  95 127 168 209 244 283
#     4   9  17  32  53  73  97 129 165 205 244 284
#     4   9  18  33  54  77  97 124 166 208 244 287
#     4  10  21  34  48  73 107 134 159 196 244 299
#     4  10  21  34  48  73 107 134 159 196 244 299
#     4   9  17  32  53  73  97 129 165 205 244 284
#
# _framework density 17.144763999999999
#
# number of rings (size 3 to 8) (size 9 to 14) (size 15 to 20)
#    0.000    2.500    0.000    4.500    0.000    3.000 
#    0.000    1.250    0.000    0.000    0.000   14.000 
#    0.000    0.000    0.000    0.000    0.000    0.000 
#
# Total GULP energy -178481.200995 kJ/mol
# GULP energy per Si atom -5577.537531 kJ/mol
# Density = 1.710574 g / cm^3
# Si number density = 17.144764 Si / 1000 Ang^3
#
#
#
# Elastic Constant Matrix: (Units=GPa)
#
#
# Indices 1 2 3 4 5 6 
#
# 1 23.8703 28.2353 10.1583 0.0000 4.7784 0.0000
# 2 28.2353 107.2071 25.3859 0.0000 6.3017 0.0000
# 3 10.1583 25.3859 24.3252 0.0000 -5.7747 0.0000
# 4 0.0000 0.0000 0.0000 12.6591 0.0000 -3.3664
# 5 4.7784 6.3017 -5.7747 0.0000 29.1239 0.0000
# 6 0.0000 0.0000 0.0000 -3.3664 0.0000 11.1373
#
#
#
# Elastic Compliance Matrix: (Units=1/GPa)
#
#
# Indices 1 2 3 4 5 6 
#
# 1 0.066694 -0.012800 -0.017245 0.000000 -0.011592 0.000000
# 2 -0.012800 0.015748 -0.011963 0.000000 -0.003679 0.000000
# 3 -0.017245 -0.011963 0.065148 0.000000 0.018336 0.000000
# 4 0.000000 0.000000 0.000000 0.085899 0.000000 0.025964
# 5 -0.011592 -0.003679 0.018336 0.000000 0.040670 0.000000
# 6 0.000000 0.000000 0.000000 0.025964 0.000000 0.097636
#
#
# Mechanical properties :
#
#
# Convention : Reuss Voigt Hill
#
# Bulk Modulus (GPa) = 15.72974 31.44017 23.58496
# Shear Modulus (GPa) = 10.48213 16.69227 13.58720
#
# Velocity S-wave (km/s) = 2.47531 3.12365 2.81819
# Velocity P-wave (km/s) = 4.16703 5.60245 4.93719
#
# Compressibility (1/GPa) = 0.06357382
#
# Stress axis : x y z
#
# Youngs Moduli (GPa) = 14.99395 63.50072 15.34958
#
# Poissons Ratio (x) = 0.81282 0.26471
# Poissons Ratio (y) = 0.19193 0.18362
# Poissons Ratio (z) = 0.25857 0.75963
#
# Static dielectric constant tensor:
#      x y z
#    x 1.551050 0.000000 -0.018480 
#    y 0.000000 1.598510 0.000000 
#    z -0.018480 0.000000 1.559360 
# 
# From -- ./inp_files/79695.got.cif
#   From: 2010.05.17/outbox.cif.g08.bks.cpg/sg10_40_cif.got.tgz:79695.got - 2010.06.03 11:33:40.
