data_PCOD9146293
_publ_section_title
;
Structure prediction by ZEFSAII (Michael W. Deem and Ramdas Pophale) SiO2 
 PCOD9146293
Probable space group: P 2/M
;
_chemical_formula_sum "Si O2"
_cell_formula_units_Z 30
_cell_length_a 27.173445
_cell_length_b 14.016426
_cell_length_c 12.555704
_cell_angle_alpha 90.000000
_cell_angle_beta 159.088861
_cell_angle_gamma 90.000000
_cell_volume 1706.842594
_symmetry_space_group_name_H-M "P 2/M"
_symmetry_group_IT_number 10
_symmetry_cell_setting 'monoclinic'
loop_
_space_group_symop_operation_xyz
x,y,z
-x,y,-z
-x,-y,-z
x,-y,z
loop_
_atom_site_type_symbol
_atom_site_label
_atom_site_fract_x
_atom_site_fract_y
_atom_site_fract_z
Si Si1 0.800751 0.109402 0.074591
Si Si2 0.736043 0.115016 0.710678
Si Si3 0.175048 0.112193 0.645473
Si Si4 0.413665 0.610722 0.932846
Si Si5 0.457847 0.221372 0.183762
Si Si6 0.500000 0.182521 0.500000
Si Si7 0.026593 0.803927 0.927510
Si Si8 0.913537 0.604534 0.716546
O O1 0.806047 0.147887 0.964873
O O2 0.636765 0.118512 0.768113
O O3 0.843475 0.000000 0.150520
O O4 0.867086 0.146158 0.319297
O O5 0.578069 0.148256 0.393624
O O6 0.745424 0.000000 0.721507
O O7 0.816799 0.169380 0.781299
O O8 0.061755 0.126086 0.325717
O O9 0.207164 0.000000 0.720994
O O10 0.309898 0.169978 0.882004
O O11 0.438788 0.500000 0.013329
O O12 0.247894 0.620963 0.584026
O O13 0.500000 0.629078 0.000000
O O14 0.458010 0.685816 0.111452
O O15 0.486612 0.243142 0.365949
O O16 0.978218 0.698025 0.793576
O O17 0.000000 0.813103 0.000000
O O18 0.924752 0.500000 0.685447
O O19 0.000000 0.598360 0.000000
#
# Coordination Sequence:
#
# PCOD9146293 Si02
#       8
#     4   4   4   4   4   2   4   4
#     4   8  15  29  50  74  98 132 178 224 255 289
#     4  10  21  35  52  76 109 144 178 215 255 302
#     4  10  19  33  54  77 104 138 179 216 257 313
#     4  10  21  36  57  84 107 129 171 229 270 304
#     4  10  19  34  55  79 106 139 174 216 264 312
#     4   8  15  28  49  76 106 132 170 208 264 316
#     4  11  23  36  50  75 107 142 173 215 263 311
#     4   9  19  37  58  78  99 132 174 217 268 313
#
# _framework density 17.576312999999999
#
# number of rings (size 3 to 8) (size 9 to 14) (size 15 to 20)
#    0.000    2.400    1.333    1.000    3.733    4.800 
#    0.000    2.333    0.000    2.400    0.000    2.800 
#    0.000    0.000    0.000    0.000    0.000    0.000 
#
# Total GULP energy -167031.703949 kJ/mol
# GULP energy per Si atom -5567.723465 kJ/mol
# Density = 1.753631 g / cm^3
# Si number density = 17.576313 Si / 1000 Ang^3
#
#
#
# Elastic Constant Matrix: (Units=GPa)
#
#
# Indices 1 2 3 4 5 6 
#
# 1 83.2949 38.1004 7.7277 0.0000 1.2198 0.0000
# 2 38.1004 87.6711 11.1371 0.0000 -1.3450 0.0000
# 3 7.7277 11.1371 52.7914 0.0000 -3.7208 0.0000
# 4 0.0000 0.0000 0.0000 49.0270 0.0000 -28.1370
# 5 1.2198 -1.3450 -3.7208 0.0000 24.1233 0.0000
# 6 0.0000 0.0000 0.0000 -28.1370 0.0000 48.8504
#
#
#
# Elastic Compliance Matrix: (Units=1/GPa)
#
#
# Indices 1 2 3 4 5 6 
#
# 1 0.015059 -0.006445 -0.000934 0.000000 -0.001265 0.000000
# 2 -0.006445 0.014481 -0.002054 0.000000 0.000817 0.000000
# 3 -0.000934 -0.002054 0.019722 0.000000 0.002975 0.000000
# 4 0.000000 0.000000 0.000000 0.030469 0.000000 0.017549
# 5 -0.001265 0.000817 0.002975 0.000000 0.042022 0.000000
# 6 0.000000 0.000000 0.000000 0.017549 0.000000 0.030579
#
#
# Mechanical properties :
#
#
# Convention : Reuss Voigt Hill
#
# Bulk Modulus (GPa) = 32.89909 37.52085 35.20997
# Shear Modulus (GPa) = 27.57424 35.51963 31.54693
#
# Velocity S-wave (km/s) = 3.96514 4.50030 4.24117
# Velocity P-wave (km/s) = 6.30251 6.95682 6.63773
#
# Compressibility (1/GPa) = 0.03039598
#
# Stress axis : x y z
#
# Youngs Moduli (GPa) = 66.40644 69.05777 50.70449
#
# Poissons Ratio (x) = 0.44508 0.04735
# Poissons Ratio (y) = 0.42799 0.10414
# Poissons Ratio (z) = 0.06201 0.14184
#
# Static dielectric constant tensor:
#      x y z
#    x 1.623770 0.000000 0.002570 
#    y 0.000000 1.599010 0.000000 
#    z 0.002570 0.000000 1.632050 
# 
# From -- ./inp_files/57791.got.cif
#   From: 2010.05.17/outbox.cif.g08.bks.cpg/sg10_29_cif.got.tgz:57791.got - 2010.06.03 11:33:40.
