data_PCOD9146984
_publ_section_title
;
Structure prediction by ZEFSAII (Michael W. Deem and Ramdas Pophale) SiO2 
 PCOD9146984
Probable space group: P 2/M
;
_chemical_formula_sum "Si O2"
_cell_formula_units_Z 32
_cell_length_a 20.200526
_cell_length_b 7.755349
_cell_length_c 21.022020
_cell_angle_alpha 90.000000
_cell_angle_beta 27.738837
_cell_angle_gamma 90.000000
_cell_volume 1532.865755
_symmetry_space_group_name_H-M "P 2/M"
_symmetry_group_IT_number 10
_symmetry_cell_setting 'monoclinic'
loop_
_space_group_symop_operation_xyz
x,y,z
-x,y,-z
-x,-y,-z
x,-y,z
loop_
_atom_site_type_symbol
_atom_site_label
_atom_site_fract_x
_atom_site_fract_y
_atom_site_fract_z
Si Si1 0.115454 0.210228 0.509438
Si Si2 0.327300 0.698668 0.997962
Si Si3 0.657497 0.303289 0.288487
Si Si4 0.623227 0.792328 0.806582
Si Si5 0.738154 0.794597 0.489901
Si Si6 0.593506 0.709849 0.207263
Si Si7 0.666007 0.796972 0.417873
Si Si8 0.194392 0.800224 0.236697
O O1 0.241894 0.244352 0.353092
O O2 0.162807 0.276123 0.538602
O O3 0.961310 0.276276 0.619726
O O4 0.104879 0.000000 0.521472
O O5 0.282171 0.500000 0.032955
O O6 0.485012 0.708859 0.893774
O O7 0.338691 0.769197 0.916674
O O8 0.228384 0.790479 0.133373
O O9 0.705064 0.500000 0.246007
O O10 0.670944 0.227815 0.206031
O O11 0.486372 0.295105 0.444886
O O12 0.720117 0.225316 0.300023
O O13 0.675586 0.731336 0.831493
O O14 0.593939 0.000000 0.832286
O O15 0.572612 0.761902 0.648322
O O16 0.757983 0.736059 0.399980
O O17 0.759570 0.000000 0.471882
O O18 0.595654 0.500000 0.206094
O O19 0.635990 0.000000 0.451812
O O20 0.186742 0.000000 0.263255
#
# Coordination Sequence:
#
# PCOD9146984 Si02
#       8
#     4   4   4   4   4   4   4   4
#     4   9  17  32  53  75  97 124 160 201 242 282
#     4  11  22  35  50  71 100 131 161 199 244 287
#     4   9  15  24  38  57  85 121 155 187 225 271
#     4  10  19  34  56  76  94 122 162 203 242 288
#     4   9  16  27  46  69  93 122 155 192 235 282
#     4   9  18  30  44  64  91 124 161 196 231 275
#     4   9  15  22  35  61  93 119 145 183 231 279
#     4  10  21  35  52  74  98 125 161 202 241 287
#
# _framework density 20.87593
#
# number of rings (size 3 to 8) (size 9 to 14) (size 15 to 20)
#    0.000    2.500    1.250    2.625    0.000    5.000 
#    0.000    1.250    0.000    1.500    0.000    0.875 
#    0.000    7.000    0.000    0.000    0.000    0.000 
#
# Total GULP energy -178359.601522 kJ/mol
# GULP energy per Si atom -5573.737548 kJ/mol
# Density = 2.082842 g / cm^3
# Si number density = 20.875930 Si / 1000 Ang^3
#
#
#
# Elastic Constant Matrix: (Units=GPa)
#
#
# Indices 1 2 3 4 5 6 
#
# 1 89.6141 2.8662 6.4601 0.0000 41.3491 0.0000
# 2 2.8662 29.6555 -7.2610 0.0000 -0.5094 0.0000
# 3 6.4601 -7.2610 29.1348 0.0000 7.5930 0.0000
# 4 0.0000 0.0000 0.0000 9.8063 0.0000 -1.8180
# 5 41.3491 -0.5094 7.5930 0.0000 27.2174 0.0000
# 6 0.0000 0.0000 0.0000 -1.8180 0.0000 18.7916
#
#
#
# Elastic Compliance Matrix: (Units=1/GPa)
#
#
# Indices 1 2 3 4 5 6 
#
# 1 0.038984 -0.003233 0.006472 0.000000 -0.061091 0.000000
# 2 -0.003233 0.036278 0.008952 0.000000 0.003092 0.000000
# 3 0.006472 0.008952 0.040589 0.000000 -0.020987 0.000000
# 4 0.000000 0.000000 0.000000 0.103837 0.000000 0.010046
# 5 -0.061091 0.003092 -0.020987 0.000000 0.135464 0.000000
# 6 0.000000 0.000000 0.000000 0.010046 0.000000 0.054187
#
#
# Mechanical properties :
#
#
# Convention : Reuss Voigt Hill
#
# Bulk Modulus (GPa) = 7.13100 16.94834 12.03967
# Shear Modulus (GPa) = 11.58208 20.91901 16.25054
#
# Velocity S-wave (km/s) = 2.35799 3.16897 2.79307
# Velocity P-wave (km/s) = 3.29193 4.63962 4.02261
#
# Compressibility (1/GPa) = 0.14023285
#
# Stress axis : x y z
#
# Youngs Moduli (GPa) = 25.65158 27.56498 24.63725
#
# Poissons Ratio (x) = 0.08911 -0.15944
# Poissons Ratio (y) = 0.08292 -0.22055
# Poissons Ratio (z) = -0.16600 -0.24676
#
# Static dielectric constant tensor:
#      x y z
#    x 1.815100 0.000000 0.048620 
#    y 0.000000 1.769170 0.000000 
#    z 0.048620 0.000000 1.725640 
# 
# From -- ./inp_files/86102.got.cif
#   From: 2010.05.17/outbox.cif.g08.bks.cpg/sg10_44_cif.got.tgz:86102.got - 2010.06.03 11:33:40.
