data_PCOD9146500
_publ_section_title
;
Structure prediction by ZEFSAII (Michael W. Deem and Ramdas Pophale) SiO2 
 PCOD9146500
Probable space group: P 2/M
;
_chemical_formula_sum "Si O2"
_cell_formula_units_Z 30
_cell_length_a 14.683073
_cell_length_b 10.075169
_cell_length_c 12.531493
_cell_angle_alpha 90.000000
_cell_angle_beta 115.798953
_cell_angle_gamma 90.000000
_cell_volume 1669.061176
_symmetry_space_group_name_H-M "P 2/M"
_symmetry_group_IT_number 10
_symmetry_cell_setting 'monoclinic'
loop_
_space_group_symop_operation_xyz
x,y,z
-x,y,-z
-x,-y,-z
x,-y,z
loop_
_atom_site_type_symbol
_atom_site_label
_atom_site_fract_x
_atom_site_fract_y
_atom_site_fract_z
Si Si1 0.500000 0.728023 0.500000
Si Si2 0.294244 0.841260 0.486325
Si Si3 0.882593 0.839215 0.760104
Si Si4 0.572461 0.349431 0.138375
Si Si5 0.745026 0.840043 0.290542
Si Si6 0.774605 0.840638 0.919970
Si Si7 0.896249 0.839248 0.191741
Si Si8 0.594580 0.353133 0.766264
O O1 0.407868 0.806186 0.509386
O O2 0.444614 0.653711 0.374885
O O3 0.211155 0.790348 0.359509
O O4 0.264606 0.798690 0.590840
O O5 0.287553 0.000000 0.482255
O O6 0.857816 0.812709 0.870801
O O7 0.991045 0.789451 0.775225
O O8 0.884413 0.000000 0.751476
O O9 0.614933 0.500000 0.158315
O O10 0.657013 0.237641 0.184498
O O11 0.502049 0.336710 0.206458
O O12 0.500000 0.334992 0.000000
O O13 0.848842 0.806081 0.282288
O O14 0.731679 0.000000 0.277666
O O15 0.675186 0.759892 0.836031
O O16 0.754859 0.000000 0.909497
O O17 0.819646 0.801215 0.057484
O O18 0.901025 0.000000 0.189499
O O19 0.638019 0.500000 0.809423
#
# Coordination Sequence:
#
# PCOD9146500 Si02
#       8
#     2   4   4   4   4   4   4   4
#     4  12  20  36  54  74 105 144 179 218 261 322
#     4  10  20  32  52  81 110 138 174 221 268 312
#     4   9  17  31  52  80 109 141 177 214 262 317
#     4  10  21  37  54  74 104 143 180 213 258 321
#     4  10  20  34  52  79 107 136 176 223 266 304
#     4  10  19  33  55  82 108 140 176 215 264 316
#     4   9  18  32  53  80 110 139 175 221 264 310
#     4  11  23  36  54  81 107 139 178 218 267 317
#
# _framework density 17.974177000000001
#
# number of rings (size 3 to 8) (size 9 to 14) (size 15 to 20)
#    0.000    2.000    2.667    1.600    0.000    3.467 
#    0.000    2.667    0.000    2.400    0.000    0.933 
#    0.000    0.000    0.000    0.000    0.000    0.000 
#
# Total GULP energy -167199.290408 kJ/mol
# GULP energy per Si atom -5573.309680 kJ/mol
# Density = 1.793327 g / cm^3
# Si number density = 17.974177 Si / 1000 Ang^3
#
#
#
# Elastic Constant Matrix: (Units=GPa)
#
#
# Indices 1 2 3 4 5 6 
#
# 1 95.8024 18.7370 36.0455 0.0000 -10.4766 0.0000
# 2 18.7370 21.9580 7.9013 0.0000 0.0313 0.0000
# 3 36.0455 7.9013 74.7831 0.0000 -11.6306 0.0000
# 4 0.0000 0.0000 0.0000 8.4653 0.0000 -9.3933
# 5 -10.4766 0.0313 -11.6306 0.0000 27.9160 0.0000
# 6 0.0000 0.0000 0.0000 -9.3933 0.0000 -2.3147
#
#
#
# Elastic Compliance Matrix: (Units=1/GPa)
#
#
# Indices 1 2 3 4 5 6 
#
# 1 0.015014 -0.010809 -0.005578 0.000000 0.003323 0.000000
# 2 -0.010809 0.055260 -0.001357 0.000000 -0.004684 0.000000
# 3 -0.005578 -0.001357 0.016979 0.000000 0.004982 0.000000
# 4 0.000000 0.000000 0.000000 0.021466 0.000000 -0.087113
# 5 0.003323 -0.004684 0.004982 0.000000 0.039150 0.000000
# 6 0.000000 0.000000 0.000000 -0.087113 0.000000 -0.078506
#
#
# Mechanical properties :
#
#
# Convention : Reuss Voigt Hill
#
# Bulk Modulus (GPa) = 19.31823 35.32346 27.32084
# Shear Modulus (GPa) = 40.94779 15.47063 28.20921
#
# Velocity S-wave (km/s) = 4.77817 2.93698 3.96590
# Velocity P-wave (km/s) = 6.41968 5.58535 6.01699
#
# Compressibility (1/GPa) = 0.05176458
#
# Stress axis : x y z
#
# Youngs Moduli (GPa) = 66.60280 18.09619 58.89684
#
# Poissons Ratio (x) = 0.19561 0.32853
# Poissons Ratio (y) = 0.71994 0.07992
# Poissons Ratio (z) = 0.37152 0.02456
#
# Static dielectric constant tensor:
#      x y z
#    x 1.619980 0.000000 -0.020170 
#    y 0.000000 1.594920 0.000000 
#    z -0.020170 0.000000 1.631340 
# 
# From -- ./inp_files/50016.got.cif
#   From: 2010.05.17/outbox.cif.g08.bks.cpg/sg10_26_cif.got.tgz:50016.got - 2010.06.03 11:33:40.
