data_PCOD9146899
_publ_section_title
;
Structure prediction by ZEFSAII (Michael W. Deem and Ramdas Pophale) SiO2 
 PCOD9146899
Probable space group: P 2/M
;
_chemical_formula_sum "Si O2"
_cell_formula_units_Z 28
_cell_length_a 10.700561
_cell_length_b 17.235827
_cell_length_c 14.262025
_cell_angle_alpha 90.000000
_cell_angle_beta 29.189149
_cell_angle_gamma 90.000000
_cell_volume 1282.825471
_symmetry_space_group_name_H-M "P 2/M"
_symmetry_group_IT_number 10
_symmetry_cell_setting 'monoclinic'
loop_
_space_group_symop_operation_xyz
x,y,z
-x,y,-z
-x,-y,-z
x,-y,z
loop_
_atom_site_type_symbol
_atom_site_label
_atom_site_fract_x
_atom_site_fract_y
_atom_site_fract_z
Si Si1 0.535773 0.500000 0.365421
Si Si2 0.577694 0.913721 0.230745
Si Si3 0.769363 0.669845 0.770765
Si Si4 0.523560 0.752359 0.764558
Si Si5 0.136955 0.913656 0.763477
Si Si6 0.008089 0.500000 0.383184
Si Si7 0.261575 0.669536 0.775153
Si Si8 0.975014 0.247256 0.236288
O O1 0.500000 0.500000 0.500000
O O2 0.684222 0.579055 0.247434
O O3 0.267865 0.500000 0.485632
O O4 0.419885 0.842923 0.290293
O O5 0.660026 0.901514 0.285321
O O6 0.466861 0.000000 0.292676
O O7 0.855333 0.914120 0.996597
O O8 0.713955 0.700327 0.702172
O O9 0.852525 0.580861 0.730190
O O10 0.965800 0.723313 0.699024
O O11 0.500000 0.677876 0.000000
O O12 0.471148 0.715790 0.697107
O O13 0.250852 0.751189 0.000513
O O14 0.131583 0.839690 0.700265
O O15 0.176374 0.000000 0.697492
O O16 0.000000 0.500000 0.500000
O O17 0.209704 0.696152 0.702901
O O18 0.000000 0.689310 0.000000
#
# Coordination Sequence:
#
# PCOD9146899 Si02
#       8
#     2   4   4   4   4   2   4   4
#     4  12  25  38  53  78 106 128 162 216 273 312
#     4   8  12  20  38  67 104 138 166 201 247 298
#     4  10  21  36  55  75 102 137 175 216 261 307
#     4   9  16  28  47  73  99 134 177 209 242 300
#     4   8  12  20  38  67 104 140 165 195 250 306
#     4  12  25  42  57  74 102 136 176 216 261 320
#     4  10  19  34  55  75 100 133 172 210 251 307
#     4   9  16  28  47  73 103 134 168 209 253 301
#
# _framework density 21.826819
#
# number of rings (size 3 to 8) (size 9 to 14) (size 15 to 20)
#    0.000    2.571    1.429    3.000    0.000    0.000 
#    0.000    6.429    0.000    4.286    0.000    0.000 
#    0.000   22.857    0.000    0.000    0.000    0.000 
#
# Total GULP energy -156456.153215 kJ/mol
# GULP energy per Si atom -5587.719758 kJ/mol
# Density = 2.177714 g / cm^3
# Si number density = 21.826819 Si / 1000 Ang^3
#
#
#
# Elastic Constant Matrix: (Units=GPa)
#
#
# Indices 1 2 3 4 5 6 
#
# 1 153.3229 74.4069 16.3612 0.0000 -13.5269 0.0000
# 2 74.4069 184.7060 -3.9258 0.0000 -19.3945 0.0000
# 3 16.3612 -3.9258 56.3911 0.0000 -12.4480 0.0000
# 4 0.0000 0.0000 0.0000 -0.0739 0.0000 -1.6059
# 5 -13.5269 -19.3945 -12.4480 0.0000 22.6272 0.0000
# 6 0.0000 0.0000 0.0000 -1.6059 0.0000 30.2619
#
#
#
# Elastic Compliance Matrix: (Units=1/GPa)
#
#
# Indices 1 2 3 4 5 6 
#
# 1 0.008512 -0.003401 -0.002534 0.000000 0.000779 0.000000
# 2 -0.003401 0.007465 0.002811 0.000000 0.005912 0.000000
# 3 -0.002534 0.002811 0.021469 0.000000 0.012705 0.000000
# 4 0.000000 0.000000 0.000000 -6.283423 0.000000 -0.333447
# 5 0.000779 0.005912 0.012705 0.000000 0.056717 0.000000
# 6 0.000000 0.000000 0.000000 -0.333447 0.000000 0.015350
#
#
# Mechanical properties :
#
#
# Convention : Reuss Voigt Hill
#
# Bulk Modulus (GPa) = 32.05395 63.12273 47.58834
# Shear Modulus (GPa) = -0.81205 31.06821 15.12808
#
# Velocity S-wave (km/s) = -0.61061 3.77689 2.63553
# Velocity P-wave (km/s) = 3.77099 6.92838 5.57776
#
# Compressibility (1/GPa) = 0.03119740
#
# Stress axis : x y z
#
# Youngs Moduli (GPa) = 117.48337 133.96690 46.57882
#
# Poissons Ratio (x) = 0.45562 0.11805
# Poissons Ratio (y) = 0.39956 -0.13095
# Poissons Ratio (z) = 0.29775 -0.37663
#
# Static dielectric constant tensor:
#      x y z
#    x 1.751760 0.000000 0.022560 
#    y 0.000000 1.949340 0.000000 
#    z 0.022560 0.000000 1.876800 
# 
# From -- ./inp_files/62341.got.cif
#   From: 2010.05.17/outbox.cif.g08.bks.cpg/sg10_32_cif.got.tgz:62341.got - 2010.06.03 11:33:40.
