data_PCOD9146794
_publ_section_title
;
Structure prediction by ZEFSAII (Michael W. Deem and Ramdas Pophale) SiO2 
 PCOD9146794
Probable space group: P 2/M
;
_chemical_formula_sum "Si O2"
_cell_formula_units_Z 30
_cell_length_a 5.368990
_cell_length_b 13.195078
_cell_length_c 20.801013
_cell_angle_alpha 90.000000
_cell_angle_beta 94.260966
_cell_angle_gamma 90.000000
_cell_volume 1469.558851
_symmetry_space_group_name_H-M "P 2/M"
_symmetry_group_IT_number 10
_symmetry_cell_setting 'monoclinic'
loop_
_space_group_symop_operation_xyz
x,y,z
-x,y,-z
-x,-y,-z
x,-y,z
loop_
_atom_site_type_symbol
_atom_site_label
_atom_site_fract_x
_atom_site_fract_y
_atom_site_fract_z
Si Si1 0.680387 0.274586 0.339828
Si Si2 0.000000 0.771797 0.500000
Si Si3 0.406654 0.115475 0.571636
Si Si4 0.223613 0.884462 0.754784
Si Si5 0.904886 0.615629 0.591940
Si Si6 0.760828 0.808894 0.818588
Si Si7 0.710149 0.615669 0.735489
Si Si8 0.263690 0.880377 0.041241
O O1 0.497443 0.197046 0.374732
O O2 0.842927 0.192943 0.303785
O O3 0.572350 0.348975 0.283817
O O4 0.808225 0.348672 0.393261
O O5 0.876502 0.846027 0.445434
O O6 0.820468 0.695032 0.536203
O O7 0.500000 0.120784 0.500000
O O8 0.433720 0.000000 0.593454
O O9 0.502244 0.854221 0.784220
O O10 0.007571 0.871377 0.803469
O O11 0.227279 0.000000 0.733068
O O12 0.872428 0.500000 0.571101
O O13 0.811997 0.623859 0.663869
O O14 0.803154 0.697871 0.788228
O O15 0.731173 0.814316 0.894287
O O16 0.737736 0.500000 0.756474
O O17 0.282310 0.000000 0.060100
O O18 0.500000 0.858715 0.000000
O O19 0.000000 0.866928 0.000000
#
# Coordination Sequence:
#
# PCOD9146794 Si02
#       8
#     4   2   4   4   4   4   4   4
#     4  10  20  34  52  76 106 140 189 240 296 359
#     4  10  20  32  52  74 100 138 182 238 292 360
#     4  10  20  34  50  70 101 141 185 231 292 361
#     4  11  21  35  56  85 120 155 192 241 295 349
#     4  10  19  34  52  75 103 137 185 242 299 352
#     4  11  22  38  59  89 122 159 200 242 290 350
#     4  10  21  37  57  80 110 149 193 246 300 349
#     4  10  20  35  58  87 121 160 196 233 285 345
#
# _framework density 20.414289
#
# number of rings (size 3 to 8) (size 9 to 14) (size 15 to 20)
#    0.000    1.733    1.333    4.000    0.000    1.067 
#    0.000    0.000    0.000    7.200    0.000    0.000 
#    0.000    0.000    0.000    0.000    0.000    0.000 
#
# Total GULP energy -167127.107583 kJ/mol
# GULP energy per Si atom -5570.903586 kJ/mol
# Density = 2.036783 g / cm^3
# Si number density = 20.414289 Si / 1000 Ang^3
#
#
#
# Elastic Constant Matrix: (Units=GPa)
#
#
# Indices 1 2 3 4 5 6 
#
# 1 61.5387 27.6397 18.9122 0.0000 -14.0680 0.0000
# 2 27.6397 115.4606 34.4952 0.0000 -9.0789 0.0000
# 3 18.9122 34.4952 104.0654 0.0000 -20.2972 0.0000
# 4 0.0000 0.0000 0.0000 29.5525 0.0000 -2.4897
# 5 -14.0680 -9.0789 -20.2972 0.0000 31.5399 0.0000
# 6 0.0000 0.0000 0.0000 -2.4897 0.0000 12.9957
#
#
#
# Elastic Compliance Matrix: (Units=1/GPa)
#
#
# Indices 1 2 3 4 5 6 
#
# 1 0.019939 -0.003934 -0.000921 0.000000 0.007168 0.000000
# 2 -0.003934 0.010408 -0.002851 0.000000 -0.000593 0.000000
# 3 -0.000921 -0.002851 0.011986 0.000000 0.006482 0.000000
# 4 0.000000 0.000000 0.000000 0.034393 0.000000 0.006589
# 5 0.007168 -0.000593 0.006482 0.000000 0.038904 0.000000
# 6 0.000000 0.000000 0.000000 0.006589 0.000000 0.078211
#
#
# Mechanical properties :
#
#
# Convention : Reuss Voigt Hill
#
# Bulk Modulus (GPa) = 37.14706 49.23989 43.19347
# Shear Modulus (GPa) = 22.91204 28.15212 25.53208
#
# Velocity S-wave (km/s) = 3.35379 3.71757 3.54036
# Velocity P-wave (km/s) = 5.76483 6.52685 6.15764
#
# Compressibility (1/GPa) = 0.02692003
#
# Stress axis : x y z
#
# Youngs Moduli (GPa) = 50.15359 96.08209 83.43078
#
# Poissons Ratio (x) = 0.37800 0.07687
# Poissons Ratio (y) = 0.19731 0.23784
# Poissons Ratio (z) = 0.04621 0.27390
#
# Static dielectric constant tensor:
#      x y z
#    x 1.884760 0.000000 -0.024370 
#    y 0.000000 1.698430 0.000000 
#    z -0.024370 0.000000 1.764350 
# 
# From -- ./inp_files/81197.got.cif
#   From: 2010.05.17/outbox.cif.g08.bks.cpg/sg10_41_cif.got.tgz:81197.got - 2010.06.03 11:33:40.
