data_PCOD9146539
_publ_section_title
;
Structure prediction by ZEFSAII (Michael W. Deem and Ramdas Pophale) SiO2 
 PCOD9146539
Probable space group: P 2/M
;
_chemical_formula_sum "Si O2"
_cell_formula_units_Z 32
_cell_length_a 11.104493
_cell_length_b 19.162161
_cell_length_c 12.820708
_cell_angle_alpha 90.000000
_cell_angle_beta 34.891709
_cell_angle_gamma 90.000000
_cell_volume 1560.529198
_symmetry_space_group_name_H-M "P 2/M"
_symmetry_group_IT_number 10
_symmetry_cell_setting 'monoclinic'
loop_
_space_group_symop_operation_xyz
x,y,z
-x,y,-z
-x,-y,-z
x,-y,z
loop_
_atom_site_type_symbol
_atom_site_label
_atom_site_fract_x
_atom_site_fract_y
_atom_site_fract_z
Si Si1 0.140901 0.813368 0.614496
Si Si2 0.246112 0.690321 0.806489
Si Si3 0.334958 0.642319 0.975219
Si Si4 0.305907 0.797351 0.073566
Si Si5 0.860101 0.646950 0.335862
Si Si6 0.772223 0.416728 0.616387
Si Si7 0.398526 0.831682 0.772909
Si Si8 0.252286 0.921982 0.708307
O O1 0.141370 0.731267 0.645770
O O2 0.348219 0.834673 0.403687
O O3 0.146341 0.864682 0.709950
O O4 0.915286 0.819294 0.720277
O O5 0.324848 0.656682 0.857802
O O6 0.250367 0.643584 0.699298
O O7 0.359595 0.765091 0.724005
O O8 0.000000 0.706034 0.000000
O O9 0.330340 0.713951 0.043420
O O10 0.560947 0.605499 0.829353
O O11 0.097390 0.614462 0.164317
O O12 0.314430 0.819356 0.947266
O O13 0.500000 0.825547 0.000000
O O14 0.756344 0.612680 0.510174
O O15 0.778058 0.500000 0.610365
O O16 0.000000 0.391629 0.500000
O O17 0.271713 0.894864 0.812032
O O18 0.500000 0.922777 0.500000
O O19 0.167860 0.000000 0.757295
#
# Coordination Sequence:
#
# PCOD9146539 Si02
#       8
#     4   4   4   4   4   4   4   4
#     4  10  20  34  57  87 115 150 195 246 291 344
#     4   9  17  33  58  88 115 144 183 240 298 344
#     4   9  21  37  57  83 112 146 186 241 295 342
#     4  10  22  36  55  84 115 148 200 254 287 336
#     4  10  19  36  62  84 113 149 192 237 295 341
#     4  11  26  42  57  82 117 154 196 237 282 353
#     4  10  19  33  55  83 122 154 185 243 297 342
#     4   9  18  33  57  90 125 158 193 235 298 365
#
# _framework density 20.505863999999999
#
# number of rings (size 3 to 8) (size 9 to 14) (size 15 to 20)
#    0.000    2.250    1.250    2.250    3.500    2.500 
#    0.000    3.750    0.000    3.750    0.000    3.500 
#    0.000    0.000    0.000    0.000    0.000    0.000 
#
# Total GULP energy -178331.257627 kJ/mol
# GULP energy per Si atom -5572.851801 kJ/mol
# Density = 2.045919 g / cm^3
# Si number density = 20.505864 Si / 1000 Ang^3
#
#
#
# Elastic Constant Matrix: (Units=GPa)
#
#
# Indices 1 2 3 4 5 6 
#
# 1 37.2184 9.1277 16.6715 0.0000 -15.5873 0.0000
# 2 9.1277 55.7197 25.8720 0.0000 -8.1763 0.0000
# 3 16.6715 25.8720 109.3804 0.0000 -28.2347 0.0000
# 4 0.0000 0.0000 0.0000 14.4564 0.0000 -5.2809
# 5 -15.5873 -8.1763 -28.2347 0.0000 35.9646 0.0000
# 6 0.0000 0.0000 0.0000 -5.2809 0.0000 14.8114
#
#
#
# Elastic Compliance Matrix: (Units=1/GPa)
#
#
# Indices 1 2 3 4 5 6 
#
# 1 0.033545 -0.003113 -0.001011 0.000000 0.013037 0.000000
# 2 -0.003113 0.020482 -0.004410 0.000000 -0.000155 0.000000
# 3 -0.001011 -0.004410 0.012501 0.000000 0.008373 0.000000
# 4 0.000000 0.000000 0.000000 0.079532 0.000000 0.028356
# 5 0.013037 -0.000155 0.008373 0.000000 0.039994 0.000000
# 6 0.000000 0.000000 0.000000 0.028356 0.000000 0.077626
#
#
# Mechanical properties :
#
#
# Convention : Reuss Voigt Hill
#
# Bulk Modulus (GPa) = 20.21850 33.96234 27.09042
# Shear Modulus (GPa) = 16.82176 23.08963 19.95569
#
# Velocity S-wave (km/s) = 2.86726 3.35923 3.12295
# Velocity P-wave (km/s) = 4.56540 5.62531 5.12284
#
# Compressibility (1/GPa) = 0.04945965
#
# Stress axis : x y z
#
# Youngs Moduli (GPa) = 29.81090 48.82362 79.99275
#
# Poissons Ratio (x) = 0.15196 0.08090
# Poissons Ratio (y) = 0.09279 0.35279
# Poissons Ratio (z) = 0.03015 0.21532
#
# Static dielectric constant tensor:
#      x y z
#    x 1.754600 0.000000 -0.028670 
#    y 0.000000 1.713110 0.000000 
#    z -0.028670 0.000000 1.802630 
# 
# From -- ./inp_files/65372.got.cif
#   From: 2010.05.17/outbox.cif.g08.bks.cpg/sg10_33_cif.got.tgz:65372.got - 2010.06.03 11:33:40.
