data_PCOD9146220
_publ_section_title
;
Structure prediction by ZEFSAII (Michael W. Deem and Ramdas Pophale) SiO2 
 PCOD9146220
Probable space group: P 2/M
;
_chemical_formula_sum "Si O2"
_cell_formula_units_Z 32
_cell_length_a 12.270551
_cell_length_b 8.579113
_cell_length_c 20.757214
_cell_angle_alpha 90.000000
_cell_angle_beta 57.560090
_cell_angle_gamma 90.000000
_cell_volume 1844.142774
_symmetry_space_group_name_H-M "P 2/M"
_symmetry_group_IT_number 10
_symmetry_cell_setting 'monoclinic'
loop_
_space_group_symop_operation_xyz
x,y,z
-x,y,-z
-x,-y,-z
x,-y,z
loop_
_atom_site_type_symbol
_atom_site_label
_atom_site_fract_x
_atom_site_fract_y
_atom_site_fract_z
Si Si1 0.415197 0.189618 0.932922
Si Si2 0.303268 0.811853 0.100248
Si Si3 0.454732 0.810854 0.780614
Si Si4 0.422036 0.812729 0.648297
Si Si5 0.289648 0.313314 0.458285
Si Si6 0.753999 0.813507 0.665267
Si Si7 0.908225 0.686314 0.736682
Si Si8 0.801822 0.311660 0.372061
O O1 0.561754 0.230147 0.907269
O O2 0.393264 0.245105 0.867023
O O3 0.410338 0.000000 0.934330
O O4 0.321082 0.240316 0.020412
O O5 0.183534 0.745566 0.177180
O O6 0.295329 0.000000 0.104096
O O7 0.396072 0.762355 0.730753
O O8 0.606479 0.767814 0.730578
O O9 0.450608 0.000000 0.783147
O O10 0.562349 0.745265 0.585844
O O11 0.311761 0.756135 0.635547
O O12 0.431019 0.000000 0.643933
O O13 0.289233 0.500000 0.453598
O O14 0.226619 0.244252 0.413697
O O15 0.220115 0.266881 0.546451
O O16 0.849463 0.744800 0.687792
O O17 0.760560 0.000000 0.665052
O O18 0.906857 0.500000 0.736709
O O19 0.056401 0.739097 0.695556
O O20 0.794749 0.500000 0.371140
#
# Coordination Sequence:
#
# PCOD9146220 Si02
#       8
#     4   4   4   4   4   4   4   4
#     4   8  13  25  49  77 103 130 162 197 249 310
#     4   9  16  28  50  76 100 133 168 201 246 304
#     4   8  14  27  49  76 103 127 154 200 253 301
#     4  10  20  33  54  81 103 126 167 220 262 294
#     4  10  20  36  56  75  99 131 169 211 258 310
#     4  10  19  33  53  77 104 132 166 208 256 303
#     4  11  22  35  50  70 103 141 174 208 251 306
#     4  10  23  39  52  68  97 142 180 207 251 310
#
# _framework density 17.352235
#
# number of rings (size 3 to 8) (size 9 to 14) (size 15 to 20)
#    0.000    2.500    1.250    3.375    0.000    4.000 
#    0.000    3.750    0.000    0.750    0.000    5.250 
#    0.000    0.000    0.000    0.000    0.000    0.000 
#
# Total GULP energy -178432.087300 kJ/mol
# GULP energy per Si atom -5576.002728 kJ/mol
# Density = 1.731274 g / cm^3
# Si number density = 17.352235 Si / 1000 Ang^3
#
#
#
# Elastic Constant Matrix: (Units=GPa)
#
#
# Indices 1 2 3 4 5 6 
#
# 1 1.6367 4.0917 22.0661 0.0000 -5.7899 0.0000
# 2 4.0917 19.9508 21.7522 0.0000 -1.5371 0.0000
# 3 22.0661 21.7522 127.4502 0.0000 6.1878 0.0000
# 4 0.0000 0.0000 0.0000 24.6961 0.0000 7.2217
# 5 -5.7899 -1.5371 6.1878 0.0000 20.4877 0.0000
# 6 0.0000 0.0000 0.0000 7.2217 0.0000 57.1301
#
#
#
# Elastic Compliance Matrix: (Units=1/GPa)
#
#
# Indices 1 2 3 4 5 6 
#
# 1 -0.220500 -0.007705 0.043178 0.000000 -0.075933 0.000000
# 2 -0.007705 0.062603 -0.009614 0.000000 0.005423 0.000000
# 3 0.043178 -0.009614 0.001476 0.000000 0.011035 0.000000
# 4 0.000000 0.000000 0.000000 0.042046 0.000000 -0.005315
# 5 -0.075933 0.005423 0.011035 0.000000 0.024425 0.000000
# 6 0.000000 0.000000 0.000000 -0.005315 0.000000 0.018176
#
#
# Mechanical properties :
#
#
# Convention : Reuss Voigt Hill
#
# Bulk Modulus (GPa) = -9.55078 27.20638 8.82780
# Shear Modulus (GPa) = -31.56697 27.20462 -2.18117
#
# Velocity S-wave (km/s) = -4.26982 3.96383 -1.12238
# Velocity P-wave (km/s) = 5.46118 6.05493 1.84901
#
# Compressibility (1/GPa) = -0.10470347
#
# Stress axis : x y z
#
# Youngs Moduli (GPa) = -4.53514 15.97357 677.67542
#
# Poissons Ratio (x) = 0.12308 -29.26068
# Poissons Ratio (y) = -0.03494 6.51512
# Poissons Ratio (z) = 0.19582 0.15357
#
# Static dielectric constant tensor:
#      x y z
#    x 1.562570 0.000000 0.023800 
#    y 0.000000 1.590120 0.000000 
#    z 0.023800 0.000000 1.611840 
# 
# From -- ./inp_files/83591.got.cif
#   From: 2010.05.17/outbox.cif.g08.bks.cpg/sg10_42_cif.got.tgz:83591.got - 2010.06.03 11:33:40.
