data_PCOD9146512
_publ_section_title
;
Structure prediction by ZEFSAII (Michael W. Deem and Ramdas Pophale) SiO2 
 PCOD9146512
Probable space group: P 2/M
;
_chemical_formula_sum "Si O2"
_cell_formula_units_Z 28
_cell_length_a 21.002789
_cell_length_b 9.326257
_cell_length_c 14.488793
_cell_angle_alpha 90.000000
_cell_angle_beta 149.842615
_cell_angle_gamma 90.000000
_cell_volume 1425.759554
_symmetry_space_group_name_H-M "P 2/M"
_symmetry_group_IT_number 10
_symmetry_cell_setting 'monoclinic'
loop_
_space_group_symop_operation_xyz
x,y,z
-x,y,-z
-x,-y,-z
x,-y,z
loop_
_atom_site_type_symbol
_atom_site_label
_atom_site_fract_x
_atom_site_fract_y
_atom_site_fract_z
Si Si1 0.442182 0.668852 0.748852
Si Si2 0.353804 0.168900 0.293743
Si Si3 0.051978 0.163989 0.254211
Si Si4 0.279078 0.164695 0.687708
Si Si5 0.740769 0.668521 0.151144
Si Si6 0.736484 0.171468 0.617431
Si Si7 0.823464 0.670904 0.057985
O O1 0.411252 0.500000 0.710988
O O2 0.387230 0.743792 0.771897
O O3 0.371260 0.745205 0.574789
O O4 0.593366 0.683594 0.936827
O O5 0.500000 0.196962 0.500000
O O6 0.276044 0.198614 0.290089
O O7 0.300834 0.263428 0.145149
O O8 0.341614 0.000000 0.256051
O O9 0.160693 0.165134 0.469002
O O10 0.127574 0.207658 0.256652
O O11 0.005517 0.000000 0.184893
O O12 0.940451 0.264177 0.148612
O O13 0.240674 0.236813 0.735371
O O14 0.319341 0.000000 0.751203
O O15 0.762440 0.500000 0.199358
O O16 0.824275 0.710266 0.167264
O O17 0.717906 0.000000 0.579101
O O18 0.821180 0.500000 0.049717
#
# Coordination Sequence:
#
# PCOD9146512 Si02
#       7
#     4   4   4   4   4   4   4
#     4  10  19  33  55  82 113 146 179 220 274 331
#     4  10  21  38  61  87 113 143 179 221 273 328
#     4   9  20  39  57  77 108 143 182 226 273 323
#     4  10  21  36  57  83 109 142 184 229 273 321
#     4  10  22  37  52  77 113 149 182 223 277 327
#     4   9  19  36  58  83 111 144 182 226 273 321
#     4  11  24  39  56  80 111 146 185 228 271 321
#
# _framework density 19.638656000000001
#
# number of rings (size 3 to 8) (size 9 to 14) (size 15 to 20)
#    0.000    2.143    0.000    3.429    0.000    8.857 
#    0.000    5.714    0.000    0.000    0.000    0.000 
#    0.000    0.000    0.000    0.000    0.000    0.000 
#
# Total GULP energy -156444.288485 kJ/mol
# GULP energy per Si atom -5587.296017 kJ/mol
# Density = 1.959396 g / cm^3
# Si number density = 19.638656 Si / 1000 Ang^3
#
#
#
# Elastic Constant Matrix: (Units=GPa)
#
#
# Indices 1 2 3 4 5 6 
#
# 1 108.1644 39.3769 8.3304 0.0000 -2.8176 0.0000
# 2 39.3769 53.1901 9.4087 0.0000 -2.7896 0.0000
# 3 8.3304 9.4087 13.5686 0.0000 2.7381 0.0000
# 4 0.0000 0.0000 0.0000 370.5785 0.0000 350.9145
# 5 -2.8176 -2.7896 2.7381 0.0000 23.9844 0.0000
# 6 0.0000 0.0000 0.0000 350.9145 0.0000 388.8529
#
#
#
# Elastic Compliance Matrix: (Units=1/GPa)
#
#
# Indices 1 2 3 4 5 6 
#
# 1 0.012690 -0.009075 -0.001624 0.000000 0.000621 0.000000
# 2 -0.009075 0.028358 -0.014886 0.000000 0.003932 0.000000
# 3 -0.001624 -0.014886 0.087420 0.000000 -0.011902 0.000000
# 4 0.000000 0.000000 0.000000 0.018553 0.000000 -0.016742
# 5 0.000621 0.003932 -0.011902 0.000000 0.043583 0.000000
# 6 0.000000 0.000000 0.000000 -0.016742 0.000000 0.017681
#
#
# Mechanical properties :
#
#
# Convention : Reuss Voigt Hill
#
# Bulk Modulus (GPa) = 12.93666 32.12836 22.53251
# Shear Modulus (GPa) = 17.53037 164.53697 91.03367
#
# Velocity S-wave (km/s) = 2.99096 9.16319 6.81579
# Velocity P-wave (km/s) = 4.30458 11.32905 8.56962
#
# Compressibility (1/GPa) = 0.07729968
#
# Stress axis : x y z
#
# Youngs Moduli (GPa) = 78.80200 35.26351 11.43900
#
# Poissons Ratio (x) = 0.32001 0.01857
# Poissons Ratio (y) = 0.71511 0.17028
# Poissons Ratio (z) = 0.12794 0.52493
#
# Static dielectric constant tensor:
#      x y z
#    x 1.694580 0.000000 0.010830 
#    y 0.000000 1.654100 0.000000 
#    z 0.010830 0.000000 1.688230 
# 
# From -- ./inp_files/49554.got.cif
#   From: 2010.05.17/outbox.cif.g08.bks.cpg/sg10_25_cif.got.tgz:49554.got - 2010.06.03 11:33:40.
