data_PCOD9146457
_publ_section_title
;
Structure prediction by ZEFSAII (Michael W. Deem and Ramdas Pophale) SiO2 
 PCOD9146457
Probable space group: P 2/M
;
_chemical_formula_sum "Si O2"
_cell_formula_units_Z 32
_cell_length_a 21.528955
_cell_length_b 8.741043
_cell_length_c 26.301108
_cell_angle_alpha 90.000000
_cell_angle_beta 159.457110
_cell_angle_gamma 90.000000
_cell_volume 1736.817062
_symmetry_space_group_name_H-M "P 2/M"
_symmetry_group_IT_number 10
_symmetry_cell_setting 'monoclinic'
loop_
_space_group_symop_operation_xyz
x,y,z
-x,y,-z
-x,-y,-z
x,-y,z
loop_
_atom_site_type_symbol
_atom_site_label
_atom_site_fract_x
_atom_site_fract_y
_atom_site_fract_z
Si Si1 0.197246 0.677001 0.152623
Si Si2 0.967641 0.182829 0.140059
Si Si3 0.296058 0.814593 0.975745
Si Si4 0.697473 0.813711 0.136278
Si Si5 0.597999 0.682561 0.279512
Si Si6 0.358335 0.182600 0.181890
Si Si7 0.021926 0.185240 0.457375
Si Si8 0.692258 0.323910 0.645724
O O1 0.187680 0.500000 0.127410
O O2 0.333073 0.762784 0.220034
O O3 0.248037 0.676940 0.250165
O O4 0.000000 0.745679 0.000000
O O5 0.157616 0.249853 0.273485
O O6 0.980480 0.000000 0.149885
O O7 0.873406 0.230135 0.120215
O O8 0.826072 0.225955 0.987764
O O9 0.468812 0.746830 0.135984
O O10 0.312965 0.000000 0.990881
O O11 0.273525 0.768792 0.900080
O O12 0.852648 0.765085 0.293794
O O13 0.697235 0.000000 0.137729
O O14 0.500000 0.762840 0.000000
O O15 0.596942 0.500000 0.277324
O O16 0.512440 0.740929 0.266850
O O17 0.795027 0.745975 0.422718
O O18 0.378201 0.000000 0.194134
O O19 0.000000 0.226519 0.500000
O O20 0.032683 0.000000 0.462883
O O21 0.500000 0.248139 0.500000
O O22 0.672493 0.500000 0.613305
#
# Coordination Sequence:
#
# PCOD9146457 Si02
#       8
#     4   4   4   4   4   4   4   4
#     4  10  19  33  55  80 106 139 181 225 272 326
#     4   9  18  32  52  76 104 136 175 227 274 320
#     4   9  18  35  57  82 110 141 184 232 276 328
#     4   9  17  32  58  87 112 143 185 229 271 320
#     4  11  22  36  56  82 115 150 185 227 278 332
#     4  10  20  35  57  83 108 139 184 233 276 323
#     4  10  20  36  60  87 116 150 186 227 275 326
#     4  10  21  36  52  73 105 143 178 219 270 330
#
# _framework density 18.424509
#
# number of rings (size 3 to 8) (size 9 to 14) (size 15 to 20)
#    0.000    2.250    1.250    3.000    0.000    5.250 
#    2.250    0.625    0.000    1.500    0.000    0.000 
#    0.000    0.000    0.000    0.000    0.000    0.000 
#
# Total GULP energy -178498.953932 kJ/mol
# GULP energy per Si atom -5578.092310 kJ/mol
# Density = 1.838257 g / cm^3
# Si number density = 18.424509 Si / 1000 Ang^3
#
#
#
# Elastic Constant Matrix: (Units=GPa)
#
#
# Indices 1 2 3 4 5 6 
#
# 1 129.0971 29.7480 72.1048 0.0000 18.8968 0.0000
# 2 29.7480 30.6008 29.3306 0.0000 8.9304 0.0000
# 3 72.1048 29.3306 138.1095 0.0000 29.3165 0.0000
# 4 0.0000 0.0000 0.0000 26.6425 0.0000 7.0688
# 5 18.8968 8.9304 29.3165 0.0000 30.5545 0.0000
# 6 0.0000 0.0000 0.0000 7.0688 0.0000 2.8591
#
#
#
# Elastic Compliance Matrix: (Units=1/GPa)
#
#
# Indices 1 2 3 4 5 6 
#
# 1 0.012086 -0.007047 -0.004601 0.000000 -0.001001 0.000000
# 2 -0.007047 0.045653 -0.005160 0.000000 -0.004034 0.000000
# 3 -0.004601 -0.005160 0.012325 0.000000 -0.007472 0.000000
# 4 0.000000 0.000000 0.000000 0.109101 0.000000 -0.269738
# 5 -0.001001 -0.004034 -0.007472 0.000000 0.041695 0.000000
# 6 0.000000 0.000000 0.000000 -0.269738 0.000000 1.016644
#
#
# Mechanical properties :
#
#
# Convention : Reuss Voigt Hill
#
# Bulk Modulus (GPa) = 27.43697 62.24157 44.83927
# Shear Modulus (GPa) = 3.89630 23.11950 13.50790
#
# Velocity S-wave (km/s) = 1.45579 3.54619 2.71061
# Velocity P-wave (km/s) = 4.21303 7.11495 5.84689
#
# Compressibility (1/GPa) = 0.03644718
#
# Stress axis : x y z
#
# Youngs Moduli (GPa) = 82.73803 21.90454 81.13915
#
# Poissons Ratio (x) = 0.15437 0.37332
# Poissons Ratio (y) = 0.58309 0.41865
# Poissons Ratio (z) = 0.38068 0.11302
#
# Static dielectric constant tensor:
#      x y z
#    x 1.633570 0.000000 -0.006850 
#    y 0.000000 1.631760 0.000000 
#    z -0.006850 0.000000 1.639270 
# 
# From -- ./inp_files/93736.got.cif
#   From: 2010.05.17/outbox.cif.g08.bks.cpg/sg10_47_cif.got.tgz:93736.got - 2010.06.03 11:33:40.
