data_PCOD9146677
_publ_section_title
;
Structure prediction by ZEFSAII (Michael W. Deem and Ramdas Pophale) SiO2 
 PCOD9146677
Probable space group: P 2/M
;
_chemical_formula_sum "Si O2"
_cell_formula_units_Z 32
_cell_length_a 21.813868
_cell_length_b 8.879838
_cell_length_c 17.184108
_cell_angle_alpha 90.000000
_cell_angle_beta 152.721644
_cell_angle_gamma 90.000000
_cell_volume 1525.554361
_symmetry_space_group_name_H-M "P 2/M"
_symmetry_group_IT_number 10
_symmetry_cell_setting 'monoclinic'
loop_
_space_group_symop_operation_xyz
x,y,z
-x,y,-z
-x,-y,-z
x,-y,z
loop_
_atom_site_type_symbol
_atom_site_label
_atom_site_fract_x
_atom_site_fract_y
_atom_site_fract_z
Si Si1 0.190343 0.679746 0.840901
Si Si2 0.336510 0.676671 0.488862
Si Si3 0.120500 0.830284 0.344683
Si Si4 0.913376 0.175130 0.506709
Si Si5 0.341064 0.174272 0.329604
Si Si6 0.512040 0.316460 0.821401
Si Si7 0.361233 0.680612 0.800774
Si Si8 0.183925 0.823067 0.003524
O O1 0.180075 0.500000 0.820773
O O2 0.058435 0.752609 0.653687
O O3 0.339789 0.729478 0.984525
O O4 0.191499 0.727114 0.933320
O O5 0.353911 0.500000 0.497333
O O6 0.213796 0.711751 0.407707
O O7 0.309375 0.749844 0.375517
O O8 0.466512 0.734406 0.684151
O O9 0.103136 0.811078 0.417794
O O10 0.173357 0.000000 0.390429
O O11 0.969925 0.821031 0.143012
O O12 0.776102 0.250211 0.322771
O O13 0.916495 0.000000 0.489964
O O14 0.500000 0.181611 0.500000
O O15 0.274201 0.236003 0.175710
O O16 0.298834 0.000000 0.286079
O O17 0.513390 0.500000 0.822791
O O18 0.398387 0.270610 0.754672
O O19 0.345180 0.500000 0.785057
O O20 0.500000 0.717361 0.000000
O O21 0.216545 0.000000 0.022313
#
# Coordination Sequence:
#
# PCOD9146677 Si02
#       8
#     4   4   4   4   4   4   4   4
#     4  10  19  33  57  82 109 146 184 228 276 327
#     4  11  21  33  53  77 106 137 175 231 276 321
#     4   9  18  33  52  74 100 137 178 217 269 324
#     4  10  20  36  57  83 115 147 184 226 270 329
#     4  10  21  36  52  71 101 142 183 224 274 331
#     4   9  19  35  54  83 114 139 180 231 277 326
#     4  10  20  37  62  87 113 147 185 226 273 328
#     4   9  19  35  52  74 107 141 181 231 273 321
#
# _framework density 20.975981000000001
#
# number of rings (size 3 to 8) (size 9 to 14) (size 15 to 20)
#    0.000    2.250    1.250    2.625    0.000    3.500 
#    0.000    6.250    0.000    3.750    0.000    0.000 
#    0.000    0.000    0.000    0.000    0.000    0.000 
#
# Total GULP energy -178575.897128 kJ/mol
# GULP energy per Si atom -5580.496785 kJ/mol
# Density = 2.092824 g / cm^3
# Si number density = 20.975981 Si / 1000 Ang^3
#
#
#
# Elastic Constant Matrix: (Units=GPa)
#
#
# Indices 1 2 3 4 5 6 
#
# 1 53.1960 3.5577 23.5495 0.0000 3.6839 0.0000
# 2 3.5577 23.8454 26.4555 0.0000 6.0714 0.0000
# 3 23.5495 26.4555 137.9819 0.0000 8.7646 0.0000
# 4 0.0000 0.0000 0.0000 24.7748 0.0000 2.8978
# 5 3.6839 6.0714 8.7646 0.0000 35.2208 0.0000
# 6 0.0000 0.0000 0.0000 2.8978 0.0000 13.1953
#
#
#
# Elastic Compliance Matrix: (Units=1/GPa)
#
#
# Indices 1 2 3 4 5 6 
#
# 1 0.020427 0.001384 -0.003659 0.000000 -0.001465 0.000000
# 2 0.001384 0.054988 -0.010331 0.000000 -0.007053 0.000000
# 3 -0.003659 -0.010331 0.009871 0.000000 -0.000293 0.000000
# 4 0.000000 0.000000 0.000000 0.041428 0.000000 -0.009098
# 5 -0.001465 -0.007053 -0.000293 0.000000 0.029834 0.000000
# 6 0.000000 0.000000 0.000000 -0.009098 0.000000 0.077782
#
#
# Mechanical properties :
#
#
# Convention : Reuss Voigt Hill
#
# Bulk Modulus (GPa) = 16.64577 35.79429 26.22003
# Shear Modulus (GPa) = 17.88481 25.40222 21.64352
#
# Velocity S-wave (km/s) = 2.92316 3.48374 3.21569
# Velocity P-wave (km/s) = 4.39841 5.76917 5.12978
#
# Compressibility (1/GPa) = 0.06007531
#
# Stress axis : x y z
#
# Youngs Moduli (GPa) = 48.95502 18.18571 101.30497
#
# Poissons Ratio (x) = -0.02518 0.37064
# Poissons Ratio (y) = -0.06777 1.04661
# Poissons Ratio (z) = 0.17911 0.18788
#
# Static dielectric constant tensor:
#      x y z
#    x 1.772820 0.000000 -0.027090 
#    y 0.000000 1.720210 0.000000 
#    z -0.027090 0.000000 1.795000 
# 
# From -- ./inp_files/87015.got.cif
#   From: 2010.05.17/outbox.cif.g08.bks.cpg/sg10_44_cif.got.tgz:87015.got - 2010.06.03 11:33:40.
