data_PCOD9146084
_publ_section_title
;
Structure prediction by ZEFSAII (Michael W. Deem and Ramdas Pophale) SiO2 
 PCOD9146084
Probable space group: P 2/M
;
_chemical_formula_sum "Si O2"
_cell_formula_units_Z 32
_cell_length_a 17.713363
_cell_length_b 10.988850
_cell_length_c 17.027986
_cell_angle_alpha 90.000000
_cell_angle_beta 145.810427
_cell_angle_gamma 90.000000
_cell_volume 1862.520129
_symmetry_space_group_name_H-M "P 2/M"
_symmetry_group_IT_number 10
_symmetry_cell_setting 'monoclinic'
loop_
_space_group_symop_operation_xyz
x,y,z
-x,y,-z
-x,-y,-z
x,-y,z
loop_
_atom_site_type_symbol
_atom_site_label
_atom_site_fract_x
_atom_site_fract_y
_atom_site_fract_z
Si Si1 0.910908 0.144756 0.788516
Si Si2 0.069801 0.140962 0.381773
Si Si3 0.640530 0.856789 0.957589
Si Si4 0.648100 0.148467 0.653459
Si Si5 0.658606 0.138921 0.287815
Si Si6 0.206149 0.851470 0.063252
Si Si7 0.350616 0.297198 0.876111
Si Si8 0.055833 0.632979 0.636385
O O1 0.919841 0.158201 0.702488
O O2 0.771099 0.191051 0.703754
O O3 0.909541 0.000000 0.804180
O O4 0.053014 0.190500 0.945039
O O5 0.217311 0.151613 0.547067
O O6 0.984340 0.248632 0.347704
O O7 0.022224 0.000000 0.355124
O O8 0.486114 0.841852 0.796720
O O9 0.739984 0.811282 0.975504
O O10 0.666238 0.000000 0.990756
O O11 0.648023 0.792005 0.047580
O O12 0.500000 0.190312 0.500000
O O13 0.693534 0.182924 0.780515
O O14 0.644382 0.000000 0.647412
O O15 0.669586 0.224769 0.222389
O O16 0.658471 0.000000 0.258071
O O17 0.204273 0.000000 0.059762
O O18 0.216547 0.373074 0.771108
O O19 0.500000 0.353909 0.000000
O O20 0.004580 0.500000 0.620606
O O21 0.000000 0.650558 0.500000
#
# Coordination Sequence:
#
# PCOD9146084 Si02
#       8
#     4   4   4   4   4   4   4   4
#     4   9  17  28  43  65  93 125 163 206 246 294
#     4  10  20  33  53  77 101 132 174 213 252 297
#     4   9  17  27  45  70 101 133 168 212 259 303
#     4   9  17  26  39  60  91 131 166 196 242 303
#     4   9  17  28  44  70 101 133 166 211 255 296
#     4   9  16  26  39  58  90 131 166 199 247 301
#     4  10  19  33  50  70  95 129 173 210 252 298
#     4  11  23  38  53  73 103 136 170 210 255 300
#
# _framework density 17.181023
#
# number of rings (size 3 to 8) (size 9 to 14) (size 15 to 20)
#    0.000    2.500    1.250    1.500    1.750    5.500 
#    0.000    0.000    0.000    0.000    0.000    0.000 
#    0.000    8.500    0.000    0.000    0.000    0.500 
#
# Total GULP energy -178184.903500 kJ/mol
# GULP energy per Si atom -5568.278234 kJ/mol
# Density = 1.714192 g / cm^3
# Si number density = 17.181023 Si / 1000 Ang^3
#
#
#
# Elastic Constant Matrix: (Units=GPa)
#
#
# Indices 1 2 3 4 5 6 
#
# 1 77.1214 22.0527 34.8183 0.0000 11.7629 0.0000
# 2 22.0527 40.6134 13.6943 0.0000 5.6078 0.0000
# 3 34.8183 13.6943 112.1301 0.0000 10.9039 0.0000
# 4 0.0000 0.0000 0.0000 8.3831 0.0000 2.6938
# 5 11.7629 5.6078 10.9039 0.0000 25.0414 0.0000
# 6 0.0000 0.0000 0.0000 2.6938 0.0000 1.3161
#
#
#
# Elastic Compliance Matrix: (Units=1/GPa)
#
#
# Indices 1 2 3 4 5 6 
#
# 1 0.017725 -0.007571 -0.004108 0.000000 -0.004842 0.000000
# 2 -0.007571 0.029426 -0.000990 0.000000 -0.002603 0.000000
# 3 -0.004108 -0.000990 0.010552 0.000000 -0.002443 0.000000
# 4 0.000000 0.000000 0.000000 0.348496 0.000000 -0.713297
# 5 -0.004842 -0.002603 -0.002443 0.000000 0.043855 0.000000
# 6 0.000000 0.000000 0.000000 -0.713297 0.000000 2.219780
#
#
# Mechanical properties :
#
#
# Convention : Reuss Voigt Hill
#
# Bulk Modulus (GPa) = 30.89692 41.22171 36.05932
# Shear Modulus (GPa) = 1.84777 17.56810 9.70794
#
# Velocity S-wave (km/s) = 1.03818 3.20117 2.37963
# Velocity P-wave (km/s) = 4.41127 6.14068 5.34637
#
# Compressibility (1/GPa) = 0.03236568
#
# Stress axis : x y z
#
# Youngs Moduli (GPa) = 56.41861 33.98319 94.76484
#
# Poissons Ratio (x) = 0.25727 0.38933
# Poissons Ratio (y) = 0.42712 0.09381
# Poissons Ratio (z) = 0.23179 0.03364
#
# Static dielectric constant tensor:
#      x y z
#    x 1.586430 0.000000 0.028670 
#    y 0.000000 1.586470 0.000000 
#    z 0.028670 0.000000 1.619400 
# 
# From -- ./inp_files/34814.got.cif
#   From: 2010.05.17/outbox.cif.g08.bks.cpg/sg10_18_cif.got.tgz:34814.got - 2010.06.03 11:33:40.
