data_PCOD9146908
_publ_section_title
;
Structure prediction by ZEFSAII (Michael W. Deem and Ramdas Pophale) SiO2 
 PCOD9146908
Probable space group: P 2/M
;
_chemical_formula_sum "Si O2"
_cell_formula_units_Z 28
_cell_length_a 11.038878
_cell_length_b 14.801509
_cell_length_c 9.404357
_cell_angle_alpha 90.000000
_cell_angle_beta 66.646628
_cell_angle_gamma 90.000000
_cell_volume 1410.715345
_symmetry_space_group_name_H-M "P 2/M"
_symmetry_group_IT_number 10
_symmetry_cell_setting 'monoclinic'
loop_
_space_group_symop_operation_xyz
x,y,z
-x,y,-z
-x,-y,-z
x,-y,z
loop_
_atom_site_type_symbol
_atom_site_label
_atom_site_fract_x
_atom_site_fract_y
_atom_site_fract_z
Si Si1 0.785973 0.768956 0.587575
Si Si2 0.383370 0.393920 0.860963
Si Si3 0.928620 0.103978 0.311908
Si Si4 0.625872 0.723899 0.382143
Si Si5 0.691100 0.606545 0.781825
Si Si6 0.760940 0.105123 0.854092
Si Si7 0.315114 0.895104 0.789774
O O1 0.894628 0.829577 0.456845
O O2 0.704833 0.743064 0.486129
O O3 0.798020 0.673061 0.662307
O O4 0.722553 0.832364 0.739350
O O5 0.374968 0.500000 0.833582
O O6 0.315291 0.334992 0.771316
O O7 0.540573 0.371719 0.799782
O O8 0.318296 0.378788 0.044587
O O9 0.826002 0.116020 0.227969
O O10 0.080776 0.115917 0.199117
O O11 0.911250 0.000000 0.367976
O O12 0.500000 0.671986 0.500000
O O13 0.593098 0.820641 0.325970
O O14 0.713956 0.500000 0.744299
O O15 0.735005 0.000000 0.832458
O O16 0.697150 0.124457 0.036906
O O17 0.354187 0.000000 0.753513
#
# Coordination Sequence:
#
# PCOD9146908 Si02
#       7
#     4   4   4   4   4   4   4
#     4  11  20  30  49  78 106 133 163 204 254 304
#     4   9  18  34  54  73  96 130 171 211 247 287
#     4   9  18  33  54  78 102 128 165 215 261 292
#     4  11  21  33  48  73 107 140 165 202 250 298
#     4   9  18  33  53  75  99 129 166 208 250 293
#     4  10  19  34  55  76  98 129 173 220 253 287
#     4   9  19  34  52  74 101 136 174 205 245 301
#
# _framework density 19.848087
#
# number of rings (size 3 to 8) (size 9 to 14) (size 15 to 20)
#    0.000    2.286    1.429    3.000    0.000    4.571 
#    0.000    0.000    0.000    3.429    0.000    0.000 
#    0.000   17.143    0.000    0.000    0.000    0.000 
#
# Total GULP energy -155943.465910 kJ/mol
# GULP energy per Si atom -5569.409497 kJ/mol
# Density = 1.980291 g / cm^3
# Si number density = 19.848087 Si / 1000 Ang^3
#
#
#
# Elastic Constant Matrix: (Units=GPa)
#
#
# Indices 1 2 3 4 5 6 
#
# 1 22.3369 -0.1015 8.6601 0.0000 21.5679 0.0000
# 2 -0.1015 64.0501 59.4585 0.0000 13.8132 0.0000
# 3 8.6601 59.4585 109.4158 0.0000 25.4736 0.0000
# 4 0.0000 0.0000 0.0000 13.6690 0.0000 23.1368
# 5 21.5679 13.8132 25.4736 0.0000 31.6341 0.0000
# 6 0.0000 0.0000 0.0000 23.1368 0.0000 67.9917
#
#
#
# Elastic Compliance Matrix: (Units=1/GPa)
#
#
# Indices 1 2 3 4 5 6 
#
# 1 0.165077 0.024887 0.002638 0.000000 -0.125540 0.000000
# 2 0.024887 0.035259 -0.016732 0.000000 -0.018890 0.000000
# 3 0.002638 -0.016732 0.020604 0.000000 -0.011084 0.000000
# 4 0.000000 0.000000 0.000000 0.172540 0.000000 -0.058713
# 5 -0.125540 -0.018890 -0.011084 0.000000 0.134377 0.000000
# 6 0.000000 0.000000 0.000000 -0.058713 0.000000 0.034687
#
#
# Mechanical properties :
#
#
# Convention : Reuss Voigt Hill
#
# Bulk Modulus (GPa) = 4.12329 36.87079 20.49704
# Shear Modulus (GPa) = 8.04117 31.17800 19.60958
#
# Velocity S-wave (km/s) = 2.01498 3.96767 3.14663
# Velocity P-wave (km/s) = 2.73779 6.29339 4.85295
#
# Compressibility (1/GPa) = 0.24252452
#
# Stress axis : x y z
#
# Youngs Moduli (GPa) = 6.05778 28.36180 48.53513
#
# Poissons Ratio (x) = -0.70583 -0.12803
# Poissons Ratio (y) = -0.15076 0.81210
# Poissons Ratio (z) = -0.01598 0.47455
#
# Static dielectric constant tensor:
#      x y z
#    x 1.746590 0.000000 0.015680 
#    y 0.000000 1.720310 0.000000 
#    z 0.015680 0.000000 1.681410 
# 
# From -- ./inp_files/24912.got.cif
#   From: 2010.05.17/outbox.cif.g08.bks.cpg/sg10_13_cif.got.tgz:24912.got - 2010.06.03 11:33:40.
