data_PCOD9146230
_publ_section_title
;
Structure prediction by ZEFSAII (Michael W. Deem and Ramdas Pophale) SiO2 
 PCOD9146230
Probable space group: P 2/M
;
_chemical_formula_sum "Si O2"
_cell_formula_units_Z 32
_cell_length_a 14.461008
_cell_length_b 12.898923
_cell_length_c 13.284576
_cell_angle_alpha 90.000000
_cell_angle_beta 140.104325
_cell_angle_gamma 90.000000
_cell_volume 1589.362871
_symmetry_space_group_name_H-M "P 2/M"
_symmetry_group_IT_number 10
_symmetry_cell_setting 'monoclinic'
loop_
_space_group_symop_operation_xyz
x,y,z
-x,y,-z
-x,-y,-z
x,-y,z
loop_
_atom_site_type_symbol
_atom_site_label
_atom_site_fract_x
_atom_site_fract_y
_atom_site_fract_z
Si Si1 0.957224 0.114076 0.710707
Si Si2 0.159622 0.800405 0.592841
Si Si3 0.472899 0.115807 0.596102
Si Si4 0.832283 0.377173 0.892213
Si Si5 0.330026 0.381728 0.633884
Si Si6 0.279854 0.885227 0.895298
Si Si7 0.630625 0.734072 0.868276
Si Si8 0.775832 0.721414 0.641708
O O1 0.872622 0.134343 0.535098
O O2 0.920528 0.210804 0.751505
O O3 0.124843 0.113323 0.822008
O O4 0.919198 0.000000 0.720463
O O5 0.250610 0.699106 0.640632
O O6 0.243408 0.863041 0.748711
O O7 0.000000 0.772452 0.500000
O O8 0.500000 0.108931 0.500000
O O9 0.597083 0.171764 0.762933
O O10 0.339101 0.192846 0.489077
O O11 0.446992 0.000000 0.613169
O O12 0.804498 0.500000 0.873306
O O13 0.770473 0.325117 0.941889
O O14 0.749843 0.323532 0.729828
O O15 0.000000 0.364502 0.000000
O O16 0.326649 0.500000 0.664954
O O17 0.494224 0.343536 0.754159
O O18 0.242414 0.368510 0.455555
O O19 0.346143 0.000000 0.962283
O O20 0.359599 0.790183 0.015641
#
# Coordination Sequence:
#
# PCOD9146230 Si02
#       8
#     4   4   4   4   4   4   4   4
#     4   9  17  32  57  87 115 144 179 221 273 331
#     4   9  19  37  60  86 114 142 179 224 274 335
#     4  10  19  33  53  77 108 144 178 220 270 321
#     4  11  23  38  56  78 108 148 190 232 278 322
#     4  10  22  38  59  83 108 143 188 234 278 322
#     4  10  20  36  58  83 114 148 180 222 275 334
#     4  11  22  38  55  81 114 146 187 231 272 324
#     4  10  19  35  56  82 109 143 185 229 270 326
#
# _framework density 20.133855000000001
#
# number of rings (size 3 to 8) (size 9 to 14) (size 15 to 20)
#    0.000    2.000    1.250    2.625    0.000    2.250 
#    0.000    6.250    0.000    3.750    0.000    0.000 
#    0.000    0.000    0.000    0.000    0.000    0.000 
#
# Total GULP energy -178463.107289 kJ/mol
# GULP energy per Si atom -5576.972103 kJ/mol
# Density = 2.008803 g / cm^3
# Si number density = 20.133855 Si / 1000 Ang^3
#
#
#
# Elastic Constant Matrix: (Units=GPa)
#
#
# Indices 1 2 3 4 5 6 
#
# 1 48.1966 14.2675 -3.3024 0.0000 4.3401 0.0000
# 2 14.2675 116.9622 18.7042 0.0000 9.5904 0.0000
# 3 -3.3024 18.7042 27.4119 0.0000 0.4268 0.0000
# 4 0.0000 0.0000 0.0000 17.3293 0.0000 1.7102
# 5 4.3401 9.5904 0.4268 0.0000 24.7718 0.0000
# 6 0.0000 0.0000 0.0000 1.7102 0.0000 23.0560
#
#
#
# Elastic Compliance Matrix: (Units=1/GPa)
#
#
# Indices 1 2 3 4 5 6 
#
# 1 0.022310 -0.003295 0.004978 0.000000 -0.002719 0.000000
# 2 -0.003295 0.010416 -0.007453 0.000000 -0.003327 0.000000
# 3 0.004978 -0.007453 0.042145 0.000000 0.001287 0.000000
# 4 0.000000 0.000000 0.000000 0.058131 0.000000 -0.004312
# 5 -0.002719 -0.003327 0.001287 0.000000 0.042111 0.000000
# 6 0.000000 0.000000 0.000000 -0.004312 0.000000 0.043692
#
#
# Mechanical properties :
#
#
# Convention : Reuss Voigt Hill
#
# Bulk Modulus (GPa) = 15.78956 27.98995 21.88975
# Shear Modulus (GPa) = 19.88430 23.89151 21.88790
#
# Velocity S-wave (km/s) = 3.14603 3.44849 3.30073
# Velocity P-wave (km/s) = 4.58868 5.45786 5.04203
#
# Compressibility (1/GPa) = 0.06333299
#
# Stress axis : x y z
#
# Youngs Moduli (GPa) = 44.82383 96.00395 23.72745
#
# Poissons Ratio (x) = 0.31629 -0.11812
# Poissons Ratio (y) = 0.14767 0.17683
# Poissons Ratio (z) = -0.22313 0.71547
#
# Static dielectric constant tensor:
#      x y z
#    x 1.737130 0.000000 0.033890 
#    y 0.000000 1.711150 0.000000 
#    z 0.033890 0.000000 1.747370 
# 
# From -- ./inp_files/67359.got.cif
#   From: 2010.05.17/outbox.cif.g08.bks.cpg/sg10_34_cif.got.tgz:67359.got - 2010.06.03 11:33:40.
