data_PCOD9146217
_publ_section_title
;
Structure prediction by ZEFSAII (Michael W. Deem and Ramdas Pophale) SiO2 
 PCOD9146217
Probable space group: P 2/M
;
_chemical_formula_sum "Si O2"
_cell_formula_units_Z 28
_cell_length_a 16.303025
_cell_length_b 19.779329
_cell_length_c 9.493468
_cell_angle_alpha 90.000000
_cell_angle_beta 151.139547
_cell_angle_gamma 90.000000
_cell_volume 1477.617904
_symmetry_space_group_name_H-M "P 2/M"
_symmetry_group_IT_number 10
_symmetry_cell_setting 'monoclinic'
loop_
_space_group_symop_operation_xyz
x,y,z
-x,y,-z
-x,-y,-z
x,-y,z
loop_
_atom_site_type_symbol
_atom_site_label
_atom_site_fract_x
_atom_site_fract_y
_atom_site_fract_z
Si Si1 0.686348 0.836943 0.853933
Si Si2 0.464522 0.685114 0.782510
Si Si3 0.680361 0.682303 0.850528
Si Si4 0.964075 0.422749 0.281849
Si Si5 0.818378 0.423023 0.649833
Si Si6 0.176324 0.919490 0.186725
Si Si7 0.474784 0.843671 0.795727
O O1 0.500000 0.840315 0.500000
O O2 0.743431 0.759165 0.928739
O O3 0.804414 0.884673 0.937637
O O4 0.643206 0.853913 0.951792
O O5 0.629683 0.671175 0.936940
O O6 0.315498 0.634385 0.513904
O O7 0.423777 0.764566 0.697110
O O8 0.500000 0.675985 0.000000
O O9 0.500000 0.676155 0.500000
O O10 0.820628 0.629090 0.017401
O O11 0.904106 0.500000 0.171420
O O12 0.000000 0.412276 0.500000
O O13 0.131584 0.415661 0.439143
O O14 0.756111 0.500000 0.581554
O O15 0.000000 0.416277 0.000000
O O16 0.328078 0.890379 0.511376
O O17 0.192348 0.000000 0.196083
O O18 0.000000 0.903932 0.000000
O O19 0.500000 0.854497 0.000000
#
# Coordination Sequence:
#
# PCOD9146217 Si02
#       7
#     4   4   4   4   4   4   4
#     4   8  17  34  54  77 106 139 174 213 258 311
#     4  10  20  34  53  77 104 133 171 219 263 307
#     4  10  19  33  53  76  99 129 175 219 254 300
#     4  10  21  35  49  70 103 138 171 211 261 313
#     4  10  21  35  50  72 102 137 178 219 261 311
#     4  10  21  37  57  82 109 138 174 211 251 307
#     4   9  19  35  55  81 109 138 175 216 260 312
#
# _framework density 18.949418999999999
#
# number of rings (size 3 to 8) (size 9 to 14) (size 15 to 20)
#    0.000    2.429    0.000    2.571    0.000    5.714 
#    0.000    0.714    0.000    1.714    0.000    0.000 
#    0.000    0.000    0.000    0.000    0.000    0.000 
#
# Total GULP energy -156190.833191 kJ/mol
# GULP energy per Si atom -5578.244043 kJ/mol
# Density = 1.890629 g / cm^3
# Si number density = 18.949419 Si / 1000 Ang^3
#
#
#
# Elastic Constant Matrix: (Units=GPa)
#
#
# Indices 1 2 3 4 5 6 
#
# 1 127.4786 68.2939 27.4086 0.0000 -6.3366 0.0000
# 2 68.2939 106.7685 46.8330 0.0000 22.2724 0.0000
# 3 27.4086 46.8330 29.1836 0.0000 4.1701 0.0000
# 4 0.0000 0.0000 0.0000 47.3636 0.0000 -0.8665
# 5 -6.3366 22.2724 4.1701 0.0000 28.7742 0.0000
# 6 0.0000 0.0000 0.0000 -0.8665 0.0000 29.2892
#
#
#
# Elastic Compliance Matrix: (Units=1/GPa)
#
#
# Indices 1 2 3 4 5 6 
#
# 1 0.016970 -0.022121 0.016932 0.000000 0.018406 0.000000
# 2 -0.022121 0.072319 -0.088416 0.000000 -0.048036 0.000000
# 3 0.016932 -0.088416 0.153110 0.000000 0.049977 0.000000
# 4 0.000000 0.000000 0.000000 0.021125 0.000000 0.000625
# 5 0.018406 -0.048036 0.049977 0.000000 0.068746 0.000000
# 6 0.000000 0.000000 0.000000 0.000625 0.000000 0.034161
#
#
# Mechanical properties :
#
#
# Convention : Reuss Voigt Hill
#
# Bulk Modulus (GPa) = 18.11988 60.94462 39.53225
# Shear Modulus (GPa) = 8.74070 29.14508 18.94289
#
# Velocity S-wave (km/s) = 2.15004 3.92605 3.16516
# Velocity P-wave (km/s) = 3.96819 7.26522 5.85363
#
# Compressibility (1/GPa) = 0.05518801
#
# Stress axis : x y z
#
# Youngs Moduli (GPa) = 58.92790 13.82762 6.53125
#
# Poissons Ratio (x) = 0.30588 -0.11058
# Poissons Ratio (y) = 1.30355 0.57747
# Poissons Ratio (z) = -0.99774 1.22258
#
# Static dielectric constant tensor:
#      x y z
#    x 1.714440 0.000000 -0.040860 
#    y 0.000000 1.641580 0.000000 
#    z -0.040860 0.000000 1.643460 
# 
# From -- ./inp_files/30488.got.cif
#   From: 2010.05.17/outbox.cif.g08.bks.cpg/sg10_16_cif.got.tgz:30488.got - 2010.06.03 11:33:40.
