data_PCOD9146680
_publ_section_title
;
Structure prediction by ZEFSAII (Michael W. Deem and Ramdas Pophale) SiO2 
 PCOD9146680
Probable space group: P 2/M
;
_chemical_formula_sum "Si O2"
_cell_formula_units_Z 32
_cell_length_a 31.254589
_cell_length_b 8.972428
_cell_length_c 13.310293
_cell_angle_alpha 90.000000
_cell_angle_beta 152.938882
_cell_angle_gamma 90.000000
_cell_volume 1698.111367
_symmetry_space_group_name_H-M "P 2/M"
_symmetry_group_IT_number 10
_symmetry_cell_setting 'monoclinic'
loop_
_space_group_symop_operation_xyz
x,y,z
-x,y,-z
-x,-y,-z
x,-y,z
loop_
_atom_site_type_symbol
_atom_site_label
_atom_site_fract_x
_atom_site_fract_y
_atom_site_fract_z
Si Si1 0.122802 0.821753 0.054619
Si Si2 0.396958 0.181922 0.323882
Si Si3 0.077846 0.677710 0.382534
Si Si4 0.655137 0.669255 0.132044
Si Si5 0.821819 0.324564 0.620146
Si Si6 0.750919 0.824246 0.154106
Si Si7 0.544320 0.672226 0.194155
Si Si8 0.683907 0.178998 0.631743
O O1 0.150986 0.767998 0.225575
O O2 0.207389 0.777997 0.156145
O O3 0.114154 0.000000 0.035997
O O4 0.024191 0.748557 0.820120
O O5 0.500000 0.231747 0.500000
O O6 0.367421 0.231241 0.373796
O O7 0.399827 0.000000 0.329842
O O8 0.312527 0.225799 0.072389
O O9 0.073329 0.500000 0.380027
O O10 0.117638 0.713507 0.353218
O O11 0.152099 0.740935 0.618388
O O12 0.682987 0.500000 0.157948
O O13 0.714214 0.695030 0.357765
O O14 0.687196 0.787769 0.117872
O O15 0.544810 0.671990 0.917937
O O16 0.836841 0.500000 0.673577
O O17 0.768534 0.000000 0.181909
O O18 0.572267 0.500000 0.232885
O O19 0.627945 0.759524 0.419435
O O20 0.500000 0.736373 0.000000
O O21 0.679974 0.000000 0.623448
#
# Coordination Sequence:
#
# PCOD9146680 Si02
#       8
#     4   4   4   4   4   4   4   4
#     4  11  22  34  51  77 108 140 177 224 270 313
#     4   9  18  35  59  83 107 138 174 214 264 319
#     4  10  21  37  56  77 106 143 179 218 264 315
#     4   9  18  32  50  75 108 141 173 215 265 315
#     4   9  18  33  53  76 105 144 181 212 258 317
#     4  10  19  33  57  83 104 132 174 221 266 312
#     4  10  20  34  52  75 106 145 183 214 252 311
#     4  10  22  38  54  78 110 140 177 224 270 317
#
# _framework density 18.844463999999999
#
# number of rings (size 3 to 8) (size 9 to 14) (size 15 to 20)
#    0.000    2.250    0.000    3.750    0.000    7.750 
#    0.000    1.875    0.000    7.125    0.000    0.000 
#    0.000    0.000    0.000    0.000    0.000    0.000 
#
# Total GULP energy -178557.949749 kJ/mol
# GULP energy per Si atom -5579.935930 kJ/mol
# Density = 1.880157 g / cm^3
# Si number density = 18.844464 Si / 1000 Ang^3
#
#
#
# Elastic Constant Matrix: (Units=GPa)
#
#
# Indices 1 2 3 4 5 6 
#
# 1 85.8444 28.0060 59.6783 0.0000 7.5070 0.0000
# 2 28.0060 27.5734 32.7936 0.0000 5.2561 0.0000
# 3 59.6783 32.7936 117.6306 0.0000 8.1536 0.0000
# 4 0.0000 0.0000 0.0000 45.3442 0.0000 -8.3713
# 5 7.5070 5.2561 8.1536 0.0000 34.0324 0.0000
# 6 0.0000 0.0000 0.0000 -8.3713 0.0000 21.8494
#
#
#
# Elastic Compliance Matrix: (Units=1/GPa)
#
#
# Indices 1 2 3 4 5 6 
#
# 1 0.020625 -0.012567 -0.006894 0.000000 -0.000957 0.000000
# 2 -0.012567 0.062708 -0.010806 0.000000 -0.004324 0.000000
# 3 -0.006894 -0.010806 0.015040 0.000000 -0.000414 0.000000
# 4 0.000000 0.000000 0.000000 0.023732 0.000000 0.009093
# 5 -0.000957 -0.004324 -0.000414 0.000000 0.030362 0.000000
# 6 0.000000 0.000000 0.000000 0.009093 0.000000 0.049252
#
#
# Mechanical properties :
#
#
# Convention : Reuss Voigt Hill
#
# Bulk Modulus (GPa) = 26.42865 52.44489 39.43677
# Shear Modulus (GPa) = 18.19062 27.61657 22.90359
#
# Velocity S-wave (km/s) = 3.11030 3.83234 3.49004
# Velocity P-wave (km/s) = 5.19170 6.89008 6.10029
#
# Compressibility (1/GPa) = 0.03783773
#
# Stress axis : x y z
#
# Youngs Moduli (GPa) = 48.48405 15.94700 66.48857
#
# Poissons Ratio (x) = 0.20041 0.45838
# Poissons Ratio (y) = 0.60931 0.71851
# Poissons Ratio (z) = 0.33426 0.17233
#
# Static dielectric constant tensor:
#      x y z
#    x 1.678870 0.000000 0.010620 
#    y 0.000000 1.636550 0.000000 
#    z 0.010620 0.000000 1.647260 
# 
# From -- ./inp_files/58199.got.cif
#   From: 2010.05.17/outbox.cif.g08.bks.cpg/sg10_30_cif.got.tgz:58199.got - 2010.06.03 11:33:40.
