data_PCOD9146570
_publ_section_title
;
Structure prediction by ZEFSAII (Michael W. Deem and Ramdas Pophale) SiO2 
 PCOD9146570
Probable space group: P 2/M
;
_chemical_formula_sum "Si O2"
_cell_formula_units_Z 24
_cell_length_a 17.008222
_cell_length_b 8.589903
_cell_length_c 30.634776
_cell_angle_alpha 90.000000
_cell_angle_beta 17.581343
_cell_angle_gamma 90.000000
_cell_volume 1351.930515
_symmetry_space_group_name_H-M "P 2/M"
_symmetry_group_IT_number 10
_symmetry_cell_setting 'monoclinic'
loop_
_space_group_symop_operation_xyz
x,y,z
-x,y,-z
-x,-y,-z
x,-y,z
loop_
_atom_site_type_symbol
_atom_site_label
_atom_site_fract_x
_atom_site_fract_y
_atom_site_fract_z
Si Si1 0.679617 0.686782 0.445615
Si Si2 0.147418 0.686875 0.308896
Si Si3 0.276624 0.187367 0.836677
Si Si4 0.286246 0.312950 0.330888
Si Si5 0.576694 0.186962 0.594049
Si Si6 0.250927 0.813079 0.160622
O O1 0.500000 0.735341 0.500000
O O2 0.697406 0.500000 0.436520
O O3 0.555584 0.742636 0.556963
O O4 0.973608 0.753394 0.288980
O O5 0.121910 0.500000 0.320945
O O6 0.295652 0.729545 0.274816
O O7 0.274408 0.746417 0.197099
O O8 0.858264 0.758999 0.462747
O O9 0.496932 0.235435 0.754272
O O10 0.363844 0.239420 0.742145
O O11 0.264889 0.000000 0.841211
O O12 0.000000 0.247399 0.000000
O O13 0.310876 0.500000 0.321510
O O14 0.000000 0.270781 0.500000
O O15 0.574378 0.000000 0.592009
O O16 0.239948 0.000000 0.168517
O O17 0.500000 0.767012 0.000000
#
# Coordination Sequence:
#
# PCOD9146570 Si02
#       6
#     4   4   4   4   4   4
#     4  10  21  37  58  82 107 140 181 223 268 321
#     4  10  19  33  56  82 109 140 179 223 266 315
#     4  10  22  38  54  78 112 146 180 220 268 318
#     4  10  20  35  56  82 109 139 180 223 263 316
#     4  10  19  33  56  80 106 142 182 221 267 317
#     4  10  21  37  57  82 111 142 177 220 271 321
#
# _framework density 17.752392
#
# number of rings (size 3 to 8) (size 9 to 14) (size 15 to 20)
#    0.000    2.000    1.667    4.000    0.000    5.333 
#    3.000    0.000    0.000    0.000    0.000    0.000 
#    0.000    0.000    0.000    0.000    0.000    0.000 
#
# Total GULP energy -133939.738776 kJ/mol
# GULP energy per Si atom -5580.822449 kJ/mol
# Density = 1.771199 g / cm^3
# Si number density = 17.752392 Si / 1000 Ang^3
#
#
#
# Elastic Constant Matrix: (Units=GPa)
#
#
# Indices 1 2 3 4 5 6 
#
# 1 130.6283 17.1395 67.0189 0.0000 11.5801 0.0000
# 2 17.1395 26.3795 18.0030 0.0000 6.0488 0.0000
# 3 67.0189 18.0030 140.6485 0.0000 19.7915 0.0000
# 4 0.0000 0.0000 0.0000 1.8239 0.0000 -3.2138
# 5 11.5801 6.0488 19.7915 0.0000 21.2330 0.0000
# 6 0.0000 0.0000 0.0000 -3.2138 0.0000 27.6097
#
#
#
# Elastic Compliance Matrix: (Units=1/GPa)
#
#
# Indices 1 2 3 4 5 6 
#
# 1 0.010460 -0.003643 -0.004444 0.000000 -0.000525 0.000000
# 2 -0.003643 0.043994 -0.002775 0.000000 -0.007959 0.000000
# 3 -0.004444 -0.002775 0.010509 0.000000 -0.006581 0.000000
# 4 0.000000 0.000000 0.000000 0.689720 0.000000 0.080283
# 5 -0.000525 -0.007959 -0.006581 0.000000 0.055784 0.000000
# 6 0.000000 0.000000 0.000000 0.080283 0.000000 0.045564
#
#
# Mechanical properties :
#
#
# Convention : Reuss Voigt Hill
#
# Bulk Modulus (GPa) = 23.12765 55.77543 39.45154
# Shear Modulus (GPa) = 5.60432 23.16634 14.38533
#
# Velocity S-wave (km/s) = 1.77871 3.61636 2.84972
# Velocity P-wave (km/s) = 4.15627 6.99458 5.75320
#
# Compressibility (1/GPa) = 0.04323828
#
# Stress axis : x y z
#
# Youngs Moduli (GPa) = 95.60444 22.73019 95.15852
#
# Poissons Ratio (x) = 0.08280 0.42288
# Poissons Ratio (y) = 0.34828 0.26411
# Poissons Ratio (z) = 0.42486 0.06309
#
# Static dielectric constant tensor:
#      x y z
#    x 1.593970 0.000000 0.023680 
#    y 0.000000 1.601220 0.000000 
#    z 0.023680 0.000000 1.605730 
# 
# From -- ./inp_files/95401.got.cif
#   From: 2010.05.17/outbox.cif.g08.bks.cpg/sg10_48_cif.got.tgz:95401.got - 2010.06.03 11:33:40.
