data_PCOD9146748
_publ_section_title
;
Structure prediction by ZEFSAII (Michael W. Deem and Ramdas Pophale) SiO2 
 PCOD9146748
Probable space group: P 2/M
;
_chemical_formula_sum "Si O2"
_cell_formula_units_Z 28
_cell_length_a 11.190960
_cell_length_b 14.032154
_cell_length_c 20.474445
_cell_angle_alpha 90.000000
_cell_angle_beta 155.059777
_cell_angle_gamma 90.000000
_cell_volume 1355.748330
_symmetry_space_group_name_H-M "P 2/M"
_symmetry_group_IT_number 10
_symmetry_cell_setting 'monoclinic'
loop_
_space_group_symop_operation_xyz
x,y,z
-x,y,-z
-x,-y,-z
x,-y,z
loop_
_atom_site_type_symbol
_atom_site_label
_atom_site_fract_x
_atom_site_fract_y
_atom_site_fract_z
Si Si1 0.310591 0.603721 0.184047
Si Si2 0.659069 0.111982 0.324529
Si Si3 0.223327 0.391281 0.910169
Si Si4 0.393886 0.221894 0.314751
Si Si5 0.834473 0.892928 0.687608
Si Si6 0.447823 0.290044 0.815254
Si Si7 0.943241 0.722296 0.662923
O O1 0.399317 0.500000 0.252994
O O2 0.284183 0.686420 0.223269
O O3 0.520048 0.640815 0.231109
O O4 0.000000 0.595925 0.000000
O O5 0.531074 0.151468 0.328996
O O6 0.547541 0.183396 0.212609
O O7 0.000000 0.121888 0.500000
O O8 0.594264 0.000000 0.282385
O O9 0.165205 0.500000 0.903210
O O10 0.983247 0.348690 0.743682
O O11 0.500000 0.393883 0.000000
O O12 0.314908 0.323451 0.015172
O O13 0.175936 0.160941 0.248858
O O14 0.631762 0.265337 0.480426
O O15 0.500000 0.896736 0.500000
O O16 0.007703 0.827594 0.723524
O O17 0.938655 0.000000 0.742759
O O18 0.155058 0.302404 0.709437
#
# Coordination Sequence:
#
# PCOD9146748 Si02
#       7
#     4   4   4   4   4   4   4
#     4  10  23  40  61  85 115 160 201 240 298 362
#     4  10  19  33  59  87 115 153 192 242 299 350
#     4   9  19  35  56  79 111 154 190 230 295 358
#     4  10  20  37  60  87 121 154 195 252 296 347
#     4   9  19  35  57  85 118 158 194 232 293 358
#     4  10  20  37  59  84 119 150 195 245 293 351
#     4  10  20  35  58  90 116 148 196 250 294 349
#
# _framework density 20.652802000000001
#
# number of rings (size 3 to 8) (size 9 to 14) (size 15 to 20)
#    0.000    2.286    1.429    0.857    2.000    2.286 
#    0.000    1.429    0.000    7.286    0.000    0.000 
#    0.000    0.000    0.000    0.000    0.000    0.000 
#
# Total GULP energy -156242.115976 kJ/mol
# GULP energy per Si atom -5580.075571 kJ/mol
# Density = 2.060580 g / cm^3
# Si number density = 20.652802 Si / 1000 Ang^3
#
#
#
# Elastic Constant Matrix: (Units=GPa)
#
#
# Indices 1 2 3 4 5 6 
#
# 1 63.3889 28.4865 8.6841 0.0000 -1.0171 0.0000
# 2 28.4865 167.1170 45.8670 0.0000 -16.9892 0.0000
# 3 8.6841 45.8670 50.6857 0.0000 -21.2815 0.0000
# 4 0.0000 0.0000 0.0000 24.8672 0.0000 -11.2026
# 5 -1.0171 -16.9892 -21.2815 0.0000 29.8334 0.0000
# 6 0.0000 0.0000 0.0000 -11.2026 0.0000 -19.4708
#
#
#
# Elastic Compliance Matrix: (Units=1/GPa)
#
#
# Indices 1 2 3 4 5 6 
#
# 1 0.017162 -0.002785 -0.001200 0.000000 -0.001857 0.000000
# 2 -0.002785 0.008429 -0.007387 0.000000 -0.000565 0.000000
# 3 -0.001200 -0.007387 0.035456 0.000000 0.021045 0.000000
# 4 0.000000 0.000000 0.000000 0.031936 0.000000 -0.018375
# 5 -0.001857 -0.000565 0.021045 0.000000 0.048147 0.000000
# 6 0.000000 0.000000 0.000000 -0.018375 0.000000 -0.040787
#
#
# Mechanical properties :
#
#
# Convention : Reuss Voigt Hill
#
# Bulk Modulus (GPa) = 26.10808 49.69632 37.90220
# Shear Modulus (GPa) = 36.80438 20.25620 28.53029
#
# Velocity S-wave (km/s) = 4.22602 3.13517 3.72078
# Velocity P-wave (km/s) = 6.03996 6.10087 6.07050
#
# Compressibility (1/GPa) = 0.03830233
#
# Stress axis : x y z
#
# Youngs Moduli (GPa) = 58.26930 118.64321 28.20396
#
# Poissons Ratio (x) = 0.33040 0.03384
# Poissons Ratio (y) = 0.16227 0.20835
# Poissons Ratio (z) = 0.06992 0.87646
#
# Static dielectric constant tensor:
#      x y z
#    x 1.769490 0.000000 -0.011400 
#    y 0.000000 1.750730 0.000000 
#    z -0.011400 0.000000 1.751060 
# 
# From -- ./inp_files/55810.got.cif
#   From: 2010.05.17/outbox.cif.g08.bks.cpg/sg10_28_cif.got.tgz:55810.got - 2010.06.03 11:33:40.
