data_PCOD9146258
_publ_section_title
;
Structure prediction by ZEFSAII (Michael W. Deem and Ramdas Pophale) SiO2 
 PCOD9146258
Probable space group: P 2/M
;
_chemical_formula_sum "Si O2"
_cell_formula_units_Z 32
_cell_length_a 14.991563
_cell_length_b 7.740062
_cell_length_c 12.728084
_cell_angle_alpha 90.000000
_cell_angle_beta 89.086718
_cell_angle_gamma 90.000000
_cell_volume 1476.723588
_symmetry_space_group_name_H-M "P 2/M"
_symmetry_group_IT_number 10
_symmetry_cell_setting 'monoclinic'
loop_
_space_group_symop_operation_xyz
x,y,z
-x,y,-z
-x,-y,-z
x,-y,z
loop_
_atom_site_type_symbol
_atom_site_label
_atom_site_fract_x
_atom_site_fract_y
_atom_site_fract_z
Si Si1 0.718611 0.799166 0.387855
Si Si2 0.967100 0.705944 0.886918
Si Si3 0.148592 0.790753 0.795879
Si Si4 0.221822 0.298984 0.191470
Si Si5 0.519958 0.697044 0.340216
Si Si6 0.725449 0.794064 0.028426
Si Si7 0.465941 0.206224 0.887406
Si Si8 0.670015 0.702753 0.613746
O O1 0.788915 0.729044 0.300935
O O2 0.615794 0.785001 0.351910
O O3 0.720462 0.717637 0.502965
O O4 0.739611 0.000000 0.400330
O O5 0.955186 0.500000 0.900942
O O6 0.046150 0.737429 0.802285
O O7 0.873317 0.776796 0.844665
O O8 0.000000 0.776787 0.000000
O O9 0.153976 0.000000 0.796885
O O10 0.191552 0.728862 0.905263
O O11 0.205135 0.500000 0.217701
O O12 0.281478 0.287551 0.085624
O O13 0.273115 0.222244 0.290576
O O14 0.534151 0.500000 0.375846
O O15 0.497929 0.704014 0.216505
O O16 0.431154 0.774103 0.395115
O O17 0.732383 0.000000 0.011669
O O18 0.639778 0.766495 0.102396
O O19 0.484197 0.000000 0.878250
O O20 0.500000 0.264869 0.000000
O O21 0.655262 0.500000 0.637382
#
# Coordination Sequence:
#
# PCOD9146258 Si02
#       8
#     4   4   4   4   4   4   4   4
#     4  11  23  41  62  84 113 150 196 240 281 335
#     4  10  20  35  58  88 115 145 188 230 277 342
#     4  10  21  37  57  83 114 145 182 234 285 332
#     4  10  21  38  58  83 118 151 185 235 285 340
#     4  11  22  36  57  84 115 150 193 240 284 338
#     4  10  19  33  53  80 114 148 185 229 281 338
#     4  10  20  34  52  78 116 156 193 235 281 335
#     4  10  23  41  58  82 116 152 191 236 287 335
#
# _framework density 21.669592999999999
#
# number of rings (size 3 to 8) (size 9 to 14) (size 15 to 20)
#    0.000    1.750    2.500    1.875    0.000    5.500 
#    0.000    0.625    0.000    3.750    0.000    0.000 
#    0.000    0.000    0.000    0.000    0.000    0.000 
#
# Total GULP energy -178697.971102 kJ/mol
# GULP energy per Si atom -5584.311597 kJ/mol
# Density = 2.162027 g / cm^3
# Si number density = 21.669593 Si / 1000 Ang^3
#
#
#
# Elastic Constant Matrix: (Units=GPa)
#
#
# Indices 1 2 3 4 5 6 
#
# 1 82.9859 9.3012 42.1535 0.0000 -10.6058 0.0000
# 2 9.3012 26.5966 -6.2696 0.0000 2.2075 0.0000
# 3 42.1535 -6.2696 122.4634 0.0000 -11.0066 0.0000
# 4 0.0000 0.0000 0.0000 24.4557 0.0000 -3.5255
# 5 -10.6058 2.2075 -11.0066 0.0000 28.7198 0.0000
# 6 0.0000 0.0000 0.0000 -3.5255 0.0000 11.9908
#
#
#
# Elastic Compliance Matrix: (Units=1/GPa)
#
#
# Indices 1 2 3 4 5 6 
#
# 1 0.016280 -0.007378 -0.005583 0.000000 0.004440 0.000000
# 2 -0.007378 0.041543 0.004282 0.000000 -0.004277 0.000000
# 3 -0.005583 0.004282 0.010452 0.000000 0.001615 0.000000
# 4 0.000000 0.000000 0.000000 0.042700 0.000000 0.012555
# 5 0.004440 -0.004277 0.001615 0.000000 0.037406 0.000000
# 6 0.000000 0.000000 0.000000 0.012555 0.000000 0.087088
#
#
# Mechanical properties :
#
#
# Convention : Reuss Voigt Hill
#
# Bulk Modulus (GPa) = 19.63927 35.82402 27.73165
# Shear Modulus (GPa) = 18.53228 25.49066 22.01147
#
# Velocity S-wave (km/s) = 2.92759 3.43349 3.19058
# Velocity P-wave (km/s) = 4.52884 5.68210 5.13793
#
# Compressibility (1/GPa) = 0.05091838
#
# Stress axis : x y z
#
# Youngs Moduli (GPa) = 61.42396 24.07126 95.67861
#
# Poissons Ratio (x) = 0.17760 0.53413
# Poissons Ratio (y) = 0.45318 -0.40970
# Poissons Ratio (z) = 0.34290 -0.10307
#
# Static dielectric constant tensor:
#      x y z
#    x 1.830570 0.000000 0.020700 
#    y 0.000000 1.796170 0.000000 
#    z 0.020700 0.000000 1.783770 
# 
# From -- ./inp_files/49972.got.cif
#   From: 2010.05.17/outbox.cif.g08.bks.cpg/sg10_25_cif.got.tgz:49972.got - 2010.06.03 11:33:40.
