data_PCOD9146558
_publ_section_title
;
Structure prediction by ZEFSAII (Michael W. Deem and Ramdas Pophale) SiO2 
 PCOD9146558
Probable space group: P 2/M
;
_chemical_formula_sum "Si O2"
_cell_formula_units_Z 29
_cell_length_a 9.469599
_cell_length_b 7.583155
_cell_length_c 26.637642
_cell_angle_alpha 90.000000
_cell_angle_beta 34.574148
_cell_angle_gamma 90.000000
_cell_volume 1085.480325
_symmetry_space_group_name_H-M "P 2/M"
_symmetry_group_IT_number 10
_symmetry_cell_setting 'monoclinic'
loop_
_space_group_symop_operation_xyz
x,y,z
-x,y,-z
-x,-y,-z
x,-y,z
loop_
_atom_site_type_symbol
_atom_site_label
_atom_site_fract_x
_atom_site_fract_y
_atom_site_fract_z
Si Si1 0.316585 0.286270 0.373134
Si Si2 0.732160 0.703148 0.088046
Si Si3 0.357797 0.798126 0.993787
Si Si4 0.261166 0.287178 0.281232
Si Si5 0.888326 0.298264 0.187130
Si Si6 0.068127 0.793670 0.718275
Si Si7 0.634682 0.794854 0.530063
Si Si8 0.500000 0.500000 0.500000
O O1 0.301281 0.500000 0.380193
O O2 0.188471 0.226078 0.358511
O O3 0.246453 0.222391 0.449254
O O4 0.606721 0.234072 0.278551
O O5 0.776364 0.500000 0.089688
O O6 0.538622 0.777279 0.184696
O O7 0.607854 0.707099 0.069424
O O8 0.000000 0.789319 0.000000
O O9 0.068709 0.794579 0.095191
O O10 0.443042 0.000000 0.962616
O O11 0.500000 0.719679 0.000000
O O12 0.271635 0.500000 0.279474
O O13 0.094620 0.235039 0.282995
O O14 0.867779 0.500000 0.176919
O O15 0.013399 0.291606 0.205737
O O16 0.348373 0.732186 0.625356
O O17 0.080935 0.000000 0.725011
O O18 0.682552 0.654599 0.472526
O O19 0.641365 0.000000 0.512519
#
# Coordination Sequence:
#
# PCOD9146558 Si02
#       8
#     4   4   4   4   4   4   4   1
#     4   9  18  36  58  86 115 149 193 240 286 338
#     4  10  21  37  53  75 106 146 199 250 296 354
#     4  11  23  35  47  69 103 141 184 240 302 357
#     4  10  20  33  57  83 111 153 199 245 298 350
#     4  10  19  33  56  76 101 141 190 244 295 345
#     4  10  21  36  55  85 120 150 191 242 288 344
#     4  10  22  39  64  97 127 159 195 234 283 339
#     4  12  22  40  72  96 132 160 188 234 274 346
#
# _framework density 26.716283000000001
#
# number of rings (size 3 to 8) (size 9 to 14) (size 15 to 20)
#    0.000    1.931    0.690    3.103    1.931    7.448 
#    0.000    1.379    0.000    1.655    0.000    2.897 
#    0.000    0.000    0.000    0.000    0.000    0.000 
#
# Total GULP energy -162101.380088 kJ/mol
# GULP energy per Si atom -5589.702762 kJ/mol
# Density = 2.665548 g / cm^3
# Si number density = 26.716283 Si / 1000 Ang^3
#
#
#
# Elastic Constant Matrix: (Units=GPa)
#
#
# Indices 1 2 3 4 5 6 
#
# 1 188.1838 3.0355 31.8097 0.0000 32.2002 0.0000
# 2 3.0355 60.1012 0.2889 0.0000 15.7648 0.0000
# 3 31.8097 0.2889 118.0482 0.0000 29.6270 0.0000
# 4 0.0000 0.0000 0.0000 -4.7263 0.0000 -1.9893
# 5 32.2002 15.7648 29.6270 0.0000 52.6471 0.0000
# 6 0.0000 0.0000 0.0000 -1.9893 0.0000 22.0405
#
#
#
# Elastic Compliance Matrix: (Units=1/GPa)
#
#
# Indices 1 2 3 4 5 6 
#
# 1 0.006021 0.000600 -0.000762 0.000000 -0.003433 0.000000
# 2 0.000600 0.018357 0.001473 0.000000 -0.006693 0.000000
# 3 -0.000762 0.001473 0.010092 0.000000 -0.005654 0.000000
# 4 0.000000 0.000000 0.000000 -0.203839 0.000000 -0.018398
# 5 -0.003433 -0.006693 -0.005654 0.000000 0.026280 0.000000
# 6 0.000000 0.000000 0.000000 -0.018398 0.000000 0.043710
#
#
# Mechanical properties :
#
#
# Convention : Reuss Voigt Hill
#
# Bulk Modulus (GPa) = 26.96052 48.51126 37.73589
# Shear Modulus (GPa) = -55.78014 36.07221 -9.85396
#
# Velocity S-wave (km/s) = -4.57428 3.67849 -1.92260
# Velocity P-wave (km/s) = 4.21727 6.01989 3.03757
#
# Compressibility (1/GPa) = 0.03709128
#
# Stress axis : x y z
#
# Youngs Moduli (GPa) = 166.09798 54.47587 99.08903
#
# Poissons Ratio (x) = -0.03269 0.07552
# Poissons Ratio (y) = -0.09968 -0.14597
# Poissons Ratio (z) = 0.12659 -0.08025
#
# Static dielectric constant tensor:
#      x y z
#    x 2.169880 0.000000 -0.050500 
#    y 0.000000 2.002440 0.000000 
#    z -0.050500 0.000000 2.232780 
# 
# From -- ./inp_files/92033.got.cif
#   From: 2010.05.17/outbox.cif.g08.bks.cpg/sg10_47_cif.got.tgz:92033.got - 2010.06.03 11:33:40.
