data_PCOD9146096
_publ_section_title
;
Structure prediction by ZEFSAII (Michael W. Deem and Ramdas Pophale) SiO2 
 PCOD9146096
Probable space group: P 2/M
;
_chemical_formula_sum "Si O2"
_cell_formula_units_Z 26
_cell_length_a 20.178829
_cell_length_b 15.937524
_cell_length_c 5.499216
_cell_angle_alpha 90.000000
_cell_angle_beta 56.971909
_cell_angle_gamma 90.000000
_cell_volume 1482.759251
_symmetry_space_group_name_H-M "P 2/M"
_symmetry_group_IT_number 10
_symmetry_cell_setting 'monoclinic'
loop_
_space_group_symop_operation_xyz
x,y,z
-x,y,-z
-x,-y,-z
x,-y,z
loop_
_atom_site_type_symbol
_atom_site_label
_atom_site_fract_x
_atom_site_fract_y
_atom_site_fract_z
Si Si1 0.551270 0.500000 0.147459
Si Si2 0.316018 0.643725 0.117974
Si Si3 0.502778 0.209670 0.744445
Si Si4 0.956901 0.602270 0.836199
Si Si5 0.659459 0.902730 0.431077
Si Si6 0.665360 0.842654 0.919274
Si Si7 0.225624 0.600620 0.798763
O O1 0.500000 0.500000 0.500000
O O2 0.500000 0.500000 0.000000
O O3 0.609415 0.581086 0.031168
O O4 0.333932 0.742384 0.082147
O O5 0.268167 0.627574 0.463972
O O6 0.268163 0.627577 0.963392
O O7 0.500000 0.259768 0.500000
O O8 0.583930 0.158828 0.582138
O O9 0.500000 0.259768 0.000000
O O10 0.430444 0.142876 0.889113
O O11 0.957867 0.500000 0.834268
O O12 0.000000 0.628706 0.500000
O O13 0.865550 0.629134 0.018899
O O14 0.000000 0.628707 0.000000
O O15 0.700787 0.880256 0.602606
O O16 0.637452 0.000000 0.475086
O O17 0.700788 0.880253 0.094237
O O18 0.226102 0.500000 0.797816
#
# Coordination Sequence:
#
# PCOD9146096 Si02
#       7
#     2   4   4   4   4   4   4
#     4  12  26  40  56  70  90 132 190 256 294 300
#     4  12  23  39  54  73 100 136 190 228 277 318
#     4   8  16  27  42  61  84 108 142 187 256 302
#     4   9  17  29  49  81 109 129 162 206 250 304
#     4  10  19  33  51  71  94 120 156 205 274 342
#     4  10  21  32  48  70  94 122 160 211 254 311
#     4  11  20  36  58  74 103 142 177 216 261 315
#
# _framework density 17.534875
#
# number of rings (size 3 to 8) (size 9 to 14) (size 15 to 20)
#    0.000    1.846    1.538    3.231    0.000   11.692 
#    0.000    0.000    0.000    0.000    0.000    0.000 
#    0.000    0.000    0.000    0.000    0.000  193.846 
#
# Total GULP energy -144858.016072 kJ/mol
# GULP energy per Si atom -5571.462157 kJ/mol
# Density = 1.749497 g / cm^3
# Si number density = 17.534875 Si / 1000 Ang^3
#
#
#
# Elastic Constant Matrix: (Units=GPa)
#
#
# Indices 1 2 3 4 5 6 
#
# 1 121.8054 25.2290 82.8270 0.0000 32.3593 0.0000
# 2 25.2290 57.9628 27.0807 0.0000 3.4659 0.0000
# 3 82.8270 27.0807 161.4390 0.0000 41.7838 0.0000
# 4 0.0000 0.0000 0.0000 9.0726 0.0000 3.3439
# 5 32.3593 3.4659 41.7838 0.0000 45.7656 0.0000
# 6 0.0000 0.0000 0.0000 3.3439 0.0000 7.2809
#
#
#
# Elastic Compliance Matrix: (Units=1/GPa)
#
#
# Indices 1 2 3 4 5 6 
#
# 1 0.013702 -0.003213 -0.005299 0.000000 -0.004608 0.000000
# 2 -0.003213 0.019600 -0.002413 0.000000 0.002991 0.000000
# 3 -0.005299 -0.002413 0.010869 0.000000 -0.005994 0.000000
# 4 0.000000 0.000000 0.000000 0.132682 0.000000 -0.060937
# 5 -0.004608 0.002991 -0.005994 0.000000 0.030354 0.000000
# 6 0.000000 0.000000 0.000000 -0.060937 0.000000 0.165332
#
#
# Mechanical properties :
#
#
# Convention : Reuss Voigt Hill
#
# Bulk Modulus (GPa) = 44.80086 67.94227 56.37157
# Shear Modulus (GPa) = 12.44308 26.16187 19.30247
#
# Velocity S-wave (km/s) = 2.66676 3.86682 3.32144
# Velocity P-wave (km/s) = 5.92344 7.66599 6.85035
#
# Compressibility (1/GPa) = 0.02232100
#
# Stress axis : x y z
#
# Youngs Moduli (GPa) = 72.98009 51.02120 92.00507
#
# Poissons Ratio (x) = 0.16394 0.48749
# Poissons Ratio (y) = 0.23449 0.22204
# Poissons Ratio (z) = 0.38669 0.12313
#
# Static dielectric constant tensor:
#      x y z
#    x 1.324010 0.000000 -0.371240 
#    y 0.000000 1.563750 0.000000 
#    z -0.371240 0.000000 1.125540 
# 
# From -- ./inp_files/12665.got.cif
#   From: 2010.05.17/outbox.cif.g08.bks.cpg/sg10_7_cif.got.tgz:12665.got - 2010.06.03 11:33:40.
