data_PCOD9146566
_publ_section_title
;
Structure prediction by ZEFSAII (Michael W. Deem and Ramdas Pophale) SiO2 
 PCOD9146566
Probable space group: P 2/M
;
_chemical_formula_sum "Si O2"
_cell_formula_units_Z 24
_cell_length_a 19.737434
_cell_length_b 9.062690
_cell_length_c 15.185185
_cell_angle_alpha 90.000000
_cell_angle_beta 31.190479
_cell_angle_gamma 90.000000
_cell_volume 1406.698813
_symmetry_space_group_name_H-M "P 2/M"
_symmetry_group_IT_number 10
_symmetry_cell_setting 'monoclinic'
loop_
_space_group_symop_operation_xyz
x,y,z
-x,y,-z
-x,-y,-z
x,-y,z
loop_
_atom_site_type_symbol
_atom_site_label
_atom_site_fract_x
_atom_site_fract_y
_atom_site_fract_z
Si Si1 0.336446 0.675882 0.431457
Si Si2 0.385661 0.822815 0.559034
Si Si3 0.108529 0.176581 0.952671
Si Si4 0.082478 0.177399 0.494099
Si Si5 0.618013 0.177537 0.804008
Si Si6 0.033117 0.324484 0.732508
O O1 0.352497 0.500000 0.411985
O O2 0.395835 0.744389 0.453718
O O3 0.391690 0.746617 0.280461
O O4 0.180229 0.709258 0.604018
O O5 0.500000 0.785598 0.500000
O O6 0.248595 0.782771 0.757354
O O7 0.386196 0.000000 0.544365
O O8 0.105942 0.000000 0.970002
O O9 0.000000 0.212545 0.000000
O O10 0.069803 0.257007 0.085265
O O11 0.237612 0.214211 0.317909
O O12 0.026165 0.252852 0.644050
O O13 0.000000 0.220959 0.500000
O O14 0.073155 0.000000 0.513620
O O15 0.613271 0.000000 0.797967
O O16 0.500000 0.220360 0.000000
O O17 0.019791 0.500000 0.741838
#
# Coordination Sequence:
#
# PCOD9146566 Si02
#       6
#     4   4   4   4   4   4
#     4  10  20  34  54  78 106 140 174 211 257 310
#     4  10  21  37  55  77 105 137 173 216 262 304
#     4  10  19  33  56  80 101 132 176 218 253 300
#     4   9  18  34  55  77 103 134 170 215 261 303
#     4   9  18  34  56  78 100 132 175 217 255 302
#     4  10  20  33  53  80 107 138 174 212 256 307
#
# _framework density 17.061219999999999
#
# number of rings (size 3 to 8) (size 9 to 14) (size 15 to 20)
#    0.000    2.333    1.667    1.000    0.000    3.333 
#    3.000    0.000    0.000    0.000    0.000    0.000 
#    0.000    0.000    0.000    0.000    0.000    0.000 
#
# Total GULP energy -133905.846906 kJ/mol
# GULP energy per Si atom -5579.410288 kJ/mol
# Density = 1.702239 g / cm^3
# Si number density = 17.061220 Si / 1000 Ang^3
#
#
#
# Elastic Constant Matrix: (Units=GPa)
#
#
# Indices 1 2 3 4 5 6 
#
# 1 166.2664 56.7427 87.0389 0.0000 14.3793 0.0000
# 2 56.7427 26.3123 42.4540 0.0000 8.2021 0.0000
# 3 87.0389 42.4540 130.9033 0.0000 16.7249 0.0000
# 4 0.0000 0.0000 0.0000 -3.8481 0.0000 -17.4247
# 5 14.3793 8.2021 16.7249 0.0000 24.9584 0.0000
# 6 0.0000 0.0000 0.0000 -17.4247 0.0000 -8.1641
#
#
#
# Elastic Compliance Matrix: (Units=1/GPa)
#
#
# Indices 1 2 3 4 5 6 
#
# 1 0.023173 -0.053383 0.001498 0.000000 0.003189 0.000000
# 2 -0.053383 0.204906 -0.028747 0.000000 -0.017319 0.000000
# 3 0.001498 -0.028747 0.016262 0.000000 -0.002313 0.000000
# 4 0.000000 0.000000 0.000000 0.029993 0.000000 -0.064013
# 5 0.003189 -0.017319 -0.002313 0.000000 0.045471 0.000000
# 6 0.000000 0.000000 0.000000 -0.064013 0.000000 0.014137
#
#
# Mechanical properties :
#
#
# Convention : Reuss Voigt Hill
#
# Bulk Modulus (GPa) = 12.03703 77.32811 44.68257
# Shear Modulus (GPa) = 9.56208 11.73900 10.65054
#
# Velocity S-wave (km/s) = 2.36997 2.62592 2.50122
# Velocity P-wave (km/s) = 3.81569 7.39028 5.88115
#
# Compressibility (1/GPa) = 0.08307698
#
# Stress axis : x y z
#
# Youngs Moduli (GPa) = 43.15346 4.88028 61.49313
#
# Poissons Ratio (x) = 0.26053 -0.09209
# Poissons Ratio (y) = 2.30367 1.76771
# Poissons Ratio (z) = -0.06462 0.14029
#
# Static dielectric constant tensor:
#      x y z
#    x 1.554120 0.000000 -0.015230 
#    y 0.000000 1.560950 0.000000 
#    z -0.015230 0.000000 1.564080 
# 
# From -- ./inp_files/52624.got.cif
#   From: 2010.05.17/outbox.cif.g08.bks.cpg/sg10_27_cif.got.tgz:52624.got - 2010.06.03 11:33:40.
