data_PCOD9146842
_publ_section_title
;
Structure prediction by ZEFSAII (Michael W. Deem and Ramdas Pophale) SiO2 
 PCOD9146842
Probable space group: P 2/M
;
_chemical_formula_sum "Si O2"
_cell_formula_units_Z 32
_cell_length_a 25.876897
_cell_length_b 7.746997
_cell_length_c 20.626028
_cell_angle_alpha 90.000000
_cell_angle_beta 157.448793
_cell_angle_gamma 90.000000
_cell_volume 1585.757318
_symmetry_space_group_name_H-M "P 2/M"
_symmetry_group_IT_number 10
_symmetry_cell_setting 'monoclinic'
loop_
_space_group_symop_operation_xyz
x,y,z
-x,y,-z
-x,-y,-z
x,-y,z
loop_
_atom_site_type_symbol
_atom_site_label
_atom_site_fract_x
_atom_site_fract_y
_atom_site_fract_z
Si Si1 0.200603 0.208111 0.602145
Si Si2 0.044890 0.210940 0.951061
Si Si3 0.212459 0.208424 0.272942
Si Si4 0.216173 0.204209 0.029999
Si Si5 0.512503 0.296695 0.088668
Si Si6 0.770268 0.200092 0.216813
Si Si7 0.490886 0.702408 0.415959
Si Si8 0.900604 0.788437 0.237490
O O1 0.331960 0.266764 0.714950
O O2 0.209046 0.273966 0.686843
O O3 0.056250 0.258382 0.407216
O O4 0.207013 0.000000 0.611493
O O5 0.893468 0.264847 0.794522
O O6 0.110634 0.274391 0.960881
O O7 0.044294 0.000000 0.949598
O O8 0.143044 0.260551 0.124320
O O9 0.364820 0.272148 0.450638
O O10 0.216927 0.000000 0.279036
O O11 0.189197 0.272386 0.926720
O O12 0.189328 0.000000 0.995252
O O13 0.366096 0.224698 0.231178
O O14 0.485699 0.500000 0.057688
O O15 0.500000 0.229429 0.000000
O O16 0.389292 0.211014 0.983343
O O17 0.851513 0.275628 0.250791
O O18 0.810908 0.000000 0.269444
O O19 0.500000 0.776218 0.500000
O O20 0.463295 0.500000 0.390255
O O21 0.893616 0.000000 0.232515
#
# Coordination Sequence:
#
# PCOD9146842 Si02
#       8
#     4   4   4   4   4   4   4   4
#     4   9  16  29  50  74 100 130 163 204 252 296
#     4   8  15  28  50  76  97 119 154 200 241 284
#     4   9  16  30  52  76  97 122 160 199 239 288
#     4  10  19  34  54  73  97 129 164 204 250 293
#     4   9  17  29  46  71 100 129 166 208 244 285
#     4   9  16  29  50  74 100 130 164 203 249 295
#     4  11  22  34  49  74 103 130 162 200 241 292
#     4   9  18  31  50  76  99 124 164 209 248 294
#
# _framework density 20.179632999999999
#
# number of rings (size 3 to 8) (size 9 to 14) (size 15 to 20)
#    0.000    2.750    1.250    1.875    0.000    3.500 
#    0.000    5.000    0.000    7.500    0.000    0.000 
#    0.000    0.000    0.000    0.000    0.000    0.000 
#
# Total GULP energy -178384.111155 kJ/mol
# GULP energy per Si atom -5574.503474 kJ/mol
# Density = 2.013370 g / cm^3
# Si number density = 20.179633 Si / 1000 Ang^3
#
#
#
# Elastic Constant Matrix: (Units=GPa)
#
#
# Indices 1 2 3 4 5 6 
#
# 1 26.7940 -3.0325 23.5557 0.0000 7.5088 0.0000
# 2 -3.0325 27.5660 -10.3589 0.0000 -5.9627 0.0000
# 3 23.5557 -10.3589 96.4795 0.0000 6.3735 0.0000
# 4 0.0000 0.0000 0.0000 -72.0864 0.0000 -34.4733
# 5 7.5088 -5.9627 6.3735 0.0000 27.5026 0.0000
# 6 0.0000 0.0000 0.0000 -34.4733 0.0000 -12.4058
#
#
#
# Elastic Compliance Matrix: (Units=1/GPa)
#
#
# Indices 1 2 3 4 5 6 
#
# 1 0.050717 -0.001310 -0.011770 0.000000 -0.011403 0.000000
# 2 -0.001310 0.039365 0.004021 0.000000 0.007961 0.000000
# 3 -0.011770 0.004021 0.013609 0.000000 0.000931 0.000000
# 4 0.000000 0.000000 0.000000 0.042180 0.000000 -0.117210
# 5 -0.011403 0.007961 0.000931 0.000000 0.040983 0.000000
# 6 0.000000 0.000000 0.000000 -0.117210 0.000000 0.245094
#
#
# Mechanical properties :
#
#
# Convention : Reuss Voigt Hill
#
# Bulk Modulus (GPa) = 11.68612 19.01866 15.35239
# Shear Modulus (GPa) = 10.44732 -2.01958 4.21387
#
# Velocity S-wave (km/s) = 2.27781 -1.00149 1.44662
# Velocity P-wave (km/s) = 3.56672 2.84743 3.22718
#
# Compressibility (1/GPa) = 0.08557159
#
# Stress axis : x y z
#
# Youngs Moduli (GPa) = 19.71737 25.40307 73.48224
#
# Poissons Ratio (x) = 0.03328 0.86489
# Poissons Ratio (y) = 0.02583 -0.29544
# Poissons Ratio (z) = 0.23207 -0.10214
#
# Static dielectric constant tensor:
#      x y z
#    x 1.728950 0.000000 0.010480 
#    y 0.000000 1.748880 0.000000 
#    z 0.010480 0.000000 1.719040 
# 
# From -- ./inp_files/87052.got.cif
#   From: 2010.05.17/outbox.cif.g08.bks.cpg/sg10_44_cif.got.tgz:87052.got - 2010.06.03 11:33:40.
