data_PCOD9146638
_publ_section_title
;
Structure prediction by ZEFSAII (Michael W. Deem and Ramdas Pophale) SiO2 
 PCOD9146638
Probable space group: P 2/M
;
_chemical_formula_sum "Si O2"
_cell_formula_units_Z 32
_cell_length_a 11.932773
_cell_length_b 7.568754
_cell_length_c 29.513728
_cell_angle_alpha 90.000000
_cell_angle_beta 151.862396
_cell_angle_gamma 90.000000
_cell_volume 1257.057376
_symmetry_space_group_name_H-M "P 2/M"
_symmetry_group_IT_number 10
_symmetry_cell_setting 'monoclinic'
loop_
_space_group_symop_operation_xyz
x,y,z
-x,y,-z
-x,-y,-z
x,-y,z
loop_
_atom_site_type_symbol
_atom_site_label
_atom_site_fract_x
_atom_site_fract_y
_atom_site_fract_z
Si Si1 0.888863 0.213812 0.366483
Si Si2 0.663288 0.293913 0.841559
Si Si3 0.578084 0.707217 0.577423
Si Si4 0.687936 0.799632 0.428165
Si Si5 0.927896 0.211952 0.279070
Si Si6 0.258586 0.799848 0.932708
Si Si7 0.232866 0.208409 0.219368
Si Si8 0.381063 0.294370 0.074198
O O1 0.616471 0.269910 0.268921
O O2 0.986103 0.267744 0.351661
O O3 0.057240 0.278876 0.467004
O O4 0.893744 0.000000 0.370089
O O5 0.718178 0.500000 0.863669
O O6 0.793758 0.221656 0.844164
O O7 0.700327 0.223275 0.905654
O O8 0.500000 0.774470 0.500000
O O9 0.518847 0.500000 0.559663
O O10 0.449191 0.803599 0.572430
O O11 0.862040 0.729189 0.678631
O O12 0.488763 0.715000 0.325014
O O13 0.730420 0.000000 0.426432
O O14 0.668107 0.285731 0.176275
O O15 0.911774 0.000000 0.272284
O O16 0.996341 0.717368 0.836118
O O17 0.249127 0.000000 0.909929
O O18 0.500000 0.714156 0.000000
O O19 0.297575 0.806894 0.000455
O O20 0.240408 0.000000 0.233267
O O21 0.309431 0.500000 0.044533
#
# Coordination Sequence:
#
# PCOD9146638 Si02
#       8
#     4   4   4   4   4   4   4   4
#     4   9  18  34  57  85 117 154 201 247 294 351
#     4  10  22  40  63  90 123 158 200 250 303 367
#     4  11  22  33  50  81 122 164 204 252 304 359
#     4  10  21  37  57  84 117 162 210 251 300 358
#     4  10  19  33  56  84 116 156 203 250 296 356
#     4  10  23  43  65  93 124 158 200 248 307 368
#     4  10  23  42  63  88 121 158 204 257 305 359
#     4  10  22  40  63  92 121 156 199 249 312 366
#
# _framework density 25.456275000000002
#
# number of rings (size 3 to 8) (size 9 to 14) (size 15 to 20)
#    0.000    2.000    1.250    1.500    1.750    5.250 
#    0.000    5.000    0.000    0.000    0.000    0.000 
#    0.000    0.000    0.000    0.000    0.000    0.000 
#
# Total GULP energy -178950.795892 kJ/mol
# GULP energy per Si atom -5592.212372 kJ/mol
# Density = 2.539834 g / cm^3
# Si number density = 25.456275 Si / 1000 Ang^3
#
#
#
# Elastic Constant Matrix: (Units=GPa)
#
#
# Indices 1 2 3 4 5 6 
#
# 1 107.4721 -6.1573 34.1852 0.0000 0.4032 0.0000
# 2 -6.1573 80.1782 -0.9950 0.0000 -0.5615 0.0000
# 3 34.1852 -0.9950 79.7154 0.0000 -1.2572 0.0000
# 4 0.0000 0.0000 0.0000 10.6057 0.0000 -17.0355
# 5 0.4032 -0.5615 -1.2572 0.0000 41.6669 0.0000
# 6 0.0000 0.0000 0.0000 -17.0355 0.0000 43.0596
#
#
#
# Elastic Compliance Matrix: (Units=1/GPa)
#
#
# Indices 1 2 3 4 5 6 
#
# 1 0.010825 0.000772 -0.004636 0.000000 -0.000234 0.000000
# 2 0.000772 0.012530 -0.000172 0.000000 0.000156 0.000000
# 3 -0.004636 -0.000172 0.014538 0.000000 0.000481 0.000000
# 4 0.000000 0.000000 0.000000 0.258663 0.000000 0.102334
# 5 -0.000234 0.000156 0.000481 0.000000 0.024019 0.000000
# 6 0.000000 0.000000 0.000000 0.102334 0.000000 0.063710
#
#
# Mechanical properties :
#
#
# Convention : Reuss Voigt Hill
#
# Bulk Modulus (GPa) = 33.53365 35.71461 34.62413
# Shear Modulus (GPa) = 12.42861 35.08865 23.75863
#
# Velocity S-wave (km/s) = 2.21200 3.71669 3.05833
# Velocity P-wave (km/s) = 4.44135 5.69901 5.10902
#
# Compressibility (1/GPa) = 0.02982079
#
# Stress axis : x y z
#
# Youngs Moduli (GPa) = 92.38296 79.80550 68.78439
#
# Poissons Ratio (x) = -0.06162 0.31889
# Poissons Ratio (y) = -0.07133 0.01185
# Poissons Ratio (z) = 0.42829 0.01375
#
# Static dielectric constant tensor:
#      x y z
#    x 1.985290 0.000000 0.012890 
#    y 0.000000 1.955680 0.000000 
#    z 0.012890 0.000000 2.072050 
# 
# From -- ./inp_files/95094.got.cif
#   From: 2010.05.17/outbox.cif.g08.bks.cpg/sg10_48_cif.got.tgz:95094.got - 2010.06.03 11:33:40.
