data_PCOD9146731
_publ_section_title
;
Structure prediction by ZEFSAII (Michael W. Deem and Ramdas Pophale) SiO2 
 PCOD9146731
Probable space group: P 2/M
;
_chemical_formula_sum "Si O2"
_cell_formula_units_Z 24
_cell_length_a 12.382182
_cell_length_b 7.490267
_cell_length_c 11.761776
_cell_angle_alpha 90.000000
_cell_angle_beta 70.283841
_cell_angle_gamma 90.000000
_cell_volume 1026.904953
_symmetry_space_group_name_H-M "P 2/M"
_symmetry_group_IT_number 10
_symmetry_cell_setting 'monoclinic'
loop_
_space_group_symop_operation_xyz
x,y,z
-x,y,-z
-x,-y,-z
x,-y,z
loop_
_atom_site_type_symbol
_atom_site_label
_atom_site_fract_x
_atom_site_fract_y
_atom_site_fract_z
Si Si1 0.744893 0.780918 0.358033
Si Si2 0.528236 0.793500 0.310263
Si Si3 0.268999 0.215969 0.385251
Si Si4 0.610936 0.716354 0.033832
Si Si5 0.165209 0.292581 0.181562
Si Si6 0.946158 0.203217 0.132776
O O1 0.616576 0.720117 0.371743
O O2 0.777319 0.730976 0.474601
O O3 0.835162 0.715963 0.232326
O O4 0.744954 0.000000 0.354583
O O5 0.401393 0.718351 0.335357
O O6 0.594574 0.783360 0.167022
O O7 0.509072 0.000000 0.348655
O O8 0.200026 0.278875 0.300494
O O9 0.269125 0.000000 0.378545
O O10 0.611575 0.500000 0.036263
O O11 0.500000 0.772113 0.000000
O O12 0.727267 0.776152 0.931077
O O13 0.149816 0.500000 0.158402
O O14 0.047724 0.200139 0.188782
O O15 0.913464 0.000000 0.112724
O O16 0.000000 0.286649 0.000000
#
# Coordination Sequence:
#
# PCOD9146731 Si02
#       6
#     4   4   4   4   4   4
#     4   9  19  36  57  83 114 147 181 226 282 329
#     4  10  19  33  58  87 112 141 185 234 273 323
#     4  10  20  35  57  84 114 147 184 225 275 332
#     4  10  20  35  53  76 111 148 178 218 279 333
#     4  11  23  38  57  81 114 149 185 230 275 325
#     4  10  21  39  62  84 110 144 185 230 275 329
#
# _framework density 23.371202
#
# number of rings (size 3 to 8) (size 9 to 14) (size 15 to 20)
#    0.000    2.000    1.667    2.000    0.000    6.000 
#    0.000    5.833    0.000    2.000    0.000    0.000 
#    0.000    0.000    0.000    0.000    0.000    0.000 
#
# Total GULP energy -134185.480644 kJ/mol
# GULP energy per Si atom -5591.061694 kJ/mol
# Density = 2.331801 g / cm^3
# Si number density = 23.371202 Si / 1000 Ang^3
#
#
#
# Elastic Constant Matrix: (Units=GPa)
#
#
# Indices 1 2 3 4 5 6 
#
# 1 101.4383 -2.9994 25.8439 0.0000 6.0103 0.0000
# 2 -2.9994 69.2122 -5.2098 0.0000 -4.3372 0.0000
# 3 25.8439 -5.2098 118.0423 0.0000 9.9076 0.0000
# 4 0.0000 0.0000 0.0000 43.2932 0.0000 37.5775
# 5 6.0103 -4.3372 9.9076 0.0000 36.8487 0.0000
# 6 0.0000 0.0000 0.0000 37.5775 0.0000 25.7505
#
#
#
# Elastic Compliance Matrix: (Units=1/GPa)
#
#
# Indices 1 2 3 4 5 6 
#
# 1 0.010489 0.000221 -0.002195 0.000000 -0.001095 0.000000
# 2 0.000221 0.014590 0.000465 0.000000 0.001556 0.000000
# 3 -0.002195 0.000465 0.009144 0.000000 -0.002046 0.000000
# 4 0.000000 0.000000 0.000000 -0.086631 0.000000 0.126420
# 5 -0.001095 0.001556 -0.002046 0.000000 0.028050 0.000000
# 6 0.000000 0.000000 0.000000 0.126420 0.000000 -0.145649
#
#
# Mechanical properties :
#
#
# Convention : Reuss Voigt Hill
#
# Bulk Modulus (GPa) = 32.04570 35.99580 34.02075
# Shear Modulus (GPa) = -31.93107 39.24902 3.65897
#
# Velocity S-wave (km/s) = -3.70030 4.10246 1.25259
# Velocity P-wave (km/s) = 2.12484 6.15431 4.08415
#
# Compressibility (1/GPa) = 0.03120543
#
# Stress axis : x y z
#
# Youngs Moduli (GPa) = 95.34011 68.53813 109.35779
#
# Poissons Ratio (x) = -0.01513 0.24001
# Poissons Ratio (y) = -0.02105 -0.05085
# Poissons Ratio (z) = 0.20925 -0.03187
#
# Static dielectric constant tensor:
#      x y z
#    x 1.846220 0.000000 -0.013950 
#    y 0.000000 1.890150 0.000000 
#    z -0.013950 0.000000 1.862880 
# 
# From -- ./inp_files/45026.got.cif
#   From: 2010.05.17/outbox.cif.g08.bks.cpg/sg10_23_cif.got.tgz:45026.got - 2010.06.03 11:33:40.
