data_PCOD9146767
_publ_section_title
;
Structure prediction by ZEFSAII (Michael W. Deem and Ramdas Pophale) SiO2 
 PCOD9146767
Probable space group: P 2/M
;
_chemical_formula_sum "Si O2"
_cell_formula_units_Z 20
_cell_length_a 10.634526
_cell_length_b 13.274091
_cell_length_c 7.850681
_cell_angle_alpha 90.000000
_cell_angle_beta 44.863391
_cell_angle_gamma 90.000000
_cell_volume 781.766957
_symmetry_space_group_name_H-M "P 2/M"
_symmetry_group_IT_number 10
_symmetry_cell_setting 'monoclinic'
loop_
_space_group_symop_operation_xyz
x,y,z
-x,y,-z
-x,-y,-z
x,-y,z
loop_
_atom_site_type_symbol
_atom_site_label
_atom_site_fract_x
_atom_site_fract_y
_atom_site_fract_z
Si Si1 0.645884 0.260051 0.556344
Si Si2 0.618410 0.884840 0.058602
Si Si3 0.011049 0.181229 0.176895
Si Si4 0.787605 0.618228 0.098144
Si Si5 0.791549 0.614476 0.711745
O O1 0.669565 0.325427 0.701768
O O2 0.807769 0.180383 0.427028
O O3 0.532457 0.194684 0.271392
O O4 0.686265 0.332606 0.356019
O O5 0.830409 0.860031 0.857259
O O6 0.599819 0.000000 0.132351
O O7 0.500000 0.874663 0.000000
O O8 0.059722 0.299507 0.094947
O O9 0.000000 0.131852 0.000000
O O10 0.826950 0.500000 0.098417
O O11 0.711429 0.613868 0.978939
O O12 0.802147 0.500000 0.640443
O O13 0.000000 0.650728 0.500000
#
# Coordination Sequence:
#
# PCOD9146767 Si02
#       5
#     4   4   4   4   4
#     4  11  23  42  73 102 142 194 237 293 362 434
#     4  11  27  49  73 104 141 183 243 315 376 433
#     4  10  23  43  70 104 141 189 239 293 358 433
#     4  10  21  38  65 105 146 187 237 284 343 428
#     4  10  19  33  65 109 148 193 239 285 348 426
#
# _framework density 25.583072999999999
#
# number of rings (size 3 to 8) (size 9 to 14) (size 15 to 20)
#    0.000    1.600    2.000    1.800    0.000    8.000 
#    0.000   12.000    0.000    6.600    0.000    0.000 
#    0.000    0.000    0.000    0.000    0.000    0.000 
#
# Total GULP energy -111622.793324 kJ/mol
# GULP energy per Si atom -5581.139666 kJ/mol
# Density = 2.552484 g / cm^3
# Si number density = 25.583073 Si / 1000 Ang^3
#
#
#
# Elastic Constant Matrix: (Units=GPa)
#
#
# Indices 1 2 3 4 5 6 
#
# 1 146.6896 26.3711 34.7343 0.0000 -4.6012 0.0000
# 2 26.3711 134.9512 46.5313 0.0000 4.0054 0.0000
# 3 34.7343 46.5313 118.5514 0.0000 28.2794 0.0000
# 4 0.0000 0.0000 0.0000 14.2616 0.0000 7.0654
# 5 -4.6012 4.0054 28.2794 0.0000 41.9275 0.0000
# 6 0.0000 0.0000 0.0000 7.0654 0.0000 -2.2580
#
#
#
# Elastic Compliance Matrix: (Units=1/GPa)
#
#
# Indices 1 2 3 4 5 6 
#
# 1 0.007639 -0.000672 -0.002610 0.000000 0.002663 0.000000
# 2 -0.000672 0.008735 -0.003593 0.000000 0.001515 0.000000
# 3 -0.002610 -0.003593 0.012628 0.000000 -0.008461 0.000000
# 4 0.000000 0.000000 0.000000 0.027495 0.000000 0.086035
# 5 0.002663 0.001515 -0.008461 0.000000 0.029705 0.000000
# 6 0.000000 0.000000 0.000000 0.086035 0.000000 -0.173662
#
#
# Mechanical properties :
#
#
# Convention : Reuss Voigt Hill
#
# Bulk Modulus (GPa) = 65.55955 68.38507 66.97231
# Shear Modulus (GPa) = -72.85975 30.28991 -21.28492
#
# Velocity S-wave (km/s) = -5.34242 3.44464 -2.88756
# Velocity P-wave (km/s) = 3.51761 6.52758 3.88817
#
# Compressibility (1/GPa) = 0.01525331
#
# Stress axis : x y z
#
# Youngs Moduli (GPa) = 130.90045 114.47716 79.18716
#
# Poissons Ratio (x) = 0.07693 0.20665
# Poissons Ratio (y) = 0.08797 0.28453
# Poissons Ratio (z) = 0.34161 0.41134
#
# Static dielectric constant tensor:
#      x y z
#    x 2.145890 0.000000 0.001350 
#    y 0.000000 1.979800 0.000000 
#    z 0.001350 0.000000 2.065640 
# 
# From -- ./inp_files/18618.got.cif
#   From: 2010.05.17/outbox.cif.g08.bks.cpg/sg10_10_cif.got.tgz:18618.got - 2010.06.03 11:33:40.
