data_PCOD9146146
_publ_section_title
;
Structure prediction by ZEFSAII (Michael W. Deem and Ramdas Pophale) SiO2 
 PCOD9146146
Probable space group: P 2/M
;
_chemical_formula_sum "Si O2"
_cell_formula_units_Z 18
_cell_length_a 6.860791
_cell_length_b 14.339977
_cell_length_c 7.623711
_cell_angle_alpha 90.000000
_cell_angle_beta 85.272466
_cell_angle_gamma 90.000000
_cell_volume 747.496278
_symmetry_space_group_name_H-M "P 2/M"
_symmetry_group_IT_number 10
_symmetry_cell_setting 'monoclinic'
loop_
_space_group_symop_operation_xyz
x,y,z
-x,y,-z
-x,-y,-z
x,-y,z
loop_
_atom_site_type_symbol
_atom_site_label
_atom_site_fract_x
_atom_site_fract_y
_atom_site_fract_z
Si Si1 0.147988 0.801035 0.251670
Si Si2 0.293652 0.000000 0.843988
Si Si3 0.301070 0.204833 0.857550
Si Si4 0.141216 0.000000 0.259775
Si Si5 0.360608 0.399707 0.679487
Si Si6 0.000000 0.651244 0.500000
O O1 0.189031 0.900680 0.338223
O O2 0.923158 0.800987 0.198469
O O3 0.151802 0.717820 0.386800
O O4 0.278332 0.789230 0.069372
O O5 0.386731 0.101859 0.804991
O O6 0.090941 0.000000 0.754169
O O7 0.233707 0.000000 0.055739
O O8 0.383553 0.301800 0.778436
O O9 0.500000 0.398967 0.500000
O O10 0.397287 0.500000 0.769499
O O11 0.135625 0.400754 0.627780
#
# Coordination Sequence:
#
# PCOD9146146 Si02
#       6
#     4   2   4   2   4   2
#     4   8  14  25  46  74 102 132 165 200 243 290
#     4   7  10  20  43  69  97 129 160 199 241 282
#     4   8  14  28  48  72 100 132 167 200 241 295
#     4   7  10  19  38  69 102 130 161 195 235 290
#     4  10  21  37  54  72  98 131 165 205 251 294
#     4  10  19  33  52  76 102 127 162 208 247 286
#
# _framework density 24.080386000000001
#
# number of rings (size 3 to 8) (size 9 to 14) (size 15 to 20)
#    0.000    3.556    0.000    3.000    0.000    0.444 
#    0.000   12.778    0.000    2.667    0.000    4.667 
#    0.000    0.000    0.000    0.000    0.000    0.000 
#
# Total GULP energy -100438.958243 kJ/mol
# GULP energy per Si atom -5579.942125 kJ/mol
# Density = 2.402558 g / cm^3
# Si number density = 24.080386 Si / 1000 Ang^3
#
#
#
# Elastic Constant Matrix: (Units=GPa)
#
#
# Indices 1 2 3 4 5 6 
#
# 1 83.2035 33.6638 0.6294 0.0000 1.4810 0.0000
# 2 33.6638 279.5232 60.4723 0.0000 -22.5221 0.0000
# 3 0.6294 60.4723 44.2608 0.0000 -8.0002 0.0000
# 4 0.0000 0.0000 0.0000 -44.6586 0.0000 -42.2647
# 5 1.4810 -22.5221 -8.0002 0.0000 27.8973 0.0000
# 6 0.0000 0.0000 0.0000 -42.2647 0.0000 48.5084
#
#
#
# Elastic Compliance Matrix: (Units=1/GPa)
#
#
# Indices 1 2 3 4 5 6 
#
# 1 0.012945 -0.002261 0.002585 0.000000 -0.001771 0.000000
# 2 -0.002261 0.005608 -0.007161 0.000000 0.002594 0.000000
# 3 0.002585 -0.007161 0.032980 0.000000 0.003539 0.000000
# 4 0.000000 0.000000 0.000000 -0.012272 0.000000 -0.010693
# 5 -0.001771 0.002594 0.003539 0.000000 0.039049 0.000000
# 6 0.000000 0.000000 0.000000 -0.010693 0.000000 0.011298
#
#
# Mechanical properties :
#
#
# Convention : Reuss Voigt Hill
#
# Bulk Modulus (GPa) = 26.41344 66.27984 46.34664
# Shear Modulus (GPa) = 43.13943 27.16423 35.15183
#
# Velocity S-wave (km/s) = 4.23717 3.36231 3.82484
# Velocity P-wave (km/s) = 5.91023 6.53128 6.22850
#
# Compressibility (1/GPa) = 0.03785952
#
# Stress axis : x y z
#
# Youngs Moduli (GPa) = 77.24697 178.31446 30.32098
#
# Poissons Ratio (x) = 0.40317 -0.07838
# Poissons Ratio (y) = 0.17466 0.21713
# Poissons Ratio (z) = -0.19968 1.27694
#
# Static dielectric constant tensor:
#      x y z
#    x 1.966670 0.000000 -0.000390 
#    y 0.000000 1.943770 0.000000 
#    z -0.000390 0.000000 1.887720 
# 
# From -- ./inp_files/17889.got.cif
#   From: 2010.05.17/outbox.cif.g08.bks.cpg/sg10_9_cif.got.tgz:17889.got - 2010.06.03 11:33:40.
