data_PCOD9146800
_publ_section_title
;
Structure prediction by ZEFSAII (Michael W. Deem and Ramdas Pophale) SiO2 
 PCOD9146800
Probable space group: P 2/M
;
_chemical_formula_sum "Si O2"
_cell_formula_units_Z 32
_cell_length_a 8.551825
_cell_length_b 13.021516
_cell_length_c 28.778853
_cell_angle_alpha 90.000000
_cell_angle_beta 31.517370
_cell_angle_gamma 90.000000
_cell_volume 1675.304353
_symmetry_space_group_name_H-M "P 2/M"
_symmetry_group_IT_number 10
_symmetry_cell_setting 'monoclinic'
loop_
_space_group_symop_operation_xyz
x,y,z
-x,y,-z
-x,-y,-z
x,-y,z
loop_
_atom_site_type_symbol
_atom_site_label
_atom_site_fract_x
_atom_site_fract_y
_atom_site_fract_z
Si Si1 0.578733 0.689817 0.549802
Si Si2 0.695639 0.380217 0.288666
Si Si3 0.793876 0.765403 0.097525
Si Si4 0.645816 0.610811 0.835785
Si Si5 0.969571 0.883299 0.451785
Si Si6 0.738358 0.385864 0.974973
Si Si7 0.968416 0.617663 0.373334
Si Si8 0.488945 0.769790 0.263711
O O1 0.541194 0.657957 0.612660
O O2 0.824003 0.622109 0.461097
O O3 0.270482 0.669292 0.600741
O O4 0.699162 0.804501 0.511307
O O5 0.640698 0.500000 0.289090
O O6 0.691210 0.298142 0.247925
O O7 0.013101 0.377608 0.234872
O O8 0.506930 0.708527 0.148759
O O9 0.661350 0.824836 0.176817
O O10 0.990014 0.680913 0.075445
O O11 0.000000 0.801472 0.000000
O O12 0.602108 0.500000 0.822332
O O13 0.458867 0.600904 0.929783
O O14 0.268521 0.842443 0.349927
O O15 0.000000 0.881439 0.500000
O O16 0.909151 0.000000 0.452617
O O17 0.827656 0.500000 0.934408
O O18 0.500000 0.336990 0.000000
O O19 0.000264 0.500000 0.352358
O O20 0.266795 0.683164 0.299199
#
# Coordination Sequence:
#
# PCOD9146800 Si02
#       8
#     4   4   4   4   4   4   4   4
#     4  10  19  34  52  78 104 143 183 220 266 325
#     4  11  20  30  48  75 111 145 186 228 263 312
#     4  10  20  33  49  70 105 143 182 227 272 321
#     4   9  18  29  43  66 100 149 190 222 259 302
#     4  10  21  41  63  82 106 134 172 229 289 333
#     4   9  16  27  43  65  98 140 189 231 261 300
#     4  10  20  33  51  75 116 157 185 215 261 320
#     4  11  22  35  53  82 106 142 189 224 270 327
#
# _framework density 19.101006999999999
#
# number of rings (size 3 to 8) (size 9 to 14) (size 15 to 20)
#    0.000    2.000    1.250    3.750    0.000    5.500 
#    0.000    6.875    0.000    0.375    0.000    0.000 
#    0.000   10.500    0.000    0.000    0.000    0.375 
#
# Total GULP energy -178139.952567 kJ/mol
# GULP energy per Si atom -5566.873518 kJ/mol
# Density = 1.905753 g / cm^3
# Si number density = 19.101007 Si / 1000 Ang^3
#
#
#
# Elastic Constant Matrix: (Units=GPa)
#
#
# Indices 1 2 3 4 5 6 
#
# 1 45.6062 9.7444 20.5168 0.0000 12.4522 0.0000
# 2 9.7444 80.2008 18.5305 0.0000 1.2238 0.0000
# 3 20.5168 18.5305 97.9759 0.0000 28.4396 0.0000
# 4 0.0000 0.0000 0.0000 5.5169 0.0000 -1.2444
# 5 12.4522 1.2238 28.4396 0.0000 40.2898 0.0000
# 6 0.0000 0.0000 0.0000 -1.2444 0.0000 16.5192
#
#
#
# Elastic Compliance Matrix: (Units=1/GPa)
#
#
# Indices 1 2 3 4 5 6 
#
# 1 0.025380 -0.002235 -0.003314 0.000000 -0.005437 0.000000
# 2 -0.002235 0.013328 -0.002686 0.000000 0.002182 0.000000
# 3 -0.003314 -0.002686 0.013945 0.000000 -0.008738 0.000000
# 4 0.000000 0.000000 0.000000 0.184393 0.000000 0.013891
# 5 -0.005437 0.002182 -0.008738 0.000000 0.032602 0.000000
# 6 0.000000 0.000000 0.000000 0.013891 0.000000 0.061582
#
#
# Mechanical properties :
#
#
# Convention : Reuss Voigt Hill
#
# Bulk Modulus (GPa) = 27.63771 35.70737 31.67254
# Shear Modulus (GPa) = 13.89816 24.13127 19.01472
#
# Velocity S-wave (km/s) = 2.70036 3.55822 3.15855
# Velocity P-wave (km/s) = 4.92171 5.96790 5.46987
#
# Compressibility (1/GPa) = 0.03618245
#
# Stress axis : x y z
#
# Youngs Moduli (GPa) = 39.40169 75.03239 71.71141
#
# Poissons Ratio (x) = 0.16770 0.23763
# Poissons Ratio (y) = 0.08806 0.19262
# Poissons Ratio (z) = 0.13057 0.20154
#
# Static dielectric constant tensor:
#      x y z
#    x 1.842810 0.000000 -0.044200 
#    y 0.000000 1.652570 0.000000 
#    z -0.044200 0.000000 1.797850 
# 
# From -- ./inp_files/94651.got.cif
#   From: 2010.05.17/outbox.cif.g08.bks.cpg/sg10_48_cif.got.tgz:94651.got - 2010.06.03 11:33:40.
