data_PCOD9146254
_publ_section_title
;
Structure prediction by ZEFSAII (Michael W. Deem and Ramdas Pophale) SiO2 
 PCOD9146254
Probable space group: P 2/M
;
_chemical_formula_sum "Si O2"
_cell_formula_units_Z 32
_cell_length_a 25.977038
_cell_length_b 8.797063
_cell_length_c 21.131919
_cell_angle_alpha 90.000000
_cell_angle_beta 22.479813
_cell_angle_gamma 90.000000
_cell_volume 1846.444827
_symmetry_space_group_name_H-M "P 2/M"
_symmetry_group_IT_number 10
_symmetry_cell_setting 'monoclinic'
loop_
_space_group_symop_operation_xyz
x,y,z
-x,y,-z
-x,-y,-z
x,-y,z
loop_
_atom_site_type_symbol
_atom_site_label
_atom_site_fract_x
_atom_site_fract_y
_atom_site_fract_z
Si Si1 0.351827 0.682299 0.492439
Si Si2 0.081649 0.816410 0.844519
Si Si3 0.345829 0.681899 0.841281
Si Si4 0.343930 0.682842 0.992133
Si Si5 0.945602 0.316346 0.630063
Si Si6 0.629295 0.182142 0.669460
Si Si7 0.094839 0.183370 0.581037
Si Si8 0.922298 0.817175 0.899711
O O1 0.346687 0.500000 0.494291
O O2 0.229388 0.745475 0.672281
O O3 0.500454 0.725256 0.348724
O O4 0.341274 0.749086 0.433409
O O5 0.999542 0.767814 0.875172
O O6 0.093905 0.000000 0.829165
O O7 0.000000 0.773966 0.000000
O O8 0.333860 0.500000 0.849607
O O9 0.325357 0.721658 0.938833
O O10 0.229185 0.758082 0.933492
O O11 0.358609 0.500000 0.979144
O O12 0.482906 0.758331 0.855976
O O13 0.209481 0.729646 0.181582
O O14 0.949181 0.500000 0.628566
O O15 0.000000 0.267345 0.500000
O O16 0.036150 0.253479 0.584061
O O17 0.751326 0.225080 0.577290
O O18 0.627734 0.000000 0.665579
O O19 0.004075 0.232535 0.744251
O O20 0.087383 0.000000 0.585561
O O21 0.921285 0.000000 0.900838
#
# Coordination Sequence:
#
# PCOD9146254 Si02
#       8
#     4   4   4   4   4   4   4   4
#     4  10  20  34  53  79 110 140 176 219 265 317
#     4  10  21  38  57  78 109 145 179 220 267 317
#     4   9  18  32  51  78 106 136 172 219 266 308
#     4   9  18  33  51  77 108 136 176 220 262 315
#     4  10  21  37  56  78 108 145 181 218 265 321
#     4  10  19  33  54  80 108 138 176 221 268 314
#     4  10  20  34  53  80 109 135 177 226 263 313
#     4  10  19  33  53  80 106 134 177 221 261 312
#
# _framework density 17.330601000000001
#
# number of rings (size 3 to 8) (size 9 to 14) (size 15 to 20)
#    0.000    2.250    2.500    1.500    0.000    5.000 
#    0.000    1.250    0.000    7.500    0.000    0.000 
#    0.000    0.000    0.000    0.000    0.000    0.000 
#
# Total GULP energy -178527.439794 kJ/mol
# GULP energy per Si atom -5578.982494 kJ/mol
# Density = 1.729116 g / cm^3
# Si number density = 17.330601 Si / 1000 Ang^3
#
#
#
# Elastic Constant Matrix: (Units=GPa)
#
#
# Indices 1 2 3 4 5 6 
#
# 1 76.8696 18.4397 52.9316 0.0000 -9.0439 0.0000
# 2 18.4397 14.4877 30.7759 0.0000 -3.7531 0.0000
# 3 52.9316 30.7759 143.9026 0.0000 -14.9579 0.0000
# 4 0.0000 0.0000 0.0000 29.2763 0.0000 -6.5608
# 5 -9.0439 -3.7531 -14.9579 0.0000 28.9914 0.0000
# 6 0.0000 0.0000 0.0000 -6.5608 0.0000 33.4609
#
#
#
# Elastic Compliance Matrix: (Units=1/GPa)
#
#
# Indices 1 2 3 4 5 6 
#
# 1 0.019743 -0.017626 -0.003265 0.000000 0.002193 0.000000
# 2 -0.017626 0.142405 -0.023910 0.000000 0.000601 0.000000
# 3 -0.003265 -0.023910 0.013563 0.000000 0.002884 0.000000
# 4 0.000000 0.000000 0.000000 0.035727 0.000000 0.007005
# 5 0.002193 0.000601 0.002884 0.000000 0.036743 0.000000
# 6 0.000000 0.000000 0.000000 0.007005 0.000000 0.031259
#
#
# Mechanical properties :
#
#
# Convention : Reuss Voigt Hill
#
# Bulk Modulus (GPa) = 11.61293 48.83934 30.22614
# Shear Modulus (GPa) = 12.57090 27.21990 19.89540
#
# Velocity S-wave (km/s) = 2.69617 3.96741 3.39188
# Velocity P-wave (km/s) = 4.05066 7.01636 5.72875
#
# Compressibility (1/GPa) = 0.08611088
#
# Stress axis : x y z
#
# Youngs Moduli (GPa) = 50.65064 7.02224 73.72858
#
# Poissons Ratio (x) = 0.12377 0.24070
# Poissons Ratio (y) = 0.89275 1.76284
# Poissons Ratio (z) = 0.16536 0.16790
#
# Static dielectric constant tensor:
#      x y z
#    x 1.562110 0.000000 -0.007000 
#    y 0.000000 1.584470 0.000000 
#    z -0.007000 0.000000 1.595360 
# 
# From -- ./inp_files/86736.got.cif
#   From: 2010.05.17/outbox.cif.g08.bks.cpg/sg10_44_cif.got.tgz:86736.got - 2010.06.03 11:33:40.
