data_PCOD9146606
_publ_section_title
;
Structure prediction by ZEFSAII (Michael W. Deem and Ramdas Pophale) SiO2 
 PCOD9146606
Probable space group: P 2/M
;
_chemical_formula_sum "Si O2"
_cell_formula_units_Z 28
_cell_length_a 9.885008
_cell_length_b 14.983778
_cell_length_c 11.959858
_cell_angle_alpha 90.000000
_cell_angle_beta 58.074749
_cell_angle_gamma 90.000000
_cell_volume 1503.482548
_symmetry_space_group_name_H-M "P 2/M"
_symmetry_group_IT_number 10
_symmetry_cell_setting 'monoclinic'
loop_
_space_group_symop_operation_xyz
x,y,z
-x,y,-z
-x,-y,-z
x,-y,z
loop_
_atom_site_type_symbol
_atom_site_label
_atom_site_fract_x
_atom_site_fract_y
_atom_site_fract_z
Si Si1 0.032510 0.101552 0.150327
Si Si2 0.706743 0.191926 0.304325
Si Si3 0.186339 0.394267 0.391123
Si Si4 0.837666 0.725742 0.034133
Si Si5 0.308545 0.398885 0.085476
Si Si6 0.656007 0.771499 0.577548
Si Si7 0.848324 0.099828 0.648214
O O1 0.093179 0.115736 0.251120
O O2 0.840688 0.115583 0.229185
O O3 0.071940 0.000000 0.100566
O O4 0.114619 0.177774 0.039602
O O5 0.746984 0.261976 0.189533
O O6 0.517890 0.184612 0.366672
O O7 0.733860 0.219879 0.420707
O O8 0.204105 0.500000 0.409059
O O9 0.230775 0.382040 0.241017
O O10 0.310687 0.331052 0.402661
O O11 0.000000 0.369867 0.500000
O O12 0.750267 0.671383 0.978352
O O13 0.000000 0.678953 0.000000
O O14 0.263603 0.500000 0.073306
O O15 0.500000 0.394449 0.000000
O O16 0.734263 0.827347 0.643867
O O17 0.000000 0.099354 0.500000
O O18 0.776364 0.000000 0.676056
#
# Coordination Sequence:
#
# PCOD9146606 Si02
#       7
#     4   4   4   4   4   4   4
#     4  10  21  39  60  83 113 150 193 239 285 341
#     4  10  23  36  53  85 115 153 191 223 290 353
#     4  10  22  37  61  90 115 151 200 241 288 344
#     4  10  22  37  56  83 115 151 194 229 281 347
#     4  10  21  39  63  88 115 151 194 243 294 340
#     4  11  21  37  59  82 118 150 184 241 290 335
#     4  10  19  33  56  83 105 138 187 234 281 329
#
# _framework density 18.623429000000002
#
# number of rings (size 3 to 8) (size 9 to 14) (size 15 to 20)
#    0.000    1.857    1.429    2.143    4.000    3.429 
#    0.000    3.571    0.000    3.000    0.000    0.000 
#    0.000    0.000    0.000    0.000    0.000    0.000 
#
# Total GULP energy -155902.785097 kJ/mol
# GULP energy per Si atom -5567.956611 kJ/mol
# Density = 1.858104 g / cm^3
# Si number density = 18.623429 Si / 1000 Ang^3
#
#
#
# Elastic Constant Matrix: (Units=GPa)
#
#
# Indices 1 2 3 4 5 6 
#
# 1 83.0593 54.1811 22.6735 0.0000 10.3347 0.0000
# 2 54.1811 79.3002 16.5992 0.0000 8.8580 0.0000
# 3 22.6735 16.5992 88.7807 0.0000 6.5149 0.0000
# 4 0.0000 0.0000 0.0000 96.3411 0.0000 -15.6384
# 5 10.3347 8.8580 6.5149 0.0000 27.3500 0.0000
# 6 0.0000 0.0000 0.0000 -15.6384 0.0000 27.2659
#
#
#
# Elastic Compliance Matrix: (Units=1/GPa)
#
#
# Indices 1 2 3 4 5 6 
#
# 1 0.022716 -0.014569 -0.002844 0.000000 -0.003188 0.000000
# 2 -0.014569 0.022853 -0.000420 0.000000 -0.001796 0.000000
# 3 -0.002844 -0.000420 0.012193 0.000000 -0.001694 0.000000
# 4 0.000000 0.000000 0.000000 0.011445 0.000000 0.006565
# 5 -0.003188 -0.001796 -0.001694 0.000000 0.038753 0.000000
# 6 0.000000 0.000000 0.000000 0.006565 0.000000 0.040441
#
#
# Mechanical properties :
#
#
# Convention : Reuss Voigt Hill
#
# Bulk Modulus (GPa) = 45.25677 48.67199 46.96438
# Shear Modulus (GPa) = 26.11874 40.70382 33.41128
#
# Velocity S-wave (km/s) = 3.74902 4.68014 4.24021
# Velocity P-wave (km/s) = 6.56459 7.44288 7.01749
#
# Compressibility (1/GPa) = 0.02209614
#
# Stress axis : x y z
#
# Youngs Moduli (GPa) = 44.02111 43.75727 82.01585
#
# Poissons Ratio (x) = 0.63752 0.23322
# Poissons Ratio (y) = 0.64136 0.03446
# Poissons Ratio (z) = 0.12518 0.01839
#
# Static dielectric constant tensor:
#      x y z
#    x 1.647860 0.000000 0.004930 
#    y 0.000000 1.649440 0.000000 
#    z 0.004930 0.000000 1.621650 
# 
# From -- ./inp_files/25043.got.cif
#   From: 2010.05.17/outbox.cif.g08.bks.cpg/sg10_13_cif.got.tgz:25043.got - 2010.06.03 11:33:40.
