data_PCOD9146569
_publ_section_title
;
Structure prediction by ZEFSAII (Michael W. Deem and Ramdas Pophale) SiO2 
 PCOD9146569
Probable space group: P 2/M
;
_chemical_formula_sum "Si O2"
_cell_formula_units_Z 28
_cell_length_a 14.654058
_cell_length_b 7.662640
_cell_length_c 12.151786
_cell_angle_alpha 90.000000
_cell_angle_beta 64.141591
_cell_angle_gamma 90.000000
_cell_volume 1227.887117
_symmetry_space_group_name_H-M "P 2/M"
_symmetry_group_IT_number 10
_symmetry_cell_setting 'monoclinic'
loop_
_space_group_symop_operation_xyz
x,y,z
-x,y,-z
-x,-y,-z
x,-y,z
loop_
_atom_site_type_symbol
_atom_site_label
_atom_site_fract_x
_atom_site_fract_y
_atom_site_fract_z
Si Si1 0.807994 0.286229 0.892943
Si Si2 0.449902 0.294106 0.360622
Si Si3 0.656968 0.199743 0.362107
Si Si4 0.964145 0.711142 0.250788
Si Si5 0.109857 0.204267 0.480979
Si Si6 0.690893 0.297658 0.752489
Si Si7 0.839808 0.699344 0.119795
O O1 0.801358 0.500000 0.895141
O O2 0.722132 0.221707 0.854358
O O3 0.919584 0.238583 0.789605
O O4 0.807759 0.224656 0.019221
O O5 0.470750 0.500000 0.336805
O O6 0.553689 0.207515 0.345118
O O7 0.372161 0.273428 0.503369
O O8 0.397123 0.222120 0.278439
O O9 0.743345 0.299053 0.250807
O O10 0.689008 0.000000 0.357936
O O11 0.958850 0.500000 0.252938
O O12 0.893031 0.775973 0.385983
O O13 0.928140 0.775633 0.150063
O O14 0.205515 0.292148 0.373529
O O15 0.000000 0.274814 0.500000
O O16 0.114849 0.000000 0.449820
O O17 0.663271 0.500000 0.784214
O O18 0.870802 0.500000 0.078595
#
# Coordination Sequence:
#
# PCOD9146569 Si02
#       7
#     4   4   4   4   4   4   4
#     4   9  18  34  55  79 108 140 180 223 262 311
#     4  10  20  36  60  86 108 133 172 222 273 319
#     4  11  22  37  57  81 109 141 175 216 269 321
#     4  10  19  33  56  80 105 141 183 225 266 308
#     4  11  22  33  48  75 111 146 177 214 262 314
#     4  10  20  35  57  82 107 140 178 220 269 315
#     4  10  20  35  56  81 107 140 181 224 266 309
#
# _framework density 22.803398999999999
#
# number of rings (size 3 to 8) (size 9 to 14) (size 15 to 20)
#    0.000    1.857    1.429    4.286    0.000    7.429 
#    0.000    2.143    0.000    6.000    0.000    0.000 
#    0.000    0.000    0.000    0.000    0.000    0.000 
#
# Total GULP energy -156451.117745 kJ/mol
# GULP energy per Si atom -5587.539919 kJ/mol
# Density = 2.275150 g / cm^3
# Si number density = 22.803399 Si / 1000 Ang^3
#
#
#
# Elastic Constant Matrix: (Units=GPa)
#
#
# Indices 1 2 3 4 5 6 
#
# 1 99.8111 -3.0939 17.3580 0.0000 43.9725 0.0000
# 2 -3.0939 60.4596 -9.0163 0.0000 2.1951 0.0000
# 3 17.3580 -9.0163 56.0186 0.0000 33.4474 0.0000
# 4 0.0000 0.0000 0.0000 188.5051 0.0000 -90.7975
# 5 43.9725 2.1951 33.4474 0.0000 48.5672 0.0000
# 6 0.0000 0.0000 0.0000 -90.7975 0.0000 25.8487
#
#
#
# Elastic Compliance Matrix: (Units=1/GPa)
#
#
# Indices 1 2 3 4 5 6 
#
# 1 0.018710 0.003022 0.008296 0.000000 -0.022790 0.000000
# 2 0.003022 0.018032 0.006940 0.000000 -0.008331 0.000000
# 3 0.008296 0.006940 0.035784 0.000000 -0.032469 0.000000
# 4 0.000000 0.000000 0.000000 -0.007667 0.000000 -0.026930
# 5 -0.022790 -0.008331 -0.032469 0.000000 0.063962 0.000000
# 6 0.000000 0.000000 0.000000 -0.026930 0.000000 -0.055910
#
#
# Mechanical properties :
#
#
# Convention : Reuss Voigt Hill
#
# Bulk Modulus (GPa) = 9.17069 25.19832 17.18450
# Shear Modulus (GPa) = 68.73654 66.65364 67.69509
#
# Velocity S-wave (km/s) = 5.49623 5.41231 5.45443
# Velocity P-wave (km/s) = 6.65646 7.08038 6.87169
#
# Compressibility (1/GPa) = 0.10904303
#
# Stress axis : x y z
#
# Youngs Moduli (GPa) = 53.44681 55.45686 27.94548
#
# Poissons Ratio (x) = -0.16760 -0.23185
# Poissons Ratio (y) = -0.16152 -0.19394
# Poissons Ratio (z) = -0.44342 -0.38486
#
# Static dielectric constant tensor:
#      x y z
#    x 1.884520 0.000000 0.051520 
#    y 0.000000 1.825350 0.000000 
#    z 0.051520 0.000000 1.843070 
# 
# From -- ./inp_files/49071.got.cif
#   From: 2010.05.17/outbox.cif.g08.bks.cpg/sg10_25_cif.got.tgz:49071.got - 2010.06.03 11:33:40.
