data_PCOD9146163
_publ_section_title
;
Structure prediction by ZEFSAII (Michael W. Deem and Ramdas Pophale) SiO2 
 PCOD9146163
Probable space group: P 2/M
;
_chemical_formula_sum "Si O2"
_cell_formula_units_Z 32
_cell_length_a 27.962022
_cell_length_b 7.481131
_cell_length_c 21.778739
_cell_angle_alpha 90.000000
_cell_angle_beta 19.356330
_cell_angle_gamma 90.000000
_cell_volume 1509.997637
_symmetry_space_group_name_H-M "P 2/M"
_symmetry_group_IT_number 10
_symmetry_cell_setting 'monoclinic'
loop_
_space_group_symop_operation_xyz
x,y,z
-x,y,-z
-x,-y,-z
x,-y,z
loop_
_atom_site_type_symbol
_atom_site_label
_atom_site_fract_x
_atom_site_fract_y
_atom_site_fract_z
Si Si1 0.346636 0.717302 0.864791
Si Si2 0.979533 0.288363 0.755402
Si Si3 0.843576 0.281299 0.213795
Si Si4 0.497496 0.205709 0.196881
Si Si5 0.047429 0.214779 0.537956
Si Si6 0.181285 0.293091 0.617157
Si Si7 0.551969 0.281960 0.503653
Si Si8 0.769339 0.218711 0.797772
O O1 0.347942 0.500000 0.867009
O O2 0.419669 0.784693 0.838451
O O3 0.441399 0.769404 0.691294
O O4 0.182645 0.781814 0.056306
O O5 0.963636 0.500000 0.785000
O O6 0.060343 0.266824 0.592745
O O7 0.069574 0.213553 0.703467
O O8 0.839710 0.500000 0.218256
O O9 0.818883 0.218306 0.313679
O O10 0.711613 0.223878 0.330445
O O11 0.000000 0.227066 0.000000
O O12 0.341546 0.289916 0.395131
O O13 0.470048 0.000000 0.214063
O O14 0.612282 0.281352 0.009015
O O15 0.171546 0.274069 0.340393
O O16 0.893379 0.274791 0.696148
O O17 0.045706 0.000000 0.537531
O O18 0.139561 0.500000 0.675744
O O19 0.500000 0.220637 0.500000
O O20 0.552900 0.500000 0.501034
O O21 0.766135 0.000000 0.803147
#
# Coordination Sequence:
#
# PCOD9146163 Si02
#       8
#     4   4   4   4   4   4   4   4
#     4  10  19  33  52  78 109 137 169 217 268 304
#     4  10  21  33  50  77 110 140 170 210 263 317
#     4   9  17  29  48  73 101 135 172 209 253 302
#     4  11  20  34  56  80 101 134 181 218 254 309
#     4   9  16  32  54  75 103 134 170 217 262 302
#     4  10  21  37  52  74 110 144 172 212 262 311
#     4   9  17  28  47  76 104 129 168 217 256 297
#     4   8  16  30  52  78 101 131 171 219 262 299
#
# _framework density 21.192086
#
# number of rings (size 3 to 8) (size 9 to 14) (size 15 to 20)
#    0.000    2.500    2.500    1.125    1.750    0.500 
#    0.000    3.125    0.000    4.500    0.000    0.000 
#    0.000    0.000    0.000    0.000    0.000    0.000 
#
# Total GULP energy -178651.606785 kJ/mol
# GULP energy per Si atom -5582.862712 kJ/mol
# Density = 2.114385 g / cm^3
# Si number density = 21.192086 Si / 1000 Ang^3
#
#
#
# Elastic Constant Matrix: (Units=GPa)
#
#
# Indices 1 2 3 4 5 6 
#
# 1 107.6161 -4.5583 51.7078 0.0000 -15.5192 0.0000
# 2 -4.5583 57.4049 -7.1597 0.0000 -0.8026 0.0000
# 3 51.7078 -7.1597 114.7464 0.0000 5.7284 0.0000
# 4 0.0000 0.0000 0.0000 -16.8666 0.0000 38.1252
# 5 -15.5192 -0.8026 5.7284 0.0000 27.7033 0.0000
# 6 0.0000 0.0000 0.0000 38.1252 0.0000 -14.4341
#
#
#
# Elastic Compliance Matrix: (Units=1/GPa)
#
#
# Indices 1 2 3 4 5 6 
#
# 1 0.013828 0.000395 -0.006663 0.000000 0.009135 0.000000
# 2 0.000395 0.017570 0.000891 0.000000 0.000546 0.000000
# 3 -0.006663 0.000891 0.012083 0.000000 -0.006205 0.000000
# 4 0.000000 0.000000 0.000000 0.011928 0.000000 0.031506
# 5 0.009135 0.000546 -0.006205 0.000000 0.042513 0.000000
# 6 0.000000 0.000000 0.000000 0.031506 0.000000 0.013939
#
#
# Mechanical properties :
#
#
# Convention : Reuss Voigt Hill
#
# Bulk Modulus (GPa) = 30.55560 39.97188 35.26374
# Shear Modulus (GPa) = 37.44686 15.26570 26.35628
#
# Velocity S-wave (km/s) = 4.20816 2.68684 3.53042
# Velocity P-wave (km/s) = 6.16937 5.34118 5.77015
#
# Compressibility (1/GPa) = 0.03272723
#
# Stress axis : x y z
#
# Youngs Moduli (GPa) = 72.31896 56.91445 82.76400
#
# Poissons Ratio (x) = -0.02247 0.55142
# Poissons Ratio (y) = -0.02855 -0.07376
# Poissons Ratio (z) = 0.48183 -0.05072
#
# Static dielectric constant tensor:
#      x y z
#    x 1.733740 0.000000 0.007600 
#    y 0.000000 1.812940 0.000000 
#    z 0.007600 0.000000 1.747300 
# 
# From -- ./inp_files/86795.got.cif
#   From: 2010.05.17/outbox.cif.g08.bks.cpg/sg10_44_cif.got.tgz:86795.got - 2010.06.03 11:33:40.
