data_PCOD9146369
_publ_section_title
;
Structure prediction by ZEFSAII (Michael W. Deem and Ramdas Pophale) SiO2 
 PCOD9146369
Probable space group: P 2/M
;
_chemical_formula_sum "Si O2"
_cell_formula_units_Z 30
_cell_length_a 14.828699
_cell_length_b 13.365801
_cell_length_c 19.559713
_cell_angle_alpha 90.000000
_cell_angle_beta 158.071985
_cell_angle_gamma 90.000000
_cell_volume 1447.714717
_symmetry_space_group_name_H-M "P 2/M"
_symmetry_group_IT_number 10
_symmetry_cell_setting 'monoclinic'
loop_
_space_group_symop_operation_xyz
x,y,z
-x,y,-z
-x,-y,-z
x,-y,z
loop_
_atom_site_type_symbol
_atom_site_label
_atom_site_fract_x
_atom_site_fract_y
_atom_site_fract_z
Si Si1 0.500000 0.250178 0.500000
Si Si2 0.710497 0.382247 0.433565
Si Si3 0.258029 0.316592 0.201696
Si Si4 0.740307 0.728547 0.314867
Si Si5 0.339757 0.884742 0.024051
Si Si6 0.621697 0.113071 0.785392
Si Si7 0.235073 0.616307 0.799849
Si Si8 0.803291 0.116514 0.607516
O O1 0.316247 0.311460 0.322938
O O2 0.655369 0.182715 0.557367
O O3 0.729825 0.500000 0.430051
O O4 0.489915 0.367203 0.329706
O O5 0.662019 0.316904 0.332097
O O6 0.976489 0.348855 0.647918
O O7 0.257359 0.203324 0.170519
O O8 0.000000 0.361823 0.000000
O O9 0.544534 0.805859 0.150164
O O10 0.787559 0.636856 0.296628
O O11 0.000000 0.781694 0.500000
O O12 0.323358 0.879543 0.095664
O O13 0.400090 0.000000 0.049430
O O14 0.085057 0.858907 0.810096
O O15 0.337903 0.124092 0.564147
O O16 0.691626 0.000000 0.812525
O O17 0.248939 0.500000 0.828172
O O18 0.500000 0.660328 0.000000
O O19 0.786238 0.000000 0.616636
#
# Coordination Sequence:
#
# PCOD9146369 Si02
#       8
#     2   4   4   4   4   4   4   4
#     4  10  21  32  53  82 112 146 190 242 272 326
#     4  10  21  39  60  81 112 147 184 236 287 337
#     4  11  22  37  56  82 116 152 197 229 278 339
#     4  10  20  36  59  84 110 144 184 226 284 337
#     4  10  19  33  54  81 113 150 187 222 269 337
#     4   9  18  33  53  79 111 147 188 235 277 320
#     4   9  19  37  62  92 114 135 182 242 293 339
#     4   9  18  32  51  77 109 146 188 235 280 317
#
# _framework density 20.722314000000001
#
# number of rings (size 3 to 8) (size 9 to 14) (size 15 to 20)
#    0.000    2.267    1.333    1.400    0.000    5.067 
#    0.000    0.333    0.000    0.400    0.000    0.000 
#    0.000    0.000    0.000    0.000    0.000    0.000 
#
# Total GULP energy -167209.101062 kJ/mol
# GULP energy per Si atom -5573.636702 kJ/mol
# Density = 2.067515 g / cm^3
# Si number density = 20.722314 Si / 1000 Ang^3
#
#
#
# Elastic Constant Matrix: (Units=GPa)
#
#
# Indices 1 2 3 4 5 6 
#
# 1 36.0381 5.8819 20.6307 0.0000 -0.7606 0.0000
# 2 5.8819 57.5550 24.1878 0.0000 2.6101 0.0000
# 3 20.6307 24.1878 164.4791 0.0000 8.3107 0.0000
# 4 0.0000 0.0000 0.0000 21.3151 0.0000 2.0974
# 5 -0.7606 2.6101 8.3107 0.0000 27.3208 0.0000
# 6 0.0000 0.0000 0.0000 2.0974 0.0000 16.4182
#
#
#
# Elastic Compliance Matrix: (Units=1/GPa)
#
#
# Indices 1 2 3 4 5 6 
#
# 1 0.030149 -0.001644 -0.003646 0.000000 0.002106 0.000000
# 2 -0.001644 0.018633 -0.002480 0.000000 -0.001072 0.000000
# 3 -0.003646 -0.002480 0.007003 0.000000 -0.001995 0.000000
# 4 0.000000 0.000000 0.000000 0.047512 0.000000 -0.006070
# 5 0.002106 -0.001072 -0.001995 0.000000 0.037370 0.000000
# 6 0.000000 0.000000 0.000000 -0.006070 0.000000 0.061683
#
#
# Mechanical properties :
#
#
# Convention : Reuss Voigt Hill
#
# Bulk Modulus (GPa) = 24.84828 39.94143 32.39485
# Shear Modulus (GPa) = 21.61645 26.83561 24.22603
#
# Velocity S-wave (km/s) = 3.23328 3.60253 3.42289
# Velocity P-wave (km/s) = 5.09470 6.05151 5.59360
#
# Compressibility (1/GPa) = 0.04024424
#
# Stress axis : x y z
#
# Youngs Moduli (GPa) = 33.16914 53.66693 142.80428
#
# Poissons Ratio (x) = 0.08824 0.52068
# Poissons Ratio (y) = 0.05454 0.35412
# Poissons Ratio (z) = 0.12094 0.13308
#
# Static dielectric constant tensor:
#      x y z
#    x 1.718150 0.000000 -0.013000 
#    y 0.000000 1.754600 0.000000 
#    z -0.013000 0.000000 1.836010 
# 
# From -- ./inp_files/70722.got.cif
#   From: 2010.05.17/outbox.cif.g08.bks.cpg/sg10_36_cif.got.tgz:70722.got - 2010.06.03 11:33:40.
