data_PCOD9146829
_publ_section_title
;
Structure prediction by ZEFSAII (Michael W. Deem and Ramdas Pophale) SiO2 
 PCOD9146829
Probable space group: P 2/M
;
_chemical_formula_sum "Si O2"
_cell_formula_units_Z 32
_cell_length_a 12.520912
_cell_length_b 20.250068
_cell_length_c 8.922970
_cell_angle_alpha 90.000000
_cell_angle_beta 126.267327
_cell_angle_gamma 90.000000
_cell_volume 1824.106085
_symmetry_space_group_name_H-M "P 2/M"
_symmetry_group_IT_number 10
_symmetry_cell_setting 'monoclinic'
loop_
_space_group_symop_operation_xyz
x,y,z
-x,y,-z
-x,-y,-z
x,-y,z
loop_
_atom_site_type_symbol
_atom_site_label
_atom_site_fract_x
_atom_site_fract_y
_atom_site_fract_z
Si Si1 0.706247 0.575800 0.538377
Si Si2 0.606505 0.924204 0.712234
Si Si3 0.863745 0.678414 0.479313
Si Si4 0.602447 0.424995 0.790347
Si Si5 0.645009 0.311149 0.047286
Si Si6 0.641885 0.162716 0.038896
Si Si7 0.864867 0.167552 0.477967
Si Si8 0.890078 0.075790 0.787971
O O1 0.746047 0.500000 0.537517
O O2 0.814818 0.627122 0.566085
O O3 0.557065 0.585639 0.349278
O O4 0.672640 0.580069 0.687056
O O5 0.500000 0.898232 0.500000
O O6 0.748498 0.925284 0.750789
O O7 0.565634 0.000000 0.713102
O O8 0.628627 0.884684 0.884746
O O9 0.749075 0.674983 0.261957
O O10 0.860019 0.755514 0.525690
O O11 0.000000 0.665477 0.500000
O O12 0.622812 0.500000 0.862254
O O13 0.658305 0.367949 0.938263
O O14 0.668569 0.237474 0.005391
O O15 0.500000 0.312629 0.000000
O O16 0.748820 0.150867 0.261044
O O17 0.500000 0.161687 0.000000
O O18 0.873051 0.120519 0.627907
O O19 0.000000 0.160180 0.500000
O O20 0.926112 0.000000 0.776336
O O21 0.000000 0.098950 0.000000
#
# Coordination Sequence:
#
# PCOD9146829 Si02
#       8
#     4   4   4   4   4   4   4   4
#     4   9  18  34  54  79 109 138 177 223 269 320
#     4  10  21  37  54  77 110 143 177 221 272 324
#     4  10  21  36  53  77 111 145 176 216 270 326
#     4   9  18  33  55  81 106 136 177 227 272 313
#     4  10  19  34  53  79 106 134 181 228 261 314
#     4  10  21  35  53  80 109 140 183 225 264 320
#     4  10  21  37  56  78 111 146 178 220 271 326
#     4  10  21  37  58  83 108 137 182 231 269 316
#
# _framework density 17.542838
#
# number of rings (size 3 to 8) (size 9 to 14) (size 15 to 20)
#    0.000    2.250    1.250    2.250    0.000    3.000 
#    2.250    0.625    0.000    1.500    0.000    0.000 
#    0.000    0.000    0.000    0.000    0.000    0.000 
#
# Total GULP energy -178238.740910 kJ/mol
# GULP energy per Si atom -5569.960653 kJ/mol
# Density = 1.750291 g / cm^3
# Si number density = 17.542838 Si / 1000 Ang^3
#
#
#
# Elastic Constant Matrix: (Units=GPa)
#
#
# Indices 1 2 3 4 5 6 
#
# 1 73.4153 49.0373 44.4350 0.0000 3.1874 0.0000
# 2 49.0373 110.6010 71.0720 0.0000 -29.2099 0.0000
# 3 44.4350 71.0720 107.1027 0.0000 6.4341 0.0000
# 4 0.0000 0.0000 0.0000 26.7814 0.0000 15.4420
# 5 3.1874 -29.2099 6.4341 0.0000 31.9135 0.0000
# 6 0.0000 0.0000 0.0000 15.4420 0.0000 -42.9623
#
#
#
# Elastic Compliance Matrix: (Units=1/GPa)
#
#
# Indices 1 2 3 4 5 6 
#
# 1 0.024702 -0.017806 0.002728 0.000000 -0.019315 0.000000
# 2 -0.017806 0.048696 -0.028051 0.000000 0.052004 0.000000
# 3 0.002728 -0.028051 0.028726 0.000000 -0.031738 0.000000
# 4 0.000000 0.000000 0.000000 0.030929 0.000000 0.011117
# 5 -0.019315 0.052004 -0.031738 0.000000 0.087261 0.000000
# 6 0.000000 0.000000 0.000000 0.011117 0.000000 -0.019280
#
#
# Mechanical properties :
#
#
# Convention : Reuss Voigt Hill
#
# Bulk Modulus (GPa) = 63.02836 68.91195 65.97015
# Shear Modulus (GPa) = 17.08934 11.58483 14.33709
#
# Velocity S-wave (km/s) = 3.12452 2.57256 2.86188
# Velocity P-wave (km/s) = 7.00165 6.94201 6.97189
#
# Compressibility (1/GPa) = 0.01586587
#
# Stress axis : x y z
#
# Youngs Moduli (GPa) = 40.48219 20.53568 34.81191
#
# Poissons Ratio (x) = 0.36566 -0.09496
# Poissons Ratio (y) = 0.72083 0.97649
# Poissons Ratio (z) = -0.11042 0.57604
#
# Static dielectric constant tensor:
#      x y z
#    x 1.569550 0.000000 0.014950 
#    y 0.000000 1.648270 0.000000 
#    z 0.014950 0.000000 1.579240 
# 
# From -- ./inp_files/26084.got.cif
#   From: 2010.05.17/outbox.cif.g08.bks.cpg/sg10_14_cif.got.tgz:26084.got - 2010.06.03 11:33:40.
