data_PCOD9146318
_publ_section_title
;
Structure prediction by ZEFSAII (Michael W. Deem and Ramdas Pophale) SiO2 
 PCOD9146318
Probable space group: P 2/M
;
_chemical_formula_sum "Si O2"
_cell_formula_units_Z 32
_cell_length_a 12.153498
_cell_length_b 7.513724
_cell_length_c 29.160321
_cell_angle_alpha 90.000000
_cell_angle_beta 148.368236
_cell_angle_gamma 90.000000
_cell_volume 1396.559863
_symmetry_space_group_name_H-M "P 2/M"
_symmetry_group_IT_number 10
_symmetry_cell_setting 'monoclinic'
loop_
_space_group_symop_operation_xyz
x,y,z
-x,y,-z
-x,-y,-z
x,-y,z
loop_
_atom_site_type_symbol
_atom_site_label
_atom_site_fract_x
_atom_site_fract_y
_atom_site_fract_z
Si Si1 0.888016 0.285434 0.914343
Si Si2 0.914483 0.704859 0.179793
Si Si3 0.618577 0.283076 0.677067
Si Si4 0.645687 0.201820 0.169117
Si Si5 0.252030 0.209034 0.974615
Si Si6 0.540939 0.718520 0.280265
Si Si7 0.901626 0.296228 0.347161
Si Si8 0.367467 0.717597 0.496933
O O1 0.883606 0.500000 0.915205
O O2 0.651186 0.226321 0.820969
O O3 0.033128 0.235658 0.922955
O O4 0.000000 0.217695 0.000000
O O5 0.941972 0.500000 0.203871
O O6 0.808933 0.799508 0.185028
O O7 0.768095 0.712111 0.083027
O O8 0.141826 0.776116 0.245609
O O9 0.625101 0.500000 0.681474
O O10 0.518659 0.224689 0.689615
O O11 0.482780 0.232737 0.584856
O O12 0.751514 0.295557 0.249575
O O13 0.599891 0.000000 0.167531
O O14 0.434195 0.282559 0.072323
O O15 0.295634 0.000000 0.984135
O O16 0.544980 0.500000 0.281319
O O17 0.761864 0.782217 0.338519
O O18 0.946097 0.500000 0.376431
O O19 0.126874 0.218769 0.413561
O O20 0.500000 0.778827 0.500000
O O21 0.365969 0.500000 0.493794
#
# Coordination Sequence:
#
# PCOD9146318 Si02
#       8
#     4   4   4   4   4   4   4   4
#     4  10  19  33  54  78 109 148 191 241 283 323
#     4  11  21  36  60  84 110 147 190 232 280 335
#     4   9  17  31  54  83 116 144 175 233 291 331
#     4  11  24  39  54  77 114 151 184 231 287 334
#     4  11  23  37  53  78 113 149 187 231 283 341
#     4   9  17  31  51  81 114 142 183 234 281 328
#     4  10  20  35  58  84 109 144 190 231 276 334
#     4   9  17  30  51  84 118 144 179 230 285 336
#
# _framework density 22.913446
#
# number of rings (size 3 to 8) (size 9 to 14) (size 15 to 20)
#    0.000    2.000    1.250    3.000    0.000    7.250 
#    0.000    3.125    0.000    4.125    0.000    0.875 
#    0.000    0.000    0.000    0.000    0.000    0.000 
#
# Total GULP energy -178905.916218 kJ/mol
# GULP energy per Si atom -5590.809882 kJ/mol
# Density = 2.286129 g / cm^3
# Si number density = 22.913446 Si / 1000 Ang^3
#
#
#
# Elastic Constant Matrix: (Units=GPa)
#
#
# Indices 1 2 3 4 5 6 
#
# 1 107.4850 -1.8572 56.0222 0.0000 27.6657 0.0000
# 2 -1.8572 63.2599 -1.3613 0.0000 2.6089 0.0000
# 3 56.0222 -1.3613 127.1443 0.0000 19.5521 0.0000
# 4 0.0000 0.0000 0.0000 5.3887 0.0000 45.5988
# 5 27.6657 2.6089 19.5521 0.0000 40.5064 0.0000
# 6 0.0000 0.0000 0.0000 45.5988 0.0000 -34.8141
#
#
#
# Elastic Compliance Matrix: (Units=1/GPa)
#
#
# Indices 1 2 3 4 5 6 
#
# 1 0.013697 0.000584 -0.004952 0.000000 -0.007002 0.000000
# 2 0.000584 0.015890 0.000142 0.000000 -0.001491 0.000000
# 3 -0.004952 0.000142 0.010294 0.000000 -0.001596 0.000000
# 4 0.000000 0.000000 0.000000 0.015358 0.000000 0.020115
# 5 -0.007002 -0.001491 -0.001596 0.000000 0.030336 0.000000
# 6 0.000000 0.000000 0.000000 0.020115 0.000000 -0.002377
#
#
# Mechanical properties :
#
#
# Convention : Reuss Voigt Hill
#
# Bulk Modulus (GPa) = 31.81785 44.83298 38.32542
# Shear Modulus (GPa) = 48.95922 18.55523 33.75723
#
# Velocity S-wave (km/s) = 4.62746 2.84878 3.84246
# Velocity P-wave (km/s) = 6.51671 5.51629 6.03726
#
# Compressibility (1/GPa) = 0.03142890
#
# Stress axis : x y z
#
# Youngs Moduli (GPa) = 73.00768 62.93462 97.14396
#
# Poissons Ratio (x) = -0.03678 0.48107
# Poissons Ratio (y) = -0.04266 -0.01379
# Poissons Ratio (z) = 0.36155 -0.00893
#
# Static dielectric constant tensor:
#      x y z
#    x 1.815380 0.000000 0.019750 
#    y 0.000000 2.037890 0.000000 
#    z 0.019750 0.000000 1.835930 
# 
# From -- ./inp_files/58195.got.cif
#   From: 2010.05.17/outbox.cif.g08.bks.cpg/sg10_30_cif.got.tgz:58195.got - 2010.06.03 11:33:40.
