data_PCOD9146078
_publ_section_title
;
Structure prediction by ZEFSAII (Michael W. Deem and Ramdas Pophale) SiO2 
 PCOD9146078
Probable space group: P 2/M
;
_chemical_formula_sum "Si O2"
_cell_formula_units_Z 28
_cell_length_a 21.206749
_cell_length_b 9.053519
_cell_length_c 29.905974
_cell_angle_alpha 90.000000
_cell_angle_beta 19.281104
_cell_angle_gamma 90.000000
_cell_volume 1895.966356
_symmetry_space_group_name_H-M "P 2/M"
_symmetry_group_IT_number 10
_symmetry_cell_setting 'monoclinic'
loop_
_space_group_symop_operation_xyz
x,y,z
-x,y,-z
-x,-y,-z
x,-y,z
loop_
_atom_site_type_symbol
_atom_site_label
_atom_site_fract_x
_atom_site_fract_y
_atom_site_fract_z
Si Si1 0.183812 0.676269 0.406172
Si Si2 0.690990 0.822595 0.400336
Si Si3 0.567954 0.172980 0.153523
Si Si4 0.309355 0.826464 0.406036
Si Si5 0.551424 0.821821 0.591897
Si Si6 0.135835 0.677616 0.868149
Si Si7 0.028790 0.676538 0.119564
O O1 0.205606 0.500000 0.391429
O O2 0.379459 0.752726 0.258130
O O3 0.171532 0.735148 0.465514
O O4 0.000000 0.716380 0.500000
O O5 0.500000 0.785314 0.500000
O O6 0.653271 0.783066 0.477187
O O7 0.871728 0.742305 0.258094
O O8 0.717001 0.000000 0.379734
O O9 0.512471 0.186665 0.243604
O O10 0.578940 0.000000 0.135526
O O11 0.763205 0.254139 0.012310
O O12 0.334369 0.776580 0.439950
O O13 0.257742 0.000000 0.439441
O O14 0.341809 0.752314 0.733031
O O15 0.533312 0.000000 0.605419
O O16 0.159101 0.500000 0.854696
O O17 0.039732 0.713924 0.884944
O O18 0.000000 0.722980 0.000000
O O19 0.037446 0.500000 0.117663
#
# Coordination Sequence:
#
# PCOD9146078 Si02
#       7
#     4   4   4   4   4   4   4
#     4   9  17  30  50  76 104 130 153 181 229 293
#     4  10  20  34  50  65  88 127 172 213 247 281
#     4   9  18  31  49  71  99 127 157 194 236 283
#     4   8  17  30  47  72  99 125 156 194 236 282
#     4  10  19  33  49  67  90 124 168 207 240 280
#     4  10  21  32  44  65  92 125 160 198 248 291
#     4  11  21  32  47  67  95 127 165 208 245 286
#
# _framework density 14.768195
#
# number of rings (size 3 to 8) (size 9 to 14) (size 15 to 20)
#    0.857    1.571    1.429    1.714    0.000    3.429 
#    0.000    0.000    0.000    0.000    0.000    1.000 
#    0.000    8.000    0.000    0.000    0.000    0.000 
#
# Total GULP energy -155877.259739 kJ/mol
# GULP energy per Si atom -5567.044991 kJ/mol
# Density = 1.473458 g / cm^3
# Si number density = 14.768195 Si / 1000 Ang^3
#
#
#
# Elastic Constant Matrix: (Units=GPa)
#
#
# Indices 1 2 3 4 5 6 
#
# 1 110.0412 51.0157 86.4145 0.0000 -9.4417 0.0000
# 2 51.0157 44.5963 49.9662 0.0000 -5.0446 0.0000
# 3 86.4145 49.9662 104.3034 0.0000 0.1760 0.0000
# 4 0.0000 0.0000 0.0000 46.6355 0.0000 -1.3637
# 5 -9.4417 -5.0446 0.1760 0.0000 24.6958 0.0000
# 6 0.0000 0.0000 0.0000 -1.3637 0.0000 16.8844
#
#
#
# Elastic Compliance Matrix: (Units=1/GPa)
#
#
# Indices 1 2 3 4 5 6 
#
# 1 0.031490 -0.012258 -0.020233 0.000000 0.009679 0.000000
# 2 -0.012258 0.055805 -0.016589 0.000000 0.006831 0.000000
# 3 -0.020233 -0.016589 0.034317 0.000000 -0.011369 0.000000
# 4 0.000000 0.000000 0.000000 0.021494 0.000000 0.001736
# 5 0.009679 0.006831 -0.011369 0.000000 0.045670 0.000000
# 6 0.000000 0.000000 0.000000 0.001736 0.000000 0.059366
#
#
# Mechanical properties :
#
#
# Convention : Reuss Voigt Hill
#
# Bulk Modulus (GPa) = 42.64235 70.41483 56.52859
# Shear Modulus (GPa) = 14.11950 22.41277 18.26614
#
# Velocity S-wave (km/s) = 3.09540 3.89991 3.52071
# Velocity P-wave (km/s) = 6.45852 8.25001 7.40861
#
# Compressibility (1/GPa) = 0.02345086
#
# Stress axis : x y z
#
# Youngs Moduli (GPa) = 31.75598 17.91940 29.14049
#
# Poissons Ratio (x) = 0.21966 0.58961
# Poissons Ratio (y) = 0.38928 0.48341
# Poissons Ratio (z) = 0.64253 0.29726
#
# Static dielectric constant tensor:
#      x y z
#    x 1.490080 0.000000 0.008580 
#    y 0.000000 1.490480 0.000000 
#    z 0.008580 0.000000 1.459980 
# 
# From -- ./inp_files/95622.got.cif
#   From: 2010.05.17/outbox.cif.g08.bks.cpg/sg10_48_cif.got.tgz:95622.got - 2010.06.03 11:33:40.
