data_PCOD9146009
_publ_section_title
;
Structure prediction by ZEFSAII (Michael W. Deem and Ramdas Pophale) SiO2 
 PCOD9146009
Probable space group: P 2/M
;
_chemical_formula_sum "Si O2"
_cell_formula_units_Z 24
_cell_length_a 12.499416
_cell_length_b 11.815874
_cell_length_c 10.270644
_cell_angle_alpha 90.000000
_cell_angle_beta 110.415304
_cell_angle_gamma 90.000000
_cell_volume 1421.609650
_symmetry_space_group_name_H-M "P 2/M"
_symmetry_group_IT_number 10
_symmetry_cell_setting 'monoclinic'
loop_
_space_group_symop_operation_xyz
x,y,z
-x,y,-z
-x,-y,-z
x,-y,z
loop_
_atom_site_type_symbol
_atom_site_label
_atom_site_fract_x
_atom_site_fract_y
_atom_site_fract_z
Si Si1 0.777836 0.815088 0.613202
Si Si2 0.453593 0.000000 0.125463
Si Si3 0.966331 0.000000 0.636162
Si Si4 0.051471 0.364345 0.381982
Si Si5 0.097097 0.364068 0.933874
Si Si6 0.603792 0.000000 0.440766
Si Si7 0.267916 0.191188 0.100411
Si Si8 0.101111 0.000000 0.940345
O O1 0.889409 0.893448 0.643504
O O2 0.826077 0.695508 0.584917
O O3 0.680436 0.887957 0.499293
O O4 0.741044 0.803470 0.747356
O O5 0.448189 0.000000 0.724534
O O6 0.380333 0.883566 0.115389
O O7 0.500000 0.000000 0.000000
O O8 0.000000 0.000000 0.500000
O O9 0.072006 0.000000 0.777165
O O10 0.064465 0.500000 0.382196
O O11 0.000000 0.332327 0.500000
O O12 0.961743 0.332724 0.229148
O O13 0.108590 0.500000 0.942486
O O14 0.220313 0.308562 0.019382
O O15 0.000000 0.331991 0.000000
O O16 0.500000 0.000000 0.500000
O O17 0.171353 0.109378 0.004825
O O18 0.000000 0.000000 0.000000
#
# Coordination Sequence:
#
# PCOD9146009 Si02
#       8
#     4   2   2   4   4   2   4   2
#     4  11  20  33  56  77 101 144 182 213 262 323
#     4  11  25  41  57  81 105 133 181 241 288 314
#     4  11  21  29  43  77 111 131 167 213 258 318
#     4  10  21  35  52  82 121 150 174 211 259 316
#     4  10  19  32  55  84 114 146 177 209 254 321
#     4  11  21  39  59  76 101 141 185 230 285 317
#     4  11  20  33  56  78 102 138 182 219 261 325
#     4  11  17  29  49  72 105 139 161 208 265 317
#
# _framework density 16.882270999999999
#
# number of rings (size 3 to 8) (size 9 to 14) (size 15 to 20)
#    0.000    1.333    5.000    3.000    0.000    4.000 
#    0.000    0.000    0.000    2.000    0.000    0.000 
#    0.000    0.000    0.000    0.000    0.000    0.000 
#
# Total GULP energy -133697.404544 kJ/mol
# GULP energy per Si atom -5570.725189 kJ/mol
# Density = 1.684385 g / cm^3
# Si number density = 16.882271 Si / 1000 Ang^3
#
#
#
# Elastic Constant Matrix: (Units=GPa)
#
#
# Indices 1 2 3 4 5 6 
#
# 1 76.8976 37.3871 61.7696 0.0000 3.1054 0.0000
# 2 37.3871 63.9926 39.1455 0.0000 2.9994 0.0000
# 3 61.7696 39.1455 165.3094 0.0000 -0.8583 0.0000
# 4 0.0000 0.0000 0.0000 10.1764 0.0000 -1.6777
# 5 3.1054 2.9994 -0.8583 0.0000 35.9025 0.0000
# 6 0.0000 0.0000 0.0000 -1.6777 0.0000 31.2006
#
#
#
# Elastic Compliance Matrix: (Units=1/GPa)
#
#
# Indices 1 2 3 4 5 6 
#
# 1 0.022610 -0.009326 -0.006247 0.000000 -0.001326 0.000000
# 2 -0.009326 0.022217 -0.001782 0.000000 -0.001092 0.000000
# 3 -0.006247 -0.001782 0.008810 0.000000 0.000900 0.000000
# 4 0.000000 0.000000 0.000000 0.099145 0.000000 0.005331
# 5 -0.001326 -0.001092 0.000900 0.000000 0.028081 0.000000
# 6 0.000000 0.000000 0.000000 0.005331 0.000000 0.032337
#
#
# Mechanical properties :
#
#
# Convention : Reuss Voigt Hill
#
# Bulk Modulus (GPa) = 52.83444 64.75600 58.79522
# Shear Modulus (GPa) = 19.66808 26.64908 23.15858
#
# Velocity S-wave (km/s) = 3.41693 3.97737 3.70776
# Velocity P-wave (km/s) = 6.85062 7.71579 7.29604
#
# Compressibility (1/GPa) = 0.01892705
#
# Stress axis : x y z
#
# Youngs Moduli (GPa) = 44.22784 45.01117 113.50616
#
# Poissons Ratio (x) = 0.41979 0.70907
# Poissons Ratio (y) = 0.41248 0.20224
# Poissons Ratio (z) = 0.27629 0.08020
#
# Static dielectric constant tensor:
#      x y z
#    x 1.563430 0.000000 0.012210 
#    y 0.000000 1.580480 0.000000 
#    z 0.012210 0.000000 1.567340 
# 
# From -- ./inp_files/24142.got.cif
#   From: 2010.05.17/outbox.cif.g08.bks.cpg/sg10_13_cif.got.tgz:24142.got - 2010.06.03 11:33:40.
