data_PCOD9146505
_publ_section_title
;
Structure prediction by ZEFSAII (Michael W. Deem and Ramdas Pophale) SiO2 
 PCOD9146505
Probable space group: P 2/M
;
_chemical_formula_sum "Si O2"
_cell_formula_units_Z 32
_cell_length_a 14.873851
_cell_length_b 7.384933
_cell_length_c 12.858207
_cell_angle_alpha 90.000000
_cell_angle_beta 95.558569
_cell_angle_gamma 90.000000
_cell_volume 1405.734815
_symmetry_space_group_name_H-M "P 2/M"
_symmetry_group_IT_number 10
_symmetry_cell_setting 'monoclinic'
loop_
_space_group_symop_operation_xyz
x,y,z
-x,y,-z
-x,-y,-z
x,-y,z
loop_
_atom_site_type_symbol
_atom_site_label
_atom_site_fract_x
_atom_site_fract_y
_atom_site_fract_z
Si Si1 0.231468 0.218320 0.355003
Si Si2 0.908527 0.779064 0.044812
Si Si3 0.253233 0.779076 0.124347
Si Si4 0.458959 0.779229 0.106605
Si Si5 0.819430 0.789690 0.237680
Si Si6 0.601652 0.220635 0.494747
Si Si7 0.626160 0.778579 0.262912
Si Si8 0.099456 0.288680 0.530845
O O1 0.221122 0.279368 0.235534
O O2 0.327988 0.279892 0.410610
O O3 0.157901 0.268783 0.432984
O O4 0.231998 0.000000 0.352607
O O5 0.820144 0.725582 0.969227
O O6 0.914063 0.000000 0.043650
O O7 0.890718 0.718448 0.161499
O O8 0.000000 0.714717 0.000000
O O9 0.356099 0.719760 0.113713
O O10 0.255103 0.000000 0.124055
O O11 0.532265 0.721688 0.200759
O O12 0.456695 0.000000 0.108307
O O13 0.500000 0.726069 0.000000
O O14 0.717874 0.713930 0.218339
O O15 0.852375 0.784182 0.360366
O O16 0.809041 0.000000 0.208971
O O17 0.500000 0.281519 0.500000
O O18 0.632420 0.275404 0.383658
O O19 0.601151 0.000000 0.497126
O O20 0.625907 0.000000 0.260404
O O21 0.089010 0.500000 0.552358
O O22 0.000000 0.210348 0.500000
#
# Coordination Sequence:
#
# PCOD9146505 Si02
#       8
#     4   4   4   4   4   4   4   4
#     4  10  19  33  55  82 110 142 180 218 263 322
#     4   9  18  30  46  74 109 139 168 216 272 311
#     4   9  17  28  44  75 113 144 177 216 261 315
#     4   9  15  23  38  65 107 149 174 205 261 316
#     4  10  19  34  57  81 105 135 176 218 262 321
#     4   9  15  24  41  71 107 136 165 207 255 300
#     4   9  15  24  40  67  98 130 168 207 249 298
#     4  11  25  41  56  76 105 140 179 227 279 323
#
# _framework density 22.763894000000001
#
# number of rings (size 3 to 8) (size 9 to 14) (size 15 to 20)
#    0.000    2.500    1.250    1.875    1.750    7.000 
#    0.000    0.000    0.000    1.500    0.000    0.000 
#    0.000    2.000    0.000    0.000    0.000    0.000 
#
# Total GULP energy -178759.177541 kJ/mol
# GULP energy per Si atom -5586.224298 kJ/mol
# Density = 2.271208 g / cm^3
# Si number density = 22.763894 Si / 1000 Ang^3
#
#
#
# Elastic Constant Matrix: (Units=GPa)
#
#
# Indices 1 2 3 4 5 6 
#
# 1 159.4074 -3.6162 45.5556 0.0000 -19.5664 0.0000
# 2 -3.6162 75.4228 -9.5211 0.0000 -0.7411 0.0000
# 3 45.5556 -9.5211 112.9323 0.0000 -18.4790 0.0000
# 4 0.0000 0.0000 0.0000 -43.9014 0.0000 -4.3610
# 5 -19.5664 -0.7411 -18.4790 0.0000 39.7189 0.0000
# 6 0.0000 0.0000 0.0000 -4.3610 0.0000 -1.5966
#
#
#
# Elastic Compliance Matrix: (Units=1/GPa)
#
#
# Indices 1 2 3 4 5 6 
#
# 1 0.007298 0.000052 -0.002545 0.000000 0.002412 0.000000
# 2 0.000052 0.013428 0.001251 0.000000 0.000859 0.000000
# 3 -0.002545 0.001251 0.010592 0.000000 0.003698 0.000000
# 4 0.000000 0.000000 0.000000 -0.031260 0.000000 0.085385
# 5 0.002412 0.000859 0.003698 0.000000 0.028101 0.000000
# 6 0.000000 0.000000 0.000000 0.085385 0.000000 -0.859551
#
#
# Mechanical properties :
#
#
# Convention : Reuss Voigt Hill
#
# Bulk Modulus (GPa) = 34.67979 45.84434 40.26207
# Shear Modulus (GPa) = -6.10278 19.86713 6.88218
#
# Velocity S-wave (km/s) = -1.63912 2.95744 1.74065
# Velocity P-wave (km/s) = 3.41838 5.64311 4.66530
#
# Compressibility (1/GPa) = 0.02883524
#
# Stress axis : x y z
#
# Youngs Moduli (GPa) = 137.02911 74.47397 94.41169
#
# Poissons Ratio (x) = -0.00390 0.24025
# Poissons Ratio (y) = -0.00717 -0.11815
# Poissons Ratio (z) = 0.34870 -0.09320
#
# Static dielectric constant tensor:
#      x y z
#    x 1.907350 0.000000 -0.018110 
#    y 0.000000 1.893050 0.000000 
#    z -0.018110 0.000000 1.816200 
# 
# From -- ./inp_files/49924.got.cif
#   From: 2010.05.17/outbox.cif.g08.bks.cpg/sg10_25_cif.got.tgz:49924.got - 2010.06.03 11:33:40.
