data_PCOD9146231
_publ_section_title
;
Structure prediction by ZEFSAII (Michael W. Deem and Ramdas Pophale) SiO2 
 PCOD9146231
Probable space group: P 2/M
;
_chemical_formula_sum "Si O2"
_cell_formula_units_Z 32
_cell_length_a 5.210239
_cell_length_b 11.183490
_cell_length_c 30.132906
_cell_angle_alpha 90.000000
_cell_angle_beta 91.791704
_cell_angle_gamma 90.000000
_cell_volume 1754.945510
_symmetry_space_group_name_H-M "P 2/M"
_symmetry_group_IT_number 10
_symmetry_cell_setting 'monoclinic'
loop_
_space_group_symop_operation_xyz
x,y,z
-x,y,-z
-x,-y,-z
x,-y,z
loop_
_atom_site_type_symbol
_atom_site_label
_atom_site_fract_x
_atom_site_fract_y
_atom_site_fract_z
Si Si1 0.026355 0.636548 0.571822
Si Si2 0.539865 0.855134 0.893606
Si Si3 0.585219 0.871560 0.644579
Si Si4 0.061161 0.141247 0.951831
Si Si5 0.488934 0.355843 0.820370
Si Si6 0.478344 0.785881 0.451444
Si Si7 0.910025 0.260104 0.333850
Si Si8 0.976479 0.360421 0.761604
O O1 0.013167 0.500000 0.558405
O O2 0.278740 0.699763 0.554411
O O3 0.040180 0.646954 0.625748
O O4 0.779001 0.707631 0.553719
O O5 0.317265 0.821088 0.927615
O O6 0.525083 0.751285 0.856205
O O7 0.814881 0.845946 0.919006
O O8 0.507119 0.000000 0.881022
O O9 0.529486 0.868800 0.591716
O O10 0.387199 0.777246 0.664209
O O11 0.883521 0.842457 0.652990
O O12 0.523146 0.000000 0.663544
O O13 0.104565 0.000000 0.959208
O O14 0.000000 0.194687 0.000000
O O15 0.508967 0.500000 0.834177
O O16 0.210426 0.339010 0.796748
O O17 0.708945 0.335638 0.784645
O O18 0.500000 0.842931 0.500000
O O19 0.977931 0.296580 0.284638
O O20 0.979651 0.500000 0.750814
#
# Coordination Sequence:
#
# PCOD9146231 Si02
#       8
#     4   4   4   4   4   4   4   4
#     4  10  20  33  51  75 102 128 154 197 256 301
#     4  10  19  33  53  77 109 142 177 225 272 314
#     4  10  21  37  54  73 100 131 163 203 253 299
#     4   9  17  30  52  80 106 139 184 228 269 315
#     4  10  21  36  55  79 108 145 182 216 263 318
#     4  10  21  34  50  73  98 129 167 198 231 293
#     4  10  20  36  56  77  99 125 167 211 249 299
#     4  10  20  36  57  78 102 134 174 213 250 306
#
# _framework density 18.234185
#
# number of rings (size 3 to 8) (size 9 to 14) (size 15 to 20)
#    0.000    2.125    0.000    3.375    0.000    3.250 
#    0.000    7.500    0.000    6.750    0.000    0.000 
#    0.000    0.000    0.000    0.000    0.000    0.000 
#
# Total GULP energy -178265.629295 kJ/mol
# GULP energy per Si atom -5570.800915 kJ/mol
# Density = 1.819268 g / cm^3
# Si number density = 18.234185 Si / 1000 Ang^3
#
#
#
# Elastic Constant Matrix: (Units=GPa)
#
#
# Indices 1 2 3 4 5 6 
#
# 1 74.2138 0.2141 -25.0356 0.0000 -9.9700 0.0000
# 2 0.2141 51.4463 19.1470 0.0000 -0.5948 0.0000
# 3 -25.0356 19.1470 53.5765 0.0000 -5.6352 0.0000
# 4 0.0000 0.0000 0.0000 -3.7691 0.0000 -11.4937
# 5 -9.9700 -0.5948 -5.6352 0.0000 12.8984 0.0000
# 6 0.0000 0.0000 0.0000 -11.4937 0.0000 6.3669
#
#
#
# Elastic Compliance Matrix: (Units=1/GPa)
#
#
# Indices 1 2 3 4 5 6 
#
# 1 0.021244 -0.005074 0.014091 0.000000 0.022343 0.000000
# 2 -0.005074 0.023714 -0.011680 0.000000 -0.007932 0.000000
# 3 0.014091 -0.011680 0.031982 0.000000 0.024326 0.000000
# 4 0.000000 0.000000 0.000000 -0.040787 0.000000 -0.073629
# 5 0.022343 -0.007932 0.024326 0.000000 0.105062 0.000000
# 6 0.000000 0.000000 0.000000 -0.073629 0.000000 0.024145
#
#
# Mechanical properties :
#
#
# Convention : Reuss Voigt Hill
#
# Bulk Modulus (GPa) = 13.96394 18.65415 16.30905
# Shear Modulus (GPa) = 25.69903 15.42665 20.56284
#
# Velocity S-wave (km/s) = 3.75825 2.91181 3.36178
# Velocity P-wave (km/s) = 5.14853 4.64300 4.90228
#
# Compressibility (1/GPa) = 0.07161302
#
# Stress axis : x y z
#
# Youngs Moduli (GPa) = 47.07141 42.16867 31.26738
#
# Poissons Ratio (x) = 0.21398 -0.44058
# Poissons Ratio (y) = 0.23885 0.36521
# Poissons Ratio (z) = -0.66327 0.49254
#
# Static dielectric constant tensor:
#      x y z
#    x 1.612280 0.000000 -0.001390 
#    y 0.000000 1.618790 0.000000 
#    z -0.001390 0.000000 1.640170 
# 
# From -- ./inp_files/87462.got.cif
#   From: 2010.05.17/outbox.cif.g08.bks.cpg/sg10_44_cif.got.tgz:87462.got - 2010.06.03 11:33:40.
