data_PCOD9146470
_publ_section_title
;
Structure prediction by ZEFSAII (Michael W. Deem and Ramdas Pophale) SiO2 
 PCOD9146470
Probable space group: P 2/M
;
_chemical_formula_sum "Si O2"
_cell_formula_units_Z 32
_cell_length_a 30.415958
_cell_length_b 9.253204
_cell_length_c 12.852436
_cell_angle_alpha 90.000000
_cell_angle_beta 27.834322
_cell_angle_gamma 90.000000
_cell_volume 1688.955708
_symmetry_space_group_name_H-M "P 2/M"
_symmetry_group_IT_number 10
_symmetry_cell_setting 'monoclinic'
loop_
_space_group_symop_operation_xyz
x,y,z
-x,y,-z
-x,-y,-z
x,-y,z
loop_
_atom_site_type_symbol
_atom_site_label
_atom_site_fract_x
_atom_site_fract_y
_atom_site_fract_z
Si Si1 0.847027 0.332112 0.124309
Si Si2 0.757154 0.827808 0.118810
Si Si3 0.173041 0.331209 0.412281
Si Si4 0.339849 0.669518 0.365381
Si Si5 0.977592 0.838011 0.167982
Si Si6 0.570980 0.172714 0.622790
Si Si7 0.103758 0.671475 0.324088
Si Si8 0.619016 0.328433 0.960982
O O1 0.848554 0.500000 0.089243
O O2 0.810109 0.231855 0.109587
O O3 0.771269 0.317935 0.376053
O O4 0.948929 0.275906 0.940034
O O5 0.648287 0.790738 0.372222
O O6 0.764694 0.000000 0.094634
O O7 0.811470 0.752763 0.911003
O O8 0.161290 0.500000 0.467662
O O9 0.124683 0.224338 0.594498
O O10 0.121028 0.309476 0.410885
O O11 0.284606 0.303841 0.177717
O O12 0.365053 0.500000 0.326406
O O13 0.393175 0.760172 0.342402
O O14 0.362793 0.709528 0.198947
O O15 0.989089 0.000000 0.187865
O O16 0.000000 0.845284 0.000000
O O17 0.469407 0.239325 0.813728
O O18 0.567470 0.000000 0.639484
O O19 0.110507 0.500000 0.287628
O O20 0.000000 0.718635 0.500000
O O21 0.598364 0.500000 0.007574
#
# Coordination Sequence:
#
# PCOD9146470 Si02
#       8
#     4   4   4   4   4   4   4   4
#     4  10  19  33  55  80 108 144 184 228 276 325
#     4  10  21  37  57  82 111 141 178 225 277 333
#     4  10  22  39  58  82 111 144 187 234 277 328
#     4   9  18  32  52  79 109 144 186 226 268 323
#     4  11  23  36  52  79 115 151 184 220 267 326
#     4  10  21  35  53  80 111 144 183 226 272 323
#     4  10  21  38  61  87 111 138 178 228 280 333
#     4  10  20  35  54  77 108 146 186 228 274 325
#
# _framework density 18.946618999999998
#
# number of rings (size 3 to 8) (size 9 to 14) (size 15 to 20)
#    0.000    2.000    0.000    3.375    0.000    8.250 
#    0.000    0.625    0.000    3.750    0.000    0.000 
#    0.000    0.000    0.000    0.000    0.000    0.000 
#
# Total GULP energy -178621.319682 kJ/mol
# GULP energy per Si atom -5581.916240 kJ/mol
# Density = 1.890350 g / cm^3
# Si number density = 18.946619 Si / 1000 Ang^3
#
#
#
# Elastic Constant Matrix: (Units=GPa)
#
#
# Indices 1 2 3 4 5 6 
#
# 1 46.4086 28.8846 34.1144 0.0000 -13.1829 0.0000
# 2 28.8846 49.4691 57.3903 0.0000 -2.9287 0.0000
# 3 34.1144 57.3903 103.2404 0.0000 -8.8295 0.0000
# 4 0.0000 0.0000 0.0000 26.5636 0.0000 -4.1734
# 5 -13.1829 -2.9287 -8.8295 0.0000 29.8966 0.0000
# 6 0.0000 0.0000 0.0000 -4.1734 0.0000 10.7411
#
#
#
# Elastic Compliance Matrix: (Units=1/GPa)
#
#
# Indices 1 2 3 4 5 6 
#
# 1 0.039916 -0.024314 0.001670 0.000000 0.015712 0.000000
# 2 -0.024314 0.072176 -0.033240 0.000000 -0.013468 0.000000
# 3 0.001670 -0.033240 0.028106 0.000000 0.005781 0.000000
# 4 0.000000 0.000000 0.000000 0.040093 0.000000 0.015578
# 5 0.015712 -0.013468 0.005781 0.000000 0.040765 0.000000
# 6 0.000000 0.000000 0.000000 0.015578 0.000000 0.099153
#
#
# Mechanical properties :
#
#
# Convention : Reuss Voigt Hill
#
# Bulk Modulus (GPa) = 35.17214 48.87741 42.02478
# Shear Modulus (GPa) = 11.32622 18.68886 15.00754
#
# Velocity S-wave (km/s) = 2.44764 3.14410 2.81747
# Velocity P-wave (km/s) = 5.15675 6.24771 5.72826
#
# Compressibility (1/GPa) = 0.02843159
#
# Stress axis : x y z
#
# Youngs Moduli (GPa) = 25.05232 13.85506 35.57915
#
# Poissons Ratio (x) = 0.33687 -0.05941
# Poissons Ratio (y) = 0.60911 1.18263
# Poissons Ratio (z) = -0.04183 0.46054
#
# Static dielectric constant tensor:
#      x y z
#    x 1.657280 0.000000 0.003210 
#    y 0.000000 1.633980 0.000000 
#    z 0.003210 0.000000 1.683130 
# 
# From -- ./inp_files/58177.got.cif
#   From: 2010.05.17/outbox.cif.g08.bks.cpg/sg10_30_cif.got.tgz:58177.got - 2010.06.03 11:33:40.
