data_PCOD9146453
_publ_section_title
;
Structure prediction by ZEFSAII (Michael W. Deem and Ramdas Pophale) SiO2 
 PCOD9146453
Probable space group: P 2/M
;
_chemical_formula_sum "Si O2"
_cell_formula_units_Z 28
_cell_length_a 28.418418
_cell_length_b 9.259731
_cell_length_c 9.850215
_cell_angle_alpha 90.000000
_cell_angle_beta 38.603776
_cell_angle_gamma 90.000000
_cell_volume 1617.262856
_symmetry_space_group_name_H-M "P 2/M"
_symmetry_group_IT_number 10
_symmetry_cell_setting 'monoclinic'
loop_
_space_group_symop_operation_xyz
x,y,z
-x,y,-z
-x,-y,-z
x,-y,z
loop_
_atom_site_type_symbol
_atom_site_label
_atom_site_fract_x
_atom_site_fract_y
_atom_site_fract_z
Si Si1 0.799112 0.330043 0.988554
Si Si2 0.499834 0.175913 0.157167
Si Si3 0.639722 0.173510 0.027408
Si Si4 0.959350 0.332621 0.235525
Si Si5 0.357540 0.825972 0.661791
Si Si6 0.946667 0.831288 0.751864
Si Si7 0.794470 0.669173 0.674382
O O1 0.795978 0.500000 0.026594
O O2 0.869741 0.255428 0.900891
O O3 0.809006 0.314083 0.803176
O O4 0.720383 0.252106 0.199125
O O5 0.425070 0.216973 0.409422
O O6 0.501034 0.000000 0.153014
O O7 0.500000 0.224164 0.000000
O O8 0.573049 0.222372 0.078043
O O9 0.720151 0.240999 0.808110
O O10 0.644438 0.000000 0.009114
O O11 0.624095 0.209368 0.221486
O O12 0.958951 0.500000 0.285805
O O13 0.871794 0.287147 0.426652
O O14 0.005975 0.234805 0.232420
O O15 0.000000 0.329043 0.000000
O O16 0.348098 0.000000 0.675793
O O17 0.000000 0.817155 0.500000
O O18 0.930156 0.000000 0.809648
O O19 0.780028 0.500000 0.680397
#
# Coordination Sequence:
#
# PCOD9146453 Si02
#       7
#     4   4   4   4   4   4   4
#     4  10  19  33  55  80 106 138 178 220 267 317
#     4   9  17  31  51  75 104 135 167 207 260 316
#     4   9  17  30  52  77  98 131 172 211 255 307
#     4  10  21  38  57  77 107 148 186 220 267 322
#     4   9  17  31  52  76 103 131 171 218 257 306
#     4  11  22  35  56  83 110 140 180 227 272 314
#     4   9  18  33  53  77 104 136 174 218 262 310
#
# _framework density 17.313202
#
# number of rings (size 3 to 8) (size 9 to 14) (size 15 to 20)
#    0.000    2.429    1.429    1.286    0.000    3.714 
#    2.571    0.714    0.000    4.286    0.000    0.000 
#    0.000    0.000    0.000    0.000    0.000    0.000 
#
# Total GULP energy -156168.114977 kJ/mol
# GULP energy per Si atom -5577.432678 kJ/mol
# Density = 1.727380 g / cm^3
# Si number density = 17.313202 Si / 1000 Ang^3
#
#
#
# Elastic Constant Matrix: (Units=GPa)
#
#
# Indices 1 2 3 4 5 6 
#
# 1 100.5196 50.3762 77.6719 0.0000 -21.7787 0.0000
# 2 50.3762 48.8489 45.5547 0.0000 -9.3817 0.0000
# 3 77.6719 45.5547 143.1133 0.0000 -26.3495 0.0000
# 4 0.0000 0.0000 0.0000 39.4523 0.0000 -17.5633
# 5 -21.7787 -9.3817 -26.3495 0.0000 23.9991 0.0000
# 6 0.0000 0.0000 0.0000 -17.5633 0.0000 19.0634
#
#
#
# Elastic Compliance Matrix: (Units=1/GPa)
#
#
# Indices 1 2 3 4 5 6 
#
# 1 0.027149 -0.019999 -0.006608 0.000000 0.009564 0.000000
# 2 -0.019999 0.043889 -0.004135 0.000000 -0.005531 0.000000
# 3 -0.006608 -0.004135 0.013146 0.000000 0.006820 0.000000
# 4 0.000000 0.000000 0.000000 0.042972 0.000000 0.039591
# 5 0.009564 -0.005531 0.006820 0.000000 0.055674 0.000000
# 6 0.000000 0.000000 0.000000 0.039591 0.000000 0.088932
#
#
# Mechanical properties :
#
#
# Convention : Reuss Voigt Hill
#
# Bulk Modulus (GPa) = 44.05126 71.07639 57.56383
# Shear Modulus (GPa) = 14.67091 24.42821 19.54956
#
# Velocity S-wave (km/s) = 2.91414 3.76035 3.36396
# Velocity P-wave (km/s) = 6.06811 7.74571 6.95766
#
# Compressibility (1/GPa) = 0.02270083
#
# Stress axis : x y z
#
# Youngs Moduli (GPa) = 36.83401 22.78473 76.07102
#
# Poissons Ratio (x) = 0.45566 0.50266
# Poissons Ratio (y) = 0.73663 0.31455
# Poissons Ratio (z) = 0.24339 0.09421
#
# Static dielectric constant tensor:
#      x y z
#    x 1.563200 0.000000 0.005760 
#    y 0.000000 1.577370 0.000000 
#    z 0.005760 0.000000 1.579830 
# 
# From -- ./inp_files/31553.got.cif
#   From: 2010.05.17/outbox.cif.g08.bks.cpg/sg10_16_cif.got.tgz:31553.got - 2010.06.03 11:33:40.
