data_PCOD9146665
_publ_section_title
;
Structure prediction by ZEFSAII (Michael W. Deem and Ramdas Pophale) SiO2 
 PCOD9146665
Probable space group: P 2/M
;
_chemical_formula_sum "Si O2"
_cell_formula_units_Z 19
_cell_length_a 13.325425
_cell_length_b 7.596672
_cell_length_c 18.134351
_cell_angle_alpha 90.000000
_cell_angle_beta 32.380610
_cell_angle_gamma 90.000000
_cell_volume 983.103426
_symmetry_space_group_name_H-M "P 2/M"
_symmetry_group_IT_number 10
_symmetry_cell_setting 'monoclinic'
loop_
_space_group_symop_operation_xyz
x,y,z
-x,y,-z
-x,-y,-z
x,-y,z
loop_
_atom_site_type_symbol
_atom_site_label
_atom_site_fract_x
_atom_site_fract_y
_atom_site_fract_z
Si Si1 0.450822 0.704889 0.643828
Si Si2 0.104010 0.291443 0.767789
Si Si3 0.745463 0.699592 0.078136
Si Si4 0.500000 0.000000 0.000000
Si Si5 0.942131 0.000000 0.760737
Si Si6 0.485553 0.000000 0.179327
Si Si7 0.282302 0.000000 0.459285
O O1 0.507468 0.500000 0.599268
O O2 0.314748 0.757225 0.660962
O O3 0.314111 0.713366 0.800170
O O4 0.618948 0.832914 0.561685
O O5 0.103699 0.500000 0.750335
O O6 0.016122 0.169907 0.759878
O O7 0.961166 0.266178 0.925161
O O8 0.706258 0.500000 0.078689
O O9 0.615613 0.831542 0.114150
O O10 0.280466 0.000000 0.106661
O O11 0.422808 0.000000 0.134344
O O12 0.062243 0.000000 0.611185
O O13 0.336039 0.000000 0.339558
#
# Coordination Sequence:
#
# PCOD9146665 Si02
#       7
#     4   4   4   1   2   2   2
#     4   9  18  32  56  88 123 156 186 217 271 345
#     4  10  19  33  56  88 121 155 189 228 272 329
#     4   9  16  31  55  86 119 150 184 229 277 330
#     4  12  24  44  68  80 104 140 198 256 296 324
#     4  12  25  41  56  83 114 149 195 244 279 336
#     4  10  20  39  60  85 107 143 189 241 286 339
#     4  10  23  38  58  83 120 154 181 223 291 339
#
# _framework density 19.326552
#
# number of rings (size 3 to 8) (size 9 to 14) (size 15 to 20)
#    0.000    2.105    2.105    1.263    0.000    5.474 
#    0.000    8.421    0.000    0.000    0.000    7.368 
#    0.000    0.000    0.000    0.000    0.000    0.000 
#
# Total GULP energy -105776.859285 kJ/mol
# GULP energy per Si atom -5567.203120 kJ/mol
# Density = 1.928256 g / cm^3
# Si number density = 19.326552 Si / 1000 Ang^3
#
#
#
# Elastic Constant Matrix: (Units=GPa)
#
#
# Indices 1 2 3 4 5 6 
#
# 1 98.8302 28.4117 27.4669 0.0000 0.3451 0.0000
# 2 28.4117 50.8851 22.7195 0.0000 -2.6750 0.0000
# 3 27.4669 22.7195 138.5495 0.0000 -2.2951 0.0000
# 4 0.0000 0.0000 0.0000 2.6988 0.0000 2.5178
# 5 0.3451 -2.6750 -2.2951 0.0000 14.8489 0.0000
# 6 0.0000 0.0000 0.0000 2.5178 0.0000 -1.7307
#
#
#
# Elastic Compliance Matrix: (Units=1/GPa)
#
#
# Indices 1 2 3 4 5 6 
#
# 1 0.012345 -0.006339 -0.001435 0.000000 -0.001651 0.000000
# 2 -0.006339 0.024621 -0.002712 0.000000 0.004164 0.000000
# 3 -0.001435 -0.002712 0.007960 0.000000 0.000775 0.000000
# 4 0.000000 0.000000 0.000000 0.157196 0.000000 0.228679
# 5 -0.001651 0.004164 0.000775 0.000000 0.068253 0.000000
# 6 0.000000 0.000000 0.000000 0.228679 0.000000 -0.245125
#
#
# Mechanical properties :
#
#
# Convention : Reuss Voigt Hill
#
# Bulk Modulus (GPa) = 41.74644 49.49567 45.62105
# Shear Modulus (GPa) = 92.23956 17.14119 54.69037
#
# Velocity S-wave (km/s) = 6.91596 2.98136 5.32536
# Velocity P-wave (km/s) = 9.24237 6.12512 7.84023
#
# Compressibility (1/GPa) = 0.02395414
#
# Stress axis : x y z
#
# Youngs Moduli (GPa) = 81.00217 40.61558 125.63295
#
# Poissons Ratio (x) = 0.25746 0.18032
# Poissons Ratio (y) = 0.51347 0.34068
# Poissons Ratio (z) = 0.11626 0.11014
#
# Static dielectric constant tensor:
#      x y z
#    x 1.640670 0.000000 0.063110 
#    y 0.000000 1.678160 0.000000 
#    z 0.063110 0.000000 1.720630 
# 
# From -- ./inp_files/45421.got.cif
#   From: 2010.05.17/outbox.cif.g08.bks.cpg/sg10_23_cif.got.tgz:45421.got - 2010.06.03 11:33:40.
