data_PCOD9146869
_publ_section_title
;
Structure prediction by ZEFSAII (Michael W. Deem and Ramdas Pophale) SiO2 
 PCOD9146869
Probable space group: P 2/M
;
_chemical_formula_sum "Si O2"
_cell_formula_units_Z 18
_cell_length_a 9.056083
_cell_length_b 11.836385
_cell_length_c 17.914109
_cell_angle_alpha 90.000000
_cell_angle_beta 31.705892
_cell_angle_gamma 90.000000
_cell_volume 1009.197774
_symmetry_space_group_name_H-M "P 2/M"
_symmetry_group_IT_number 10
_symmetry_cell_setting 'monoclinic'
loop_
_space_group_symop_operation_xyz
x,y,z
-x,y,-z
-x,-y,-z
x,-y,z
loop_
_atom_site_type_symbol
_atom_site_label
_atom_site_fract_x
_atom_site_fract_y
_atom_site_fract_z
Si Si1 0.521313 0.689920 0.770868
Si Si2 0.967565 0.500000 0.611333
Si Si3 0.943248 0.500000 0.799273
Si Si4 0.273248 0.734703 0.041037
Si Si5 0.808266 0.869621 0.158064
Si Si6 0.598754 0.500000 0.279912
O O1 0.801846 0.614693 0.659065
O O2 0.478388 0.804807 0.742465
O O3 0.330073 0.605875 0.803238
O O4 0.414638 0.710397 0.900173
O O5 0.968208 0.500000 0.700250
O O6 0.274169 0.500000 0.444179
O O7 0.800318 0.614542 0.890020
O O8 0.238650 0.500000 0.713608
O O9 0.994903 0.807465 0.141293
O O10 0.500000 0.790316 0.000000
O O11 0.759977 0.000000 0.197844
O O12 0.000000 0.865780 0.000000
#
# Coordination Sequence:
#
# PCOD9146869 Si02
#       6
#     4   2   2   4   4   2
#     4  10  19  34  54  77 106 138 168 217 257 308
#     4  11  22  35  51  79 110 139 175 208 256 315
#     4  12  20  34  51  82 108 139 166 212 266 320
#     4  11  20  32  53  80 111 135 168 212 267 316
#     4   9  19  34  53  78 105 136 174 212 261 310
#     4  11  22  34  53  75 108 143 176 209 255 311
#
# _framework density 17.835947999999998
#
# number of rings (size 3 to 8) (size 9 to 14) (size 15 to 20)
#    0.000    1.556    4.444    3.333    0.000    1.333 
#    0.000    0.000    0.000    2.667    0.000    1.556 
#    0.000    0.000    0.000    0.000    0.000    0.000 
#
# Total GULP energy -100211.672493 kJ/mol
# GULP energy per Si atom -5567.315138 kJ/mol
# Density = 1.779535 g / cm^3
# Si number density = 17.835948 Si / 1000 Ang^3
#
#
#
# Elastic Constant Matrix: (Units=GPa)
#
#
# Indices 1 2 3 4 5 6 
#
# 1 166.0193 59.7033 42.8204 0.0000 -0.4824 0.0000
# 2 59.7033 93.5874 17.0962 0.0000 2.1905 0.0000
# 3 42.8204 17.0962 47.4870 0.0000 -6.7299 0.0000
# 4 0.0000 0.0000 0.0000 3.6709 0.0000 -8.1090
# 5 -0.4824 2.1905 -6.7299 0.0000 24.1725 0.0000
# 6 0.0000 0.0000 0.0000 -8.1090 0.0000 6.3242
#
#
#
# Elastic Compliance Matrix: (Units=1/GPa)
#
#
# Indices 1 2 3 4 5 6 
#
# 1 0.009568 -0.004775 -0.007100 0.000000 -0.001353 0.000000
# 2 -0.004775 0.013942 -0.000943 0.000000 -0.001621 0.000000
# 3 -0.007100 -0.000943 0.028934 0.000000 0.007999 0.000000
# 4 0.000000 0.000000 0.000000 -0.148659 0.000000 -0.190616
# 5 -0.001353 -0.001621 0.007999 0.000000 0.043716 0.000000
# 6 0.000000 0.000000 0.000000 -0.190616 0.000000 -0.086290
#
#
# Mechanical properties :
#
#
# Convention : Reuss Voigt Hill
#
# Bulk Modulus (GPa) = 37.30425 60.70372 49.00398
# Shear Modulus (GPa) = -47.97754 19.33177 -14.32289
#
# Velocity S-wave (km/s) = -5.19209 3.29578 -2.83686
# Velocity P-wave (km/s) = 3.87079 6.97074 4.09928
#
# Compressibility (1/GPa) = 0.02680660
#
# Stress axis : x y z
#
# Youngs Moduli (GPa) = 104.51464 71.72742 34.56103
#
# Poissons Ratio (x) = 0.34251 0.24540
# Poissons Ratio (y) = 0.49907 0.03260
# Poissons Ratio (z) = 0.74210 0.06765
#
# Static dielectric constant tensor:
#      x y z
#    x 1.667360 0.000000 -0.059660 
#    y 0.000000 1.630750 0.000000 
#    z -0.059660 0.000000 1.614490 
# 
# From -- ./inp_files/17788.got.cif
#   From: 2010.05.17/outbox.cif.g08.bks.cpg/sg10_9_cif.got.tgz:17788.got - 2010.06.03 11:33:40.
