data_PCOD9146593
_publ_section_title
;
Structure prediction by ZEFSAII (Michael W. Deem and Ramdas Pophale) SiO2 
 PCOD9146593
Probable space group: P 2/M
;
_chemical_formula_sum "Si O2"
_cell_formula_units_Z 28
_cell_length_a 13.187022
_cell_length_b 7.429326
_cell_length_c 13.232383
_cell_angle_alpha 90.000000
_cell_angle_beta 111.617168
_cell_angle_gamma 90.000000
_cell_volume 1205.205827
_symmetry_space_group_name_H-M "P 2/M"
_symmetry_group_IT_number 10
_symmetry_cell_setting 'monoclinic'
loop_
_space_group_symop_operation_xyz
x,y,z
-x,y,-z
-x,-y,-z
x,-y,z
loop_
_atom_site_type_symbol
_atom_site_label
_atom_site_fract_x
_atom_site_fract_y
_atom_site_fract_z
Si Si1 0.957616 0.782407 0.372126
Si Si2 0.840461 0.208055 0.679409
Si Si3 0.716108 0.795945 0.252124
Si Si4 0.122173 0.282098 0.074642
Si Si5 0.481603 0.782119 0.210942
Si Si6 0.603262 0.220228 0.604199
Si Si7 0.304811 0.290063 0.983996
O O1 0.834899 0.712688 0.312962
O O2 0.000000 0.748792 0.500000
O O3 0.050225 0.713230 0.329500
O O4 0.950082 0.000000 0.354035
O O5 0.849983 0.214802 0.803728
O O6 0.721289 0.284329 0.609611
O O7 0.837677 0.000000 0.644679
O O8 0.605918 0.714846 0.257512
O O9 0.721884 0.000000 0.295448
O O10 0.695901 0.801533 0.124505
O O11 0.126558 0.500000 0.079608
O O12 0.209586 0.221359 0.023448
O O13 0.000000 0.228342 0.000000
O O14 0.417396 0.724364 0.287576
O O15 0.416524 0.726863 0.087223
O O16 0.484660 0.000000 0.211835
O O17 0.500000 0.275686 0.500000
O O18 0.605834 0.000000 0.604096
O O19 0.283805 0.500000 0.956508
#
# Coordination Sequence:
#
# PCOD9146593 Si02
#       7
#     4   4   4   4   4   4   4
#     4   9  19  34  54  83 113 139 174 221 268 311
#     4  10  19  33  56  82 107 138 176 220 262 307
#     4  10  21  35  54  79 109 144 178 216 264 316
#     4  10  21  36  54  76 106 143 177 215 266 318
#     4  10  20  35  55  80 110 142 176 217 263 316
#     4   9  18  31  52  82 109 136 175 219 263 311
#     4  11  22  36  55  79 108 141 178 222 269 316
#
# _framework density 23.232547
#
# number of rings (size 3 to 8) (size 9 to 14) (size 15 to 20)
#    0.000    2.143    1.429    1.714    2.000    3.143 
#    0.000    0.000    0.000    3.429    0.000    0.000 
#    0.000    0.000    0.000    0.000    0.000    0.000 
#
# Total GULP energy -156528.251240 kJ/mol
# GULP energy per Si atom -5590.294687 kJ/mol
# Density = 2.317967 g / cm^3
# Si number density = 23.232547 Si / 1000 Ang^3
#
#
#
# Elastic Constant Matrix: (Units=GPa)
#
#
# Indices 1 2 3 4 5 6 
#
# 1 163.0796 4.6972 17.0898 0.0000 40.4012 0.0000
# 2 4.6972 77.9183 -9.2994 0.0000 2.4661 0.0000
# 3 17.0898 -9.2994 57.4061 0.0000 38.0656 0.0000
# 4 0.0000 0.0000 0.0000 34.8205 0.0000 -0.8679
# 5 40.4012 2.4661 38.0656 0.0000 47.1071 0.0000
# 6 0.0000 0.0000 0.0000 -0.8679 0.0000 -3.3609
#
#
#
# Elastic Compliance Matrix: (Units=1/GPa)
#
#
# Indices 1 2 3 4 5 6 
#
# 1 0.008394 0.000461 0.005096 0.000000 -0.011342 0.000000
# 2 0.000461 0.013723 0.006085 0.000000 -0.006031 0.000000
# 3 0.005096 0.006085 0.043082 0.000000 -0.039503 0.000000
# 4 0.000000 0.000000 0.000000 0.028535 0.000000 -0.007369
# 5 -0.011342 -0.006031 -0.039503 0.000000 0.063192 0.000000
# 6 0.000000 0.000000 0.000000 -0.007369 0.000000 -0.295638
#
#
# Mechanical properties :
#
#
# Convention : Reuss Voigt Hill
#
# Bulk Modulus (GPa) = 11.30143 35.93103 23.61623
# Shear Modulus (GPa) = -37.73546 34.77444 -1.48051
#
# Velocity S-wave (km/s) = -4.03457 3.87305 -0.79915
# Velocity P-wave (km/s) = 4.10227 5.95819 3.05544
#
# Compressibility (1/GPa) = 0.08848440
#
# Stress axis : x y z
#
# Youngs Moduli (GPa) = 119.12679 72.86910 23.21144
#
# Poissons Ratio (x) = -0.03360 -0.11829
# Poissons Ratio (y) = -0.05494 -0.14124
# Poissons Ratio (z) = -0.60711 -0.44339
#
# Static dielectric constant tensor:
#      x y z
#    x 1.876240 0.000000 0.023740 
#    y 0.000000 1.888980 0.000000 
#    z 0.023740 0.000000 1.796090 
# 
# From -- ./inp_files/50072.got.cif
#   From: 2010.05.17/outbox.cif.g08.bks.cpg/sg10_26_cif.got.tgz:50072.got - 2010.06.03 11:33:40.
