data_PCOD9146701
_publ_section_title
;
Structure prediction by ZEFSAII (Michael W. Deem and Ramdas Pophale) SiO2 
 PCOD9146701
Probable space group: P 2/M
;
_chemical_formula_sum "Si O2"
_cell_formula_units_Z 28
_cell_length_a 12.921785
_cell_length_b 7.461782
_cell_length_c 15.126951
_cell_angle_alpha 90.000000
_cell_angle_beta 56.681689
_cell_angle_gamma 90.000000
_cell_volume 1218.797224
_symmetry_space_group_name_H-M "P 2/M"
_symmetry_group_IT_number 10
_symmetry_cell_setting 'monoclinic'
loop_
_space_group_symop_operation_xyz
x,y,z
-x,y,-z
-x,-y,-z
x,-y,z
loop_
_atom_site_type_symbol
_atom_site_label
_atom_site_fract_x
_atom_site_fract_y
_atom_site_fract_z
Si Si1 0.982667 0.791370 0.910457
Si Si2 0.042514 0.283115 0.576683
Si Si3 0.434946 0.706851 0.116313
Si Si4 0.166274 0.791115 0.182253
Si Si5 0.683915 0.718415 0.494272
Si Si6 0.742926 0.716703 0.271963
Si Si7 0.482822 0.280621 0.731585
O O1 0.117351 0.782737 0.801872
O O2 0.882124 0.715185 0.888920
O O3 0.948819 0.000000 0.938528
O O4 0.000000 0.710795 0.000000
O O5 0.041745 0.500000 0.577554
O O6 0.946706 0.224459 0.696311
O O7 0.000000 0.222695 0.500000
O O8 0.181916 0.226393 0.532373
O O9 0.477345 0.500000 0.100392
O O10 0.288563 0.708294 0.167277
O O11 0.472874 0.783424 0.193434
O O12 0.500000 0.789662 0.000000
O O13 0.194820 0.000000 0.156275
O O14 0.679506 0.500000 0.496302
O O15 0.679974 0.772948 0.393759
O O16 0.576799 0.778360 0.610442
O O17 0.749596 0.500000 0.269657
O O18 0.655369 0.771993 0.232111
O O19 0.486793 0.500000 0.729394
#
# Coordination Sequence:
#
# PCOD9146701 Si02
#       7
#     4   4   4   4   4   4   4
#     4  10  23  41  58  79 112 154 191 230 286 340
#     4  10  19  33  57  86 116 152 189 229 281 339
#     4  10  22  39  59  83 113 149 189 235 286 339
#     4  11  23  39  59  83 113 150 192 238 283 336
#     4   9  16  29  51  82 114 143 177 222 278 334
#     4  10  19  33  58  88 111 139 186 237 280 330
#     4   9  18  33  54  83 116 146 180 228 284 335
#
# _framework density 22.973469999999999
#
# number of rings (size 3 to 8) (size 9 to 14) (size 15 to 20)
#    0.000    2.143    1.429    1.714    2.000    5.429 
#    0.000    0.714    0.000    2.571    0.000    0.000 
#    0.000    0.000    0.000    0.000    0.000    0.000 
#
# Total GULP energy -156493.189259 kJ/mol
# GULP energy per Si atom -5589.042474 kJ/mol
# Density = 2.292118 g / cm^3
# Si number density = 22.973470 Si / 1000 Ang^3
#
#
#
# Elastic Constant Matrix: (Units=GPa)
#
#
# Indices 1 2 3 4 5 6 
#
# 1 145.5665 -3.8747 19.9693 0.0000 35.3158 0.0000
# 2 -3.8747 67.4234 -5.0162 0.0000 8.4435 0.0000
# 3 19.9693 -5.0162 61.2102 0.0000 30.2916 0.0000
# 4 0.0000 0.0000 0.0000 -8.6003 0.0000 -1.5175
# 5 35.3158 8.4435 30.2916 0.0000 47.2346 0.0000
# 6 0.0000 0.0000 0.0000 -1.5175 0.0000 -4.8064
#
#
#
# Elastic Compliance Matrix: (Units=1/GPa)
#
#
# Indices 1 2 3 4 5 6 
#
# 1 0.008538 0.001464 0.000913 0.000000 -0.007230 0.000000
# 2 0.001464 0.016046 0.004100 0.000000 -0.006592 0.000000
# 3 0.000913 0.004100 0.025014 0.000000 -0.017457 0.000000
# 4 0.000000 0.000000 0.000000 -0.123135 0.000000 0.038877
# 5 -0.007230 -0.006592 -0.017457 0.000000 0.038951 0.000000
# 6 0.000000 0.000000 0.000000 0.038877 0.000000 -0.220329
#
#
# Mechanical properties :
#
#
# Convention : Reuss Voigt Hill
#
# Bulk Modulus (GPa) = 15.98683 32.92853 24.45768
# Shear Modulus (GPa) = -20.24149 24.30703 2.03277
#
# Velocity S-wave (km/s) = -2.97152 3.25629 0.94168
# Velocity P-wave (km/s) = 2.19074 5.33876 3.44260
#
# Compressibility (1/GPa) = 0.06255149
#
# Stress axis : x y z
#
# Youngs Moduli (GPa) = 117.12859 62.31958 39.97686
#
# Poissons Ratio (x) = -0.09124 -0.03649
# Poissons Ratio (y) = -0.17148 -0.16389
# Poissons Ratio (z) = -0.10692 -0.25549
#
# Static dielectric constant tensor:
#      x y z
#    x 1.835640 0.000000 0.035000 
#    y 0.000000 1.889860 0.000000 
#    z 0.035000 0.000000 1.822580 
# 
# From -- ./inp_files/49621.got.cif
#   From: 2010.05.17/outbox.cif.g08.bks.cpg/sg10_25_cif.got.tgz:49621.got - 2010.06.03 11:33:40.
