data_PCOD9146356
_publ_section_title
;
Structure prediction by ZEFSAII (Michael W. Deem and Ramdas Pophale) SiO2 
 PCOD9146356
Probable space group: P 2/M
;
_chemical_formula_sum "Si O2"
_cell_formula_units_Z 28
_cell_length_a 7.686708
_cell_length_b 15.621720
_cell_length_c 15.368257
_cell_angle_alpha 90.000000
_cell_angle_beta 132.672590
_cell_angle_gamma 90.000000
_cell_volume 1356.820345
_symmetry_space_group_name_H-M "P 2/M"
_symmetry_group_IT_number 10
_symmetry_cell_setting 'monoclinic'
loop_
_space_group_symop_operation_xyz
x,y,z
-x,y,-z
-x,-y,-z
x,-y,z
loop_
_atom_site_type_symbol
_atom_site_label
_atom_site_fract_x
_atom_site_fract_y
_atom_site_fract_z
Si Si1 0.268037 0.801601 0.480178
Si Si2 0.540822 0.784589 0.272666
Si Si3 0.760289 0.905878 0.045947
Si Si4 0.847126 0.095922 0.266313
Si Si5 0.909518 0.641983 0.375088
Si Si6 0.996799 0.736937 0.907088
Si Si7 0.229043 0.595997 0.868756
O O1 0.500000 0.793300 0.500000
O O2 0.348511 0.824800 0.603955
O O3 0.085227 0.873961 0.391265
O O4 0.112744 0.713805 0.425648
O O5 0.638554 0.839721 0.224953
O O6 0.666878 0.692601 0.311511
O O7 0.265738 0.771911 0.194184
O O8 0.908421 0.901728 0.185211
O O9 0.832985 0.819419 0.023436
O O10 0.790222 0.000000 0.013774
O O11 0.500000 0.903458 0.000000
O O12 0.773207 0.000000 0.263335
O O13 0.837284 0.598230 0.257896
O O14 0.000000 0.602446 0.500000
O O15 0.086022 0.674615 0.862325
O O16 0.000000 0.687779 0.000000
O O17 0.160432 0.500000 0.874883
O O18 0.500000 0.607512 0.000000
#
# Coordination Sequence:
#
# PCOD9146356 Si02
#       7
#     4   4   4   4   4   4   4
#     4  10  19  33  54  80 113 152 198 248 296 347
#     4  10  20  34  55  82 112 150 194 246 295 347
#     4  10  21  37  56  80 112 149 194 247 294 343
#     4  10  20  34  52  77 113 154 195 243 300 357
#     4   9  19  38  63  87 116 156 201 245 297 357
#     4  12  23  37  62  88 117 158 200 241 298 364
#     4  11  24  42  64  91 124 158 196 248 305 363
#
# _framework density 20.636482999999998
#
# number of rings (size 3 to 8) (size 9 to 14) (size 15 to 20)
#    0.000    1.714    0.000    6.857    0.000    2.857 
#    0.000    0.714    0.000    8.143    0.000    0.000 
#    0.000    0.000    0.000    0.000    0.000    0.000 
#
# Total GULP energy -155905.852759 kJ/mol
# GULP energy per Si atom -5568.066170 kJ/mol
# Density = 2.058951 g / cm^3
# Si number density = 20.636483 Si / 1000 Ang^3
#
#
#
# Elastic Constant Matrix: (Units=GPa)
#
#
# Indices 1 2 3 4 5 6 
#
# 1 72.5722 30.5963 27.2940 0.0000 8.1342 0.0000
# 2 30.5963 82.9593 28.2701 0.0000 1.2860 0.0000
# 3 27.2940 28.2701 120.6912 0.0000 -2.5260 0.0000
# 4 0.0000 0.0000 0.0000 -20.2318 0.0000 38.3944
# 5 8.1342 1.2860 -2.5260 0.0000 44.1585 0.0000
# 6 0.0000 0.0000 0.0000 38.3944 0.0000 -54.7256
#
#
#
# Elastic Compliance Matrix: (Units=1/GPa)
#
#
# Indices 1 2 3 4 5 6 
#
# 1 0.017472 -0.005461 -0.002740 0.000000 -0.003216 0.000000
# 2 -0.005461 0.014820 -0.002227 0.000000 0.000447 0.000000
# 3 -0.002740 -0.002227 0.009450 0.000000 0.001110 0.000000
# 4 0.000000 0.000000 0.000000 0.149144 0.000000 0.104636
# 5 -0.003216 0.000447 0.001110 0.000000 0.023289 0.000000
# 6 0.000000 0.000000 0.000000 0.104636 0.000000 0.055138
#
#
# Mechanical properties :
#
#
# Convention : Reuss Voigt Hill
#
# Bulk Modulus (GPa) = 47.87460 49.83815 48.85638
# Shear Modulus (GPa) = 16.82765 6.51102 11.66933
#
# Velocity S-wave (km/s) = 2.85867 1.77819 2.38054
# Velocity P-wave (km/s) = 5.84341 5.33094 5.59304
#
# Compressibility (1/GPa) = 0.02088790
#
# Stress axis : x y z
#
# Youngs Moduli (GPa) = 57.23325 67.47618 105.81941
#
# Poissons Ratio (x) = 0.36846 0.28990
# Poissons Ratio (y) = 0.31253 0.23567
# Poissons Ratio (z) = 0.15680 0.15028
#
# Static dielectric constant tensor:
#      x y z
#    x 1.739830 0.000000 -0.050100 
#    y 0.000000 1.728910 0.000000 
#    z -0.050100 0.000000 1.831680 
# 
# From -- ./inp_files/75327.got.cif
#   From: 2010.05.17/outbox.cif.g08.bks.cpg/sg10_38_cif.got.tgz:75327.got - 2010.06.03 11:33:40.
