data_PCOD9146681
_publ_section_title
;
Structure prediction by ZEFSAII (Michael W. Deem and Ramdas Pophale) SiO2 
 PCOD9146681
Probable space group: P 2/M
;
_chemical_formula_sum "Si O2"
_cell_formula_units_Z 24
_cell_length_a 10.432039
_cell_length_b 8.837561
_cell_length_c 32.387800
_cell_angle_alpha 90.000000
_cell_angle_beta 27.401526
_cell_angle_gamma 90.000000
_cell_volume 1374.205874
_symmetry_space_group_name_H-M "P 2/M"
_symmetry_group_IT_number 10
_symmetry_cell_setting 'monoclinic'
loop_
_space_group_symop_operation_xyz
x,y,z
-x,y,-z
-x,-y,-z
x,-y,z
loop_
_atom_site_type_symbol
_atom_site_label
_atom_site_fract_x
_atom_site_fract_y
_atom_site_fract_z
Si Si1 0.865262 0.318803 0.225132
Si Si2 0.218725 0.180704 0.054652
Si Si3 0.421481 0.817863 0.568372
Si Si4 0.147328 0.818758 0.225060
Si Si5 0.297267 0.681963 0.432324
Si Si6 0.726887 0.319108 0.051695
O O1 0.897253 0.500000 0.214923
O O2 0.548921 0.282015 0.328802
O O3 0.965833 0.247324 0.153726
O O4 0.055197 0.250548 0.207415
O O5 0.195714 0.000000 0.057528
O O6 0.500000 0.214688 0.000000
O O7 0.239387 0.254319 0.003948
O O8 0.500000 0.766115 0.500000
O O9 0.617212 0.750774 0.548107
O O10 0.103302 0.780002 0.671951
O O11 0.445503 0.000000 0.562791
O O12 0.446269 0.751940 0.150729
O O13 0.164174 0.000000 0.216405
O O14 0.289115 0.500000 0.438924
O O15 0.000000 0.733717 0.500000
O O16 0.697794 0.500000 0.058362
O O17 0.000000 0.281303 0.000000
#
# Coordination Sequence:
#
# PCOD9146681 Si02
#       6
#     4   4   4   4   4   4
#     4  10  19  33  57  83 110 144 183 226 270 317
#     4  11  22  36  58  85 110 141 183 226 268 323
#     4   9  19  36  57  81 110 142 182 225 267 322
#     4  10  19  34  57  81 109 144 183 226 271 321
#     4   9  19  36  56  81 113 144 178 223 273 321
#     4  11  24  40  57  80 111 146 182 223 274 326
#
# _framework density 17.464632999999999
#
# number of rings (size 3 to 8) (size 9 to 14) (size 15 to 20)
#    0.000    2.000    1.667    2.000    0.000    4.000 
#    3.000    0.000    0.000    0.000    0.000    0.000 
#    0.000    0.000    0.000    0.000    0.000    0.000 
#
# Total GULP energy -133980.352899 kJ/mol
# GULP energy per Si atom -5582.514704 kJ/mol
# Density = 1.742488 g / cm^3
# Si number density = 17.464633 Si / 1000 Ang^3
#
#
#
# Elastic Constant Matrix: (Units=GPa)
#
#
# Indices 1 2 3 4 5 6 
#
# 1 115.1308 47.6185 92.5005 0.0000 -5.4233 0.0000
# 2 47.6185 39.4668 47.1482 0.0000 -8.3641 0.0000
# 3 92.5005 47.1482 142.9546 0.0000 -7.6393 0.0000
# 4 0.0000 0.0000 0.0000 31.5911 0.0000 -7.2525
# 5 -5.4233 -8.3641 -7.6393 0.0000 35.9747 0.0000
# 6 0.0000 0.0000 0.0000 -7.2525 0.0000 35.6714
#
#
#
# Elastic Compliance Matrix: (Units=1/GPa)
#
#
# Indices 1 2 3 4 5 6 
#
# 1 0.023455 -0.017402 -0.009573 0.000000 -0.002543 0.000000
# 2 -0.017402 0.056472 -0.006882 0.000000 0.009045 0.000000
# 3 -0.009573 -0.006882 0.015472 0.000000 0.000242 0.000000
# 4 0.000000 0.000000 0.000000 0.033204 0.000000 0.006751
# 5 -0.002543 0.009045 0.000242 0.000000 0.029568 0.000000
# 6 0.000000 0.000000 0.000000 0.006751 0.000000 0.029406
#
#
# Mechanical properties :
#
#
# Convention : Reuss Voigt Hill
#
# Bulk Modulus (GPa) = 36.12004 74.67628 55.39816
# Shear Modulus (GPa) = 18.90206 27.99977 23.45092
#
# Velocity S-wave (km/s) = 3.29341 4.00838 3.66835
# Velocity P-wave (km/s) = 5.93201 8.01712 7.05205
#
# Compressibility (1/GPa) = 0.02768546
#
# Stress axis : x y z
#
# Youngs Moduli (GPa) = 42.63441 17.70788 64.63090
#
# Poissons Ratio (x) = 0.30815 0.61874
# Poissons Ratio (y) = 0.74192 0.44477
# Poissons Ratio (z) = 0.40816 0.12186
#
# Static dielectric constant tensor:
#      x y z
#    x 1.558030 0.000000 -0.002040 
#    y 0.000000 1.583640 0.000000 
#    z -0.002040 0.000000 1.611680 
# 
# From -- ./inp_files/33971.got.cif
#   From: 2010.05.17/outbox.cif.g08.bks.cpg/sg10_17_cif.got.tgz:33971.got - 2010.06.03 11:33:40.
