data_PCOD9146409
_publ_section_title
;
Structure prediction by ZEFSAII (Michael W. Deem and Ramdas Pophale) SiO2 
 PCOD9146409
Probable space group: P 2/M
;
_chemical_formula_sum "Si O2"
_cell_formula_units_Z 32
_cell_length_a 24.192426
_cell_length_b 9.173232
_cell_length_c 11.916025
_cell_angle_alpha 90.000000
_cell_angle_beta 44.068529
_cell_angle_gamma 90.000000
_cell_volume 1839.254093
_symmetry_space_group_name_H-M "P 2/M"
_symmetry_group_IT_number 10
_symmetry_cell_setting 'monoclinic'
loop_
_space_group_symop_operation_xyz
x,y,z
-x,y,-z
-x,-y,-z
x,-y,z
loop_
_atom_site_type_symbol
_atom_site_label
_atom_site_fract_x
_atom_site_fract_y
_atom_site_fract_z
Si Si1 0.323691 0.825937 0.337080
Si Si2 0.359526 0.174222 0.025463
Si Si3 0.827473 0.825183 0.293440
Si Si4 0.915607 0.830736 0.560837
Si Si5 0.519008 0.332790 0.838756
Si Si6 0.023981 0.826974 0.777023
Si Si7 0.219469 0.673702 0.105009
Si Si8 0.146197 0.674016 0.970516
O O1 0.327511 0.791642 0.198692
O O2 0.240076 0.790199 0.516631
O O3 0.395587 0.743410 0.293554
O O4 0.336339 0.000000 0.328071
O O5 0.299230 0.245477 0.026130
O O6 0.362231 0.000000 0.010463
O O7 0.447313 0.242433 0.888952
O O8 0.914155 0.786211 0.216049
O O9 0.826772 0.000000 0.278194
O O10 0.813786 0.744512 0.196862
O O11 0.931208 0.806608 0.406875
O O12 0.850278 0.727864 0.710468
O O13 0.000000 0.812064 0.500000
O O14 0.890504 0.000000 0.612758
O O15 0.520337 0.500000 0.798132
O O16 0.500000 0.333343 0.000000
O O17 0.942733 0.738723 0.894666
O O18 0.005804 0.000000 0.813908
O O19 0.229280 0.500000 0.099252
O O20 0.191367 0.710509 0.020036
O O21 0.142960 0.500000 0.965166
#
# Coordination Sequence:
#
# PCOD9146409 Si02
#       8
#     4   4   4   4   4   4   4   4
#     4   9  18  34  55  81 110 137 171 214 260 308
#     4  10  19  33  56  83 110 139 174 212 255 310
#     4  10  21  36  55  76 101 135 177 223 262 304
#     4  10  19  33  55  78 101 133 172 213 259 314
#     4   9  17  30  51  81 115 144 169 201 253 314
#     4  10  20  36  56  78 102 132 175 222 266 310
#     4  11  23  36  51  74 108 142 175 217 265 314
#     4  11  24  38  51  71 102 140 180 221 265 311
#
# _framework density 17.398358000000002
#
# number of rings (size 3 to 8) (size 9 to 14) (size 15 to 20)
#    0.000    2.000    1.250    2.625    0.000    8.750 
#    0.000    1.250    0.000    0.750    0.000    5.250 
#    0.000    0.000    0.000    0.000    0.000    0.000 
#
# Total GULP energy -178674.948762 kJ/mol
# GULP energy per Si atom -5583.592149 kJ/mol
# Density = 1.735876 g / cm^3
# Si number density = 17.398358 Si / 1000 Ang^3
#
#
#
# Elastic Constant Matrix: (Units=GPa)
#
#
# Indices 1 2 3 4 5 6 
#
# 1 118.8755 63.1422 47.2194 0.0000 -14.3248 0.0000
# 2 63.1422 58.2690 31.7419 0.0000 -7.8838 0.0000
# 3 47.2194 31.7419 44.8815 0.0000 -7.0809 0.0000
# 4 0.0000 0.0000 0.0000 7.3546 0.0000 1.2647
# 5 -14.3248 -7.8838 -7.0809 0.0000 19.9017 0.0000
# 6 0.0000 0.0000 0.0000 1.2647 0.0000 29.1947
#
#
#
# Elastic Compliance Matrix: (Units=1/GPa)
#
#
# Indices 1 2 3 4 5 6 
#
# 1 0.023037 -0.018684 -0.010144 0.000000 0.005571 0.000000
# 2 -0.018684 0.043418 -0.011080 0.000000 -0.000191 0.000000
# 3 -0.010144 -0.011080 0.041261 0.000000 0.002990 0.000000
# 4 0.000000 0.000000 0.000000 0.136989 0.000000 -0.005934
# 5 0.005571 -0.000191 0.002990 0.000000 0.055245 0.000000
# 6 0.000000 0.000000 0.000000 -0.005934 0.000000 0.034510
#
#
# Mechanical properties :
#
#
# Convention : Reuss Voigt Hill
#
# Bulk Modulus (GPa) = 35.84159 56.24812 46.04486
# Shear Modulus (GPa) = 11.80422 16.61839 14.21131
#
# Velocity S-wave (km/s) = 2.60757 3.09394 2.86110
# Velocity P-wave (km/s) = 5.45079 6.72034 6.11858
#
# Compressibility (1/GPa) = 0.02790055
#
# Stress axis : x y z
#
# Youngs Moduli (GPa) = 43.40805 23.03177 24.23577
#
# Poissons Ratio (x) = 0.43033 0.24585
# Poissons Ratio (y) = 0.81104 0.26853
# Poissons Ratio (z) = 0.44034 0.25519
#
# Static dielectric constant tensor:
#      x y z
#    x 1.583540 0.000000 0.003870 
#    y 0.000000 1.579260 0.000000 
#    z 0.003870 0.000000 1.576540 
# 
# From -- ./inp_files/55212.got.cif
#   From: 2010.05.17/outbox.cif.g08.bks.cpg/sg10_28_cif.got.tgz:55212.got - 2010.06.03 11:33:40.
