data_PCOD9146761
_publ_section_title
;
Structure prediction by ZEFSAII (Michael W. Deem and Ramdas Pophale) SiO2 
 PCOD9146761
Probable space group: P 2/M
;
_chemical_formula_sum "Si O2"
_cell_formula_units_Z 28
_cell_length_a 29.448278
_cell_length_b 11.342296
_cell_length_c 23.351858
_cell_angle_alpha 90.000000
_cell_angle_beta 10.144417
_cell_angle_gamma 90.000000
_cell_volume 1373.774239
_symmetry_space_group_name_H-M "P 2/M"
_symmetry_group_IT_number 10
_symmetry_cell_setting 'monoclinic'
loop_
_space_group_symop_operation_xyz
x,y,z
-x,y,-z
-x,-y,-z
x,-y,z
loop_
_atom_site_type_symbol
_atom_site_label
_atom_site_fract_x
_atom_site_fract_y
_atom_site_fract_z
Si Si1 0.332397 0.361809 0.152957
Si Si2 0.840451 0.363514 0.324659
Si Si3 0.623832 0.225326 0.694519
Si Si4 0.652842 0.361333 0.142509
Si Si5 0.330734 0.364358 0.652647
Si Si6 0.985681 0.873367 0.706610
Si Si7 0.076320 0.172772 0.342273
O O1 0.304120 0.500000 0.190603
O O2 0.053407 0.301995 0.498024
O O3 0.500000 0.323230 0.000000
O O4 0.488509 0.321843 0.903241
O O5 0.911282 0.500000 0.250644
O O6 0.818618 0.286647 0.408695
O O7 0.563180 0.364939 0.638727
O O8 0.053283 0.315300 0.015759
O O9 0.767122 0.137858 0.559476
O O10 0.384613 0.169323 0.957314
O O11 0.749236 0.500000 0.028789
O O12 0.502616 0.322262 0.386748
O O13 0.845598 0.253856 0.889438
O O14 0.500000 0.360986 0.500000
O O15 0.277228 0.500000 0.702399
O O16 0.037875 0.879201 0.573984
O O17 0.853594 0.000000 0.884986
O O18 0.000000 0.126350 0.500000
#
# Coordination Sequence:
#
# PCOD9146761 Si02
#       7
#     4   4   4   4   4   4   4
#     4  10  20  36  61  91 129 166 204 256 314 372
#     4  10  19  33  60  96 129 164 208 259 313 373
#     4  11  22  39  60  90 125 167 210 253 310 377
#     4  10  21  39  63  93 128 167 208 257 316 376
#     4   9  17  31  55  90 128 164 205 255 309 370
#     4  12  26  44  65  93 127 166 213 266 314 371
#     4  10  23  42  63  89 120 163 211 258 313 372
#
# _framework density 20.381806999999998
#
# number of rings (size 3 to 8) (size 9 to 14) (size 15 to 20)
#    0.000    1.714    2.857    1.714    0.000    8.571 
#    0.000    5.000    0.000    5.571    0.000    0.000 
#    0.000    0.000    0.000    0.000    0.000    0.000 
#
# Total GULP energy -156072.093204 kJ/mol
# GULP energy per Si atom -5574.003329 kJ/mol
# Density = 2.033542 g / cm^3
# Si number density = 20.381807 Si / 1000 Ang^3
#
#
#
# Elastic Constant Matrix: (Units=GPa)
#
#
# Indices 1 2 3 4 5 6 
#
# 1 108.3532 27.2720 7.8684 0.0000 3.1654 0.0000
# 2 27.2720 100.5632 35.4572 0.0000 -1.6294 0.0000
# 3 7.8684 35.4572 56.0571 0.0000 -1.1840 0.0000
# 4 0.0000 0.0000 0.0000 -23.5992 0.0000 25.1107
# 5 3.1654 -1.6294 -1.1840 0.0000 38.4264 0.0000
# 6 0.0000 0.0000 0.0000 25.1107 0.0000 -42.4192
#
#
#
# Elastic Compliance Matrix: (Units=1/GPa)
#
#
# Indices 1 2 3 4 5 6 
#
# 1 0.009945 -0.002848 0.000386 0.000000 -0.000928 0.000000
# 2 -0.002848 0.013617 -0.008202 0.000000 0.000559 0.000000
# 3 0.000386 -0.008202 0.022979 0.000000 0.000329 0.000000
# 4 0.000000 0.000000 0.000000 -0.114487 0.000000 -0.067772
# 5 -0.000928 0.000559 0.000329 0.000000 0.026134 0.000000
# 6 0.000000 0.000000 0.000000 -0.067772 0.000000 -0.063693
#
#
# Mechanical properties :
#
#
# Convention : Reuss Voigt Hill
#
# Bulk Modulus (GPa) = 39.66030 45.12987 42.39508
# Shear Modulus (GPa) = -65.98743 7.43998 -29.27372
#
# Velocity S-wave (km/s) = -5.69613 1.91265 -3.79392
# Velocity P-wave (km/s) = 4.87446 5.20269 1.28600
#
# Compressibility (1/GPa) = 0.02521413
#
# Stress axis : x y z
#
# Youngs Moduli (GPa) = 100.55283 73.43652 43.51735
#
# Poissons Ratio (x) = 0.20916 -0.01680
# Poissons Ratio (y) = 0.28639 0.35691
# Poissons Ratio (z) = -0.03881 0.60229
#
# Static dielectric constant tensor:
#      x y z
#    x 1.758520 0.000000 -0.008590 
#    y 0.000000 1.724970 0.000000 
#    z -0.008590 0.000000 1.760890 
# 
# From -- ./inp_files/85848.got.cif
#   From: 2010.05.17/outbox.cif.g08.bks.cpg/sg10_43_cif.got.tgz:85848.got - 2010.06.03 11:33:40.
