data_PCOD9146171
_publ_section_title
;
Structure prediction by ZEFSAII (Michael W. Deem and Ramdas Pophale) SiO2 
 PCOD9146171
Probable space group: P 2/M
;
_chemical_formula_sum "Si O2"
_cell_formula_units_Z 32
_cell_length_a 15.505510
_cell_length_b 7.376858
_cell_length_c 23.977815
_cell_angle_alpha 90.000000
_cell_angle_beta 149.277055
_cell_angle_gamma 90.000000
_cell_volume 1401.174166
_symmetry_space_group_name_H-M "P 2/M"
_symmetry_group_IT_number 10
_symmetry_cell_setting 'monoclinic'
loop_
_space_group_symop_operation_xyz
x,y,z
-x,y,-z
-x,-y,-z
x,-y,z
loop_
_atom_site_type_symbol
_atom_site_label
_atom_site_fract_x
_atom_site_fract_y
_atom_site_fract_z
Si Si1 0.974236 0.780181 0.233227
Si Si2 0.817373 0.778659 0.421945
Si Si3 0.595097 0.779248 0.996835
Si Si4 0.501008 0.279886 0.565132
Si Si5 0.138102 0.292007 0.211419
Si Si6 0.162050 0.791520 0.441857
Si Si7 0.520834 0.778014 0.830021
Si Si8 0.126845 0.794786 0.024282
O O1 0.789160 0.724797 0.111550
O O2 0.103047 0.715526 0.257831
O O3 0.025821 0.713733 0.323056
O O4 0.981272 0.000000 0.237433
O O5 0.811530 0.713827 0.482467
O O6 0.652787 0.720643 0.295814
O O7 0.000000 0.725787 0.500000
O O8 0.810842 0.000000 0.417201
O O9 0.588587 0.000000 0.993092
O O10 0.500000 0.719530 0.000000
O O11 0.528693 0.721400 0.899310
O O12 0.500000 0.221850 0.500000
O O13 0.500953 0.500000 0.565454
O O14 0.673386 0.219310 0.691099
O O15 0.337204 0.214342 0.506056
O O16 0.134317 0.500000 0.190888
O O17 0.986648 0.198669 0.094611
O O18 0.109939 0.000000 0.422100
O O19 0.526831 0.000000 0.833324
O O20 0.690673 0.717284 0.891452
O O21 0.161661 0.000000 0.063690
O O22 0.000000 0.712034 0.000000
#
# Coordination Sequence:
#
# PCOD9146171 Si02
#       8
#     4   4   4   4   4   4   4   4
#     4  10  19  33  52  80 112 138 177 226 274 321
#     4   9  19  33  50  77 114 147 178 224 276 323
#     4   9  17  28  49  77 104 135 172 218 269 324
#     4  10  21  37  53  74 108 146 179 214 269 334
#     4  11  22  36  55  77 107 145 182 221 271 325
#     4  10  21  33  53  82 109 141 183 229 272 318
#     4   9  17  31  49  74 107 143 178 211 263 326
#     4  10  21  36  56  80 109 145 180 222 272 322
#
# _framework density 22.837987999999999
#
# number of rings (size 3 to 8) (size 9 to 14) (size 15 to 20)
#    0.000    2.250    2.500    0.375    3.500    1.500 
#    0.000    0.000    0.000    0.750    0.000    0.000 
#    0.000    0.000    0.000    0.000    0.000    0.000 
#
# Total GULP energy -178742.119349 kJ/mol
# GULP energy per Si atom -5585.691230 kJ/mol
# Density = 2.278601 g / cm^3
# Si number density = 22.837988 Si / 1000 Ang^3
#
#
#
# Elastic Constant Matrix: (Units=GPa)
#
#
# Indices 1 2 3 4 5 6 
#
# 1 157.6067 -4.7363 76.6855 0.0000 -21.4369 0.0000
# 2 -4.7363 81.3490 2.5605 0.0000 -2.8332 0.0000
# 3 76.6855 2.5605 183.3986 0.0000 -25.0272 0.0000
# 4 0.0000 0.0000 0.0000 -20.5619 0.0000 6.1589
# 5 -21.4369 -2.8332 -25.0272 0.0000 27.9639 0.0000
# 6 0.0000 0.0000 0.0000 6.1589 0.0000 5.9334
#
#
#
# Elastic Compliance Matrix: (Units=1/GPa)
#
#
# Indices 1 2 3 4 5 6 
#
# 1 0.008330 0.000711 -0.002975 0.000000 0.003795 0.000000
# 2 0.000711 0.012397 -0.000256 0.000000 0.001572 0.000000
# 3 -0.002975 -0.000256 0.007274 0.000000 0.004203 0.000000
# 4 0.000000 0.000000 0.000000 -0.037099 0.000000 0.038509
# 5 0.003795 0.001572 0.004203 0.000000 0.042591 0.000000
# 6 0.000000 0.000000 0.000000 0.038509 0.000000 0.128565
#
#
# Mechanical properties :
#
#
# Convention : Reuss Voigt Hill
#
# Bulk Modulus (GPa) = 43.55296 63.48595 53.51945
# Shear Modulus (GPa) = 28.61211 25.85671 27.23441
#
# Velocity S-wave (km/s) = 3.54337 3.36844 3.45701
# Velocity P-wave (km/s) = 5.98769 6.55647 6.27852
#
# Compressibility (1/GPa) = 0.02296055
#
# Stress axis : x y z
#
# Youngs Moduli (GPa) = 120.04742 80.66533 137.48026
#
# Poissons Ratio (x) = -0.05734 0.40902
# Poissons Ratio (y) = -0.08533 0.03516
# Poissons Ratio (z) = 0.35716 0.02063
#
# Static dielectric constant tensor:
#      x y z
#    x 1.828900 0.000000 -0.006610 
#    y 0.000000 1.876690 0.000000 
#    z -0.006610 0.000000 1.822270 
# 
# From -- ./inp_files/89592.got.cif
#   From: 2010.05.17/outbox.cif.g08.bks.cpg/sg10_45_cif.got.tgz:89592.got - 2010.06.03 11:33:40.
