data_PCOD9146305
_publ_section_title
;
Structure prediction by ZEFSAII (Michael W. Deem and Ramdas Pophale) SiO2 
 PCOD9146305
Probable space group: P 2/M
;
_chemical_formula_sum "Si O2"
_cell_formula_units_Z 32
_cell_length_a 15.752203
_cell_length_b 7.709680
_cell_length_c 23.187812
_cell_angle_alpha 90.000000
_cell_angle_beta 31.246696
_cell_angle_gamma 90.000000
_cell_volume 1460.742719
_symmetry_space_group_name_H-M "P 2/M"
_symmetry_group_IT_number 10
_symmetry_cell_setting 'monoclinic'
loop_
_space_group_symop_operation_xyz
x,y,z
-x,y,-z
-x,-y,-z
x,-y,z
loop_
_atom_site_type_symbol
_atom_site_label
_atom_site_fract_x
_atom_site_fract_y
_atom_site_fract_z
Si Si1 0.494507 0.707296 0.680948
Si Si2 0.132903 0.709910 0.061760
Si Si3 0.125837 0.711694 0.876926
Si Si4 0.988568 0.800617 0.442510
Si Si5 0.131050 0.292566 0.192633
Si Si6 0.476852 0.798141 0.820810
Si Si7 0.804766 0.304007 0.442001
Si Si8 0.659727 0.195102 0.823077
O O1 0.492884 0.500000 0.672968
O O2 0.310727 0.774588 0.777447
O O3 0.537391 0.733397 0.723662
O O4 0.628446 0.778453 0.557766
O O5 0.141242 0.500000 0.056438
O O6 0.156108 0.772671 0.113528
O O7 0.961229 0.759214 0.132536
O O8 0.282401 0.774796 0.936273
O O9 0.132295 0.500000 0.876239
O O10 0.000000 0.767259 0.000000
O O11 0.879889 0.691548 0.462626
O O12 0.000000 0.731694 0.500000
O O13 0.168744 0.807764 0.311003
O O14 0.925592 0.000000 0.481492
O O15 0.112196 0.500000 0.201260
O O16 0.282404 0.263012 0.148262
O O17 0.956512 0.222585 0.318474
O O18 0.542113 0.718063 0.843577
O O19 0.522576 0.000000 0.796385
O O20 0.780443 0.500000 0.433743
O O21 0.598811 0.000000 0.868978
#
# Coordination Sequence:
#
# PCOD9146305 Si02
#       8
#     4   4   4   4   4   4   4   4
#     4  10  19  33  54  78 105 136 167 205 256 310
#     4  10  20  36  56  75 100 136 173 208 254 307
#     4   9  16  31  55  78 100 130 168 204 250 312
#     4   9  16  28  46  66  93 131 172 206 245 297
#     4   9  19  35  53  74 102 136 174 213 247 291
#     4  11  22  34  51  78 107 132 169 217 259 298
#     4   9  18  31  48  73 102 130 165 208 250 291
#     4   9  19  33  48  69 100 138 172 207 252 301
#
# _framework density 21.906662000000001
#
# number of rings (size 3 to 8) (size 9 to 14) (size 15 to 20)
#    0.000    2.500    1.250    1.125    0.000    3.750 
#    0.000    6.875    0.000    3.750    0.000    0.000 
#    0.000    6.000    0.000    0.000    0.000    0.000 
#
# Total GULP energy -178380.811916 kJ/mol
# GULP energy per Si atom -5574.400372 kJ/mol
# Density = 2.185680 g / cm^3
# Si number density = 21.906662 Si / 1000 Ang^3
#
#
#
# Elastic Constant Matrix: (Units=GPa)
#
#
# Indices 1 2 3 4 5 6 
#
# 1 72.6843 -2.1763 5.7463 0.0000 -7.1574 0.0000
# 2 -2.1763 36.2595 -1.3763 0.0000 -2.5810 0.0000
# 3 5.7463 -1.3763 70.6589 0.0000 -12.1181 0.0000
# 4 0.0000 0.0000 0.0000 3.5476 0.0000 13.2035
# 5 -7.1574 -2.5810 -12.1181 0.0000 34.8859 0.0000
# 6 0.0000 0.0000 0.0000 13.2035 0.0000 52.6394
#
#
#
# Elastic Compliance Matrix: (Units=1/GPa)
#
#
# Indices 1 2 3 4 5 6 
#
# 1 0.014111 0.001017 -0.000657 0.000000 0.002742 0.000000
# 2 0.001017 0.027858 0.000903 0.000000 0.002583 0.000000
# 3 -0.000657 0.000903 0.015112 0.000000 0.005181 0.000000
# 4 0.000000 0.000000 0.000000 4.240454 0.000000 -1.063629
# 5 0.002742 0.002583 0.005181 0.000000 0.031218 0.000000
# 6 0.000000 0.000000 0.000000 -1.063629 0.000000 0.285786
#
#
# Mechanical properties :
#
#
# Convention : Reuss Voigt Hill
#
# Bulk Modulus (GPa) = 16.77680 20.44335 18.61007
# Shear Modulus (GPa) = 1.07947 30.04186 15.56067
#
# Velocity S-wave (km/s) = 0.70273 3.70720 2.66807
# Velocity P-wave (km/s) = 2.88676 5.26087 4.24324
#
# Compressibility (1/GPa) = 0.05960612
#
# Stress axis : x y z
#
# Youngs Moduli (GPa) = 70.86890 35.89610 66.17186
#
# Poissons Ratio (x) = -0.03651 0.04351
# Poissons Ratio (y) = -0.07208 -0.05975
# Poissons Ratio (z) = 0.04660 -0.03241
#
# Static dielectric constant tensor:
#      x y z
#    x 1.817970 0.000000 -0.015390 
#    y 0.000000 1.840890 0.000000 
#    z -0.015390 0.000000 1.827560 
# 
# From -- ./inp_files/89527.got.cif
#   From: 2010.05.17/outbox.cif.g08.bks.cpg/sg10_45_cif.got.tgz:89527.got - 2010.06.03 11:33:40.
