data_PCOD9146541
_publ_section_title
;
Structure prediction by ZEFSAII (Michael W. Deem and Ramdas Pophale) SiO2 
 PCOD9146541
Probable space group: P 2/M
;
_chemical_formula_sum "Si O2"
_cell_formula_units_Z 32
_cell_length_a 24.344284
_cell_length_b 7.861889
_cell_length_c 15.006600
_cell_angle_alpha 90.000000
_cell_angle_beta 28.997147
_cell_angle_gamma 90.000000
_cell_volume 1392.317988
_symmetry_space_group_name_H-M "P 2/M"
_symmetry_group_IT_number 10
_symmetry_cell_setting 'monoclinic'
loop_
_space_group_symop_operation_xyz
x,y,z
-x,y,-z
-x,-y,-z
x,-y,z
loop_
_atom_site_type_symbol
_atom_site_label
_atom_site_fract_x
_atom_site_fract_y
_atom_site_fract_z
Si Si1 0.256293 0.198886 0.192955
Si Si2 0.251756 0.701740 0.514197
Si Si3 0.503855 0.795376 0.783124
Si Si4 0.785834 0.196619 0.092978
Si Si5 0.548053 0.801036 0.521688
Si Si6 0.115246 0.205795 0.878340
Si Si7 0.871513 0.695327 0.800516
Si Si8 0.900760 0.303402 0.428225
O O1 0.178900 0.215224 0.214268
O O2 0.194593 0.294413 0.360143
O O3 0.263436 0.000000 0.207040
O O4 0.383254 0.263602 0.992236
O O5 0.250327 0.500000 0.505204
O O6 0.382876 0.756873 0.321583
O O7 0.210777 0.747170 0.671577
O O8 0.160736 0.774083 0.571844
O O9 0.520868 0.729797 0.657256
O O10 0.497059 0.000000 0.786931
O O11 0.679639 0.197334 0.310137
O O12 0.878911 0.268526 0.028387
O O13 0.804730 0.000000 0.041414
O O14 0.778947 0.295046 0.011027
O O15 0.500000 0.718255 0.500000
O O16 0.507677 0.000000 0.580763
O O17 0.114132 0.000000 0.886150
O O18 0.000000 0.269296 0.000000
O O19 0.894501 0.500000 0.742725
O O20 0.984973 0.768992 0.687138
O O21 0.929154 0.500000 0.368329
#
# Coordination Sequence:
#
# PCOD9146541 Si02
#       8
#     4   4   4   4   4   4   4   4
#     4  11  24  41  66  94 117 152 203 261 314 361
#     4  11  23  39  61  88 123 165 207 250 299 361
#     4  10  21  40  62  87 123 160 200 251 308 365
#     4  10  19  33  55  84 116 153 194 235 289 350
#     4   9  16  30  54  80 111 151 189 233 292 351
#     4  10  20  35  57  85 118 157 200 248 300 351
#     4  11  23  40  62  88 124 163 199 248 307 369
#     4  10  24  44  62  85 121 165 203 246 312 370
#
# _framework density 22.983253999999999
#
# number of rings (size 3 to 8) (size 9 to 14) (size 15 to 20)
#    0.000    1.750    1.250    3.000    0.000    7.750 
#    0.000    2.500    0.000    1.500    0.000    0.000 
#    0.000    0.000    0.000    0.000    0.000    0.000 
#
# Total GULP energy -178627.388888 kJ/mol
# GULP energy per Si atom -5582.105903 kJ/mol
# Density = 2.293094 g / cm^3
# Si number density = 22.983254 Si / 1000 Ang^3
#
#
#
# Elastic Constant Matrix: (Units=GPa)
#
#
# Indices 1 2 3 4 5 6 
#
# 1 86.6973 -5.8001 5.9913 0.0000 -7.8725 0.0000
# 2 -5.8001 33.5361 4.1697 0.0000 -2.7365 0.0000
# 3 5.9913 4.1697 78.1104 0.0000 -1.6834 0.0000
# 4 0.0000 0.0000 0.0000 24.6037 0.0000 2.5382
# 5 -7.8725 -2.7365 -1.6834 0.0000 34.1803 0.0000
# 6 0.0000 0.0000 0.0000 2.5382 0.0000 18.5740
#
#
#
# Elastic Compliance Matrix: (Units=1/GPa)
#
#
# Indices 1 2 3 4 5 6 
#
# 1 0.012031 0.002442 -0.000990 0.000000 0.002918 0.000000
# 2 0.002442 0.030700 -0.001763 0.000000 0.002933 0.000000
# 3 -0.000990 -0.001763 0.012978 0.000000 0.000270 0.000000
# 4 0.000000 0.000000 0.000000 0.041225 0.000000 -0.005634
# 5 0.002918 0.002933 0.000270 0.000000 0.030177 0.000000
# 6 0.000000 0.000000 0.000000 -0.005634 0.000000 0.054609
#
#
# Mechanical properties :
#
#
# Convention : Reuss Voigt Hill
#
# Bulk Modulus (GPa) = 18.15325 23.00729 20.58027
# Shear Modulus (GPa) = 24.91227 28.40380 26.65804
#
# Velocity S-wave (km/s) = 3.29588 3.51928 3.40941
# Velocity P-wave (km/s) = 4.73280 5.15227 4.94699
#
# Compressibility (1/GPa) = 0.05508655
#
# Stress axis : x y z
#
# Youngs Moduli (GPa) = 83.11768 32.57379 77.05180
#
# Poissons Ratio (x) = -0.07955 0.07630
# Poissons Ratio (y) = -0.20297 0.13584
# Poissons Ratio (z) = 0.08231 0.05742
#
# Static dielectric constant tensor:
#      x y z
#    x 1.974040 0.000000 -0.089040 
#    y 0.000000 1.839460 0.000000 
#    z -0.089040 0.000000 1.947000 
# 
# From -- ./inp_files/71523.got.cif
#   From: 2010.05.17/outbox.cif.g08.bks.cpg/sg10_36_cif.got.tgz:71523.got - 2010.06.03 11:33:40.
