data_PCOD9146501
_publ_section_title
;
Structure prediction by ZEFSAII (Michael W. Deem and Ramdas Pophale) SiO2 
 PCOD9146501
Probable space group: P 2/M
;
_chemical_formula_sum "Si O2"
_cell_formula_units_Z 32
_cell_length_a 20.741360
_cell_length_b 11.061524
_cell_length_c 9.132970
_cell_angle_alpha 90.000000
_cell_angle_beta 53.453353
_cell_angle_gamma 90.000000
_cell_volume 1683.375849
_symmetry_space_group_name_H-M "P 2/M"
_symmetry_group_IT_number 10
_symmetry_cell_setting 'monoclinic'
loop_
_space_group_symop_operation_xyz
x,y,z
-x,y,-z
-x,-y,-z
x,-y,z
loop_
_atom_site_type_symbol
_atom_site_label
_atom_site_fract_x
_atom_site_fract_y
_atom_site_fract_z
Si Si1 0.801530 0.135926 0.629448
Si Si2 0.080661 0.362762 0.486068
Si Si3 0.318759 0.207107 0.964282
Si Si4 0.965839 0.639786 0.906435
Si Si5 0.582828 0.135749 0.440330
Si Si6 0.408821 0.358593 0.083177
Si Si7 0.701201 0.258148 0.512209
Si Si8 0.210673 0.642901 0.889719
O O1 0.859413 0.249443 0.593271
O O2 0.756134 0.170664 0.538921
O O3 0.837230 0.000000 0.570392
O O4 0.736376 0.135493 0.847641
O O5 0.112983 0.500000 0.407292
O O6 0.000000 0.344667 0.500000
O O7 0.040613 0.366420 0.698827
O O8 0.364546 0.133240 0.778096
O O9 0.264130 0.296038 0.941278
O O10 0.378805 0.281940 0.986093
O O11 0.944568 0.500000 0.973339
O O12 0.881113 0.687733 0.965206
O O13 0.000000 0.707334 0.000000
O O14 0.500000 0.197593 0.500000
O O15 0.633930 0.196236 0.500159
O O16 0.563344 0.000000 0.516398
O O17 0.407978 0.500000 0.047989
O O18 0.347996 0.336220 0.301565
O O19 0.500000 0.324137 0.000000
O O20 0.757683 0.325228 0.316665
O O21 0.215766 0.500000 0.902938
#
# Coordination Sequence:
#
# PCOD9146501 Si02
#       8
#     4   4   4   4   4   4   4   4
#     4  11  23  38  57  82 116 154 188 228 279 336
#     4  10  21  37  58  83 110 143 186 233 278 328
#     4  10  21  35  53  78 108 142 183 226 274 332
#     4   9  17  30  50  76 104 133 170 218 268 316
#     4  10  20  36  57  77 100 135 181 232 280 326
#     4  10  20  34  52  77 111 147 182 225 278 333
#     4  10  21  35  54  80 110 144 186 229 276 335
#     4  10  19  33  55  82 109 140 181 229 279 329
#
# _framework density 19.009421
#
# number of rings (size 3 to 8) (size 9 to 14) (size 15 to 20)
#    0.000    2.000    0.000    3.750    0.000    5.250 
#    0.000    0.000    0.000   16.125    0.000    0.000 
#    0.000    0.000    0.000    0.000    0.000    0.000 
#
# Total GULP energy -178225.993842 kJ/mol
# GULP energy per Si atom -5569.562308 kJ/mol
# Density = 1.896615 g / cm^3
# Si number density = 19.009421 Si / 1000 Ang^3
#
#
#
# Elastic Constant Matrix: (Units=GPa)
#
#
# Indices 1 2 3 4 5 6 
#
# 1 97.5629 56.3271 11.5205 0.0000 3.9962 0.0000
# 2 56.3271 94.3970 12.6773 0.0000 -5.4727 0.0000
# 3 11.5205 12.6773 49.3425 0.0000 7.2821 0.0000
# 4 0.0000 0.0000 0.0000 11.7661 0.0000 -11.3656
# 5 3.9962 -5.4727 7.2821 0.0000 35.2795 0.0000
# 6 0.0000 0.0000 0.0000 -11.3656 0.0000 14.0267
#
#
#
# Elastic Compliance Matrix: (Units=1/GPa)
#
#
# Indices 1 2 3 4 5 6 
#
# 1 0.016044 -0.009648 -0.000802 0.000000 -0.003148 0.000000
# 2 -0.009648 0.016967 -0.002740 0.000000 0.004290 0.000000
# 3 -0.000802 -0.002740 0.021873 0.000000 -0.004849 0.000000
# 4 0.000000 0.000000 0.000000 0.391112 0.000000 0.316911
# 5 -0.003148 0.004290 -0.004849 0.000000 0.030368 0.000000
# 6 0.000000 0.000000 0.000000 0.316911 0.000000 0.328080
#
#
# Mechanical properties :
#
#
# Convention : Reuss Voigt Hill
#
# Bulk Modulus (GPa) = 35.08318 44.70579 39.89448
# Shear Modulus (GPa) = 5.95006 22.93297 14.44152
#
# Velocity S-wave (km/s) = 1.77112 3.47710 2.75926
# Velocity P-wave (km/s) = 4.76217 6.29992 5.58423
#
# Compressibility (1/GPa) = 0.02850369
#
# Stress axis : x y z
#
# Youngs Moduli (GPa) = 62.32930 58.93661 45.71755
#
# Poissons Ratio (x) = 0.56863 0.03668
# Poissons Ratio (y) = 0.60137 0.12526
# Poissons Ratio (z) = 0.05001 0.16148
#
# Static dielectric constant tensor:
#      x y z
#    x 1.726340 0.000000 -0.009340 
#    y 0.000000 1.660890 0.000000 
#    z -0.009340 0.000000 1.507390 
# 
# From -- ./inp_files/34812.got.cif
#   From: 2010.05.17/outbox.cif.g08.bks.cpg/sg10_18_cif.got.tgz:34812.got - 2010.06.03 11:33:40.
