data_PCOD9146252
_publ_section_title
;
Structure prediction by ZEFSAII (Michael W. Deem and Ramdas Pophale) SiO2 
 PCOD9146252
Probable space group: P 2/M
;
_chemical_formula_sum "Si O2"
_cell_formula_units_Z 32
_cell_length_a 22.496386
_cell_length_b 8.578008
_cell_length_c 28.655091
_cell_angle_alpha 90.000000
_cell_angle_beta 16.711811
_cell_angle_gamma 90.000000
_cell_volume 1590.107142
_symmetry_space_group_name_H-M "P 2/M"
_symmetry_group_IT_number 10
_symmetry_cell_setting 'monoclinic'
loop_
_space_group_symop_operation_xyz
x,y,z
-x,y,-z
-x,-y,-z
x,-y,z
loop_
_atom_site_type_symbol
_atom_site_label
_atom_site_fract_x
_atom_site_fract_y
_atom_site_fract_z
Si Si1 0.049294 0.179340 0.106013
Si Si2 0.206995 0.184622 0.251861
Si Si3 0.397101 0.683745 0.398270
Si Si4 0.017420 0.811059 0.742736
Si Si5 0.626216 0.815997 0.979173
Si Si6 0.854219 0.317746 0.568849
Si Si7 0.132702 0.312366 0.944218
Si Si8 0.459729 0.176103 0.253457
O O1 0.033938 0.263854 0.067989
O O2 0.294064 0.179581 0.933596
O O3 0.983246 0.000000 0.149246
O O4 0.950515 0.243954 0.227916
O O5 0.276703 0.194037 0.145842
O O6 0.002606 0.283568 0.413389
O O7 0.171002 0.000000 0.288502
O O8 0.393625 0.245197 0.144994
O O9 0.385809 0.500000 0.415932
O O10 0.210003 0.764809 0.565807
O O11 0.628222 0.742549 0.238072
O O12 0.389799 0.715260 0.348470
O O13 0.799943 0.752824 0.883857
O O14 0.003813 0.000000 0.754447
O O15 0.600832 0.000000 0.009076
O O16 0.818093 0.500000 0.603164
O O17 0.643221 0.230284 0.716982
O O18 0.000000 0.253582 0.500000
O O19 0.139323 0.500000 0.938154
O O20 0.000000 0.256431 0.000000
O O21 0.392918 0.000000 0.314218
#
# Coordination Sequence:
#
# PCOD9146252 Si02
#       8
#     4   4   4   4   4   4   4   4
#     4   9  20  35  55  85 114 142 181 227 272 320
#     4   9  17  32  52  72  92 126 179 223 269 323
#     4  10  20  35  57  85 112 141 179 220 266 320
#     4  10  19  33  53  79 114 146 178 222 272 322
#     4   8  16  30  51  74  97 128 169 220 266 315
#     4  11  24  36  46  68 104 138 174 225 279 323
#     4   9  19  38  62  84 110 147 185 219 260 317
#     4  10  20  36  57  78 102 139 187 230 271 325
#
# _framework density 20.124428999999999
#
# number of rings (size 3 to 8) (size 9 to 14) (size 15 to 20)
#    0.000    2.500    0.000    2.625    1.750    3.750 
#    0.000    2.500    0.000    3.750    0.000    0.000 
#    0.000    0.000    0.000    0.000    0.000    0.000 
#
# Total GULP energy -178481.625001 kJ/mol
# GULP energy per Si atom -5577.550781 kJ/mol
# Density = 2.007863 g / cm^3
# Si number density = 20.124429 Si / 1000 Ang^3
#
#
#
# Elastic Constant Matrix: (Units=GPa)
#
#
# Indices 1 2 3 4 5 6 
#
# 1 102.4518 8.5832 16.2360 0.0000 -15.0709 0.0000
# 2 8.5832 7.0510 -2.0431 0.0000 -3.4545 0.0000
# 3 16.2360 -2.0431 41.4635 0.0000 0.0699 0.0000
# 4 0.0000 0.0000 0.0000 -68.2512 0.0000 -47.8727
# 5 -15.0709 -3.4545 0.0699 0.0000 31.1230 0.0000
# 6 0.0000 0.0000 0.0000 -47.8727 0.0000 -6.9588
#
#
#
# Elastic Compliance Matrix: (Units=1/GPa)
#
#
# Indices 1 2 3 4 5 6 
#
# 1 0.012544 -0.014724 -0.005645 0.000000 0.004453 0.000000
# 2 -0.014724 0.169544 0.014100 0.000000 0.011657 0.000000
# 3 -0.005645 0.014100 0.027025 0.000000 -0.001229 0.000000
# 4 0.000000 0.000000 0.000000 0.003830 0.000000 -0.026349
# 5 0.004453 0.011657 -0.001229 0.000000 0.035583 0.000000
# 6 0.000000 0.000000 0.000000 -0.026349 0.000000 0.037566
#
#
# Mechanical properties :
#
#
# Convention : Reuss Voigt Hill
#
# Bulk Modulus (GPa) = 5.08711 21.83539 13.46125
# Shear Modulus (GPa) = 13.73047 -0.27137 6.72955
#
# Velocity S-wave (km/s) = 2.61488 -0.36761 1.83064
# Velocity P-wave (km/s) = 3.41323 3.27010 3.34243
#
# Compressibility (1/GPa) = 0.19657534
#
# Stress axis : x y z
#
# Youngs Moduli (GPa) = 79.72087 5.89818 37.00307
#
# Poissons Ratio (x) = 0.08684 0.20888
# Poissons Ratio (y) = 1.17380 -0.52175
# Poissons Ratio (z) = 0.45001 -0.08316
#
# Static dielectric constant tensor:
#      x y z
#    x 1.758820 0.000000 0.003170 
#    y 0.000000 1.691430 0.000000 
#    z 0.003170 0.000000 1.730510 
# 
# From -- ./inp_files/93610.got.cif
#   From: 2010.05.17/outbox.cif.g08.bks.cpg/sg10_47_cif.got.tgz:93610.got - 2010.06.03 11:33:40.
