data_PCOD9146268
_publ_section_title
;
Structure prediction by ZEFSAII (Michael W. Deem and Ramdas Pophale) SiO2 
 PCOD9146268
Probable space group: P 2/M
;
_chemical_formula_sum "Si O2"
_cell_formula_units_Z 32
_cell_length_a 12.474632
_cell_length_b 20.867276
_cell_length_c 5.636089
_cell_angle_alpha 90.000000
_cell_angle_beta 108.989207
_cell_angle_gamma 90.000000
_cell_volume 1387.297398
_symmetry_space_group_name_H-M "P 2/M"
_symmetry_group_IT_number 10
_symmetry_cell_setting 'monoclinic'
loop_
_space_group_symop_operation_xyz
x,y,z
-x,y,-z
-x,-y,-z
x,-y,z
loop_
_atom_site_type_symbol
_atom_site_label
_atom_site_fract_x
_atom_site_fract_y
_atom_site_fract_z
Si Si1 0.258367 0.614432 0.956482
Si Si2 0.658397 0.923214 0.243739
Si Si3 0.019854 0.685063 0.762017
Si Si4 0.128299 0.830959 0.592849
Si Si5 0.351500 0.076718 0.265475
Si Si6 0.171394 0.428463 0.394919
Si Si7 0.787284 0.192126 0.847626
Si Si8 0.566798 0.276155 0.801545
O O1 0.249153 0.581412 0.688445
O O2 0.146046 0.657983 0.862415
O O3 0.238267 0.576990 0.191539
O O4 0.368145 0.658525 0.074278
O O5 0.779158 0.888118 0.333569
O O6 0.598933 0.904572 0.445370
O O7 0.669951 0.000000 0.254122
O O8 0.601643 0.906118 0.956071
O O9 0.928912 0.624983 0.684332
O O10 0.000000 0.720038 0.500000
O O11 0.000000 0.716399 0.000000
O O12 0.163568 0.792540 0.377332
O O13 0.000000 0.855218 0.500000
O O14 0.147746 0.796432 0.860107
O O15 0.233378 0.115454 0.179442
O O16 0.341730 0.000000 0.261046
O O17 0.121495 0.500000 0.374018
O O18 0.666538 0.226402 0.802471
O O19 0.500000 0.284369 0.500000
O O20 0.500000 0.256909 0.000000
#
# Coordination Sequence:
#
# PCOD9146268 Si02
#       8
#     4   4   4   4   4   4   4   4
#     4  10  21  37  58  88 121 155 197 244 290 333
#     4   8  14  24  41  69 108 153 191 215 249 326
#     4   8  16  29  50  84 124 156 185 218 267 337
#     4  10  19  33  53  83 121 153 183 226 287 360
#     4   8  14  27  49  76 109 145 180 233 300 358
#     4  10  19  34  61  97 133 164 190 220 275 355
#     4  10  21  38  59  85 114 151 202 248 299 362
#     4  12  26  46  69  84 105 150 212 272 312 349
#
# _framework density 23.066428999999999
#
# number of rings (size 3 to 8) (size 9 to 14) (size 15 to 20)
#    0.000    2.500    0.000    2.250    0.000    4.750 
#    0.000    5.625    0.000   15.750    0.000    0.000 
#    0.000    0.000    0.000    0.000    0.000    0.000 
#
# Total GULP energy -178296.079542 kJ/mol
# GULP energy per Si atom -5571.752486 kJ/mol
# Density = 2.301393 g / cm^3
# Si number density = 23.066429 Si / 1000 Ang^3
#
#
#
# Elastic Constant Matrix: (Units=GPa)
#
#
# Indices 1 2 3 4 5 6 
#
# 1 127.9344 29.5315 93.0781 0.0000 -24.4236 0.0000
# 2 29.5315 34.8246 39.1958 0.0000 -3.1466 0.0000
# 3 93.0781 39.1958 295.1873 0.0000 -31.9984 0.0000
# 4 0.0000 0.0000 0.0000 22.1261 0.0000 8.5579
# 5 -24.4236 -3.1466 -31.9984 0.0000 58.7255 0.0000
# 6 0.0000 0.0000 0.0000 8.5579 0.0000 46.1915
#
#
#
# Elastic Compliance Matrix: (Units=1/GPa)
#
#
# Indices 1 2 3 4 5 6 
#
# 1 0.011825 -0.006975 -0.002455 0.000000 0.003207 0.000000
# 2 -0.006975 0.037900 -0.003111 0.000000 -0.002565 0.000000
# 3 -0.002455 -0.003111 0.004725 0.000000 0.001387 0.000000
# 4 0.000000 0.000000 0.000000 0.048684 0.000000 -0.009020
# 5 0.003207 -0.002565 0.001387 0.000000 0.018980 0.000000
# 6 0.000000 0.000000 0.000000 -0.009020 0.000000 0.023320
#
#
# Mechanical properties :
#
#
# Convention : Reuss Voigt Hill
#
# Bulk Modulus (GPa) = 34.05040 86.83967 60.44503
# Shear Modulus (GPa) = 27.73074 45.15136 36.44105
#
# Velocity S-wave (km/s) = 3.47105 4.42911 3.97902
# Velocity P-wave (km/s) = 5.55502 7.99283 6.88272
#
# Compressibility (1/GPa) = 0.02936823
#
# Stress axis : x y z
#
# Youngs Moduli (GPa) = 84.56920 26.38521 211.63079
#
# Poissons Ratio (x) = 0.18403 0.51952
# Poissons Ratio (y) = 0.58984 0.65845
# Poissons Ratio (z) = 0.20760 0.08209
#
# Static dielectric constant tensor:
#      x y z
#    x 2.147050 0.000000 0.172580 
#    y 0.000000 1.880880 0.000000 
#    z 0.172580 0.000000 2.083040 
# 
# From -- ./inp_files/8094.got.cif
#   From: 2010.05.17/outbox.cif.g08.bks.cpg/sg10_5_cif.got.tgz:8094.got - 2010.06.03 11:33:40.
