data_PCOD9146466
_publ_section_title
;
Structure prediction by ZEFSAII (Michael W. Deem and Ramdas Pophale) SiO2 
 PCOD9146466
Probable space group: P 2/M
;
_chemical_formula_sum "Si O2"
_cell_formula_units_Z 20
_cell_length_a 9.918975
_cell_length_b 13.460126
_cell_length_c 14.346679
_cell_angle_alpha 90.000000
_cell_angle_beta 153.112076
_cell_angle_gamma 90.000000
_cell_volume 866.248999
_symmetry_space_group_name_H-M "P 2/M"
_symmetry_group_IT_number 10
_symmetry_cell_setting 'monoclinic'
loop_
_space_group_symop_operation_xyz
x,y,z
-x,y,-z
-x,-y,-z
x,-y,z
loop_
_atom_site_type_symbol
_atom_site_label
_atom_site_fract_x
_atom_site_fract_y
_atom_site_fract_z
Si Si1 0.924272 0.886403 0.750287
Si Si2 0.256937 0.323679 0.769283
Si Si3 0.601496 0.888066 0.206407
Si Si4 0.404349 0.389558 0.654568
Si Si5 0.448769 0.816047 0.316445
O O1 0.726868 0.822629 0.559087
O O2 0.824060 0.860624 0.793440
O O3 0.842635 0.000000 0.680877
O O4 0.276753 0.877424 0.958874
O O5 0.217509 0.206994 0.717337
O O6 0.378867 0.374797 0.750308
O O7 0.935184 0.371012 0.590420
O O8 0.500000 0.333560 0.000000
O O9 0.536276 0.873602 0.276235
O O10 0.715968 0.000000 0.258845
O O11 0.503782 0.500000 0.692269
O O12 0.599605 0.298868 0.737706
#
# Coordination Sequence:
#
# PCOD9146466 Si02
#       5
#     4   4   4   4   4
#     4  10  19  33  55  80 108 140 169 199 247 312
#     4  10  20  36  56  77 102 135 173 213 257 309
#     4  10  20  33  52  79 109 138 167 205 253 305
#     4  10  22  38  55  75 100 134 176 221 262 299
#     4  10  19  34  54  77 105 137 174 211 250 302
#
# _framework density 23.088049999999999
#
# number of rings (size 3 to 8) (size 9 to 14) (size 15 to 20)
#    0.000    2.000    0.000    5.400    0.000    3.600 
#    0.000   12.000    0.000   10.800    0.000    0.000 
#    0.000    0.000    0.000    0.000    0.000    0.000 
#
# Total GULP energy -111965.078325 kJ/mol
# GULP energy per Si atom -5598.253916 kJ/mol
# Density = 2.303550 g / cm^3
# Si number density = 23.088050 Si / 1000 Ang^3
#
#
#
# Elastic Constant Matrix: (Units=GPa)
#
#
# Indices 1 2 3 4 5 6 
#
# 1 50.0523 9.2052 4.0727 0.0000 -5.3788 0.0000
# 2 9.2052 150.3116 -4.3389 0.0000 -5.6014 0.0000
# 3 4.0727 -4.3389 110.5019 0.0000 -14.7842 0.0000
# 4 0.0000 0.0000 0.0000 17.4145 0.0000 8.7640
# 5 -5.3788 -5.6014 -14.7842 0.0000 30.6276 0.0000
# 6 0.0000 0.0000 0.0000 8.7640 0.0000 7.4519
#
#
#
# Elastic Compliance Matrix: (Units=1/GPa)
#
#
# Indices 1 2 3 4 5 6 
#
# 1 0.020567 -0.001150 -0.000372 0.000000 0.003222 0.000000
# 2 -0.001150 0.006784 0.000479 0.000000 0.001270 0.000000
# 3 -0.000372 0.000479 0.009712 0.000000 0.004710 0.000000
# 4 0.000000 0.000000 0.000000 0.140698 0.000000 -0.165470
# 5 0.003222 0.001270 0.004710 0.000000 0.035722 0.000000
# 6 0.000000 0.000000 0.000000 -0.165470 0.000000 0.328797
#
#
# Mechanical properties :
#
#
# Convention : Reuss Voigt Hill
#
# Bulk Modulus (GPa) = 28.59055 36.52708 32.55882
# Shear Modulus (GPa) = 8.99237 31.22726 20.10982
#
# Velocity S-wave (km/s) = 1.97567 3.68166 2.95448
# Velocity P-wave (km/s) = 4.19696 5.82477 5.07654
#
# Compressibility (1/GPa) = 0.03497659
#
# Stress axis : x y z
#
# Youngs Moduli (GPa) = 48.62122 147.39639 102.96181
#
# Poissons Ratio (x) = 0.16954 0.03831
# Poissons Ratio (y) = 0.05593 -0.04929
# Poissons Ratio (z) = 0.01809 -0.07056
#
# Static dielectric constant tensor:
#      x y z
#    x 1.900690 0.000000 0.014630 
#    y 0.000000 1.838440 0.000000 
#    z 0.014630 0.000000 1.885330 
# 
# From -- ./inp_files/50939.got.cif
#   From: 2010.05.17/outbox.cif.g08.bks.cpg/sg10_26_cif.got.tgz:50939.got - 2010.06.03 11:33:40.
