data_PCOD9146351
_publ_section_title
;
Structure prediction by ZEFSAII (Michael W. Deem and Ramdas Pophale) SiO2 
 PCOD9146351
Probable space group: P 2/M
;
_chemical_formula_sum "Si O2"
_cell_formula_units_Z 32
_cell_length_a 13.216463
_cell_length_b 8.005223
_cell_length_c 32.730402
_cell_angle_alpha 90.000000
_cell_angle_beta 26.077930
_cell_angle_gamma 90.000000
_cell_volume 1522.267608
_symmetry_space_group_name_H-M "P 2/M"
_symmetry_group_IT_number 10
_symmetry_cell_setting 'monoclinic'
loop_
_space_group_symop_operation_xyz
x,y,z
-x,y,-z
-x,-y,-z
x,-y,z
loop_
_atom_site_type_symbol
_atom_site_label
_atom_site_fract_x
_atom_site_fract_y
_atom_site_fract_z
Si Si1 0.747116 0.701845 0.104128
Si Si2 0.138209 0.191563 0.628341
Si Si3 0.443084 0.807209 0.369890
Si Si4 0.601404 0.802550 0.705324
Si Si5 0.629538 0.695839 0.825916
Si Si6 0.349717 0.797843 0.093242
Si Si7 0.818037 0.795547 0.297586
Si Si8 0.081372 0.688487 0.560100
O O1 0.752203 0.500000 0.105436
O O2 0.638737 0.771540 0.184868
O O3 0.567907 0.746863 0.133531
O O4 0.000000 0.760085 0.000000
O O5 0.862310 0.200420 0.735204
O O6 0.173177 0.279520 0.572425
O O7 0.232878 0.260157 0.637189
O O8 0.212738 0.000000 0.596551
O O9 0.408374 0.734771 0.337403
O O10 0.637558 0.734346 0.329413
O O11 0.209691 0.801323 0.480533
O O12 0.510895 0.000000 0.338350
O O13 0.808519 0.719255 0.655678
O O14 0.651224 0.000000 0.686551
O O15 0.685636 0.500000 0.798865
O O16 0.553598 0.723328 0.899921
O O17 0.079098 0.750101 0.190528
O O18 0.357869 0.000000 0.092621
O O19 0.500000 0.745194 0.000000
O O20 0.807914 0.000000 0.302958
O O21 0.131408 0.500000 0.530059
#
# Coordination Sequence:
#
# PCOD9146351 Si02
#       8
#     4   4   4   4   4   4   4   4
#     4  10  22  39  58  83 118 157 192 234 294 351
#     4  10  19  35  61  86 111 147 190 235 285 343
#     4  10  22  40  59  83 117 154 195 242 293 349
#     4  11  23  39  62  88 115 151 198 248 289 340
#     4  10  19  33  54  80 111 149 188 233 285 337
#     4   9  18  33  56  83 111 149 193 236 286 344
#     4   8  17  35  57  82 114 150 187 236 296 343
#     4  12  24  38  59  86 116 153 195 240 295 354
#
# _framework density 21.021269
#
# number of rings (size 3 to 8) (size 9 to 14) (size 15 to 20)
#    0.000    2.000    1.250    3.375    0.000    5.000 
#    0.000    6.875    0.000    0.000    0.000    0.000 
#    0.000    0.000    0.000    0.000    0.000    0.000 
#
# Total GULP energy -178713.023727 kJ/mol
# GULP energy per Si atom -5584.781991 kJ/mol
# Density = 2.097342 g / cm^3
# Si number density = 21.021269 Si / 1000 Ang^3
#
#
#
# Elastic Constant Matrix: (Units=GPa)
#
#
# Indices 1 2 3 4 5 6 
#
# 1 104.3669 12.1527 41.6157 0.0000 12.6064 0.0000
# 2 12.1527 26.7907 -4.8799 0.0000 -2.7800 0.0000
# 3 41.6157 -4.8799 87.8103 0.0000 13.2582 0.0000
# 4 0.0000 0.0000 0.0000 12.9050 0.0000 1.1605
# 5 12.6064 -2.7800 13.2582 0.0000 34.8243 0.0000
# 6 0.0000 0.0000 0.0000 1.1605 0.0000 66.7963
#
#
#
# Elastic Compliance Matrix: (Units=1/GPa)
#
#
# Indices 1 2 3 4 5 6 
#
# 1 0.013323 -0.007501 -0.006273 0.000000 -0.003033 0.000000
# 2 -0.007501 0.042113 0.005281 0.000000 0.004066 0.000000
# 3 -0.006273 0.005281 0.015117 0.000000 -0.003063 0.000000
# 4 0.000000 0.000000 0.000000 0.077611 0.000000 -0.001348
# 5 -0.003033 0.004066 -0.003063 0.000000 0.031304 0.000000
# 6 0.000000 0.000000 0.000000 -0.001348 0.000000 0.014994
#
#
# Mechanical properties :
#
#
# Convention : Reuss Voigt Hill
#
# Bulk Modulus (GPa) = 18.66795 35.19386 26.93091
# Shear Modulus (GPa) = 21.80528 34.24377 28.02452
#
# Velocity S-wave (km/s) = 3.22420 4.04047 3.65519
# Velocity P-wave (km/s) = 4.77079 6.20851 5.53652
#
# Compressibility (1/GPa) = 0.05356775
#
# Stress axis : x y z
#
# Youngs Moduli (GPa) = 75.06032 23.74576 66.15071
#
# Poissons Ratio (x) = 0.17811 0.41495
# Poissons Ratio (y) = 0.56301 -0.34935
# Poissons Ratio (z) = 0.47084 -0.12541
#
# Static dielectric constant tensor:
#      x y z
#    x 1.761750 0.000000 0.003300 
#    y 0.000000 1.747520 0.000000 
#    z 0.003300 0.000000 1.734800 
# 
# From -- ./inp_files/94920.got.cif
#   From: 2010.05.17/outbox.cif.g08.bks.cpg/sg10_48_cif.got.tgz:94920.got - 2010.06.03 11:33:40.
