data_PCOD9146876
_publ_section_title
;
Structure prediction by ZEFSAII (Michael W. Deem and Ramdas Pophale) SiO2 
 PCOD9146876
Probable space group: P 2/M
;
_chemical_formula_sum "Si O2"
_cell_formula_units_Z 19
_cell_length_a 20.885136
_cell_length_b 7.758597
_cell_length_c 5.105923
_cell_angle_alpha 90.000000
_cell_angle_beta 75.146275
_cell_angle_gamma 90.000000
_cell_volume 799.712920
_symmetry_space_group_name_H-M "P 2/M"
_symmetry_group_IT_number 10
_symmetry_cell_setting 'monoclinic'
loop_
_space_group_symop_operation_xyz
x,y,z
-x,y,-z
-x,-y,-z
x,-y,z
loop_
_atom_site_type_symbol
_atom_site_label
_atom_site_fract_x
_atom_site_fract_y
_atom_site_fract_z
Si Si1 0.952710 0.000000 0.297184
Si Si2 0.000000 0.500000 0.500000
Si Si3 0.690868 0.209416 0.640825
Si Si4 0.769627 0.791710 0.063576
Si Si5 0.541894 0.789190 0.703660
Si Si6 0.102622 0.691924 0.382161
O O1 0.903398 0.161484 0.397576
O O2 0.000000 0.000000 0.500000
O O3 0.000000 0.000000 0.000000
O O4 0.963681 0.657809 0.714340
O O5 0.711996 0.250743 0.913424
O O6 0.617665 0.270110 0.642504
O O7 0.690253 0.000000 0.624766
O O8 0.745722 0.268174 0.373140
O O9 0.835198 0.714214 0.866949
O O10 0.777942 0.000000 0.058574
O O11 0.500000 0.730577 0.500000
O O12 0.544499 0.000000 0.692209
O O13 0.500000 0.740323 0.000000
O O14 0.094491 0.500000 0.522118
#
# Coordination Sequence:
#
# PCOD9146876 Si02
#       6
#     2   1   4   4   4   4
#     4  12  24  42  66  90 120 156 194 246 308 366
#     4   8  20  42  66  88 124 152 198 262 298 352
#     4   9  18  30  48  77 112 152 198 241 289 351
#     4  10  19  34  54  78 112 153 194 242 295 353
#     4   9  15  24  41  68 107 151 189 234 289 339
#     4  10  21  42  64  91 121 157 203 249 307 360
#
# _framework density 23.758524999999999
#
# number of rings (size 3 to 8) (size 9 to 14) (size 15 to 20)
#    0.632    1.684    2.105    1.263    0.000    7.158 
#    0.000    3.158    0.000    0.000    0.000    0.000 
#    0.000   16.842    0.000    0.000    0.000    0.000 
#
# Total GULP energy -105808.204792 kJ/mol
# GULP energy per Si atom -5568.852884 kJ/mol
# Density = 2.370445 g / cm^3
# Si number density = 23.758525 Si / 1000 Ang^3
#
#
#
# Elastic Constant Matrix: (Units=GPa)
#
#
# Indices 1 2 3 4 5 6 
#
# 1 60.4844 -4.7845 7.3375 0.0000 -16.1710 0.0000
# 2 -4.7845 89.0000 18.9426 0.0000 -4.5124 0.0000
# 3 7.3375 18.9426 110.6554 0.0000 -7.2749 0.0000
# 4 0.0000 0.0000 0.0000 0.2876 0.0000 -2.2214
# 5 -16.1710 -4.5124 -7.2749 0.0000 44.0075 0.0000
# 6 0.0000 0.0000 0.0000 -2.2214 0.0000 -3.4647
#
#
#
# Elastic Compliance Matrix: (Units=1/GPa)
#
#
# Indices 1 2 3 4 5 6 
#
# 1 0.018610 0.001571 -0.001054 0.000000 0.006825 0.000000
# 2 0.001571 0.011827 -0.002033 0.000000 0.001454 0.000000
# 3 -0.001054 -0.002033 0.009519 0.000000 0.000978 0.000000
# 4 0.000000 0.000000 0.000000 0.584164 0.000000 -0.374535
# 5 0.006825 0.001454 0.000978 0.000000 0.025542 0.000000
# 6 0.000000 0.000000 0.000000 -0.374535 0.000000 -0.048491
#
#
# Mechanical properties :
#
#
# Convention : Reuss Voigt Hill
#
# Bulk Modulus (GPa) = 27.08321 33.68123 30.38222
# Shear Modulus (GPa) = 8.11014 24.07569 16.09291
#
# Velocity S-wave (km/s) = 1.84959 3.18677 2.60542
# Velocity P-wave (km/s) = 3.99818 5.26763 4.67618
#
# Compressibility (1/GPa) = 0.03692325
#
# Stress axis : x y z
#
# Youngs Moduli (GPa) = 53.73419 84.55337 105.04972
#
# Poissons Ratio (x) = -0.13282 0.11075
# Poissons Ratio (y) = -0.08441 0.21358
# Poissons Ratio (z) = 0.05665 0.17191
#
# Static dielectric constant tensor:
#      x y z
#    x 3.142960 0.000000 0.204870 
#    y 0.000000 2.008950 0.000000 
#    z 0.204870 0.000000 1.951420 
# 
# From -- ./inp_files/11890.got.cif
#   From: 2010.05.17/outbox.cif.g08.bks.cpg/sg10_6_cif.got.tgz:11890.got - 2010.06.03 11:33:40.
