data_PCOD9146770
_publ_section_title
;
Structure prediction by ZEFSAII (Michael W. Deem and Ramdas Pophale) SiO2 
 PCOD9146770
Probable space group: P 2/M
;
_chemical_formula_sum "Si O2"
_cell_formula_units_Z 32
_cell_length_a 20.114689
_cell_length_b 8.694514
_cell_length_c 12.239158
_cell_angle_alpha 90.000000
_cell_angle_beta 120.949849
_cell_angle_gamma 90.000000
_cell_volume 1835.709491
_symmetry_space_group_name_H-M "P 2/M"
_symmetry_group_IT_number 10
_symmetry_cell_setting 'monoclinic'
loop_
_space_group_symop_operation_xyz
x,y,z
-x,y,-z
-x,-y,-z
x,-y,z
loop_
_atom_site_type_symbol
_atom_site_label
_atom_site_fract_x
_atom_site_fract_y
_atom_site_fract_z
Si Si1 0.232656 0.687249 0.107104
Si Si2 0.455462 0.815148 0.075825
Si Si3 0.716007 0.316602 0.082531
Si Si4 0.673414 0.316896 0.614315
Si Si5 0.176280 0.816138 0.381467
Si Si6 0.082514 0.685748 0.119921
Si Si7 0.258253 0.184030 0.662384
Si Si8 0.410473 0.814867 0.651377
O O1 0.232764 0.500000 0.107381
O O2 0.306142 0.734490 0.244957
O O3 0.152956 0.733981 0.099065
O O4 0.240618 0.740405 0.989882
O O5 0.510608 0.766499 0.222644
O O6 0.444821 0.000000 0.072188
O O7 0.500000 0.783073 0.000000
O O8 0.372863 0.735574 0.003969
O O9 0.719858 0.500000 0.087288
O O10 0.747671 0.255109 0.223784
O O11 0.664957 0.500000 0.606393
O O12 0.751753 0.268057 0.616730
O O13 0.605380 0.245469 0.483854
O O14 0.101314 0.758463 0.253620
O O15 0.188502 0.780703 0.519515
O O16 0.185284 0.000000 0.376080
O O17 0.915029 0.500000 0.868113
O O18 0.000000 0.729349 0.000000
O O19 0.338241 0.233147 0.668744
O O20 0.263353 0.000000 0.678377
O O21 0.408743 0.000000 0.646624
#
# Coordination Sequence:
#
# PCOD9146770 Si02
#       8
#     4   4   4   4   4   4   4   4
#     4   8  17  33  48  69 101 128 151 190 242 286
#     4  10  19  34  49  63  92 130 162 200 250 289
#     4  11  21  31  47  70  96 126 162 201 238 284
#     4   9  16  29  49  68  92 125 160 199 241 285
#     4   9  17  29  47  72 101 127 154 194 238 279
#     4   9  17  32  56  80 100 125 157 193 234 281
#     4   9  17  31  47  66  94 129 162 195 241 283
#     4   9  17  30  48  67  90 120 158 206 251 283
#
# _framework density 17.431951999999999
#
# number of rings (size 3 to 8) (size 9 to 14) (size 15 to 20)
#    0.000    2.750    1.250    2.625    0.000    3.500 
#    0.000    6.875    0.000    4.500    0.000    5.250 
#    0.000    0.000    0.000    0.000    0.000    0.000 
#
# Total GULP energy -178246.193291 kJ/mol
# GULP energy per Si atom -5570.193540 kJ/mol
# Density = 1.739228 g / cm^3
# Si number density = 17.431952 Si / 1000 Ang^3
#
#
#
# Elastic Constant Matrix: (Units=GPa)
#
#
# Indices 1 2 3 4 5 6 
#
# 1 39.3199 11.7954 50.9568 0.0000 -6.2265 0.0000
# 2 11.7954 15.4057 32.9142 0.0000 -0.6515 0.0000
# 3 50.9568 32.9142 175.0957 0.0000 -0.3718 0.0000
# 4 0.0000 0.0000 0.0000 33.1010 0.0000 -6.6410
# 5 -6.2265 -0.6515 -0.3718 0.0000 25.4552 0.0000
# 6 0.0000 0.0000 0.0000 -6.6410 0.0000 95.7721
#
#
#
# Elastic Compliance Matrix: (Units=1/GPa)
#
#
# Indices 1 2 3 4 5 6 
#
# 1 0.044344 -0.010004 -0.011002 0.000000 0.010430 0.000000
# 2 -0.010004 0.110891 -0.017933 0.000000 0.000129 0.000000
# 3 -0.011002 -0.017933 0.012278 0.000000 -0.002971 0.000000
# 4 0.000000 0.000000 0.000000 0.030637 0.000000 0.002124
# 5 0.010430 0.000129 -0.002971 0.000000 0.041796 0.000000
# 6 0.000000 0.000000 0.000000 0.002124 0.000000 0.010589
#
#
# Mechanical properties :
#
#
# Convention : Reuss Voigt Hill
#
# Bulk Modulus (GPa) = 11.15670 46.79490 28.97580
# Shear Modulus (GPa) = 13.95516 39.80930 26.88223
#
# Velocity S-wave (km/s) = 2.83247 4.78399 3.93125
# Velocity P-wave (km/s) = 4.13657 7.57747 6.10447
#
# Compressibility (1/GPa) = 0.08963227
#
# Stress axis : x y z
#
# Youngs Moduli (GPa) = 22.55121 9.01789 81.44763
#
# Poissons Ratio (x) = 0.09022 0.89610
# Poissons Ratio (y) = 0.22561 1.46063
# Poissons Ratio (z) = 0.24811 0.16172
#
# Static dielectric constant tensor:
#      x y z
#    x 1.578750 0.000000 -0.004420 
#    y 0.000000 1.591820 0.000000 
#    z -0.004420 0.000000 1.637390 
# 
# From -- ./inp_files/52793.got.cif
#   From: 2010.05.17/outbox.cif.g08.bks.cpg/sg10_27_cif.got.tgz:52793.got - 2010.06.03 11:33:40.
