data_PCOD9146658
_publ_section_title
;
Structure prediction by ZEFSAII (Michael W. Deem and Ramdas Pophale) SiO2 
 PCOD9146658
Probable space group: P 2/M
;
_chemical_formula_sum "Si O2"
_cell_formula_units_Z 29
_cell_length_a 14.287596
_cell_length_b 7.438487
_cell_length_c 12.622215
_cell_angle_alpha 90.000000
_cell_angle_beta 71.677554
_cell_angle_gamma 90.000000
_cell_volume 1273.455931
_symmetry_space_group_name_H-M "P 2/M"
_symmetry_group_IT_number 10
_symmetry_cell_setting 'monoclinic'
loop_
_space_group_symop_operation_xyz
x,y,z
-x,y,-z
-x,-y,-z
x,-y,z
loop_
_atom_site_type_symbol
_atom_site_label
_atom_site_fract_x
_atom_site_fract_y
_atom_site_fract_z
Si Si1 0.924378 0.217889 0.618348
Si Si2 0.645690 0.793918 0.440159
Si Si3 0.805254 0.717528 0.216429
Si Si4 0.301204 0.219504 0.342284
Si Si5 0.024994 0.707442 0.159962
Si Si6 0.591626 0.792564 0.903201
Si Si7 0.233035 0.718087 0.001359
Si Si8 0.500000 0.500000 0.500000
O O1 0.811893 0.275498 0.636977
O O2 0.959731 0.284201 0.719574
O O3 0.000000 0.274771 0.500000
O O4 0.924861 0.000000 0.621107
O O5 0.746781 0.784486 0.338874
O O6 0.663339 0.725699 0.554013
O O7 0.567199 0.658524 0.419953
O O8 0.613695 0.000000 0.453740
O O9 0.808261 0.500000 0.221746
O O10 0.751269 0.766934 0.126473
O O11 0.917929 0.784043 0.172199
O O12 0.371275 0.283694 0.222159
O O13 0.300792 0.000000 0.341322
O O14 0.021766 0.500000 0.125542
O O15 0.124204 0.783397 0.073527
O O16 0.564298 0.000000 0.890283
O O17 0.500000 0.710549 0.000000
O O18 0.685391 0.788214 0.947526
O O19 0.234626 0.500000 0.009299
#
# Coordination Sequence:
#
# PCOD9146658 Si02
#       8
#     4   4   4   4   4   4   4   1
#     4  10  19  33  56  86 123 163 206 260 321 386
#     4  11  24  45  71  98 133 175 221 272 336 400
#     4  10  21  40  62  91 134 174 220 272 328 397
#     4   9  19  38  60  88 127 165 205 264 329 389
#     4  10  20  35  58  90 127 171 214 263 333 398
#     4  10  21  39  62  88 120 161 212 270 330 390
#     4  10  21  38  60  91 128 170 216 271 334 394
#     4  12  26  48  68 102 130 172 218 282 336 384
#
# _framework density 22.772676000000001
#
# number of rings (size 3 to 8) (size 9 to 14) (size 15 to 20)
#    0.000    1.931    2.069    1.448    0.000    5.517 
#    2.483    1.379    0.000    2.483    0.000    0.000 
#    0.000    0.000    0.000    0.000    0.000    0.000 
#
# Total GULP energy -161875.494700 kJ/mol
# GULP energy per Si atom -5581.913610 kJ/mol
# Density = 2.272084 g / cm^3
# Si number density = 22.772676 Si / 1000 Ang^3
#
#
#
# Elastic Constant Matrix: (Units=GPa)
#
#
# Indices 1 2 3 4 5 6 
#
# 1 46.7012 -1.4118 43.5855 0.0000 -15.3688 0.0000
# 2 -1.4118 94.6546 1.9132 0.0000 -4.3921 0.0000
# 3 43.5855 1.9132 177.7034 0.0000 -9.8924 0.0000
# 4 0.0000 0.0000 0.0000 -13.7344 0.0000 13.9661
# 5 -15.3688 -4.3921 -9.8924 0.0000 45.4009 0.0000
# 6 0.0000 0.0000 0.0000 13.9661 0.0000 1.1202
#
#
#
# Elastic Compliance Matrix: (Units=1/GPa)
#
#
# Indices 1 2 3 4 5 6 
#
# 1 0.031082 0.001028 -0.007130 0.000000 0.009068 0.000000
# 2 0.001028 0.010647 -0.000294 0.000000 0.001314 0.000000
# 3 -0.007130 -0.000294 0.007332 0.000000 -0.000844 0.000000
# 4 0.000000 0.000000 0.000000 -0.005323 0.000000 0.066367
# 5 0.009068 0.001314 -0.000844 0.000000 0.025039 0.000000
# 6 0.000000 0.000000 0.000000 0.066367 0.000000 0.065266
#
#
# Mechanical properties :
#
#
# Convention : Reuss Voigt Hill
#
# Bulk Modulus (GPa) = 27.57015 45.24810 36.40912
# Shear Modulus (GPa) = 31.46175 24.88882 28.17528
#
# Velocity S-wave (km/s) = 3.72096 3.30953 3.52126
# Velocity P-wave (km/s) = 5.53116 5.87508 5.70571
#
# Compressibility (1/GPa) = 0.03627112
#
# Stress axis : x y z
#
# Youngs Moduli (GPa) = 32.17293 93.92333 136.38379
#
# Poissons Ratio (x) = -0.09660 0.97239
# Poissons Ratio (y) = -0.03309 0.04006
# Poissons Ratio (z) = 0.22939 0.02759
#
# Static dielectric constant tensor:
#      x y z
#    x 1.848140 0.000000 -0.019160 
#    y 0.000000 1.874560 0.000000 
#    z -0.019160 0.000000 1.837010 
# 
# From -- ./inp_files/49706.got.cif
#   From: 2010.05.17/outbox.cif.g08.bks.cpg/sg10_25_cif.got.tgz:49706.got - 2010.06.03 11:33:40.
