data_PCOD9146198
_publ_section_title
;
Structure prediction by ZEFSAII (Michael W. Deem and Ramdas Pophale) SiO2 
 PCOD9146198
Probable space group: P 2/M
;
_chemical_formula_sum "Si O2"
_cell_formula_units_Z 28
_cell_length_a 15.684665
_cell_length_b 7.701378
_cell_length_c 17.013581
_cell_angle_alpha 90.000000
_cell_angle_beta 133.942565
_cell_angle_gamma 90.000000
_cell_volume 1479.767557
_symmetry_space_group_name_H-M "P 2/M"
_symmetry_group_IT_number 10
_symmetry_cell_setting 'monoclinic'
loop_
_space_group_symop_operation_xyz
x,y,z
-x,y,-z
-x,-y,-z
x,-y,z
loop_
_atom_site_type_symbol
_atom_site_label
_atom_site_fract_x
_atom_site_fract_y
_atom_site_fract_z
Si Si1 0.647956 0.210961 0.232296
Si Si2 0.050361 0.209710 0.154605
Si Si3 0.116891 0.202887 0.533451
Si Si4 0.606918 0.202411 0.881566
Si Si5 0.984556 0.703005 0.691656
Si Si6 0.814638 0.212450 0.910773
Si Si7 0.254248 0.705933 0.874231
O O1 0.759990 0.274472 0.354983
O O2 0.522561 0.277660 0.184435
O O3 0.672576 0.261855 0.158167
O O4 0.643297 0.000000 0.231181
O O5 0.063316 0.273818 0.251124
O O6 0.147887 0.265476 0.152944
O O7 0.050536 0.000000 0.156691
O O8 0.922847 0.264134 0.037508
O O9 0.095797 0.215623 0.427256
O O10 0.000000 0.280624 0.500000
O O11 0.119644 0.000000 0.557495
O O12 0.691460 0.276736 0.867650
O O13 0.589363 0.000000 0.850494
O O14 0.681952 0.212553 0.010016
O O15 0.991450 0.500000 0.677352
O O16 0.119756 0.773198 0.776697
O O17 0.813421 0.000000 0.910813
O O18 0.247087 0.500000 0.884341
#
# Coordination Sequence:
#
# PCOD9146198 Si02
#       7
#     4   4   4   4   4   4   4
#     4  10  21  35  52  74  97 129 171 207 243 289
#     4   9  16  30  52  75  98 128 164 198 244 297
#     4  10  20  35  54  72  94 128 170 212 248 285
#     4  10  19  33  53  75 102 131 162 202 245 293
#     4  11  22  33  49  75 104 132 165 205 247 288
#     4   8  15  28  50  77 100 125 159 200 245 293
#     4  11  22  33  47  72 106 138 165 196 241 296
#
# _framework density 18.921890000000001
#
# number of rings (size 3 to 8) (size 9 to 14) (size 15 to 20)
#    0.000    2.143    2.857    2.143    0.000    4.286 
#    0.000    2.143    0.000    0.857    0.000    6.000 
#    0.000    0.000    0.000    0.000    0.000    0.000 
#
# Total GULP energy -156266.834025 kJ/mol
# GULP energy per Si atom -5580.958358 kJ/mol
# Density = 1.887882 g / cm^3
# Si number density = 18.921890 Si / 1000 Ang^3
#
#
#
# Elastic Constant Matrix: (Units=GPa)
#
#
# Indices 1 2 3 4 5 6 
#
# 1 159.2238 -5.2969 46.8644 0.0000 -1.8272 0.0000
# 2 -5.2969 31.3272 -8.3238 0.0000 6.3329 0.0000
# 3 46.8644 -8.3238 49.8408 0.0000 -0.6376 0.0000
# 4 0.0000 0.0000 0.0000 608.1003 0.0000 -453.7605
# 5 -1.8272 6.3329 -0.6376 0.0000 29.0946 0.0000
# 6 0.0000 0.0000 0.0000 -453.7605 0.0000 349.1927
#
#
#
# Elastic Compliance Matrix: (Units=1/GPa)
#
#
# Indices 1 2 3 4 5 6 
#
# 1 0.008708 -0.000850 -0.008323 0.000000 0.000550 0.000000
# 2 -0.000850 0.035043 0.006555 0.000000 -0.007537 0.000000
# 3 -0.008323 0.006555 0.028968 0.000000 -0.001315 0.000000
# 4 0.000000 0.000000 0.000000 0.054176 0.000000 0.070399
# 5 0.000550 -0.007537 -0.001315 0.000000 0.036017 0.000000
# 6 0.000000 0.000000 0.000000 0.070399 0.000000 0.094344
#
#
# Mechanical properties :
#
#
# Convention : Reuss Voigt Hill
#
# Bulk Modulus (GPa) = 14.81846 34.09767 24.45807
# Shear Modulus (GPa) = 17.54471 211.08738 114.31605
#
# Velocity S-wave (km/s) = 3.04833 10.57352 7.78112
# Velocity P-wave (km/s) = 4.49868 12.92769 9.67893
#
# Compressibility (1/GPa) = 0.06748338
#
# Stress axis : x y z
#
# Youngs Moduli (GPa) = 114.83367 28.53644 34.52085
#
# Poissons Ratio (x) = 0.02426 0.28732
# Poissons Ratio (y) = 0.09763 -0.22630
# Poissons Ratio (z) = 0.95578 -0.18707
#
# Static dielectric constant tensor:
#      x y z
#    x 1.681180 0.000000 0.018010 
#    y 0.000000 1.699240 0.000000 
#    z 0.018010 0.000000 1.627520 
# 
# From -- ./inp_files/49076.got.cif
#   From: 2010.05.17/outbox.cif.g08.bks.cpg/sg10_25_cif.got.tgz:49076.got - 2010.06.03 11:33:40.
