data_PCOD9146507
_publ_section_title
;
Structure prediction by ZEFSAII (Michael W. Deem and Ramdas Pophale) SiO2 
 PCOD9146507
Probable space group: P 2/M
;
_chemical_formula_sum "Si O2"
_cell_formula_units_Z 32
_cell_length_a 28.144940
_cell_length_b 8.153426
_cell_length_c 19.918682
_cell_angle_alpha 90.000000
_cell_angle_beta 159.791230
_cell_angle_gamma 90.000000
_cell_volume 1578.977730
_symmetry_space_group_name_H-M "P 2/M"
_symmetry_group_IT_number 10
_symmetry_cell_setting 'monoclinic'
loop_
_space_group_symop_operation_xyz
x,y,z
-x,y,-z
-x,-y,-z
x,-y,z
loop_
_atom_site_type_symbol
_atom_site_label
_atom_site_fract_x
_atom_site_fract_y
_atom_site_fract_z
Si Si1 0.577983 0.696970 0.169240
Si Si2 0.977641 0.301864 0.394097
Si Si3 0.828524 0.695178 0.994359
Si Si4 0.111050 0.807236 0.436860
Si Si5 0.448364 0.700982 0.718426
Si Si6 0.839263 0.310205 0.720912
Si Si7 0.310107 0.300864 0.055868
Si Si8 0.142327 0.813918 0.112726
O O1 0.563214 0.500000 0.148957
O O2 0.739895 0.735674 0.382095
O O3 0.518371 0.754477 0.161749
O O4 0.500000 0.762507 0.000000
O O5 0.993874 0.500000 0.412713
O O6 0.077808 0.227608 0.471031
O O7 0.000000 0.248764 0.500000
O O8 0.823512 0.262072 0.165958
O O9 0.815128 0.500000 0.970967
O O10 0.983771 0.731107 0.226346
O O11 0.726097 0.756531 0.917119
O O12 0.802720 0.770679 0.887573
O O13 0.111248 0.000000 0.424183
O O14 0.450517 0.500000 0.720063
O O15 0.293519 0.749576 0.494663
O O16 0.555202 0.758816 0.803896
O O17 0.866955 0.500000 0.740144
O O18 0.810714 0.297283 0.762809
O O19 0.977246 0.210384 0.890017
O O20 0.318248 0.500000 0.070107
O O21 0.174418 0.000000 0.173101
#
# Coordination Sequence:
#
# PCOD9146507 Si02
#       8
#     4   4   4   4   4   4   4   4
#     4  10  21  35  56  82 108 143 187 232 275 328
#     4   9  18  32  56  81 102 135 183 234 275 319
#     4  10  19  35  58  81 106 139 184 229 271 322
#     4  11  22  35  52  76 112 145 178 223 277 335
#     4   9  18  33  54  80 109 139 177 227 276 322
#     4  10  19  33  55  82 111 146 183 221 269 326
#     4   8  16  31  52  79 106 134 176 229 275 317
#     4  11  21  34  55  82 113 141 177 227 278 327
#
# _framework density 20.266276999999999
#
# number of rings (size 3 to 8) (size 9 to 14) (size 15 to 20)
#    0.000    2.250    0.000    5.250    1.750    1.500 
#    0.000    1.250    0.000   12.750    0.000    0.000 
#    0.000    0.000    0.000    0.000    0.000    0.000 
#
# Total GULP energy -178662.439038 kJ/mol
# GULP energy per Si atom -5583.201220 kJ/mol
# Density = 2.022015 g / cm^3
# Si number density = 20.266277 Si / 1000 Ang^3
#
#
#
# Elastic Constant Matrix: (Units=GPa)
#
#
# Indices 1 2 3 4 5 6 
#
# 1 106.5758 -1.0669 21.6183 0.0000 -6.1449 0.0000
# 2 -1.0669 20.6488 -4.9126 0.0000 -5.5293 0.0000
# 3 21.6183 -4.9126 37.5453 0.0000 2.8389 0.0000
# 4 0.0000 0.0000 0.0000 -85.2092 0.0000 0.1181
# 5 -6.1449 -5.5293 2.8389 0.0000 17.8664 0.0000
# 6 0.0000 0.0000 0.0000 0.1181 0.0000 5.7609
#
#
#
# Elastic Compliance Matrix: (Units=1/GPa)
#
#
# Indices 1 2 3 4 5 6 
#
# 1 0.011027 0.000305 -0.006684 0.000000 0.004949 0.000000
# 2 0.000305 0.054066 0.005694 0.000000 0.015932 0.000000
# 3 -0.006684 0.005694 0.031649 0.000000 -0.005566 0.000000
# 4 0.000000 0.000000 0.000000 -0.011735 0.000000 0.000241
# 5 0.004949 0.015932 -0.005566 0.000000 0.063488 0.000000
# 6 0.000000 0.000000 0.000000 0.000241 0.000000 0.173580
#
#
# Mechanical properties :
#
#
# Convention : Reuss Voigt Hill
#
# Bulk Modulus (GPa) = 10.48526 21.78305 16.13416
# Shear Modulus (GPa) = 14.07520 -2.37431 5.85045
#
# Velocity S-wave (km/s) = 2.63822 -1.08356 1.70090
# Velocity P-wave (km/s) = 3.80332 3.03419 3.44032
#
# Compressibility (1/GPa) = 0.09537196
#
# Stress axis : x y z
#
# Youngs Moduli (GPa) = 90.68543 18.49602 31.59685
#
# Poissons Ratio (x) = -0.00564 0.21118
# Poissons Ratio (y) = -0.02765 -0.17991
# Poissons Ratio (z) = 0.60611 -0.10532
#
# Static dielectric constant tensor:
#      x y z
#    x 1.750280 0.000000 0.002490 
#    y 0.000000 1.701020 0.000000 
#    z 0.002490 0.000000 1.688450 
# 
# From -- ./inp_files/86956.got.cif
#   From: 2010.05.17/outbox.cif.g08.bks.cpg/sg10_44_cif.got.tgz:86956.got - 2010.06.03 11:33:40.
