data_PCOD9146672
_publ_section_title
;
Structure prediction by ZEFSAII (Michael W. Deem and Ramdas Pophale) SiO2 
 PCOD9146672
Probable space group: P 2/M
;
_chemical_formula_sum "Si O2"
_cell_formula_units_Z 24
_cell_length_a 9.079493
_cell_length_b 15.438060
_cell_length_c 14.223679
_cell_angle_alpha 90.000000
_cell_angle_beta 34.187071
_cell_angle_gamma 90.000000
_cell_volume 1120.270164
_symmetry_space_group_name_H-M "P 2/M"
_symmetry_group_IT_number 10
_symmetry_cell_setting 'monoclinic'
loop_
_space_group_symop_operation_xyz
x,y,z
-x,y,-z
-x,-y,-z
x,-y,z
loop_
_atom_site_type_symbol
_atom_site_label
_atom_site_fract_x
_atom_site_fract_y
_atom_site_fract_z
Si Si1 0.004867 0.093340 0.837362
Si Si2 0.531285 0.715271 0.257822
Si Si3 0.795591 0.266329 0.305640
Si Si4 0.482697 0.401871 0.120011
Si Si5 0.118858 0.599047 0.586541
Si Si6 0.442904 0.093960 0.768363
O O1 0.033993 0.180982 0.763539
O O2 0.257920 0.092396 0.773149
O O3 0.999112 0.000000 0.790070
O O4 0.756178 0.097389 0.037955
O O5 0.765423 0.721264 0.209917
O O6 0.606655 0.670912 0.120162
O O7 0.320145 0.653026 0.418045
O O8 0.420149 0.812758 0.304652
O O9 0.500000 0.249273 0.500000
O O10 0.890755 0.351345 0.308794
O O11 0.580913 0.500000 0.086590
O O12 0.170492 0.401072 0.303614
O O13 0.500000 0.385619 0.000000
O O14 0.205210 0.500000 0.552007
O O15 0.581274 0.000000 0.698570
#
# Coordination Sequence:
#
# PCOD9146672 Si02
#       6
#     4   4   4   4   4   4
#     4   8  14  27  47  73 109 142 169 207 259 311
#     4  10  19  33  57  81 101 141 178 214 256 316
#     4   9  19  31  50  83 109 137 175 215 262 308
#     4  10  22  38  55  77 102 136 181 223 261 311
#     4  10  21  37  54  75 109 143 174 215 265 315
#     4   8  15  28  49  77 105 136 172 214 259 307
#
# _framework density 21.423404999999999
#
# number of rings (size 3 to 8) (size 9 to 14) (size 15 to 20)
#    0.000    2.833    0.000    2.000    2.333    5.333 
#    0.000    2.500    0.000    6.500    0.000    0.000 
#    0.000    0.000    0.000    0.000    0.000    0.000 
#
# Total GULP energy -133848.330484 kJ/mol
# GULP energy per Si atom -5577.013770 kJ/mol
# Density = 2.137464 g / cm^3
# Si number density = 21.423405 Si / 1000 Ang^3
#
#
#
# Elastic Constant Matrix: (Units=GPa)
#
#
# Indices 1 2 3 4 5 6 
#
# 1 44.4339 53.5171 3.7557 0.0000 18.6616 0.0000
# 2 53.5171 235.9076 38.1289 0.0000 20.7126 0.0000
# 3 3.7557 38.1289 26.2508 0.0000 0.5762 0.0000
# 4 0.0000 0.0000 0.0000 24.6994 0.0000 -22.4266
# 5 18.6616 20.7126 0.5762 0.0000 20.0212 0.0000
# 6 0.0000 0.0000 0.0000 -22.4266 0.0000 -277.9683
#
#
#
# Elastic Compliance Matrix: (Units=1/GPa)
#
#
# Indices 1 2 3 4 5 6 
#
# 1 0.047185 -0.008689 0.006642 0.000000 -0.035184 0.000000
# 2 -0.008689 0.007820 -0.010121 0.000000 0.000300 0.000000
# 3 0.006642 -0.010121 0.051784 0.000000 0.002790 0.000000
# 4 0.000000 0.000000 0.000000 0.037723 0.000000 -0.003044
# 5 -0.035184 0.000300 0.002790 0.000000 0.082351 0.000000
# 6 0.000000 0.000000 0.000000 -0.003044 0.000000 -0.003352
#
#
# Mechanical properties :
#
#
# Convention : Reuss Voigt Hill
#
# Bulk Modulus (GPa) = 12.12827 55.26620 33.69723
# Shear Modulus (GPa) = 18.15996 -32.57017 -7.20510
#
# Velocity S-wave (km/s) = 2.91463 -3.90334 -1.83589
# Velocity P-wave (km/s) = 4.12314 2.35337 3.35698
#
# Compressibility (1/GPa) = 0.08245198
#
# Stress axis : x y z
#
# Youngs Moduli (GPa) = 21.19298 127.88520 19.31117
#
# Poissons Ratio (x) = 1.11115 -0.12826
# Poissons Ratio (y) = 0.18414 0.19545
# Poissons Ratio (z) = -0.14076 1.29436
#
# Static dielectric constant tensor:
#      x y z
#    x 1.780180 0.000000 0.030100 
#    y 0.000000 1.835240 0.000000 
#    z 0.030100 0.000000 1.829580 
# 
# From -- ./inp_files/29269.got.cif
#   From: 2010.05.17/outbox.cif.g08.bks.cpg/sg10_15_cif.got.tgz:29269.got - 2010.06.03 11:33:40.
