data_PCOD9146041
_publ_section_title
;
Structure prediction by ZEFSAII (Michael W. Deem and Ramdas Pophale) SiO2 
 PCOD9146041
Probable space group: P 2/M
;
_chemical_formula_sum "Si O2"
_cell_formula_units_Z 24
_cell_length_a 10.582051
_cell_length_b 13.406870
_cell_length_c 19.099077
_cell_angle_alpha 90.000000
_cell_angle_beta 23.084847
_cell_angle_gamma 90.000000
_cell_volume 1062.428336
_symmetry_space_group_name_H-M "P 2/M"
_symmetry_group_IT_number 10
_symmetry_cell_setting 'monoclinic'
loop_
_space_group_symop_operation_xyz
x,y,z
-x,y,-z
-x,-y,-z
x,-y,z
loop_
_atom_site_type_symbol
_atom_site_label
_atom_site_fract_x
_atom_site_fract_y
_atom_site_fract_z
Si Si1 0.355464 0.389043 0.854163
Si Si2 0.891386 0.105476 0.635115
Si Si3 0.874805 0.607150 0.791678
Si Si4 0.775777 0.683197 0.510358
Si Si5 0.742497 0.226477 0.321910
Si Si6 0.181238 0.823581 0.983101
O O1 0.420610 0.500000 0.849365
O O2 0.633460 0.357586 0.656159
O O3 0.303277 0.291710 0.928156
O O4 0.000000 0.395655 0.000000
O O5 0.506187 0.115862 0.827958
O O6 0.000000 0.099097 0.500000
O O7 0.064400 0.206963 0.570096
O O8 0.979496 0.000000 0.625963
O O9 0.006438 0.500000 0.750395
O O10 0.971908 0.616028 0.660415
O O11 0.025772 0.703310 0.751207
O O12 0.500000 0.608197 0.000000
O O13 0.461723 0.697547 0.622246
O O14 0.500000 0.175976 0.500000
O O15 0.930466 0.157039 0.172601
O O16 0.000000 0.834531 0.000000
#
# Coordination Sequence:
#
# PCOD9146041 Si02
#       6
#     4   4   4   4   4   4
#     4  10  19  32  56  87 122 161 198 240 293 358
#     4  11  23  39  64  92 121 159 209 267 323 373
#     4  10  22  38  59  89 125 168 211 247 296 373
#     4  11  20  39  60  86 125 161 204 259 309 361
#     4  10  21  36  62  88 121 164 203 250 302 362
#     4  11  20  40  61  90 127 164 206 256 311 369
#
# _framework density 22.589759000000001
#
# number of rings (size 3 to 8) (size 9 to 14) (size 15 to 20)
#    0.000    1.500    5.000    1.500    0.000    4.667 
#    0.000    3.333    0.000   18.000    0.000    0.000 
#    0.000    0.000    0.000    0.000    0.000    0.000 
#
# Total GULP energy -133937.533994 kJ/mol
# GULP energy per Si atom -5580.730583 kJ/mol
# Density = 2.253834 g / cm^3
# Si number density = 22.589759 Si / 1000 Ang^3
#
#
#
# Elastic Constant Matrix: (Units=GPa)
#
#
# Indices 1 2 3 4 5 6 
#
# 1 39.5528 15.0471 29.9817 0.0000 8.0238 0.0000
# 2 15.0471 101.6611 24.4151 0.0000 -8.5812 0.0000
# 3 29.9817 24.4151 178.4663 0.0000 27.1697 0.0000
# 4 0.0000 0.0000 0.0000 9.3052 0.0000 3.3775
# 5 8.0238 -8.5812 27.1697 0.0000 37.2001 0.0000
# 6 0.0000 0.0000 0.0000 3.3775 0.0000 3.7242
#
#
#
# Elastic Compliance Matrix: (Units=1/GPa)
#
#
# Indices 1 2 3 4 5 6 
#
# 1 0.030714 -0.004008 -0.003895 0.000000 -0.004704 0.000000
# 2 -0.004008 0.011190 -0.001555 0.000000 0.004581 0.000000
# 3 -0.003895 -0.001555 0.007197 0.000000 -0.004775 0.000000
# 4 0.000000 0.000000 0.000000 0.160201 0.000000 -0.145284
# 5 -0.004704 0.004581 -0.004775 0.000000 0.032441 0.000000
# 6 0.000000 0.000000 0.000000 -0.145284 0.000000 0.400267
#
#
# Mechanical properties :
#
#
# Convention : Reuss Voigt Hill
#
# Bulk Modulus (GPa) = 33.12850 50.95200 42.04025
# Shear Modulus (GPa) = 7.45170 26.72832 17.09001
#
# Velocity S-wave (km/s) = 1.81820 3.44351 2.75351
# Velocity P-wave (km/s) = 4.37092 6.19795 5.36282
#
# Compressibility (1/GPa) = 0.03018549
#
# Stress axis : x y z
#
# Youngs Moduli (GPa) = 32.55798 89.36576 138.93804
#
# Poissons Ratio (x) = 0.35815 0.54123
# Poissons Ratio (y) = 0.13048 0.21606
# Poissons Ratio (z) = 0.12683 0.13897
#
# Static dielectric constant tensor:
#      x y z
#    x 2.226590 0.000000 -1.011950 
#    y 0.000000 1.865370 0.000000 
#    z -1.011950 0.000000 4.771260 
# 
# From -- ./inp_files/61687.got.cif
#   From: 2010.05.17/outbox.cif.g08.bks.cpg/sg10_31_cif.got.tgz:61687.got - 2010.06.03 11:33:40.
