data_PCOD9146032
_publ_section_title
;
Structure prediction by ZEFSAII (Michael W. Deem and Ramdas Pophale) SiO2 
 PCOD9146032
Probable space group: P 2/M
;
_chemical_formula_sum "Si O2"
_cell_formula_units_Z 30
_cell_length_a 36.648067
_cell_length_b 7.546807
_cell_length_c 5.217746
_cell_angle_alpha 90.000000
_cell_angle_beta 106.506909
_cell_angle_gamma 90.000000
_cell_volume 1383.625950
_symmetry_space_group_name_H-M "P 2/M"
_symmetry_group_IT_number 10
_symmetry_cell_setting 'monoclinic'
loop_
_space_group_symop_operation_xyz
x,y,z
-x,y,-z
-x,-y,-z
x,-y,z
loop_
_atom_site_type_symbol
_atom_site_label
_atom_site_fract_x
_atom_site_fract_y
_atom_site_fract_z
Si Si1 0.973801 0.000000 0.197962
Si Si2 0.346371 0.202925 0.533926
Si Si3 0.735838 0.782379 0.813052
Si Si4 0.608240 0.704415 0.874652
Si Si5 0.137963 0.712263 0.573467
Si Si6 0.908810 0.714637 0.021172
Si Si7 0.523084 0.716336 0.798669
Si Si8 0.775925 0.791711 0.394515
O O1 0.946751 0.827024 0.139758
O O2 0.000000 0.000000 0.500000
O O3 0.000000 0.000000 0.000000
O O4 0.305709 0.276438 0.361917
O O5 0.373163 0.208098 0.337336
O O6 0.339755 0.000000 0.598711
O O7 0.365452 0.288002 0.820907
O O8 0.765927 0.723802 0.656625
O O9 0.735176 0.000000 0.825989
O O10 0.748968 0.717825 0.117096
O O11 0.603185 0.500000 0.788055
O O12 0.566695 0.776571 0.866668
O O13 0.139306 0.500000 0.573439
O O14 0.120781 0.764392 0.812495
O O15 0.180505 0.773231 0.600715
O O16 0.109779 0.764946 0.287716
O O17 0.914769 0.500000 0.040348
O O18 0.500000 0.766033 0.500000
O O19 0.524064 0.500000 0.813150
O O20 0.500000 0.778050 0.000000
O O21 0.767586 0.000000 0.392130
#
# Coordination Sequence:
#
# PCOD9146032 Si02
#       8
#     2   4   4   4   4   4   4   4
#     4  12  26  42  66  96 122 158 208 252 296 358
#     4  11  22  39  61  80 115 161 197 236 288 362
#     4   9  19  35  52  78 110 148 196 237 280 337
#     4  11  22  37  59  88 113 140 193 248 288 345
#     4  10  21  38  58  86 121 157 191 235 296 355
#     4  10  23  41  62  88 125 161 197 246 301 359
#     4   9  17  31  53  79 107 140 178 228 289 349
#     4  10  19  32  56  83 108 144 194 245 283 329
#
# _framework density 21.682161000000001
#
# number of rings (size 3 to 8) (size 9 to 14) (size 15 to 20)
#    0.000    1.867    0.000    4.000    1.867    4.800 
#    0.000    4.000    0.000    8.000    0.000    0.000 
#    0.000    0.000    0.000    0.000    0.000    0.000 
#
# Total GULP energy -167706.769246 kJ/mol
# GULP energy per Si atom -5590.225642 kJ/mol
# Density = 2.163281 g / cm^3
# Si number density = 21.682161 Si / 1000 Ang^3
#
#
#
# Elastic Constant Matrix: (Units=GPa)
#
#
# Indices 1 2 3 4 5 6 
#
# 1 60.7605 -1.5236 -19.4090 0.0000 -3.7137 0.0000
# 2 -1.5236 54.7553 -4.3440 0.0000 3.4086 0.0000
# 3 -19.4090 -4.3440 69.6573 0.0000 -2.8659 0.0000
# 4 0.0000 0.0000 0.0000 12.3605 0.0000 5.4569
# 5 -3.7137 3.4086 -2.8659 0.0000 43.9410 0.0000
# 6 0.0000 0.0000 0.0000 5.4569 0.0000 19.3159
#
#
#
# Elastic Compliance Matrix: (Units=1/GPa)
#
#
# Indices 1 2 3 4 5 6 
#
# 1 0.018254 0.000808 0.005212 0.000000 0.001820 0.000000
# 2 0.000808 0.018470 0.001324 0.000000 -0.001278 0.000000
# 3 0.005212 0.001324 0.015947 0.000000 0.001378 0.000000
# 4 0.000000 0.000000 0.000000 0.092431 0.000000 -0.026112
# 5 0.001820 -0.001278 0.001378 0.000000 0.023101 0.000000
# 6 0.000000 0.000000 0.000000 -0.026112 0.000000 0.059148
#
#
# Mechanical properties :
#
#
# Convention : Reuss Voigt Hill
#
# Bulk Modulus (GPa) = 14.84555 14.95774 14.90165
# Shear Modulus (GPa) = 21.26604 29.15346 25.20975
#
# Velocity S-wave (km/s) = 3.13518 3.67083 3.41353
# Velocity P-wave (km/s) = 4.46851 4.98802 4.73539
#
# Compressibility (1/GPa) = 0.06736024
#
# Stress axis : x y z
#
# Youngs Moduli (GPa) = 54.78149 54.14127 62.70607
#
# Poissons Ratio (x) = -0.04375 -0.32680
# Poissons Ratio (y) = -0.04427 -0.08305
# Poissons Ratio (z) = -0.28550 -0.07171
#
# Static dielectric constant tensor:
#      x y z
#    x 1.760680 0.000000 -0.001710 
#    y 0.000000 1.803440 0.000000 
#    z -0.001710 0.000000 1.742570 
# 
# From -- ./inp_files/13675.got.cif
#   From: 2010.05.17/outbox.cif.g08.bks.cpg/sg10_7_cif.got.tgz:13675.got - 2010.06.03 11:33:40.
