data_PCOD9146172
_publ_section_title
;
Structure prediction by ZEFSAII (Michael W. Deem and Ramdas Pophale) SiO2 
 PCOD9146172
Probable space group: P 2/M
;
_chemical_formula_sum "Si O2"
_cell_formula_units_Z 28
_cell_length_a 13.595632
_cell_length_b 19.967686
_cell_length_c 9.506166
_cell_angle_alpha 90.000000
_cell_angle_beta 146.531389
_cell_angle_gamma 90.000000
_cell_volume 1423.188257
_symmetry_space_group_name_H-M "P 2/M"
_symmetry_group_IT_number 10
_symmetry_cell_setting 'monoclinic'
loop_
_space_group_symop_operation_xyz
x,y,z
-x,y,-z
-x,-y,-z
x,-y,z
loop_
_atom_site_type_symbol
_atom_site_label
_atom_site_fract_x
_atom_site_fract_y
_atom_site_fract_z
Si Si1 0.208179 0.074716 0.088408
Si Si2 0.404574 0.656627 0.740111
Si Si3 0.228467 0.075693 0.436678
Si Si4 0.757595 0.798144 0.363126
Si Si5 0.790516 0.576294 0.717733
Si Si6 0.648052 0.316844 0.769586
Si Si7 0.185630 0.199663 0.885802
O O1 0.271481 0.086545 0.323515
O O2 0.264364 0.000000 0.112542
O O3 0.262163 0.133762 0.050470
O O4 0.990043 0.075748 0.824238
O O5 0.314948 0.729864 0.654273
O O6 0.259388 0.607900 0.493698
O O7 0.557510 0.658673 0.804364
O O8 0.500000 0.636798 0.000000
O O9 0.298367 0.134875 0.619975
O O10 0.283019 0.000000 0.542801
O O11 0.717364 0.793385 0.148775
O O12 0.972552 0.804071 0.617662
O O13 0.723719 0.500000 0.645072
O O14 0.709501 0.623296 0.742817
O O15 0.000000 0.576020 0.000000
O O16 0.500000 0.279178 0.500000
O O17 0.791272 0.263451 0.986679
#
# Coordination Sequence:
#
# PCOD9146172 Si02
#       7
#     4   4   4   4   4   4   4
#     4   8  15  27  46  73 107 143 191 251 299 341
#     4  11  22  39  60  88 125 159 192 233 288 349
#     4   8  15  28  46  74 106 144 194 247 299 343
#     4  10  20  32  54  80 113 152 192 245 289 344
#     4  10  23  44  68  93 119 150 191 236 281 338
#     4  10  22  37  59  85 115 154 189 230 284 346
#     4  10  19  33  52  81 111 147 198 244 293 338
#
# _framework density 19.674135
#
# number of rings (size 3 to 8) (size 9 to 14) (size 15 to 20)
#    0.000    2.429    1.429    1.714    4.000    3.429 
#    0.000    2.857    0.000    3.429    0.000    0.000 
#    0.000    0.000    0.000    0.000    0.000    0.000 
#
# Total GULP energy -156083.217072 kJ/mol
# GULP energy per Si atom -5574.400610 kJ/mol
# Density = 1.962936 g / cm^3
# Si number density = 19.674135 Si / 1000 Ang^3
#
#
#
# Elastic Constant Matrix: (Units=GPa)
#
#
# Indices 1 2 3 4 5 6 
#
# 1 60.0671 46.7437 28.7561 0.0000 -25.6411 0.0000
# 2 46.7437 162.1850 60.5034 0.0000 -32.3072 0.0000
# 3 28.7561 60.5034 92.7461 0.0000 -25.6541 0.0000
# 4 0.0000 0.0000 0.0000 20.8797 0.0000 3.7954
# 5 -25.6411 -32.3072 -25.6541 0.0000 30.1671 0.0000
# 6 0.0000 0.0000 0.0000 3.7954 0.0000 48.4863
#
#
#
# Elastic Compliance Matrix: (Units=1/GPa)
#
#
# Indices 1 2 3 4 5 6 
#
# 1 0.028331 -0.004052 -0.000890 0.000000 0.018985 0.000000
# 2 -0.004052 0.009492 -0.004023 0.000000 0.003300 0.000000
# 3 -0.000890 -0.004023 0.016059 0.000000 0.008592 0.000000
# 4 0.000000 0.000000 0.000000 0.048585 0.000000 -0.003803
# 5 0.018985 0.003300 0.008592 0.000000 0.060126 0.000000
# 6 0.000000 0.000000 0.000000 -0.003803 0.000000 0.020922
#
#
# Mechanical properties :
#
#
# Convention : Reuss Voigt Hill
#
# Bulk Modulus (GPa) = 27.81385 65.22272 46.51829
# Shear Modulus (GPa) = 23.42714 31.83963 27.63339
#
# Velocity S-wave (km/s) = 3.45448 4.02724 3.75180
# Velocity P-wave (km/s) = 5.48445 7.40596 6.51642
#
# Compressibility (1/GPa) = 0.03595331
#
# Stress axis : x y z
#
# Youngs Moduli (GPa) = 35.29689 105.35555 62.27072
#
# Poissons Ratio (x) = 0.42687 0.05540
# Poissons Ratio (y) = 0.14301 0.25051
# Poissons Ratio (z) = 0.03140 0.42383
#
# Static dielectric constant tensor:
#      x y z
#    x 1.705720 0.000000 0.029110 
#    y 0.000000 1.680170 0.000000 
#    z 0.029110 0.000000 1.726090 
# 
# From -- ./inp_files/30187.got.cif
#   From: 2010.05.17/outbox.cif.g08.bks.cpg/sg10_16_cif.got.tgz:30187.got - 2010.06.03 11:33:40.
