data_PCOD9146272
_publ_section_title
;
Structure prediction by ZEFSAII (Michael W. Deem and Ramdas Pophale) SiO2 
 PCOD9146272
Probable space group: P 2/M
;
_chemical_formula_sum "Si O2"
_cell_formula_units_Z 32
_cell_length_a 11.737989
_cell_length_b 7.765144
_cell_length_c 21.381386
_cell_angle_alpha 90.000000
_cell_angle_beta 53.108810
_cell_angle_gamma 90.000000
_cell_volume 1558.647693
_symmetry_space_group_name_H-M "P 2/M"
_symmetry_group_IT_number 10
_symmetry_cell_setting 'monoclinic'
loop_
_space_group_symop_operation_xyz
x,y,z
-x,y,-z
-x,-y,-z
x,-y,z
loop_
_atom_site_type_symbol
_atom_site_label
_atom_site_fract_x
_atom_site_fract_y
_atom_site_fract_z
Si Si1 0.166553 0.701159 0.259232
Si Si2 0.051820 0.788998 0.885115
Si Si3 0.556263 0.795722 0.664022
Si Si4 0.127766 0.209563 0.413354
Si Si5 0.102751 0.202800 0.730143
Si Si6 0.598807 0.211233 0.410101
Si Si7 0.521889 0.297056 0.815637
Si Si8 0.778970 0.207289 0.047443
O O1 0.174093 0.500000 0.241272
O O2 0.112674 0.725620 0.347878
O O3 0.328188 0.774292 0.207367
O O4 0.049545 0.778894 0.252186
O O5 0.097296 0.724822 0.802250
O O6 0.154703 0.734855 0.907833
O O7 0.054144 0.000000 0.883839
O O8 0.891496 0.737116 0.957615
O O9 0.718438 0.729773 0.612595
O O10 0.466273 0.730974 0.635120
O O11 0.495812 0.769676 0.753674
O O12 0.564869 0.000000 0.651701
O O13 0.000000 0.263708 0.500000
O O14 0.129132 0.000000 0.410693
O O15 0.235960 0.267938 0.645225
O O16 0.130399 0.000000 0.728667
O O17 0.500000 0.270228 0.500000
O O18 0.596154 0.000000 0.413691
O O19 0.542666 0.500000 0.802108
O O20 0.383647 0.263806 0.902720
O O21 0.779784 0.000000 0.047620
#
# Coordination Sequence:
#
# PCOD9146272 Si02
#       8
#     4   4   4   4   4   4   4   4
#     4  10  22  37  50  69 101 142 178 210 256 307
#     4   8  16  31  53  84 109 133 165 207 259 309
#     4   9  17  31  51  75 102 130 164 205 256 309
#     4   9  18  31  53  80  99 122 167 220 259 299
#     4  10  19  33  54  75 103 137 173 211 252 304
#     4   9  18  30  50  79 105 130 162 207 258 303
#     4  10  20  34  51  73 102 134 172 215 256 299
#     4   9  16  31  57  82 107 131 165 210 257 311
#
# _framework density 20.530616999999999
#
# number of rings (size 3 to 8) (size 9 to 14) (size 15 to 20)
#    0.000    2.750    0.000    2.250    1.750    3.750 
#    0.000    5.000    0.000    4.500    0.000    0.000 
#    0.000    0.000    0.000    0.000    0.000    0.000 
#
# Total GULP energy -178471.712934 kJ/mol
# GULP energy per Si atom -5577.241029 kJ/mol
# Density = 2.048389 g / cm^3
# Si number density = 20.530617 Si / 1000 Ang^3
#
#
#
# Elastic Constant Matrix: (Units=GPa)
#
#
# Indices 1 2 3 4 5 6 
#
# 1 68.2336 1.8196 45.9305 0.0000 -3.2298 0.0000
# 2 1.8196 17.1894 3.1431 0.0000 0.9416 0.0000
# 3 45.9305 3.1431 119.6694 0.0000 -24.4009 0.0000
# 4 0.0000 0.0000 0.0000 35.5471 0.0000 72.9097
# 5 -3.2298 0.9416 -24.4009 0.0000 22.6377 0.0000
# 6 0.0000 0.0000 0.0000 72.9097 0.0000 151.1304
#
#
#
# Elastic Compliance Matrix: (Units=1/GPa)
#
#
# Indices 1 2 3 4 5 6 
#
# 1 0.020630 -0.000077 -0.009376 0.000000 -0.007159 0.000000
# 2 -0.000077 0.058945 -0.002590 0.000000 -0.005255 0.000000
# 3 -0.009376 -0.002590 0.015088 0.000000 0.015033 0.000000
# 4 0.000000 0.000000 0.000000 2.679114 0.000000 -1.292483
# 5 -0.007159 -0.005255 0.015033 0.000000 0.059576 0.000000
# 6 0.000000 0.000000 0.000000 -1.292483 0.000000 0.630149
#
#
# Mechanical properties :
#
#
# Convention : Reuss Voigt Hill
#
# Bulk Modulus (GPa) = 14.16889 34.09763 24.13326
# Shear Modulus (GPa) = 1.42405 52.14298 26.78351
#
# Velocity S-wave (km/s) = 0.83374 5.04508 3.61579
# Velocity P-wave (km/s) = 2.80057 7.11205 5.40483
#
# Compressibility (1/GPa) = 0.07057714
#
# Stress axis : x y z
#
# Youngs Moduli (GPa) = 48.47334 16.96501 66.27662
#
# Poissons Ratio (x) = 0.00131 0.62140
# Poissons Ratio (y) = 0.00374 0.17165
# Poissons Ratio (z) = 0.45448 0.04394
#
# Static dielectric constant tensor:
#      x y z
#    x 1.733400 0.000000 -0.032820 
#    y 0.000000 1.757050 0.000000 
#    z -0.032820 0.000000 1.731170 
# 
# From -- ./inp_files/83535.got.cif
#   From: 2010.05.17/outbox.cif.g08.bks.cpg/sg10_42_cif.got.tgz:83535.got - 2010.06.03 11:33:40.
