data_PCOD9146669
_publ_section_title
;
Structure prediction by ZEFSAII (Michael W. Deem and Ramdas Pophale) SiO2 
 PCOD9146669
Probable space group: P 2/M
;
_chemical_formula_sum "Si O2"
_cell_formula_units_Z 28
_cell_length_a 15.510190
_cell_length_b 8.394751
_cell_length_c 12.918521
_cell_angle_alpha 90.000000
_cell_angle_beta 105.731394
_cell_angle_gamma 90.000000
_cell_volume 1619.041654
_symmetry_space_group_name_H-M "P 2/M"
_symmetry_group_IT_number 10
_symmetry_cell_setting 'monoclinic'
loop_
_space_group_symop_operation_xyz
x,y,z
-x,y,-z
-x,-y,-z
x,-y,z
loop_
_atom_site_type_symbol
_atom_site_label
_atom_site_fract_x
_atom_site_fract_y
_atom_site_fract_z
Si Si1 0.908634 0.192479 0.252211
Si Si2 0.905375 0.690493 0.017732
Si Si3 0.221842 0.807335 0.201141
Si Si4 0.109407 0.194003 0.366242
Si Si5 0.590187 0.188852 0.654009
Si Si6 0.602943 0.686690 0.428029
Si Si7 0.781117 0.806951 0.394273
O O1 0.895638 0.248182 0.130993
O O2 0.831732 0.244314 0.306713
O O3 0.006584 0.246372 0.323797
O O4 0.909633 0.000000 0.253339
O O5 0.907718 0.500000 0.019940
O O6 0.826169 0.746710 0.917006
O O7 0.000000 0.748879 0.000000
O O8 0.164089 0.754456 0.282386
O O9 0.324451 0.756826 0.251934
O O10 0.220807 0.000000 0.200408
O O11 0.159339 0.243491 0.487078
O O12 0.109297 0.000000 0.366585
O O13 0.496198 0.273452 0.645154
O O14 0.612615 0.221137 0.540441
O O15 0.578238 0.000000 0.663577
O O16 0.609087 0.500000 0.452106
O O17 0.682177 0.739787 0.378629
O O18 0.776497 0.000000 0.393714
#
# Coordination Sequence:
#
# PCOD9146669 Si02
#       7
#     4   4   4   4   4   4   4
#     4  10  20  34  56  78 103 141 184 224 258 306
#     4  11  23  36  51  74 108 145 179 218 262 311
#     4  10  19  33  57  80 103 136 177 222 265 306
#     4   9  16  30  52  80 107 135 173 219 262 306
#     4  10  19  34  55  79 105 136 175 223 267 308
#     4  11  21  32  50  78 111 144 173 209 261 323
#     4  10  19  34  54  79 108 141 179 218 264 311
#
# _framework density 17.294181999999999
#
# number of rings (size 3 to 8) (size 9 to 14) (size 15 to 20)
#    0.000    1.857    2.857    3.429    0.000    4.000 
#    0.000    0.714    0.000    2.571    0.000    6.000 
#    0.000    0.000    0.000    0.000    0.000    0.000 
#
# Total GULP energy -156320.045185 kJ/mol
# GULP energy per Si atom -5582.858757 kJ/mol
# Density = 1.725482 g / cm^3
# Si number density = 17.294182 Si / 1000 Ang^3
#
#
#
# Elastic Constant Matrix: (Units=GPa)
#
#
# Indices 1 2 3 4 5 6 
#
# 1 146.4385 9.9477 79.0067 0.0000 3.3111 0.0000
# 2 9.9477 9.1415 9.8010 0.0000 0.2659 0.0000
# 3 79.0067 9.8010 97.9531 0.0000 -2.2129 0.0000
# 4 0.0000 0.0000 0.0000 -26.2246 0.0000 1.8706
# 5 3.3111 0.2659 -2.2129 0.0000 30.2974 0.0000
# 6 0.0000 0.0000 0.0000 1.8706 0.0000 8.3592
#
#
#
# Elastic Compliance Matrix: (Units=1/GPa)
#
#
# Indices 1 2 3 4 5 6 
#
# 1 0.012287 -0.002955 -0.009661 0.000000 -0.002023 0.000000
# 2 -0.002955 0.123365 -0.009994 0.000000 -0.001490 0.000000
# 3 -0.009661 -0.009994 0.019058 0.000000 0.002536 0.000000
# 4 0.000000 0.000000 0.000000 -0.037533 0.000000 0.008399
# 5 -0.002023 -0.001490 0.002536 0.000000 0.033425 0.000000
# 6 0.000000 0.000000 0.000000 0.008399 0.000000 0.117749
#
#
# Mechanical properties :
#
#
# Convention : Reuss Voigt Hill
#
# Bulk Modulus (GPa) = 9.13312 50.11600 29.62456
# Shear Modulus (GPa) = 14.28292 12.80493 13.54393
#
# Velocity S-wave (km/s) = 2.87693 2.72402 2.80152
# Velocity P-wave (km/s) = 4.04081 6.23980 5.25658
#
# Compressibility (1/GPa) = 0.10949158
#
# Stress axis : x y z
#
# Youngs Moduli (GPa) = 81.38360 8.10604 52.47008
#
# Poissons Ratio (x) = 0.02395 0.50691
# Poissons Ratio (y) = 0.24045 0.52440
# Poissons Ratio (z) = 0.78624 0.08101
#
# Static dielectric constant tensor:
#      x y z
#    x 1.591070 0.000000 0.009090 
#    y 0.000000 1.588190 0.000000 
#    z 0.009090 0.000000 1.555530 
# 
# From -- ./inp_files/49362.got.cif
#   From: 2010.05.17/outbox.cif.g08.bks.cpg/sg10_25_cif.got.tgz:49362.got - 2010.06.03 11:33:40.
