data_PCOD9146906
_publ_section_title
;
Structure prediction by ZEFSAII (Michael W. Deem and Ramdas Pophale) SiO2 
 PCOD9146906
Probable space group: P 2/M
;
_chemical_formula_sum "Si O2"
_cell_formula_units_Z 28
_cell_length_a 14.639506
_cell_length_b 13.873424
_cell_length_c 8.818131
_cell_angle_alpha 90.000000
_cell_angle_beta 119.472872
_cell_angle_gamma 90.000000
_cell_volume 1559.192285
_symmetry_space_group_name_H-M "P 2/M"
_symmetry_group_IT_number 10
_symmetry_cell_setting 'monoclinic'
loop_
_space_group_symop_operation_xyz
x,y,z
-x,y,-z
-x,-y,-z
x,-y,z
loop_
_atom_site_type_symbol
_atom_site_label
_atom_site_fract_x
_atom_site_fract_y
_atom_site_fract_z
Si Si1 0.512143 0.113630 0.831952
Si Si2 0.797527 0.612424 0.111719
Si Si3 0.278704 0.795281 0.123933
Si Si4 0.238323 0.613917 0.557330
Si Si5 0.396315 0.744459 0.514598
Si Si6 0.982552 0.297522 0.665450
Si Si7 0.055165 0.891506 0.882444
O O1 0.627253 0.148193 0.878796
O O2 0.433304 0.174191 0.662872
O O3 0.498740 0.000000 0.794512
O O4 0.500000 0.133254 0.000000
O O5 0.778997 0.500000 0.062264
O O6 0.767950 0.629518 0.265063
O O7 0.921116 0.638311 0.192408
O O8 0.735085 0.688560 0.958392
O O9 0.311910 0.784676 0.325614
O O10 0.172383 0.852771 0.005684
O O11 0.236206 0.500000 0.530798
O O12 0.340013 0.660994 0.564042
O O13 0.132511 0.660098 0.400609
O O14 0.500000 0.716699 0.500000
O O15 0.996815 0.189321 0.736406
O O16 0.000000 0.298350 0.500000
O O17 0.054912 0.000000 0.818182
O O18 0.000000 0.894093 0.000000
#
# Coordination Sequence:
#
# PCOD9146906 Si02
#       7
#     4   4   4   4   4   4   4
#     4  10  21  38  59  80 102 132 173 218 261 306
#     4   9  18  33  55  81 106 136 172 212 260 310
#     4  10  20  35  55  77 107 139 172 214 258 309
#     4  10  19  34  55  76 104 140 175 215 262 307
#     4  10  22  36  53  78 106 137 174 215 257 305
#     4   9  18  33  53  78 105 133 173 217 256 306
#     4  10  20  33  50  74 106 141 172 206 254 310
#
# _framework density 17.958015
#
# number of rings (size 3 to 8) (size 9 to 14) (size 15 to 20)
#    0.000    2.286    0.000    2.571    0.000    6.000 
#    0.000    2.857    0.000   12.429    0.000    0.000 
#    0.000    0.000    0.000    0.000    0.000    0.000 
#
# Total GULP energy -156200.793552 kJ/mol
# GULP energy per Si atom -5578.599770 kJ/mol
# Density = 1.791714 g / cm^3
# Si number density = 17.958015 Si / 1000 Ang^3
#
#
#
# Elastic Constant Matrix: (Units=GPa)
#
#
# Indices 1 2 3 4 5 6 
#
# 1 73.8756 63.5035 39.3832 0.0000 -0.8163 0.0000
# 2 63.5035 127.0330 64.3035 0.0000 1.1996 0.0000
# 3 39.3832 64.3035 90.0666 0.0000 11.8201 0.0000
# 4 0.0000 0.0000 0.0000 25.2269 0.0000 -5.8244
# 5 -0.8163 1.1996 11.8201 0.0000 12.8913 0.0000
# 6 0.0000 0.0000 0.0000 -5.8244 0.0000 29.8716
#
#
#
# Elastic Compliance Matrix: (Units=1/GPa)
#
#
# Indices 1 2 3 4 5 6 
#
# 1 0.024708 -0.010195 -0.004383 0.000000 0.006532 0.000000
# 2 -0.010195 0.017278 -0.008619 0.000000 0.005650 0.000000
# 3 -0.004383 -0.008619 0.021718 0.000000 -0.019388 0.000000
# 4 0.000000 0.000000 0.000000 0.041509 0.000000 0.008093
# 5 0.006532 0.005650 -0.019388 0.000000 0.095237 0.000000
# 6 0.000000 0.000000 0.000000 0.008093 0.000000 0.035055
#
#
# Mechanical properties :
#
#
# Convention : Reuss Voigt Hill
#
# Bulk Modulus (GPa) = 57.76926 69.48397 63.62662
# Shear Modulus (GPa) = 17.38113 21.85029 19.61571
#
# Velocity S-wave (km/s) = 3.11445 3.49197 3.30860
# Velocity P-wave (km/s) = 6.72101 7.41855 7.07838
#
# Compressibility (1/GPa) = 0.01731024
#
# Stress axis : x y z
#
# Youngs Moduli (GPa) = 40.47219 57.87678 46.04551
#
# Poissons Ratio (x) = 0.59004 0.20180
# Poissons Ratio (y) = 0.41261 0.39688
# Poissons Ratio (z) = 0.17738 0.49886
#
# Static dielectric constant tensor:
#      x y z
#    x 1.613740 0.000000 -0.003470 
#    y 0.000000 1.593720 0.000000 
#    z -0.003470 0.000000 1.609360 
# 
# From -- ./inp_files/24885.got.cif
#   From: 2010.05.17/outbox.cif.g08.bks.cpg/sg10_13_cif.got.tgz:24885.got - 2010.06.03 11:33:40.
