data_PCOD9146641
_publ_section_title
;
Structure prediction by ZEFSAII (Michael W. Deem and Ramdas Pophale) SiO2 
 PCOD9146641
Probable space group: P 2/M
;
_chemical_formula_sum "Si O2"
_cell_formula_units_Z 28
_cell_length_a 12.039123
_cell_length_b 8.758261
_cell_length_c 26.652660
_cell_angle_alpha 90.000000
_cell_angle_beta 32.916323
_cell_angle_gamma 90.000000
_cell_volume 1527.157464
_symmetry_space_group_name_H-M "P 2/M"
_symmetry_group_IT_number 10
_symmetry_cell_setting 'monoclinic'
loop_
_space_group_symop_operation_xyz
x,y,z
-x,y,-z
-x,-y,-z
x,-y,z
loop_
_atom_site_type_symbol
_atom_site_label
_atom_site_fract_x
_atom_site_fract_y
_atom_site_fract_z
Si Si1 0.794437 0.817176 0.971315
Si Si2 0.894431 0.182718 0.713213
Si Si3 0.485528 0.317550 0.838912
Si Si4 0.332580 0.316664 0.520506
Si Si5 0.773917 0.683208 0.159615
Si Si6 0.930991 0.816247 0.812175
Si Si7 0.364006 0.682390 0.679033
O O1 0.803853 0.766436 0.909402
O O2 0.010967 0.766373 0.913250
O O3 0.775419 0.000000 0.979919
O O4 0.617928 0.743884 0.071231
O O5 0.713491 0.253202 0.749147
O O6 0.862049 0.234849 0.783428
O O7 0.118650 0.236283 0.611812
O O8 0.882679 0.000000 0.716209
O O9 0.490607 0.500000 0.837484
O O10 0.343527 0.269674 0.845936
O O11 0.500000 0.280312 0.500000
O O12 0.301101 0.500000 0.533635
O O13 0.437670 0.273120 0.427896
O O14 0.812745 0.500000 0.142482
O O15 0.638479 0.713113 0.260683
O O16 0.162619 0.761150 0.733050
O O17 0.928844 0.000000 0.813168
O O18 0.338803 0.500000 0.681871
#
# Coordination Sequence:
#
# PCOD9146641 Si02
#       7
#     4   4   4   4   4   4   4
#     4  10  20  35  57  82 107 137 176 220 267 315
#     4  11  23  37  54  77 109 145 179 215 263 319
#     4  11  23  38  54  75 107 144 182 222 262 308
#     4  10  19  33  56  85 110 135 171 217 265 315
#     4   9  19  36  57  80 106 140 180 219 259 309
#     4   9  19  34  52  78 109 139 172 215 264 316
#     4   9  17  32  56  82 107 135 172 217 263 311
#
# _framework density 18.334716
#
# number of rings (size 3 to 8) (size 9 to 14) (size 15 to 20)
#    0.000    2.143    1.429    1.714    0.000    5.429 
#    0.000    3.571    0.000    4.286    0.000    0.000 
#    0.000    0.000    0.000    0.000    0.000    0.000 
#
# Total GULP energy -156284.755526 kJ/mol
# GULP energy per Si atom -5581.598412 kJ/mol
# Density = 1.829298 g / cm^3
# Si number density = 18.334716 Si / 1000 Ang^3
#
#
#
# Elastic Constant Matrix: (Units=GPa)
#
#
# Indices 1 2 3 4 5 6 
#
# 1 19.4746 3.7830 14.0493 0.0000 1.2251 0.0000
# 2 3.7830 15.9374 16.6234 0.0000 -0.1925 0.0000
# 3 14.0493 16.6234 86.9908 0.0000 1.2700 0.0000
# 4 0.0000 0.0000 0.0000 36.0483 0.0000 -6.6882
# 5 1.2251 -0.1925 1.2700 0.0000 19.6668 0.0000
# 6 0.0000 0.0000 0.0000 -6.6882 0.0000 26.8400
#
#
#
# Elastic Compliance Matrix: (Units=1/GPa)
#
#
# Indices 1 2 3 4 5 6 
#
# 1 0.058637 -0.005154 -0.008439 0.000000 -0.003158 0.000000
# 2 -0.005154 0.078877 -0.014270 0.000000 0.002015 0.000000
# 3 -0.008439 -0.014270 0.015594 0.000000 -0.000621 0.000000
# 4 0.000000 0.000000 0.000000 0.029085 0.000000 0.007248
# 5 -0.003158 0.002015 -0.000621 0.000000 0.051104 0.000000
# 6 0.000000 0.000000 0.000000 0.007248 0.000000 0.039064
#
#
# Mechanical properties :
#
#
# Convention : Reuss Voigt Hill
#
# Bulk Modulus (GPa) = 10.26880 21.25713 15.76296
# Shear Modulus (GPa) = 13.86776 22.37415 18.12096
#
# Velocity S-wave (km/s) = 2.75319 3.49709 3.14720
# Velocity P-wave (km/s) = 3.96480 5.28444 4.67145
#
# Compressibility (1/GPa) = 0.09738238
#
# Stress axis : x y z
#
# Youngs Moduli (GPa) = 17.05414 12.67789 64.12563
#
# Poissons Ratio (x) = 0.06534 0.54116
# Poissons Ratio (y) = 0.08790 0.91507
# Poissons Ratio (z) = 0.14392 0.18091
#
# Static dielectric constant tensor:
#      x y z
#    x 1.630830 0.000000 0.032030 
#    y 0.000000 1.615810 0.000000 
#    z 0.032030 0.000000 1.626930 
# 
# From -- ./inp_files/68699.got.cif
#   From: 2010.05.17/outbox.cif.g08.bks.cpg/sg10_35_cif.got.tgz:68699.got - 2010.06.03 11:33:40.
