data_PCOD9146052
_publ_section_title
;
Structure prediction by ZEFSAII (Michael W. Deem and Ramdas Pophale) SiO2 
 PCOD9146052
Probable space group: P 2/M
;
_chemical_formula_sum "Si O2"
_cell_formula_units_Z 24
_cell_length_a 22.701968
_cell_length_b 11.652956
_cell_length_c 9.010579
_cell_angle_alpha 90.000000
_cell_angle_beta 28.624625
_cell_angle_gamma 90.000000
_cell_volume 1141.959039
_symmetry_space_group_name_H-M "P 2/M"
_symmetry_group_IT_number 10
_symmetry_cell_setting 'monoclinic'
loop_
_space_group_symop_operation_xyz
x,y,z
-x,y,-z
-x,-y,-z
x,-y,z
loop_
_atom_site_type_symbol
_atom_site_label
_atom_site_fract_x
_atom_site_fract_y
_atom_site_fract_z
Si Si1 0.861999 0.000000 0.876170
Si Si2 0.108312 0.246998 0.140384
Si Si3 0.641622 0.000000 0.114231
Si Si4 0.457027 0.374353 0.284448
Si Si5 0.674848 0.233700 0.851764
Si Si6 0.305036 0.628125 0.897594
Si Si7 0.200304 0.367933 0.669643
O O1 0.861033 0.116634 0.971258
O O2 0.000000 0.000000 0.500000
O O3 0.749228 0.000000 0.004820
O O4 0.000000 0.251479 0.500000
O O5 0.220052 0.287692 0.993779
O O6 0.101087 0.325924 0.011075
O O7 0.500000 0.000000 0.500000
O O8 0.664330 0.111498 0.958113
O O9 0.515472 0.500000 0.125263
O O10 0.424808 0.373481 0.529807
O O11 0.329453 0.370282 0.476800
O O12 0.545942 0.268405 0.060278
O O13 0.779167 0.272684 0.503717
O O14 0.685912 0.325739 0.958991
O O15 0.253117 0.500000 0.009797
O O16 0.177618 0.500000 0.670731
#
# Coordination Sequence:
#
# PCOD9146052 Si02
#       7
#     2   4   2   4   4   4   4
#     4  10  22  45  72  90 119 178 233 261 306 389
#     4  10  21  40  66  87 117 162 224 273 309 378
#     4  12  26  41  65 103 135 169 219 283 325 374
#     4   9  18  34  55  82 119 169 211 243 301 400
#     4  12  22  36  56  86 132 164 199 266 332 384
#     4  10  19  32  57  86 114 157 208 256 320 377
#     4  10  22  38  60  92 128 167 213 263 331 402
#
# _framework density 21.016514999999998
#
# number of rings (size 3 to 8) (size 9 to 14) (size 15 to 20)
#    0.000    1.667    1.667    5.000    2.333    4.667 
#    0.000    2.500    0.000    4.000    0.000    0.000 
#    0.000    0.000    0.000    0.000    0.000    0.000 
#
# Total GULP energy -133672.861681 kJ/mol
# GULP energy per Si atom -5569.702570 kJ/mol
# Density = 2.096868 g / cm^3
# Si number density = 21.016515 Si / 1000 Ang^3
#
#
#
# Elastic Constant Matrix: (Units=GPa)
#
#
# Indices 1 2 3 4 5 6 
#
# 1 35.8515 -6.9979 24.3723 0.0000 21.1911 0.0000
# 2 -6.9979 102.9011 38.4023 0.0000 8.0689 0.0000
# 3 24.3723 38.4023 100.0887 0.0000 28.3289 0.0000
# 4 0.0000 0.0000 0.0000 27.2919 0.0000 5.8534
# 5 21.1911 8.0689 28.3289 0.0000 35.2730 0.0000
# 6 0.0000 0.0000 0.0000 5.8534 0.0000 25.8319
#
#
#
# Elastic Compliance Matrix: (Units=1/GPa)
#
#
# Indices 1 2 3 4 5 6 
#
# 1 0.050247 0.008508 -0.008289 0.000000 -0.025476 0.000000
# 2 0.008508 0.012820 -0.006101 0.000000 -0.003145 0.000000
# 3 -0.008289 -0.006101 0.016237 0.000000 -0.006665 0.000000
# 4 0.000000 0.000000 0.000000 0.038513 0.000000 -0.008727
# 5 -0.025476 -0.003145 -0.006665 0.000000 0.049728 0.000000
# 6 0.000000 0.000000 0.000000 -0.008727 0.000000 0.040689
#
#
# Mechanical properties :
#
#
# Convention : Reuss Voigt Hill
#
# Bulk Modulus (GPa) = 14.80586 38.93275 26.86930
# Shear Modulus (GPa) = 20.61767 29.88364 25.25066
#
# Velocity S-wave (km/s) = 3.13553 3.77492 3.46998
# Velocity P-wave (km/s) = 4.49098 6.12903 5.37280
#
# Compressibility (1/GPa) = 0.06754084
#
# Stress axis : x y z
#
# Youngs Moduli (GPa) = 19.90157 78.00307 61.58893
#
# Poissons Ratio (x) = -0.66368 0.51053
# Poissons Ratio (y) = -0.16933 0.37573
# Poissons Ratio (z) = 0.16497 0.47587
#
# Static dielectric constant tensor:
#      x y z
#    x 1.765290 0.000000 0.005000 
#    y 0.000000 1.764660 0.000000 
#    z 0.005000 0.000000 2.080720 
# 
# From -- ./inp_files/36105.got.cif
#   From: 2010.05.17/outbox.cif.g08.bks.cpg/sg10_19_cif.got.tgz:36105.got - 2010.06.03 11:33:40.
