data_PCOD9146810
_publ_section_title
;
Structure prediction by ZEFSAII (Michael W. Deem and Ramdas Pophale) SiO2 
 PCOD9146810
Probable space group: P 2/M
;
_chemical_formula_sum "Si O2"
_cell_formula_units_Z 20
_cell_length_a 31.885249
_cell_length_b 8.336209
_cell_length_c 13.611771
_cell_angle_alpha 90.000000
_cell_angle_beta 165.645610
_cell_angle_gamma 90.000000
_cell_volume 896.979371
_symmetry_space_group_name_H-M "P 2/M"
_symmetry_group_IT_number 10
_symmetry_cell_setting 'monoclinic'
loop_
_space_group_symop_operation_xyz
x,y,z
-x,y,-z
-x,-y,-z
x,-y,z
loop_
_atom_site_type_symbol
_atom_site_label
_atom_site_fract_x
_atom_site_fract_y
_atom_site_fract_z
Si Si1 0.224873 0.820590 0.702985
Si Si2 0.298304 0.679352 0.065474
Si Si3 0.686245 0.179617 0.471724
Si Si4 0.864323 0.500000 0.604097
Si Si5 0.311377 0.500000 0.614518
Si Si6 0.624406 0.184980 0.559165
O O1 0.135895 0.665007 0.456029
O O2 0.169547 0.000000 0.548021
O O3 0.217747 0.800854 0.804911
O O4 0.421983 0.805070 0.117291
O O5 0.500000 0.685001 0.500000
O O6 0.238633 0.500000 0.907586
O O7 0.284105 0.715200 0.148311
O O8 0.766430 0.333117 0.600645
O O9 0.667529 0.220132 0.544321
O O10 0.761899 0.000000 0.633118
O O11 0.500000 0.166872 0.000000
O O12 0.689735 0.500000 0.271026
O O13 0.000000 0.500000 0.000000
O O14 0.500000 0.500000 0.000000
O O15 0.670054 0.000000 0.680398
#
# Coordination Sequence:
#
# PCOD9146810 Si02
#       6
#     4   4   4   2   2   4
#     4  10  19  34  53  73 105 147 183 220 274 327
#     4   9  16  26  45  75 110 142 176 219 272 330
#     4   9  17  29  45  72 105 137 173 212 254 307
#     4  12  26  40  54  80 112 142 187 231 269 321
#     4  10  20  34  55  76 100 138 179 217 267 319
#     4   9  17  27  47  80 113 142 177 221 273 328
#
# _framework density 22.297055
#
# number of rings (size 3 to 8) (size 9 to 14) (size 15 to 20)
#    0.000    2.400    1.000    3.000    2.800    5.200 
#    0.000    0.000    0.000    0.000    0.000    2.800 
#    0.000    4.800    0.000    0.000    0.000    0.000 
#
# Total GULP energy -111550.157420 kJ/mol
# GULP energy per Si atom -5577.507871 kJ/mol
# Density = 2.224631 g / cm^3
# Si number density = 22.297055 Si / 1000 Ang^3
#
#
#
# Elastic Constant Matrix: (Units=GPa)
#
#
# Indices 1 2 3 4 5 6 
#
# 1 79.6499 46.3328 24.0713 0.0000 -32.5417 0.0000
# 2 46.3328 193.9462 36.9332 0.0000 -30.3765 0.0000
# 3 24.0713 36.9332 39.2580 0.0000 -11.2431 0.0000
# 4 0.0000 0.0000 0.0000 -15.9661 0.0000 -19.6627
# 5 -32.5417 -30.3765 -11.2431 0.0000 30.2290 0.0000
# 6 0.0000 0.0000 0.0000 -19.6627 0.0000 34.0216
#
#
#
# Elastic Compliance Matrix: (Units=1/GPa)
#
#
# Indices 1 2 3 4 5 6 
#
# 1 0.024771 -0.000836 -0.007841 0.000000 0.022909 0.000000
# 2 -0.000836 0.006940 -0.004786 0.000000 0.004293 0.000000
# 3 -0.007841 -0.004786 0.034683 0.000000 -0.000351 0.000000
# 4 0.000000 0.000000 0.000000 -0.036590 0.000000 -0.021147
# 5 0.022909 0.004293 -0.000351 0.000000 0.061926 0.000000
# 6 0.000000 0.000000 0.000000 -0.021147 0.000000 0.017171
#
#
# Mechanical properties :
#
#
# Convention : Reuss Voigt Hill
#
# Bulk Modulus (GPa) = 25.33807 58.61432 41.97619
# Shear Modulus (GPa) = 33.56069 23.35799 28.45934
#
# Velocity S-wave (km/s) = 3.88385 3.24015 3.57651
# Velocity P-wave (km/s) = 5.61257 6.35162 5.99350
#
# Compressibility (1/GPa) = 0.03946631
#
# Stress axis : x y z
#
# Youngs Moduli (GPa) = 40.36997 144.09720 28.83290
#
# Poissons Ratio (x) = 0.12053 0.22607
# Poissons Ratio (y) = 0.03377 0.13801
# Poissons Ratio (z) = 0.31652 0.68972
#
# Static dielectric constant tensor:
#      x y z
#    x 1.840380 0.000000 0.035920 
#    y 0.000000 2.719120 0.000000 
#    z 0.035920 0.000000 1.859970 
# 
# From -- ./inp_files/44640.got.cif
#   From: 2010.05.17/outbox.cif.g08.bks.cpg/sg10_23_cif.got.tgz:44640.got - 2010.06.03 11:33:40.
