data_PCOD9146607
_publ_section_title
;
Structure prediction by ZEFSAII (Michael W. Deem and Ramdas Pophale) SiO2 
 PCOD9146607
Probable space group: P 2/M
;
_chemical_formula_sum "Si O2"
_cell_formula_units_Z 20
_cell_length_a 9.989157
_cell_length_b 14.328363
_cell_length_c 16.787962
_cell_angle_alpha 90.000000
_cell_angle_beta 159.839746
_cell_angle_gamma 90.000000
_cell_volume 828.129015
_symmetry_space_group_name_H-M "P 2/M"
_symmetry_group_IT_number 10
_symmetry_cell_setting 'monoclinic'
loop_
_space_group_symop_operation_xyz
x,y,z
-x,y,-z
-x,-y,-z
x,-y,z
loop_
_atom_site_type_symbol
_atom_site_label
_atom_site_fract_x
_atom_site_fract_y
_atom_site_fract_z
Si Si1 0.088000 0.397081 0.914004
Si Si2 0.356971 0.603761 0.623474
Si Si3 0.812149 0.805586 0.502760
Si Si4 0.905328 0.210316 0.177749
Si Si5 0.420473 0.108995 0.145754
O O1 0.119485 0.500000 0.895034
O O2 0.081263 0.315479 0.846623
O O3 0.691116 0.392648 0.743112
O O4 0.420891 0.388228 0.167738
O O5 0.177115 0.500000 0.517828
O O6 0.107458 0.696201 0.469622
O O7 0.453105 0.835998 0.247244
O O8 0.780491 0.813805 0.579612
O O9 0.169330 0.867390 0.669601
O O10 0.500000 0.200059 0.000000
O O11 0.886450 0.146464 0.089255
O O12 0.382381 0.000000 0.139154
#
# Coordination Sequence:
#
# PCOD9146607 Si02
#       5
#     4   4   4   4   4
#     4   9  18  35  56  80 113 151 185 217 263 322
#     4   9  18  34  58  81 109 151 187 218 261 320
#     4  10  19  33  56  83 107 139 183 221 272 320
#     4  10  21  34  55  84 113 142 178 228 273 321
#     4  10  21  38  57  79 109 144 182 228 278 326
#
# _framework density 24.150827
#
# number of rings (size 3 to 8) (size 9 to 14) (size 15 to 20)
#    0.000    2.400    2.000    2.400    0.000    6.400 
#    0.000    7.000    0.000    3.600    0.000   14.000 
#    0.000    0.000    0.000    0.000    0.000    0.000 
#
# Total GULP energy -111887.050385 kJ/mol
# GULP energy per Si atom -5594.352519 kJ/mol
# Density = 2.409586 g / cm^3
# Si number density = 24.150827 Si / 1000 Ang^3
#
#
#
# Elastic Constant Matrix: (Units=GPa)
#
#
# Indices 1 2 3 4 5 6 
#
# 1 94.1951 30.7267 57.6160 0.0000 -39.0978 0.0000
# 2 30.7267 162.3132 45.8448 0.0000 -34.0210 0.0000
# 3 57.6160 45.8448 94.7394 0.0000 -40.5422 0.0000
# 4 0.0000 0.0000 0.0000 -14.3751 0.0000 -2.1705
# 5 -39.0978 -34.0210 -40.5422 0.0000 62.0191 0.0000
# 6 0.0000 0.0000 0.0000 -2.1705 0.0000 52.1522
#
#
#
# Elastic Compliance Matrix: (Units=1/GPa)
#
#
# Indices 1 2 3 4 5 6 
#
# 1 0.018361 0.000245 -0.008711 0.000000 0.006015 0.000000
# 2 0.000245 0.007384 -0.002670 0.000000 0.002460 0.000000
# 3 -0.008711 -0.002670 0.019671 0.000000 0.005903 0.000000
# 4 0.000000 0.000000 0.000000 -0.069131 0.000000 -0.002877
# 5 0.006015 0.002460 0.005903 0.000000 0.025125 0.000000
# 6 0.000000 0.000000 0.000000 -0.002877 0.000000 0.019055
#
#
# Mechanical properties :
#
#
# Convention : Reuss Voigt Hill
#
# Bulk Modulus (GPa) = 43.20475 68.84698 56.02587
# Shear Modulus (GPa) = 99.10605 34.42994 66.76799
#
# Velocity S-wave (km/s) = 6.41291 3.77984 5.26367
# Velocity P-wave (km/s) = 8.53008 6.90062 7.75825
#
# Compressibility (1/GPa) = 0.02314560
#
# Stress axis : x y z
#
# Youngs Moduli (GPa) = 54.46239 135.42490 50.83677
#
# Poissons Ratio (x) = -0.03323 0.44284
# Poissons Ratio (y) = -0.01336 0.13572
# Poissons Ratio (z) = 0.47442 0.36154
#
# Static dielectric constant tensor:
#      x y z
#    x 1.932480 0.000000 0.030780 
#    y 0.000000 1.859390 0.000000 
#    z 0.030780 0.000000 2.025730 
# 
# From -- ./inp_files/23465.got.cif
#   From: 2010.05.17/outbox.cif.g08.bks.cpg/sg10_12_cif.got.tgz:23465.got - 2010.06.03 11:33:40.
