data_PCOD9146071
_publ_section_title
;
Structure prediction by ZEFSAII (Michael W. Deem and Ramdas Pophale) SiO2 
 PCOD9146071
Probable space group: P 2/M
;
_chemical_formula_sum "Si O2"
_cell_formula_units_Z 26
_cell_length_a 18.127356
_cell_length_b 9.713926
_cell_length_c 16.514704
_cell_angle_alpha 90.000000
_cell_angle_beta 22.346131
_cell_angle_gamma 90.000000
_cell_volume 1105.638760
_symmetry_space_group_name_H-M "P 2/M"
_symmetry_group_IT_number 10
_symmetry_cell_setting 'monoclinic'
loop_
_space_group_symop_operation_xyz
x,y,z
-x,y,-z
-x,-y,-z
x,-y,z
loop_
_atom_site_type_symbol
_atom_site_label
_atom_site_fract_x
_atom_site_fract_y
_atom_site_fract_z
Si Si1 0.984538 0.660810 0.423296
Si Si2 0.500000 0.000000 0.000000
Si Si3 0.460649 0.265757 0.154000
Si Si4 0.500000 0.500000 0.000000
Si Si5 0.715087 0.657590 0.352954
Si Si6 0.170747 0.657824 0.941074
Si Si7 0.379061 0.159181 0.404676
Si Si8 0.079319 0.158052 0.180436
O O1 0.032105 0.500000 0.368862
O O2 0.756185 0.671052 0.634062
O O3 0.000000 0.709796 0.500000
O O4 0.093057 0.757900 0.249922
O O5 0.529149 0.120780 0.901401
O O6 0.577782 0.378649 0.984133
O O7 0.487285 0.237163 0.221806
O O8 0.649292 0.500000 0.430665
O O9 0.713833 0.690239 0.258709
O O10 0.614421 0.759417 0.517774
O O11 0.943386 0.658981 0.145839
O O12 0.212468 0.500000 0.924241
O O13 0.183933 0.765950 0.999994
O O14 0.150855 0.158307 0.609182
O O15 0.436623 0.000000 0.354363
O O16 0.137008 0.000000 0.132705
#
# Coordination Sequence:
#
# PCOD9146071 Si02
#       8
#     4   1   4   1   4   4   4   4
#     4  10  20  33  48  67  92 121 155 193 228 269
#     4  10  20  34  50  62  96 116 154 192 236 268
#     4  10  19  33  47  69  87 123 154 191 228 275
#     4  10  20  30  50  66  84 116 162 192 228 268
#     4   8  14  21  34  53  75 107 143 178 211 251
#     4   8  13  23  35  51  76 108 145 177 211 256
#     4   9  16  25  37  55  83 111 142 178 219 267
#     4   9  17  26  39  58  81 114 149 181 218 264
#
# _framework density 23.515817999999999
#
# number of rings (size 3 to 8) (size 9 to 14) (size 15 to 20)
#    0.000    2.923    1.538    1.385    2.154    2.769 
#    0.000    3.077    0.000    0.000    0.000    0.000 
#    0.000    0.000    0.000    8.308    0.000    4.000 
#
# Total GULP energy -144978.080055 kJ/mol
# GULP energy per Si atom -5576.080002 kJ/mol
# Density = 2.346230 g / cm^3
# Si number density = 23.515818 Si / 1000 Ang^3
#
#
#
# Elastic Constant Matrix: (Units=GPa)
#
#
# Indices 1 2 3 4 5 6 
#
# 1 100.4262 59.7924 53.1876 0.0000 25.1645 0.0000
# 2 59.7924 210.4903 103.5180 0.0000 56.9545 0.0000
# 3 53.1876 103.5180 164.8965 0.0000 37.2278 0.0000
# 4 0.0000 0.0000 0.0000 -2.7051 0.0000 38.2652
# 5 25.1645 56.9545 37.2278 0.0000 59.6709 0.0000
# 6 0.0000 0.0000 0.0000 38.2652 0.0000 6.4145
#
#
#
# Elastic Compliance Matrix: (Units=1/GPa)
#
#
# Indices 1 2 3 4 5 6 
#
# 1 0.012931 -0.001862 -0.002528 0.000000 -0.002099 0.000000
# 2 -0.001862 0.008365 -0.003522 0.000000 -0.005002 0.000000
# 3 -0.002528 -0.003522 0.009418 0.000000 -0.001448 0.000000
# 4 0.000000 0.000000 0.000000 -0.004330 0.000000 0.025827
# 5 -0.002099 -0.005002 -0.001448 0.000000 0.023321 0.000000
# 6 0.000000 0.000000 0.000000 0.025827 0.000000 0.001826
#
#
# Mechanical properties :
#
#
# Convention : Reuss Voigt Hill
#
# Bulk Modulus (GPa) = 67.15816 100.97877 84.06847
# Shear Modulus (GPa) = 69.13911 29.96375 49.55143
#
# Velocity S-wave (km/s) = 5.42816 3.57346 4.59535
# Velocity P-wave (km/s) = 8.24059 7.74985 7.99898
#
# Compressibility (1/GPa) = 0.01489022
#
# Stress axis : x y z
#
# Youngs Moduli (GPa) = 77.33330 119.54540 106.18510
#
# Poissons Ratio (x) = 0.22259 0.26846
# Poissons Ratio (y) = 0.14399 0.37393
# Poissons Ratio (z) = 0.19551 0.42098
#
# Static dielectric constant tensor:
#      x y z
#    x 1.967750 0.000000 -0.115530 
#    y 0.000000 1.780690 0.000000 
#    z -0.115530 0.000000 1.967590 
# 
# From -- ./inp_files/71138.got.cif
#   From: 2010.05.17/outbox.cif.g08.bks.cpg/sg10_36_cif.got.tgz:71138.got - 2010.06.03 11:33:40.
