data_PCOD9146297
_publ_section_title
;
Structure prediction by ZEFSAII (Michael W. Deem and Ramdas Pophale) SiO2 
 PCOD9146297
Probable space group: P 2/M
;
_chemical_formula_sum "Si O2"
_cell_formula_units_Z 28
_cell_length_a 15.391227
_cell_length_b 7.485077
_cell_length_c 22.100544
_cell_angle_alpha 90.000000
_cell_angle_beta 29.465317
_cell_angle_gamma 90.000000
_cell_volume 1252.409387
_symmetry_space_group_name_H-M "P 2/M"
_symmetry_group_IT_number 10
_symmetry_cell_setting 'monoclinic'
loop_
_space_group_symop_operation_xyz
x,y,z
-x,y,-z
-x,-y,-z
x,-y,z
loop_
_atom_site_type_symbol
_atom_site_label
_atom_site_fract_x
_atom_site_fract_y
_atom_site_fract_z
Si Si1 0.194681 0.786219 0.860135
Si Si2 0.135593 0.782343 0.468668
Si Si3 0.532460 0.714845 0.410284
Si Si4 0.214713 0.281759 0.179161
Si Si5 0.527442 0.792532 0.211993
Si Si6 0.842598 0.703987 0.407665
Si Si7 0.498620 0.285166 0.095281
O O1 0.290763 0.759260 0.736091
O O2 0.334023 0.713523 0.825186
O O3 0.816850 0.000000 0.127278
O O4 0.000000 0.720020 0.000000
O O5 0.331393 0.717777 0.334522
O O6 0.106768 0.709004 0.552689
O O7 0.000000 0.723913 0.500000
O O8 0.129170 0.000000 0.475233
O O9 0.500000 0.774025 0.500000
O O10 0.534905 0.500000 0.410050
O O11 0.353383 0.778961 0.484196
O O12 0.203277 0.500000 0.188569
O O13 0.305908 0.222935 0.187447
O O14 0.023869 0.213162 0.273181
O O15 0.358908 0.236862 0.041570
O O16 0.568762 0.781732 0.116488
O O17 0.512882 0.000000 0.237951
O O18 0.831394 0.500000 0.392031
O O19 0.490204 0.500000 0.103638
#
# Coordination Sequence:
#
# PCOD9146297 Si02
#       7
#     4   4   4   4   4   4   4
#     4  10  22  41  62  82 109 149 194 239 290 350
#     4  10  20  33  51  77 109 142 174 215 270 322
#     4  10  22  39  59  86 117 148 189 245 301 348
#     4   8  16  31  49  74 107 142 180 222 262 316
#     4  10  20  34  51  75 108 136 169 223 273 318
#     4  10  19  33  54  77 106 142 180 221 271 330
#     4   9  17  31  52  75 104 143 183 217 261 324
#
# _framework density 22.356907
#
# number of rings (size 3 to 8) (size 9 to 14) (size 15 to 20)
#    0.000    2.429    1.429    1.714    0.000    3.143 
#    0.000    3.571    0.000    0.000    0.000    0.000 
#    0.000    0.000    0.000    0.000    0.000    0.000 
#
# Total GULP energy -155975.230830 kJ/mol
# GULP energy per Si atom -5570.543958 kJ/mol
# Density = 2.230602 g / cm^3
# Si number density = 22.356907 Si / 1000 Ang^3
#
#
#
# Elastic Constant Matrix: (Units=GPa)
#
#
# Indices 1 2 3 4 5 6 
#
# 1 87.0275 4.8261 66.6807 0.0000 -16.5188 0.0000
# 2 4.8261 65.5368 4.7906 0.0000 -9.8291 0.0000
# 3 66.6807 4.7906 153.6803 0.0000 -21.4557 0.0000
# 4 0.0000 0.0000 0.0000 5.0457 0.0000 16.7774
# 5 -16.5188 -9.8291 -21.4557 0.0000 33.5963 0.0000
# 6 0.0000 0.0000 0.0000 16.7774 0.0000 -10.8294
#
#
#
# Elastic Compliance Matrix: (Units=1/GPa)
#
#
# Indices 1 2 3 4 5 6 
#
# 1 0.017733 -0.000167 -0.007113 0.000000 0.004128 0.000000
# 2 -0.000167 0.015964 0.000236 0.000000 0.004740 0.000000
# 3 -0.007113 0.000236 0.009999 0.000000 0.002957 0.000000
# 4 0.000000 0.000000 0.000000 0.032219 0.000000 0.049914
# 5 0.004128 0.004740 0.002957 0.000000 0.035070 0.000000
# 6 0.000000 0.000000 0.000000 0.049914 0.000000 -0.015012
#
#
# Mechanical properties :
#
#
# Convention : Reuss Voigt Hill
#
# Bulk Modulus (GPa) = 33.77238 50.98215 42.37726
# Shear Modulus (GPa) = 41.69099 20.89234 31.29167
#
# Velocity S-wave (km/s) = 4.32301 3.06026 3.74524
# Velocity P-wave (km/s) = 6.32904 5.94476 6.13991
#
# Compressibility (1/GPa) = 0.02961000
#
# Stress axis : x y z
#
# Youngs Moduli (GPa) = 56.39125 62.63923 100.01268
#
# Poissons Ratio (x) = 0.01045 0.71137
# Poissons Ratio (y) = 0.00941 -0.02365
# Poissons Ratio (z) = 0.40110 -0.01481
#
# Static dielectric constant tensor:
#      x y z
#    x 1.854910 0.000000 0.049710 
#    y 0.000000 1.855530 0.000000 
#    z 0.049710 0.000000 2.054970 
# 
# From -- ./inp_files/66411.got.cif
#   From: 2010.05.17/outbox.cif.g08.bks.cpg/sg10_34_cif.got.tgz:66411.got - 2010.06.03 11:33:40.
