data_PCOD9146223
_publ_section_title
;
Structure prediction by ZEFSAII (Michael W. Deem and Ramdas Pophale) SiO2 
 PCOD9146223
Probable space group: P 2/M
;
_chemical_formula_sum "Si O2"
_cell_formula_units_Z 28
_cell_length_a 19.539638
_cell_length_b 8.710251
_cell_length_c 18.561569
_cell_angle_alpha 90.000000
_cell_angle_beta 29.896809
_cell_angle_gamma 90.000000
_cell_volume 1574.614634
_symmetry_space_group_name_H-M "P 2/M"
_symmetry_group_IT_number 10
_symmetry_cell_setting 'monoclinic'
loop_
_space_group_symop_operation_xyz
x,y,z
-x,y,-z
-x,-y,-z
x,-y,z
loop_
_atom_site_type_symbol
_atom_site_label
_atom_site_fract_x
_atom_site_fract_y
_atom_site_fract_z
Si Si1 0.144927 0.316336 0.154020
Si Si2 0.888613 0.682435 0.292052
Si Si3 0.722278 0.183166 0.575938
Si Si4 0.703643 0.182506 0.345468
Si Si5 0.429013 0.682985 0.668497
Si Si6 0.410082 0.816791 0.843726
Si Si7 0.023684 0.815547 0.560027
O O1 0.154792 0.500000 0.145693
O O2 0.036673 0.273140 0.189326
O O3 0.078830 0.259079 0.288804
O O4 0.290659 0.242399 0.004194
O O5 0.885258 0.500000 0.283785
O O6 0.782355 0.727618 0.452504
O O7 0.837704 0.766524 0.266938
O O8 0.563194 0.219598 0.732232
O O9 0.822851 0.216903 0.550783
O O10 0.732954 0.000000 0.550751
O O11 0.683888 0.261317 0.286094
O O12 0.571749 0.240024 0.512082
O O13 0.696924 0.000000 0.344521
O O14 0.443795 0.500000 0.651760
O O15 0.395997 0.737825 0.778693
O O16 0.400328 0.000000 0.843972
O O17 0.000000 0.763728 0.500000
O O18 0.004556 0.000000 0.579909
#
# Coordination Sequence:
#
# PCOD9146223 Si02
#       7
#     4   4   4   4   4   4   4
#     4  10  22  37  55  80 111 145 180 220 272 326
#     4  10  19  33  53  77 104 139 183 229 272 320
#     4   9  18  32  54  81 107 138 178 223 267 319
#     4  11  20  32  51  77 107 140 183 229 272 319
#     4  11  21  33  51  76 108 143 181 227 274 318
#     4  11  21  35  54  79 110 144 182 224 272 324
#     4   9  18  36  61  86 110 139 177 220 267 321
#
# _framework density 17.782129000000001
#
# number of rings (size 3 to 8) (size 9 to 14) (size 15 to 20)
#    0.000    1.857    1.429    4.714    0.000    2.571 
#    0.000    1.429    0.000    8.571    0.000    0.000 
#    0.000    0.000    0.000    0.000    0.000    0.000 
#
# Total GULP energy -156339.266300 kJ/mol
# GULP energy per Si atom -5583.545225 kJ/mol
# Density = 1.774166 g / cm^3
# Si number density = 17.782129 Si / 1000 Ang^3
#
#
#
# Elastic Constant Matrix: (Units=GPa)
#
#
# Indices 1 2 3 4 5 6 
#
# 1 101.9123 31.9413 39.2234 0.0000 6.3164 0.0000
# 2 31.9413 62.9278 28.8283 0.0000 -3.6677 0.0000
# 3 39.2234 28.8283 83.4701 0.0000 -11.6014 0.0000
# 4 0.0000 0.0000 0.0000 34.5994 0.0000 2.7176
# 5 6.3164 -3.6677 -11.6014 0.0000 22.4843 0.0000
# 6 0.0000 0.0000 0.0000 2.7176 0.0000 22.4658
#
#
#
# Elastic Compliance Matrix: (Units=1/GPa)
#
#
# Indices 1 2 3 4 5 6 
#
# 1 0.014166 -0.004869 -0.006075 0.000000 -0.007908 0.000000
# 2 -0.004869 0.020553 -0.004476 0.000000 0.002411 0.000000
# 3 -0.006075 -0.004476 0.017792 0.000000 0.010157 0.000000
# 4 0.000000 0.000000 0.000000 0.029179 0.000000 -0.003530
# 5 -0.007908 0.002411 0.010157 0.000000 0.052331 0.000000
# 6 0.000000 0.000000 0.000000 -0.003530 0.000000 0.044939
#
#
# Mechanical properties :
#
#
# Convention : Reuss Voigt Hill
#
# Bulk Modulus (GPa) = 46.13760 49.81070 47.97415
# Shear Modulus (GPa) = 23.03889 25.79771 24.41830
#
# Velocity S-wave (km/s) = 3.60338 3.81302 3.70968
# Velocity P-wave (km/s) = 6.58140 6.88898 6.73694
#
# Compressibility (1/GPa) = 0.02167430
#
# Stress axis : x y z
#
# Youngs Moduli (GPa) = 70.58963 48.65369 56.20420
#
# Poissons Ratio (x) = 0.23688 0.34141
# Poissons Ratio (y) = 0.34368 0.25155
# Poissons Ratio (z) = 0.42880 0.21775
#
# Static dielectric constant tensor:
#      x y z
#    x 1.624110 0.000000 -0.020300 
#    y 0.000000 1.594040 0.000000 
#    z -0.020300 0.000000 1.579900 
# 
# From -- ./inp_files/79229.got.cif
#   From: 2010.05.17/outbox.cif.g08.bks.cpg/sg10_40_cif.got.tgz:79229.got - 2010.06.03 11:33:40.
