data_PCOD9146858
_publ_section_title
;
Structure prediction by ZEFSAII (Michael W. Deem and Ramdas Pophale) SiO2 
 PCOD9146858
Probable space group: P 2/M
;
_chemical_formula_sum "Si O2"
_cell_formula_units_Z 28
_cell_length_a 8.178711
_cell_length_b 8.507142
_cell_length_c 30.096366
_cell_angle_alpha 90.000000
_cell_angle_beta 139.596555
_cell_angle_gamma 90.000000
_cell_volume 1357.277474
_symmetry_space_group_name_H-M "P 2/M"
_symmetry_group_IT_number 10
_symmetry_cell_setting 'monoclinic'
loop_
_space_group_symop_operation_xyz
x,y,z
-x,y,-z
-x,-y,-z
x,-y,z
loop_
_atom_site_type_symbol
_atom_site_label
_atom_site_fract_x
_atom_site_fract_y
_atom_site_fract_z
Si Si1 0.534227 0.821355 0.959588
Si Si2 0.084607 0.685904 0.822908
Si Si3 0.751199 0.192143 0.577921
Si Si4 0.287106 0.809564 0.326978
Si Si5 0.292361 0.809054 0.655959
Si Si6 0.025172 0.328695 0.057200
Si Si7 0.691841 0.186946 0.812770
O O1 0.376384 0.731478 0.889860
O O2 0.441820 0.000000 0.940801
O O3 0.500000 0.740039 0.000000
O O4 0.833232 0.815613 0.020904
O O5 0.052976 0.500000 0.818369
O O6 0.949331 0.750571 0.750918
O O7 0.934716 0.765827 0.833116
O O8 0.500000 0.241171 0.500000
O O9 0.734180 0.240740 0.626164
O O10 0.006309 0.244345 0.605336
O O11 0.756620 0.000000 0.579213
O O12 0.541413 0.758472 0.352574
O O13 0.285154 0.000000 0.325726
O O14 0.455048 0.766615 0.733299
O O15 0.286798 0.000000 0.652551
O O16 0.952003 0.500000 0.061701
O O17 0.276769 0.276117 0.134320
O O18 0.000000 0.351056 0.000000
O O19 0.683516 0.000000 0.817336
#
# Coordination Sequence:
#
# PCOD9146858 Si02
#       7
#     4   4   4   4   4   4   4
#     4  11  22  36  57  81 106 143 188 232 281 337
#     4  11  21  34  56  81 108 143 184 235 284 332
#     4   9  17  30  52  84 116 144 179 227 281 333
#     4   9  18  33  53  79 112 147 187 230 276 341
#     4   8  16  30  49  76 109 142 177 224 277 327
#     4  11  24  38  52  77 112 147 186 233 285 339
#     4  10  19  34  54  76 105 143 185 228 278 336
#
# _framework density 20.629532999999999
#
# number of rings (size 3 to 8) (size 9 to 14) (size 15 to 20)
#    0.000    2.143    1.429    3.429    0.000    3.429 
#    0.000    4.286    0.000    3.857    0.000    4.000 
#    0.000    0.000    0.000    0.000    0.000    0.000 
#
# Total GULP energy -155927.562428 kJ/mol
# GULP energy per Si atom -5568.841515 kJ/mol
# Density = 2.058258 g / cm^3
# Si number density = 20.629533 Si / 1000 Ang^3
#
#
#
# Elastic Constant Matrix: (Units=GPa)
#
#
# Indices 1 2 3 4 5 6 
#
# 1 46.4718 8.2954 33.0855 0.0000 -3.3204 0.0000
# 2 8.2954 45.5477 18.7528 0.0000 -2.7982 0.0000
# 3 33.0855 18.7528 105.1416 0.0000 -3.7231 0.0000
# 4 0.0000 0.0000 0.0000 0.0721 0.0000 -26.5945
# 5 -3.3204 -2.7982 -3.7231 0.0000 34.2777 0.0000
# 6 0.0000 0.0000 0.0000 -26.5945 0.0000 -5.6999
#
#
#
# Elastic Compliance Matrix: (Units=1/GPa)
#
#
# Indices 1 2 3 4 5 6 
#
# 1 0.027930 -0.001500 -0.008462 0.000000 0.001664 0.000000
# 2 -0.001500 0.023851 -0.003732 0.000000 0.001396 0.000000
# 3 -0.008462 -0.003732 0.012849 0.000000 0.000271 0.000000
# 4 0.000000 0.000000 0.000000 0.008054 0.000000 -0.037580
# 5 0.001664 0.001396 0.000271 0.000000 0.029478 0.000000
# 6 0.000000 0.000000 0.000000 -0.037580 0.000000 -0.000102
#
#
# Mechanical properties :
#
#
# Convention : Reuss Voigt Hill
#
# Bulk Modulus (GPa) = 26.85321 35.26986 31.06154
# Shear Modulus (GPa) = 35.24506 14.86513 25.05510
#
# Velocity S-wave (km/s) = 4.13786 2.68727 3.48879
# Velocity P-wave (km/s) = 5.98951 5.17324 5.59628
#
# Compressibility (1/GPa) = 0.03723950
#
# Stress axis : x y z
#
# Youngs Moduli (GPa) = 35.80397 41.92741 77.82606
#
# Poissons Ratio (x) = 0.06291 0.65859
# Poissons Ratio (y) = 0.05372 0.29048
# Poissons Ratio (z) = 0.30298 0.15649
#
# Static dielectric constant tensor:
#      x y z
#    x 1.780020 0.000000 0.014380 
#    y 0.000000 1.711110 0.000000 
#    z 0.014380 0.000000 1.721340 
# 
# From -- ./inp_files/94541.got.cif
#   From: 2010.05.17/outbox.cif.g08.bks.cpg/sg10_48_cif.got.tgz:94541.got - 2010.06.03 11:33:40.
