data_PCOD9146563
_publ_section_title
;
Structure prediction by ZEFSAII (Michael W. Deem and Ramdas Pophale) SiO2 
 PCOD9146563
Probable space group: P 2/M
;
_chemical_formula_sum "Si O2"
_cell_formula_units_Z 32
_cell_length_a 21.444983
_cell_length_b 8.693770
_cell_length_c 26.962515
_cell_angle_alpha 90.000000
_cell_angle_beta 158.911961
_cell_angle_gamma 90.000000
_cell_volume 1808.663904
_symmetry_space_group_name_H-M "P 2/M"
_symmetry_group_IT_number 10
_symmetry_cell_setting 'monoclinic'
loop_
_space_group_symop_operation_xyz
x,y,z
-x,y,-z
-x,-y,-z
x,-y,z
loop_
_atom_site_type_symbol
_atom_site_label
_atom_site_fract_x
_atom_site_fract_y
_atom_site_fract_z
Si Si1 0.955165 0.185348 0.410827
Si Si2 0.440453 0.814506 0.900814
Si Si3 0.846290 0.815582 0.025547
Si Si4 0.415513 0.316252 0.091183
Si Si5 0.231504 0.316164 0.309147
Si Si6 0.522652 0.185379 0.593059
Si Si7 0.550919 0.814806 0.728657
Si Si8 0.287767 0.683259 0.610138
O O1 0.759580 0.232415 0.254067
O O2 0.000000 0.235861 0.500000
O O3 0.098951 0.250198 0.480536
O O4 0.963941 0.000000 0.415772
O O5 0.554020 0.740048 0.941792
O O6 0.450355 0.000000 0.902835
O O7 0.500000 0.773265 0.000000
O O8 0.034119 0.739642 0.162666
O O9 0.863633 0.000000 0.037729
O O10 0.743448 0.762851 0.998336
O O11 0.721612 0.768799 0.886833
O O12 0.395066 0.500000 0.077999
O O13 0.587187 0.274015 0.250635
O O14 0.241548 0.500000 0.317990
O O15 0.341292 0.246951 0.436522
O O16 0.330007 0.253831 0.333415
O O17 0.552658 0.230189 0.672422
O O18 0.525335 0.000000 0.591350
O O19 0.385387 0.747810 0.634514
O O20 0.541623 0.000000 0.724015
O O21 0.280159 0.500000 0.601728
#
# Coordination Sequence:
#
# PCOD9146563 Si02
#       8
#     4   4   4   4   4   4   4   4
#     4  10  19  33  56  79 101 137 184 226 264 319
#     4  10  21  37  55  77 105 140 181 226 274 323
#     4  10  20  37  60  84 110 145 187 229 271 326
#     4  10  20  35  55  80 110 143 178 223 275 328
#     4  11  22  37  57  84 116 150 185 224 272 329
#     4  10  20  38  61  84 111 148 188 228 272 322
#     4   9  20  37  59  84 111 143 185 232 274 320
#     4  10  20  33  54  82 111 141 177 223 276 327
#
# _framework density 17.692619000000001
#
# number of rings (size 3 to 8) (size 9 to 14) (size 15 to 20)
#    0.000    2.000    1.250    3.375    0.000    4.000 
#    2.250    2.500    0.000    0.000    0.000    0.000 
#    0.000    0.000    0.000    0.000    0.000    0.000 
#
# Total GULP energy -178664.873183 kJ/mol
# GULP energy per Si atom -5583.277287 kJ/mol
# Density = 1.765235 g / cm^3
# Si number density = 17.692619 Si / 1000 Ang^3
#
#
#
# Elastic Constant Matrix: (Units=GPa)
#
#
# Indices 1 2 3 4 5 6 
#
# 1 138.6986 46.0034 87.1391 0.0000 -5.6773 0.0000
# 2 46.0034 52.6187 41.0786 0.0000 0.0348 0.0000
# 3 87.1391 41.0786 132.2683 0.0000 10.6956 0.0000
# 4 0.0000 0.0000 0.0000 157.1467 0.0000 329.8241
# 5 -5.6773 0.0348 10.6956 0.0000 25.3172 0.0000
# 6 0.0000 0.0000 0.0000 329.8241 0.0000 787.2391
#
#
#
# Elastic Compliance Matrix: (Units=1/GPa)
#
#
# Indices 1 2 3 4 5 6 
#
# 1 0.014895 -0.006510 -0.008347 0.000000 0.006875 0.000000
# 2 -0.006510 0.028214 -0.004506 0.000000 0.000405 0.000000
# 3 -0.008347 -0.004506 0.015126 0.000000 -0.008256 0.000000
# 4 0.000000 0.000000 0.000000 0.052735 0.000000 -0.022094
# 5 0.006875 0.000405 -0.008256 0.000000 0.044528 0.000000
# 6 0.000000 0.000000 0.000000 -0.022094 0.000000 0.010527
#
#
# Mechanical properties :
#
#
# Convention : Reuss Voigt Hill
#
# Bulk Modulus (GPa) = 51.25941 74.66979 62.96460
# Shear Modulus (GPa) = 23.66816 203.89824 113.78320
#
# Velocity S-wave (km/s) = 3.66148 10.74686 8.02812
# Velocity P-wave (km/s) = 6.84912 14.01031 11.02722
#
# Compressibility (1/GPa) = 0.01950861
#
# Stress axis : x y z
#
# Youngs Moduli (GPa) = 67.13876 35.44320 66.11035
#
# Poissons Ratio (x) = 0.23075 0.55180
# Poissons Ratio (y) = 0.43710 0.29790
# Poissons Ratio (z) = 0.56038 0.15971
#
# Static dielectric constant tensor:
#      x y z
#    x 1.580200 0.000000 -0.013350 
#    y 0.000000 1.589820 0.000000 
#    z -0.013350 0.000000 1.590350 
# 
# From -- ./inp_files/93756.got.cif
#   From: 2010.05.17/outbox.cif.g08.bks.cpg/sg10_47_cif.got.tgz:93756.got - 2010.06.03 11:33:40.
