data_PCOD9146321
_publ_section_title
;
Structure prediction by ZEFSAII (Michael W. Deem and Ramdas Pophale) SiO2 
 PCOD9146321
Probable space group: P 2/M
;
_chemical_formula_sum "Si O2"
_cell_formula_units_Z 32
_cell_length_a 14.766245
_cell_length_b 21.039949
_cell_length_c 15.276411
_cell_angle_alpha 90.000000
_cell_angle_beta 161.405656
_cell_angle_gamma 90.000000
_cell_volume 1513.365947
_symmetry_space_group_name_H-M "P 2/M"
_symmetry_group_IT_number 10
_symmetry_cell_setting 'monoclinic'
loop_
_space_group_symop_operation_xyz
x,y,z
-x,y,-z
-x,-y,-z
x,-y,z
loop_
_atom_site_type_symbol
_atom_site_label
_atom_site_fract_x
_atom_site_fract_y
_atom_site_fract_z
Si Si1 0.548899 0.791878 0.304380
Si Si2 0.583016 0.427481 0.373854
Si Si3 0.007252 0.619644 0.105573
Si Si4 0.469248 0.929990 0.272938
Si Si5 0.141494 0.370372 0.542267
Si Si6 0.368480 0.718710 0.966222
Si Si7 0.947184 0.762815 0.818832
Si Si8 0.869000 0.901288 0.788608
O O1 0.594660 0.867644 0.341386
O O2 0.816630 0.763343 0.601082
O O3 0.447142 0.761647 0.120818
O O4 0.281700 0.777233 0.122616
O O5 0.487921 0.500000 0.276964
O O6 0.769750 0.417681 0.631325
O O7 0.787137 0.409391 0.479450
O O8 0.300078 0.385114 0.128377
O O9 0.102431 0.693414 0.189180
O O10 0.000000 0.594981 0.000000
O O11 0.594568 0.927409 0.487280
O O12 0.531391 0.000000 0.294610
O O13 0.131835 0.917845 0.965132
O O14 0.000000 0.400380 0.500000
O O15 0.944749 0.308955 0.338403
O O16 0.447138 0.344826 0.850916
O O17 0.500000 0.750090 0.000000
O O18 0.821311 0.825206 0.749704
O O19 0.000000 0.923943 0.000000
#
# Coordination Sequence:
#
# PCOD9146321 Si02
#       8
#     4   4   4   4   4   4   4   4
#     4  10  19  33  54  78 110 142 175 226 273 326
#     4  12  26  42  61  85 115 154 195 230 275 339
#     4  12  25  41  62  84 113 153 196 243 284 326
#     4  10  21  33  47  70 101 144 184 213 258 316
#     4  10  21  38  62  90 117 143 177 230 291 350
#     4  10  19  33  57  87 113 137 172 222 283 340
#     4  10  20  35  56  80 104 136 180 228 284 328
#     4  10  20  33  50  73 101 131 172 227 275 320
#
# _framework density 21.144919000000002
#
# number of rings (size 3 to 8) (size 9 to 14) (size 15 to 20)
#    0.000    1.500    0.000    6.375    0.000    3.250 
#    0.000    3.750    0.000    4.125    0.000    0.000 
#    0.000    9.000    0.000    0.000    0.000    2.500 
#
# Total GULP energy -178593.913298 kJ/mol
# GULP energy per Si atom -5581.059791 kJ/mol
# Density = 2.109679 g / cm^3
# Si number density = 21.144919 Si / 1000 Ang^3
#
#
#
# Elastic Constant Matrix: (Units=GPa)
#
#
# Indices 1 2 3 4 5 6 
#
# 1 56.9048 11.2738 6.4773 0.0000 -10.8788 0.0000
# 2 11.2738 74.6245 -1.7205 0.0000 -8.1415 0.0000
# 3 6.4773 -1.7205 106.0484 0.0000 -2.6491 0.0000
# 4 0.0000 0.0000 0.0000 16.3101 0.0000 0.4874
# 5 -10.8788 -8.1415 -2.6491 0.0000 31.1372 0.0000
# 6 0.0000 0.0000 0.0000 0.4874 0.0000 -14.8196
#
#
#
# Elastic Compliance Matrix: (Units=1/GPa)
#
#
# Indices 1 2 3 4 5 6 
#
# 1 0.019304 -0.002280 -0.001065 0.000000 0.006058 0.000000
# 2 -0.002280 0.014074 0.000441 0.000000 0.002921 0.000000
# 3 -0.001065 0.000441 0.009516 0.000000 0.000553 0.000000
# 4 0.000000 0.000000 0.000000 0.061252 0.000000 0.002015
# 5 0.006058 0.002921 0.000553 0.000000 0.035043 0.000000
# 6 0.000000 0.000000 0.000000 0.002015 0.000000 -0.067412
#
#
# Mechanical properties :
#
#
# Convention : Reuss Voigt Hill
#
# Bulk Modulus (GPa) = 26.96496 29.95989 28.46242
# Shear Modulus (GPa) = 55.58852 21.29533 38.44192
#
# Velocity S-wave (km/s) = 5.13287 3.17695 4.26845
# Velocity P-wave (km/s) = 6.92161 5.25898 6.14677
#
# Compressibility (1/GPa) = 0.03708517
#
# Stress axis : x y z
#
# Youngs Moduli (GPa) = 51.80209 71.05463 105.09004
#
# Poissons Ratio (x) = 0.16200 0.11189
# Poissons Ratio (y) = 0.11811 -0.04630
# Poissons Ratio (z) = 0.05516 -0.03130
#
# Static dielectric constant tensor:
#      x y z
#    x 1.835690 0.000000 0.003180 
#    y 0.000000 1.774340 0.000000 
#    z 0.003180 0.000000 1.740040 
# 
# From -- ./inp_files/67918.got.cif
#   From: 2010.05.17/outbox.cif.g08.bks.cpg/sg10_34_cif.got.tgz:67918.got - 2010.06.03 11:33:40.
