data_PCOD9146529
_publ_section_title
;
Structure prediction by ZEFSAII (Michael W. Deem and Ramdas Pophale) SiO2 
 PCOD9146529
Probable space group: P 2/M
;
_chemical_formula_sum "Si O2"
_cell_formula_units_Z 19
_cell_length_a 5.367459
_cell_length_b 27.206480
_cell_length_c 5.056956
_cell_angle_alpha 90.000000
_cell_angle_beta 91.645667
_cell_angle_gamma 90.000000
_cell_volume 738.161010
_symmetry_space_group_name_H-M "P 2/M"
_symmetry_group_IT_number 10
_symmetry_cell_setting 'monoclinic'
loop_
_space_group_symop_operation_xyz
x,y,z
-x,y,-z
-x,-y,-z
x,-y,z
loop_
_atom_site_type_symbol
_atom_site_label
_atom_site_fract_x
_atom_site_fract_y
_atom_site_fract_z
Si Si1 0.754502 0.105004 0.681713
Si Si2 0.245573 0.000000 0.319025
Si Si3 0.247947 0.209107 0.330577
Si Si4 0.742579 0.321741 0.840193
Si Si5 0.500000 0.500000 0.000000
Si Si6 0.830596 0.424136 0.726981
O O1 0.500000 0.104046 0.500000
O O2 0.757116 0.052493 0.830294
O O3 0.760514 0.157620 0.832339
O O4 0.000000 0.105317 0.500000
O O5 0.500000 0.000000 0.500000
O O6 0.000000 0.000000 0.500000
O O7 0.500000 0.203792 0.500000
O O8 0.271291 0.264104 0.224880
O O9 0.000000 0.209924 0.500000
O O10 0.760612 0.367995 0.644830
O O11 0.500000 0.333061 0.000000
O O12 0.000000 0.324556 0.000000
O O13 0.599150 0.457063 0.798333
O O14 0.000000 0.444769 0.500000
O O15 0.000000 0.425362 0.000000
#
# Coordination Sequence:
#
# PCOD9146529 Si02
#       6
#     4   2   4   4   1   4
#     4   8  14  23  39  66 100 137 186 241 312 379
#     4   8  12  20  34  58  96 136 174 238 306 376
#     4  10  19  33  55  83 113 154 202 262 324 395
#     4  11  23  42  61  93 127 170 217 271 331 406
#     4  12  24  50  72 108 136 190 228 288 342 410
#     4  11  26  46  71 104 141 181 231 285 344 411
#
# _framework density 25.739642
#
# number of rings (size 3 to 8) (size 9 to 14) (size 15 to 20)
#    0.000    2.105    1.053    2.526    0.000    3.368 
#    0.000    0.000    0.000    0.000    0.000    1.474 
#    0.000    0.000    0.000    0.000    0.000    0.000 
#
# Total GULP energy -105774.750711 kJ/mol
# GULP energy per Si atom -5567.092143 kJ/mol
# Density = 2.568106 g / cm^3
# Si number density = 25.739642 Si / 1000 Ang^3
#
#
#
# Elastic Constant Matrix: (Units=GPa)
#
#
# Indices 1 2 3 4 5 6 
#
# 1 191.2067 0.1748 43.4256 0.0000 -13.9057 0.0000
# 2 0.1748 295.9348 28.3715 0.0000 -20.7030 0.0000
# 3 43.4256 28.3715 72.1333 0.0000 -24.4404 0.0000
# 4 0.0000 0.0000 0.0000 -8.2880 0.0000 4.9592
# 5 -13.9057 -20.7030 -24.4404 0.0000 63.9222 0.0000
# 6 0.0000 0.0000 0.0000 4.9592 0.0000 8.3175
#
#
#
# Elastic Compliance Matrix: (Units=1/GPa)
#
#
# Indices 1 2 3 4 5 6 
#
# 1 0.006095 0.000361 -0.003817 0.000000 -0.000017 0.000000
# 2 0.000361 0.003560 -0.001379 0.000000 0.000704 0.000000
# 3 -0.003817 -0.001379 0.018693 0.000000 0.005870 0.000000
# 4 0.000000 0.000000 0.000000 -0.088929 0.000000 0.053023
# 5 -0.000017 0.000704 0.005870 0.000000 0.018113 0.000000
# 6 0.000000 0.000000 0.000000 0.053023 0.000000 0.088615
#
#
# Mechanical properties :
#
#
# Convention : Reuss Voigt Hill
#
# Bulk Modulus (GPa) = 53.53882 78.13542 65.83712
# Shear Modulus (GPa) = 80.58950 45.27717 62.93334
#
# Velocity S-wave (km/s) = 5.60156 4.19865 4.95006
# Velocity P-wave (km/s) = 7.91719 7.34349 7.63573
#
# Compressibility (1/GPa) = 0.01867803
#
# Stress axis : x y z
#
# Youngs Moduli (GPa) = 164.05969 280.86657 53.49721
#
# Poissons Ratio (x) = -0.10145 0.20421
# Poissons Ratio (y) = -0.05926 0.07378
# Poissons Ratio (z) = 0.62624 0.38736
#
# Static dielectric constant tensor:
#      x y z
#    x 2.007380 0.000000 0.048280 
#    y 0.000000 2.185160 0.000000 
#    z 0.048280 0.000000 2.129330 
# 
# From -- ./inp_files/2082.got.cif
#   From: 2010.05.17/outbox.cif.g08.bks.cpg/sg10_2_cif.got.tgz:2082.got - 2010.06.03 11:33:40.
