data_PCOD9146822
_publ_section_title
;
Structure prediction by ZEFSAII (Michael W. Deem and Ramdas Pophale) SiO2 
 PCOD9146822
Probable space group: P 2/M
;
_chemical_formula_sum "Si O2"
_cell_formula_units_Z 26
_cell_length_a 11.437704
_cell_length_b 9.756200
_cell_length_c 14.677888
_cell_angle_alpha 90.000000
_cell_angle_beta 118.004095
_cell_angle_gamma 90.000000
_cell_volume 1446.110697
_symmetry_space_group_name_H-M "P 2/M"
_symmetry_group_IT_number 10
_symmetry_cell_setting 'monoclinic'
loop_
_space_group_symop_operation_xyz
x,y,z
-x,y,-z
-x,-y,-z
x,-y,z
loop_
_atom_site_type_symbol
_atom_site_label
_atom_site_fract_x
_atom_site_fract_y
_atom_site_fract_z
Si Si1 0.984038 0.662006 0.746214
Si Si2 0.227888 0.847785 0.829160
Si Si3 0.500000 0.748268 0.000000
Si Si4 0.129565 0.336353 0.098738
Si Si5 0.577142 0.658028 0.831324
Si Si6 0.892750 0.837508 0.541013
Si Si7 0.348099 0.158871 0.673090
O O1 0.997543 0.500000 0.732915
O O2 0.893799 0.679894 0.802370
O O3 0.927349 0.744072 0.639413
O O4 0.126570 0.729716 0.819679
O O5 0.260758 0.832603 0.733825
O O6 0.171626 0.000000 0.823492
O O7 0.368191 0.834115 0.930634
O O8 0.470101 0.665571 0.081081
O O9 0.132042 0.500000 0.079295
O O10 0.273468 0.284874 0.121510
O O11 0.000000 0.279294 0.000000
O O12 0.576374 0.500000 0.801036
O O13 0.473774 0.745377 0.734626
O O14 0.749080 0.806549 0.445458
O O15 0.000000 0.815282 0.500000
O O16 0.898099 0.000000 0.565932
O O17 0.389038 0.000000 0.679799
#
# Coordination Sequence:
#
# PCOD9146822 Si02
#       7
#     4   4   2   4   4   4   4
#     4  11  22  34  55  85 111 141 187 233 272 321
#     4  10  19  34  53  76 108 146 181 219 274 333
#     4  10  20  32  54  84 106 136 184 234 272 328
#     4   9  19  37  56  76 111 154 185 218 273 332
#     4  10  20  35  56  80 110 144 181 229 282 329
#     4  10  19  37  59  80 110 150 184 221 279 337
#     4   9  19  35  55  78 108 142 177 221 275 333
#
# _framework density 17.979258999999999
#
# number of rings (size 3 to 8) (size 9 to 14) (size 15 to 20)
#    0.000    2.154    1.538    1.846    0.000    5.846 
#    0.000    2.308    0.000    7.846    0.000    0.000 
#    0.000    0.000    0.000    0.000    0.000    0.000 
#
# Total GULP energy -145023.085463 kJ/mol
# GULP energy per Si atom -5577.810979 kJ/mol
# Density = 1.793834 g / cm^3
# Si number density = 17.979259 Si / 1000 Ang^3
#
#
#
# Elastic Constant Matrix: (Units=GPa)
#
#
# Indices 1 2 3 4 5 6 
#
# 1 97.5636 46.9023 42.4201 0.0000 24.9638 0.0000
# 2 46.9023 73.8444 47.2588 0.0000 10.7754 0.0000
# 3 42.4201 47.2588 100.3894 0.0000 25.5620 0.0000
# 4 0.0000 0.0000 0.0000 7.7113 0.0000 9.4316
# 5 24.9638 10.7754 25.5620 0.0000 22.5294 0.0000
# 6 0.0000 0.0000 0.0000 9.4316 0.0000 11.2505
#
#
#
# Elastic Compliance Matrix: (Units=1/GPa)
#
#
# Indices 1 2 3 4 5 6 
#
# 1 0.019288 -0.010504 0.001346 0.000000 -0.017875 0.000000
# 2 -0.010504 0.025138 -0.010262 0.000000 0.011259 0.000000
# 3 0.001346 -0.010262 0.018779 0.000000 -0.017890 0.000000
# 4 0.000000 0.000000 0.000000 -5.114651 0.000000 4.287758
# 5 -0.017875 0.011259 -0.017890 0.000000 0.079106 0.000000
# 6 0.000000 0.000000 0.000000 4.287758 0.000000 -3.505665
#
#
# Mechanical properties :
#
#
# Convention : Reuss Voigt Hill
#
# Bulk Modulus (GPa) = 41.04331 60.55107 50.79719
# Shear Modulus (GPa) = -0.59305 17.31265 8.35980
#
# Velocity S-wave (km/s) = -0.57495 3.10647 2.15865
# Velocity P-wave (km/s) = 4.73677 6.82776 5.87602
#
# Compressibility (1/GPa) = 0.02436451
#
# Stress axis : x y z
#
# Youngs Moduli (GPa) = 51.84633 39.78007 53.25178
#
# Poissons Ratio (x) = 0.41784 -0.07168
# Poissons Ratio (y) = 0.54458 0.54650
# Poissons Ratio (z) = -0.06979 0.40824
#
# Static dielectric constant tensor:
#      x y z
#    x 1.612280 0.000000 0.017990 
#    y 0.000000 1.608170 0.000000 
#    z 0.017990 0.000000 1.624840 
# 
# From -- ./inp_files/63571.got.cif
#   From: 2010.05.17/outbox.cif.g08.bks.cpg/sg10_32_cif.got.tgz:63571.got - 2010.06.03 11:33:40.
