data_PCOD9146412
_publ_section_title
;
Structure prediction by ZEFSAII (Michael W. Deem and Ramdas Pophale) SiO2 
 PCOD9146412
Probable space group: P 2/M
;
_chemical_formula_sum "Si O2"
_cell_formula_units_Z 28
_cell_length_a 19.091422
_cell_length_b 9.014728
_cell_length_c 13.835909
_cell_angle_alpha 90.000000
_cell_angle_beta 37.482162
_cell_angle_gamma 90.000000
_cell_volume 1449.003599
_symmetry_space_group_name_H-M "P 2/M"
_symmetry_group_IT_number 10
_symmetry_cell_setting 'monoclinic'
loop_
_space_group_symop_operation_xyz
x,y,z
-x,y,-z
-x,-y,-z
x,-y,z
loop_
_atom_site_type_symbol
_atom_site_label
_atom_site_fract_x
_atom_site_fract_y
_atom_site_fract_z
Si Si1 0.683559 0.677978 0.441953
Si Si2 0.072875 0.175334 0.823754
Si Si3 0.615441 0.821743 0.932005
Si Si4 0.324447 0.327509 0.763508
Si Si5 0.872713 0.175649 0.899225
Si Si6 0.127427 0.181101 0.322391
Si Si7 0.480697 0.327185 0.777981
O O1 0.671599 0.500000 0.458522
O O2 0.813772 0.728455 0.306058
O O3 0.644977 0.728418 0.376712
O O4 0.608001 0.732290 0.615119
O O5 0.995853 0.199723 0.813546
O O6 0.101633 0.000000 0.798640
O O7 0.000000 0.211261 0.000000
O O8 0.749038 0.773901 0.763815
O O9 0.615749 0.000000 0.925242
O O10 0.500000 0.769371 0.000000
O O11 0.588717 0.769141 0.070013
O O12 0.292118 0.500000 0.787350
O O13 0.423326 0.322045 0.735077
O O14 0.218767 0.244091 0.927644
O O15 0.865083 0.230638 0.797925
O O16 0.852076 0.000000 0.918607
O O17 0.000000 0.227830 0.500000
O O18 0.126197 0.000000 0.326647
O O19 0.480769 0.500000 0.809920
#
# Coordination Sequence:
#
# PCOD9146412 Si02
#       7
#     4   4   4   4   4   4   4
#     4  10  21  35  53  79 111 149 188 224 267 326
#     4  10  20  33  50  76 109 143 181 226 272 318
#     4  10  21  37  60  87 110 139 186 236 280 335
#     4  10  19  33  55  79 106 142 185 224 262 316
#     4  10  19  33  55  78 104 140 180 220 268 325
#     4   9  18  34  56  80 106 138 177 223 277 334
#     4  10  21  37  56  80 111 146 184 226 275 326
#
# _framework density 19.323623000000001
#
# number of rings (size 3 to 8) (size 9 to 14) (size 15 to 20)
#    0.000    2.143    2.857    0.429    0.000    4.571 
#    0.000    2.857    0.000    4.286    0.000    0.000 
#    0.000    0.000    0.000    0.000    0.000    0.000 
#
# Total GULP energy -155952.150288 kJ/mol
# GULP energy per Si atom -5569.719653 kJ/mol
# Density = 1.927964 g / cm^3
# Si number density = 19.323623 Si / 1000 Ang^3
#
#
#
# Elastic Constant Matrix: (Units=GPa)
#
#
# Indices 1 2 3 4 5 6 
#
# 1 22.0358 32.8043 35.3795 0.0000 3.5175 0.0000
# 2 32.8043 -23.6680 2.7277 0.0000 -13.4309 0.0000
# 3 35.3795 2.7277 116.7069 0.0000 -18.6565 0.0000
# 4 0.0000 0.0000 0.0000 18.4305 0.0000 -0.7251
# 5 3.5175 -13.4309 -18.6565 0.0000 14.6019 0.0000
# 6 0.0000 0.0000 0.0000 -0.7251 0.0000 19.0542
#
#
#
# Elastic Compliance Matrix: (Units=1/GPa)
#
#
# Indices 1 2 3 4 5 6 
#
# 1 0.019728 0.021776 -0.005086 0.000000 0.008779 0.000000
# 2 0.021776 -0.002098 -0.009675 0.000000 -0.019537 0.000000
# 3 -0.005086 -0.009675 0.011448 0.000000 0.006952 0.000000
# 4 0.000000 0.000000 0.000000 0.054339 0.000000 0.002068
# 5 0.008779 -0.019537 0.006952 0.000000 0.057282 0.000000
# 6 0.000000 0.000000 0.000000 0.002068 0.000000 0.052561
#
#
# Mechanical properties :
#
#
# Convention : Reuss Voigt Hill
#
# Bulk Modulus (GPa) = 23.19819 28.54418 25.87118
# Shear Modulus (GPa) = 25.82633 13.36152 19.59392
#
# Velocity S-wave (km/s) = 3.65981 2.63242 3.18777
# Velocity P-wave (km/s) = 5.46718 4.90339 5.19294
#
# Compressibility (1/GPa) = 0.04310682
#
# Stress axis : x y z
#
# Youngs Moduli (GPa) = 50.68885 -476.72962 87.35248
#
# Poissons Ratio (x) = 10.38119 0.44429
# Poissons Ratio (y) = -1.10379 0.84518
# Poissons Ratio (z) = 0.25781 -4.61259
#
# Static dielectric constant tensor:
#      x y z
#    x 1.732000 0.000000 -0.036170 
#    y 0.000000 1.646810 0.000000 
#    z -0.036170 0.000000 1.697660 
# 
# From -- ./inp_files/49155.got.cif
#   From: 2010.05.17/outbox.cif.g08.bks.cpg/sg10_25_cif.got.tgz:49155.got - 2010.06.03 11:33:40.
