data_PCOD9146233
_publ_section_title
;
Structure prediction by ZEFSAII (Michael W. Deem and Ramdas Pophale) SiO2 
 PCOD9146233
Probable space group: P 2/M
;
_chemical_formula_sum "Si O2"
_cell_formula_units_Z 24
_cell_length_a 6.905931
_cell_length_b 16.999498
_cell_length_c 11.535184
_cell_angle_alpha 90.000000
_cell_angle_beta 85.408057
_cell_angle_gamma 90.000000
_cell_volume 1349.853367
_symmetry_space_group_name_H-M "P 2/M"
_symmetry_group_IT_number 10
_symmetry_cell_setting 'monoclinic'
loop_
_space_group_symop_operation_xyz
x,y,z
-x,y,-z
-x,-y,-z
x,-y,z
loop_
_atom_site_type_symbol
_atom_site_label
_atom_site_fract_x
_atom_site_fract_y
_atom_site_fract_z
Si Si1 0.469995 0.093597 0.363734
Si Si2 0.738350 0.783040 0.239632
Si Si3 0.569155 0.332194 0.621269
Si Si4 0.438138 0.412651 0.153319
Si Si5 0.110800 0.199853 0.375883
Si Si6 0.225563 0.670169 0.967437
O O1 0.500000 0.113994 0.500000
O O2 0.633239 0.134953 0.276334
O O3 0.263307 0.131106 0.339577
O O4 0.473963 0.000000 0.353455
O O5 0.603112 0.721504 0.316475
O O6 0.744648 0.750608 0.107411
O O7 0.952852 0.784934 0.284004
O O8 0.500000 0.359051 0.500000
O O9 0.603686 0.400522 0.710966
O O10 0.757306 0.276459 0.606597
O O11 0.381635 0.500000 0.118497
O O12 0.664465 0.395925 0.114848
O O13 0.329972 0.343795 0.086166
O O14 0.000000 0.179374 0.500000
O O15 0.000000 0.657695 0.000000
#
# Coordination Sequence:
#
# PCOD9146233 Si02
#       6
#     4   4   4   4   4   4
#     4  10  20  32  49  81 119 148 174 213 269 326
#     4  10  19  33  53  78 106 140 182 224 265 310
#     4  10  19  33  53  79 111 143 177 217 261 324
#     4  10  22  37  55  81 109 139 175 221 278 326
#     4  11  17  30  52  77 107 144 182 216 256 309
#     4  10  20  36  57  78 100 134 183 234 265 303
#
# _framework density 17.779710000000001
#
# number of rings (size 3 to 8) (size 9 to 14) (size 15 to 20)
#    0.000    1.833    3.333    3.000    0.000    4.000 
#    0.000    0.000    0.000    1.000    0.000   26.833 
#    0.000    0.000    0.000    0.000    0.000    0.000 
#
# Total GULP energy -133704.627979 kJ/mol
# GULP energy per Si atom -5571.026166 kJ/mol
# Density = 1.773924 g / cm^3
# Si number density = 17.779710 Si / 1000 Ang^3
#
#
#
# Elastic Constant Matrix: (Units=GPa)
#
#
# Indices 1 2 3 4 5 6 
#
# 1 118.9909 32.3606 37.7875 0.0000 4.7442 0.0000
# 2 32.3606 71.8165 43.1631 0.0000 12.8414 0.0000
# 3 37.7875 43.1631 98.0972 0.0000 5.7100 0.0000
# 4 0.0000 0.0000 0.0000 23.9775 0.0000 0.9781
# 5 4.7442 12.8414 5.7100 0.0000 16.0315 0.0000
# 6 0.0000 0.0000 0.0000 0.9781 0.0000 6.3476
#
#
#
# Elastic Compliance Matrix: (Units=1/GPa)
#
#
# Indices 1 2 3 4 5 6 
#
# 1 0.010027 -0.003063 -0.002538 0.000000 0.000390 0.000000
# 2 -0.003063 0.022661 -0.007952 0.000000 -0.014413 0.000000
# 3 -0.002538 -0.007952 0.014558 0.000000 0.001936 0.000000
# 4 0.000000 0.000000 0.000000 0.041970 0.000000 -0.006467
# 5 0.000390 -0.014413 0.001936 0.000000 0.073117 0.000000
# 6 0.000000 0.000000 0.000000 -0.006467 0.000000 0.158536
#
#
# Mechanical properties :
#
#
# Convention : Reuss Voigt Hill
#
# Bulk Modulus (GPa) = 49.65020 57.28076 53.46548
# Shear Modulus (GPa) = 14.09692 20.97756 17.53724
#
# Velocity S-wave (km/s) = 2.81884 3.43863 3.14405
# Velocity P-wave (km/s) = 6.21131 6.93199 6.58152
#
# Compressibility (1/GPa) = 0.02014091
#
# Stress axis : x y z
#
# Youngs Moduli (GPa) = 99.72792 44.12850 68.69181
#
# Poissons Ratio (x) = 0.13516 0.17431
# Poissons Ratio (y) = 0.30545 0.54625
# Poissons Ratio (z) = 0.25307 0.35092
#
# Static dielectric constant tensor:
#      x y z
#    x 1.622720 0.000000 0.007200 
#    y 0.000000 1.609460 0.000000 
#    z 0.007200 0.000000 1.643550 
# 
# From -- ./inp_files/39386.got.cif
#   From: 2010.05.17/outbox.cif.g08.bks.cpg/sg10_20_cif.got.tgz:39386.got - 2010.06.03 11:33:40.
