data_PCOD9146332
_publ_section_title
;
Structure prediction by ZEFSAII (Michael W. Deem and Ramdas Pophale) SiO2 
 PCOD9146332
Probable space group: P 2/M
;
_chemical_formula_sum "Si O2"
_cell_formula_units_Z 28
_cell_length_a 9.507283
_cell_length_b 8.336180
_cell_length_c 25.786584
_cell_angle_alpha 90.000000
_cell_angle_beta 138.871779
_cell_angle_gamma 90.000000
_cell_volume 1344.236721
_symmetry_space_group_name_H-M "P 2/M"
_symmetry_group_IT_number 10
_symmetry_cell_setting 'monoclinic'
loop_
_space_group_symop_operation_xyz
x,y,z
-x,y,-z
-x,-y,-z
x,-y,z
loop_
_atom_site_type_symbol
_atom_site_label
_atom_site_fract_x
_atom_site_fract_y
_atom_site_fract_z
Si Si1 0.820659 0.687422 0.826767
Si Si2 0.689132 0.187635 0.680215
Si Si3 0.729229 0.695357 0.083215
Si Si4 0.914149 0.688107 0.420643
Si Si5 0.108769 0.311778 0.758084
Si Si6 0.659748 0.192530 0.497806
Si Si7 0.606290 0.184691 0.253633
O O1 0.819562 0.500000 0.839702
O O2 0.743719 0.709976 0.745869
O O3 0.643428 0.774032 0.811928
O O4 0.065118 0.748527 0.893332
O O5 0.471745 0.232334 0.590919
O O6 0.887367 0.214127 0.695818
O O7 0.680073 0.000000 0.692172
O O8 0.728878 0.500000 0.080602
O O9 0.774846 0.736768 0.155763
O O10 0.500000 0.753145 0.000000
O O11 0.863813 0.500000 0.411350
O O12 0.716009 0.776934 0.339521
O O13 0.000000 0.749160 0.500000
O O14 0.117611 0.715790 0.439748
O O15 0.055343 0.500000 0.746535
O O16 0.265374 0.283532 0.753725
O O17 0.500000 0.231758 0.500000
O O18 0.698714 0.000000 0.509624
O O19 0.637456 0.000000 0.250109
#
# Coordination Sequence:
#
# PCOD9146332 Si02
#       7
#     4   4   4   4   4   4   4
#     4  10  20  35  57  82 109 142 183 227 268 321
#     4  10  19  33  54  79 109 145 185 226 273 332
#     4   8  16  34  61  90 115 141 177 221 269 324
#     4  11  24  39  56  79 107 141 185 236 285 331
#     4  10  20  35  58  85 113 146 186 231 275 324
#     4  10  21  35  51  74 104 140 181 224 273 327
#     4  12  24  38  56  78 111 150 188 231 280 335
#
# _framework density 20.829666
#
# number of rings (size 3 to 8) (size 9 to 14) (size 15 to 20)
#    0.000    1.857    0.000    5.571    0.000    6.000 
#    0.000    0.714    0.000   19.714    0.000    0.000 
#    0.000    0.000    0.000    0.000    0.000    0.000 
#
# Total GULP energy -156482.664685 kJ/mol
# GULP energy per Si atom -5588.666596 kJ/mol
# Density = 2.078226 g / cm^3
# Si number density = 20.829666 Si / 1000 Ang^3
#
#
#
# Elastic Constant Matrix: (Units=GPa)
#
#
# Indices 1 2 3 4 5 6 
#
# 1 72.1749 -10.1658 13.8672 0.0000 18.7113 0.0000
# 2 -10.1658 29.7753 8.1017 0.0000 3.6165 0.0000
# 3 13.8672 8.1017 88.6105 0.0000 29.7378 0.0000
# 4 0.0000 0.0000 0.0000 129.4469 0.0000 -110.5521
# 5 18.7113 3.6165 29.7378 0.0000 30.8045 0.0000
# 6 0.0000 0.0000 0.0000 -110.5521 0.0000 123.2322
#
#
#
# Elastic Compliance Matrix: (Units=1/GPa)
#
#
# Indices 1 2 3 4 5 6 
#
# 1 0.018013 0.007479 0.000686 0.000000 -0.012482 0.000000
# 2 0.007479 0.037593 -0.002369 0.000000 -0.006669 0.000000
# 3 0.000686 -0.002369 0.016924 0.000000 -0.016477 0.000000
# 4 0.000000 0.000000 0.000000 0.033036 0.000000 0.029636
# 5 -0.012482 -0.006669 -0.016477 0.000000 0.056734 0.000000
# 6 0.000000 0.000000 0.000000 0.029636 0.000000 0.034702
#
#
# Mechanical properties :
#
#
# Convention : Reuss Voigt Hill
#
# Bulk Modulus (GPa) = 11.88750 23.79631 17.84191
# Shear Modulus (GPa) = 23.42467 68.61391 46.01929
#
# Velocity S-wave (km/s) = 3.35712 5.74561 4.70543
# Velocity P-wave (km/s) = 4.55482 7.44748 6.17298
#
# Compressibility (1/GPa) = 0.08412195
#
# Stress axis : x y z
#
# Youngs Moduli (GPa) = 55.51617 26.60059 59.08691
#
# Poissons Ratio (x) = -0.19895 -0.04054
# Poissons Ratio (y) = -0.41522 0.14000
# Poissons Ratio (z) = -0.03809 0.06303
#
# Static dielectric constant tensor:
#      x y z
#    x 1.788010 0.000000 0.001710 
#    y 0.000000 1.698170 0.000000 
#    z 0.001710 0.000000 1.738060 
# 
# From -- ./inp_files/91980.got.cif
#   From: 2010.05.17/outbox.cif.g08.bks.cpg/sg10_46_cif.got.tgz:91980.got - 2010.06.03 11:33:40.
