data_PCOD9146401
_publ_section_title
;
Structure prediction by ZEFSAII (Michael W. Deem and Ramdas Pophale) SiO2 
 PCOD9146401
Probable space group: P 2/M
;
_chemical_formula_sum "Si O2"
_cell_formula_units_Z 28
_cell_length_a 18.954912
_cell_length_b 9.731899
_cell_length_c 21.041214
_cell_angle_alpha 90.000000
_cell_angle_beta 21.538155
_cell_angle_gamma 90.000000
_cell_volume 1424.948202
_symmetry_space_group_name_H-M "P 2/M"
_symmetry_group_IT_number 10
_symmetry_cell_setting 'monoclinic'
loop_
_space_group_symop_operation_xyz
x,y,z
-x,y,-z
-x,-y,-z
x,-y,z
loop_
_atom_site_type_symbol
_atom_site_label
_atom_site_fract_x
_atom_site_fract_y
_atom_site_fract_z
Si Si1 0.195541 0.335893 0.643397
Si Si2 0.711823 0.853186 0.848992
Si Si3 0.978899 0.153913 0.729301
Si Si4 0.227018 0.349806 0.305024
Si Si5 0.448022 0.665411 0.745058
Si Si6 0.021370 0.333441 0.053855
Si Si7 0.331174 0.162081 0.335770
O O1 0.174748 0.500000 0.658063
O O2 0.402027 0.304545 0.438545
O O3 0.146253 0.291411 0.756495
O O4 0.036344 0.265529 0.732244
O O5 0.767512 0.838523 0.875805
O O6 0.759880 0.711448 0.775881
O O7 0.810669 0.000000 0.747031
O O8 0.500000 0.869611 0.000000
O O9 0.129264 0.170355 0.544496
O O10 0.007460 0.000000 0.731357
O O11 0.316807 0.500000 0.238282
O O12 0.303241 0.240836 0.292689
O O13 0.000000 0.361577 0.500000
O O14 0.460272 0.500000 0.747800
O O15 0.519707 0.755511 0.744510
O O16 0.231225 0.699466 0.906356
O O17 0.013683 0.500000 0.057001
O O18 0.000000 0.280841 0.000000
O O19 0.375936 0.000000 0.290180
#
# Coordination Sequence:
#
# PCOD9146401 Si02
#       7
#     4   4   4   4   4   4   4
#     4   9  18  32  53  78 103 137 175 215 264 314
#     4  10  21  36  52  73 103 139 181 225 272 327
#     4   9  18  33  52  73 100 136 174 216 264 316
#     4  11  22  34  52  77 105 139 179 225 274 320
#     4   9  18  33  53  79 109 138 178 225 265 318
#     4   9  18  33  54  82 113 141 172 214 265 320
#     4  10  19  33  55  77 102 140 182 223 267 320
#
# _framework density 19.649837000000002
#
# number of rings (size 3 to 8) (size 9 to 14) (size 15 to 20)
#    0.000    2.429    1.429    0.857    0.000    3.714 
#    0.000    6.429    0.000    1.714    0.000    4.000 
#    0.000    0.000    0.000    0.000    0.000    0.000 
#
# Total GULP energy -155901.998017 kJ/mol
# GULP energy per Si atom -5567.928501 kJ/mol
# Density = 1.960511 g / cm^3
# Si number density = 19.649837 Si / 1000 Ang^3
#
#
#
# Elastic Constant Matrix: (Units=GPa)
#
#
# Indices 1 2 3 4 5 6 
#
# 1 64.6072 27.1694 4.7287 0.0000 7.3280 0.0000
# 2 27.1694 68.9175 13.6733 0.0000 5.7445 0.0000
# 3 4.7287 13.6733 29.6729 0.0000 -2.1720 0.0000
# 4 0.0000 0.0000 0.0000 12.5178 0.0000 -13.7805
# 5 7.3280 5.7445 -2.1720 0.0000 26.3137 0.0000
# 6 0.0000 0.0000 0.0000 -13.7805 0.0000 16.1196
#
#
#
# Elastic Compliance Matrix: (Units=1/GPa)
#
#
# Indices 1 2 3 4 5 6 
#
# 1 0.018902 -0.007145 0.000009 0.000000 -0.003703 0.000000
# 2 -0.007145 0.019127 -0.007883 0.000000 -0.002837 0.000000
# 3 0.000009 -0.007883 0.037685 0.000000 0.004829 0.000000
# 4 0.000000 0.000000 0.000000 1.356975 0.000000 1.160068
# 5 -0.003703 -0.002837 0.004829 0.000000 0.040052 0.000000
# 6 0.000000 0.000000 0.000000 1.160068 0.000000 1.053770
#
#
# Mechanical properties :
#
#
# Convention : Reuss Voigt Hill
#
# Bulk Modulus (GPa) = 21.89277 28.26004 25.07641
# Shear Modulus (GPa) = 1.94418 18.83198 10.38808
#
# Velocity S-wave (km/s) = 0.99577 3.09913 2.30176
# Velocity P-wave (km/s) = 3.53380 5.21720 4.45572
#
# Compressibility (1/GPa) = 0.04567717
#
# Stress axis : x y z
#
# Youngs Moduli (GPa) = 52.90377 52.28145 26.53564
#
# Poissons Ratio (x) = 0.37355 -0.00024
# Poissons Ratio (y) = 0.37799 0.20918
# Poissons Ratio (z) = -0.00048 0.41213
#
# Static dielectric constant tensor:
#      x y z
#    x 1.669460 0.000000 0.014630 
#    y 0.000000 1.742960 0.000000 
#    z 0.014630 0.000000 1.740210 
# 
# From -- ./inp_files/37311.got.cif
#   From: 2010.05.17/outbox.cif.g08.bks.cpg/sg10_19_cif.got.tgz:37311.got - 2010.06.03 11:33:40.
