data_PCOD9146571
_publ_section_title
;
Structure prediction by ZEFSAII (Michael W. Deem and Ramdas Pophale) SiO2 
 PCOD9146571
Probable space group: P 2/M
;
_chemical_formula_sum "Si O2"
_cell_formula_units_Z 24
_cell_length_a 20.772700
_cell_length_b 7.829533
_cell_length_c 9.386547
_cell_angle_alpha 90.000000
_cell_angle_beta 120.625096
_cell_angle_gamma 90.000000
_cell_volume 1313.696736
_symmetry_space_group_name_H-M "P 2/M"
_symmetry_group_IT_number 10
_symmetry_cell_setting 'monoclinic'
loop_
_space_group_symop_operation_xyz
x,y,z
-x,y,-z
-x,-y,-z
x,-y,z
loop_
_atom_site_type_symbol
_atom_site_label
_atom_site_fract_x
_atom_site_fract_y
_atom_site_fract_z
Si Si1 0.993178 0.293958 0.653925
Si Si2 0.430407 0.500000 0.219390
Si Si3 0.076803 0.797332 0.012864
Si Si4 0.324194 0.806893 0.599719
Si Si5 0.840193 0.699724 0.632267
Si Si6 0.394130 0.500000 0.502751
Si Si7 0.580461 0.199391 0.014316
O O1 0.991176 0.500000 0.651988
O O2 0.915016 0.234749 0.636852
O O3 0.000000 0.233835 0.500000
O O4 0.062570 0.241054 0.831887
O O5 0.391074 0.500000 0.328528
O O6 0.519286 0.500000 0.351451
O O7 0.412302 0.332784 0.105314
O O8 0.081032 0.000000 0.037148
O O9 0.143075 0.718397 0.180017
O O10 0.000000 0.731450 0.000000
O O11 0.234795 0.793885 0.496404
O O12 0.355775 0.666779 0.526959
O O13 0.357870 0.770221 0.793835
O O14 0.348018 0.000000 0.589192
O O15 0.831077 0.500000 0.588150
O O16 0.584079 0.000000 0.973759
O O17 0.500000 0.226081 0.000000
#
# Coordination Sequence:
#
# PCOD9146571 Si02
#       7
#     4   2   4   4   4   2   4
#     4   9  18  33  53  79 108 141 182 230 282 334
#     4  11  22  37  62  85 120 148 190 246 283 349
#     4   9  17  30  49  74 103 137 179 223 268 325
#     4  11  22  38  60  85 117 151 196 242 283 344
#     4  10  19  33  56  80 106 144 189 233 278 334
#     4  11  23  38  57  90 115 153 190 233 302 337
#     4  10  20  36  60  88 115 154 196 235 282 338
#
# _framework density 18.269057
#
# number of rings (size 3 to 8) (size 9 to 14) (size 15 to 20)
#    0.000    2.000    2.500    1.750    0.000    3.667 
#    0.000    3.333    0.000    2.000    0.000    0.000 
#    0.000    0.000    0.000    0.000    0.000    0.000 
#
# Total GULP energy -133892.701036 kJ/mol
# GULP energy per Si atom -5578.862543 kJ/mol
# Density = 1.822748 g / cm^3
# Si number density = 18.269057 Si / 1000 Ang^3
#
#
#
# Elastic Constant Matrix: (Units=GPa)
#
#
# Indices 1 2 3 4 5 6 
#
# 1 53.6985 32.8754 54.0304 0.0000 -3.2005 0.0000
# 2 32.8754 100.4471 53.2645 0.0000 -19.2975 0.0000
# 3 54.0304 53.2645 154.5794 0.0000 -4.4547 0.0000
# 4 0.0000 0.0000 0.0000 5491.9621 0.0000-1841.1044
# 5 -3.2005 -19.2975 -4.4547 0.0000 35.4740 0.0000
# 6 0.0000 0.0000 0.0000-1841.1044 0.0000 634.1084
#
#
#
# Elastic Compliance Matrix: (Units=1/GPa)
#
#
# Indices 1 2 3 4 5 6 
#
# 1 0.030988 -0.005689 -0.008912 0.000000 -0.001418 0.000000
# 2 -0.005689 0.014712 -0.002875 0.000000 0.007129 0.000000
# 3 -0.008912 -0.002875 0.010545 0.000000 -0.001044 0.000000
# 4 0.000000 0.000000 0.000000 0.006831 0.000000 0.019832
# 5 -0.001418 0.007129 -0.001044 0.000000 0.031809 0.000000
# 6 0.000000 0.000000 0.000000 0.019832 0.000000 0.059159
#
#
# Mechanical properties :
#
#
# Convention : Reuss Voigt Hill
#
# Bulk Modulus (GPa) = 46.96556 65.45171 56.20864
# Shear Modulus (GPa) = 25.49824 1243.54587 634.52206
#
# Velocity S-wave (km/s) = 3.73997 26.11823 18.65676
# Velocity P-wave (km/s) = 6.66433 30.74823 22.24710
#
# Compressibility (1/GPa) = 0.02129220
#
# Stress axis : x y z
#
# Youngs Moduli (GPa) = 32.27089 67.97326 94.83268
#
# Poissons Ratio (x) = 0.38668 0.84514
# Poissons Ratio (y) = 0.18358 0.27269
# Poissons Ratio (z) = 0.28759 0.19546
#
# Static dielectric constant tensor:
#      x y z
#    x 1.619090 0.000000 0.001400 
#    y 0.000000 1.636480 0.000000 
#    z 0.001400 0.000000 1.636610 
# 
# From -- ./inp_files/33529.got.cif
#   From: 2010.05.17/outbox.cif.g08.bks.cpg/sg10_17_cif.got.tgz:33529.got - 2010.06.03 11:33:40.
