data_PCOD9146236
_publ_section_title
;
Structure prediction by ZEFSAII (Michael W. Deem and Ramdas Pophale) SiO2 
 PCOD9146236
Probable space group: P 2/M
;
_chemical_formula_sum "Si O2"
_cell_formula_units_Z 28
_cell_length_a 14.971759
_cell_length_b 7.685178
_cell_length_c 11.541981
_cell_angle_alpha 90.000000
_cell_angle_beta 59.560286
_cell_angle_gamma 90.000000
_cell_volume 1144.975908
_symmetry_space_group_name_H-M "P 2/M"
_symmetry_group_IT_number 10
_symmetry_cell_setting 'monoclinic'
loop_
_space_group_symop_operation_xyz
x,y,z
-x,y,-z
-x,-y,-z
x,-y,z
loop_
_atom_site_type_symbol
_atom_site_label
_atom_site_fract_x
_atom_site_fract_y
_atom_site_fract_z
Si Si1 0.022584 0.290596 0.620037
Si Si2 0.715071 0.212581 0.178266
Si Si3 0.753868 0.291384 0.571947
Si Si4 0.387462 0.791486 0.535736
Si Si5 0.462947 0.196965 0.857660
Si Si6 0.338558 0.303816 0.145404
Si Si7 0.929602 0.209269 0.935036
O O1 0.016504 0.500000 0.618516
O O2 0.141731 0.230301 0.557186
O O3 0.000000 0.232901 0.500000
O O4 0.962930 0.247412 0.779827
O O5 0.705483 0.266707 0.317864
O O6 0.602924 0.267746 0.204180
O O7 0.715854 0.000000 0.171370
O O8 0.813964 0.274422 0.042520
O O9 0.758739 0.500000 0.578326
O O10 0.652310 0.248104 0.565645
O O11 0.744846 0.229412 0.710804
O O12 0.500000 0.723782 0.500000
O O13 0.393516 0.000000 0.541430
O O14 0.555710 0.307012 0.848136
O O15 0.499467 0.000000 0.812825
O O16 0.372968 0.192038 0.014823
O O17 0.311990 0.500000 0.126570
O O18 0.929273 0.000000 0.942312
O O19 0.000000 0.268534 0.000000
#
# Coordination Sequence:
#
# PCOD9146236 Si02
#       7
#     4   4   4   4   4   4   4
#     4  10  23  42  62  86 119 159 206 259 308 359
#     4   9  19  34  54  82 114 143 181 232 282 335
#     4  10  22  38  56  80 114 151 189 236 291 344
#     4  10  20  36  60  88 117 153 193 233 285 350
#     4  10  19  33  53  78 108 141 180 223 269 326
#     4  10  20  34  52  76 109 143 178 220 273 333
#     4  10  21  39  62  87 118 155 197 250 307 360
#
# _framework density 24.454666
#
# number of rings (size 3 to 8) (size 9 to 14) (size 15 to 20)
#    0.000    2.143    0.000    3.429    2.000    4.857 
#    0.000    2.857    0.000    0.000    0.000    0.000 
#    0.000    0.000    0.000    0.000    0.000    0.000 
#
# Total GULP energy -156173.650034 kJ/mol
# GULP energy per Si atom -5577.630358 kJ/mol
# Density = 2.439901 g / cm^3
# Si number density = 24.454666 Si / 1000 Ang^3
#
#
#
# Elastic Constant Matrix: (Units=GPa)
#
#
# Indices 1 2 3 4 5 6 
#
# 1 79.9129 0.1811 23.3696 0.0000 13.6958 0.0000
# 2 0.1811 49.2942 6.4178 0.0000 -0.7112 0.0000
# 3 23.3696 6.4178 190.1439 0.0000 3.7481 0.0000
# 4 0.0000 0.0000 0.0000 21.4981 0.0000 0.7483
# 5 13.6958 -0.7112 3.7481 0.0000 34.5183 0.0000
# 6 0.0000 0.0000 0.0000 0.7483 0.0000 9.7299
#
#
#
# Elastic Compliance Matrix: (Units=1/GPa)
#
#
# Indices 1 2 3 4 5 6 
#
# 1 0.013898 0.000081 -0.001606 0.000000 -0.005338 0.000000
# 2 0.000081 0.020385 -0.000707 0.000000 0.000465 0.000000
# 3 -0.001606 -0.000707 0.005480 0.000000 0.000027 0.000000
# 4 0.000000 0.000000 0.000000 0.046641 0.000000 -0.003587
# 5 -0.005338 0.000465 0.000027 0.000000 0.031095 0.000000
# 6 0.000000 0.000000 0.000000 -0.003587 0.000000 0.103052
#
#
# Mechanical properties :
#
#
# Convention : Reuss Voigt Hill
#
# Bulk Modulus (GPa) = 28.32947 42.14313 35.23630
# Shear Modulus (GPa) = 21.11662 32.44141 26.77901
#
# Velocity S-wave (km/s) = 2.94173 3.64619 3.31274
# Velocity P-wave (km/s) = 4.81123 5.91582 5.39189
#
# Compressibility (1/GPa) = 0.03529893
#
# Stress axis : x y z
#
# Youngs Moduli (GPa) = 71.95341 49.05606 182.48708
#
# Poissons Ratio (x) = -0.00397 0.29301
# Poissons Ratio (y) = -0.00583 0.12905
# Poissons Ratio (z) = 0.11553 0.03469
#
# Static dielectric constant tensor:
#      x y z
#    x 1.957230 0.000000 -0.004930 
#    y 0.000000 1.893400 0.000000 
#    z -0.004930 0.000000 2.021670 
# 
# From -- ./inp_files/49534.got.cif
#   From: 2010.05.17/outbox.cif.g08.bks.cpg/sg10_25_cif.got.tgz:49534.got - 2010.06.03 11:33:40.
