data_PCOD9146775
_publ_section_title
;
Structure prediction by ZEFSAII (Michael W. Deem and Ramdas Pophale) SiO2 
 PCOD9146775
Probable space group: P 2/M
;
_chemical_formula_sum "Si O2"
_cell_formula_units_Z 32
_cell_length_a 12.198969
_cell_length_b 9.097190
_cell_length_c 25.839345
_cell_angle_alpha 90.000000
_cell_angle_beta 45.600889
_cell_angle_gamma 90.000000
_cell_volume 2048.821481
_symmetry_space_group_name_H-M "P 2/M"
_symmetry_group_IT_number 10
_symmetry_cell_setting 'monoclinic'
loop_
_space_group_symop_operation_xyz
x,y,z
-x,y,-z
-x,-y,-z
x,-y,z
loop_
_atom_site_type_symbol
_atom_site_label
_atom_site_fract_x
_atom_site_fract_y
_atom_site_fract_z
Si Si1 0.039803 0.327408 0.926224
Si Si2 0.407800 0.324524 0.581933
Si Si3 0.493890 0.676550 0.128021
Si Si4 0.398740 0.675704 0.793870
Si Si5 0.754257 0.824808 0.971957
Si Si6 0.587365 0.172275 0.316092
Si Si7 0.225622 0.823281 0.154527
Si Si8 0.872177 0.173295 0.285309
O O1 0.017315 0.500000 0.920240
O O2 0.922965 0.229202 0.932425
O O3 0.217866 0.290680 0.859973
O O4 0.000000 0.311100 0.000000
O O5 0.500000 0.283892 0.500000
O O6 0.406822 0.500000 0.587368
O O7 0.477029 0.251780 0.611242
O O8 0.233129 0.263493 0.639906
O O9 0.498394 0.500000 0.122960
O O10 0.519075 0.717411 0.179766
O O11 0.338005 0.740587 0.156093
O O12 0.632354 0.743096 0.048417
O O13 0.412666 0.500000 0.782817
O O14 0.456108 0.755364 0.723438
O O15 0.728870 0.790979 0.919849
O O16 0.740566 0.000000 0.983250
O O17 0.771915 0.190114 0.265679
O O18 0.552981 0.000000 0.328235
O O19 0.047419 0.781801 0.221536
O O20 0.238390 0.000000 0.157166
O O21 0.867532 0.000000 0.299745
#
# Coordination Sequence:
#
# PCOD9146775 Si02
#       8
#     4   4   4   4   4   4   4   4
#     4  10  19  34  51  68  94 125 161 207 257 304
#     4   9  17  30  50  79 111 136 160 190 231 287
#     4  11  23  37  50  68  93 129 175 215 254 298
#     4  10  20  34  49  67  96 128 162 207 251 294
#     4  11  22  35  51  71  95 126 167 215 261 303
#     4   9  18  31  50  75 102 130 160 192 236 293
#     4  10  21  37  51  69  97 128 166 213 255 291
#     4   8  17  32  50  74 103 131 162 198 241 292
#
# _framework density 15.618736
#
# number of rings (size 3 to 8) (size 9 to 14) (size 15 to 20)
#    0.750    1.500    1.250    2.250    0.000    6.750 
#    0.000    0.000    0.000    0.000    0.000    0.875 
#    0.000    7.000    0.000    0.000    0.000    0.000 
#
# Total GULP energy -178277.924634 kJ/mol
# GULP energy per Si atom -5571.185145 kJ/mol
# Density = 1.558319 g / cm^3
# Si number density = 15.618736 Si / 1000 Ang^3
#
#
#
# Elastic Constant Matrix: (Units=GPa)
#
#
# Indices 1 2 3 4 5 6 
#
# 1 103.3660 51.1902 50.4679 0.0000 19.1594 0.0000
# 2 51.1902 46.8363 45.5405 0.0000 16.1750 0.0000
# 3 50.4679 45.5405 91.9281 0.0000 29.4834 0.0000
# 4 0.0000 0.0000 0.0000 17.7952 0.0000 -5.4177
# 5 19.1594 16.1750 29.4834 0.0000 18.6456 0.0000
# 6 0.0000 0.0000 0.0000 -5.4177 0.0000 18.0376
#
#
#
# Elastic Compliance Matrix: (Units=1/GPa)
#
#
# Indices 1 2 3 4 5 6 
#
# 1 0.021174 -0.022650 0.000553 0.000000 -0.002983 0.000000
# 2 -0.022650 0.065882 -0.018945 0.000000 -0.003921 0.000000
# 3 0.000553 -0.018945 0.030173 0.000000 -0.031845 0.000000
# 4 0.000000 0.000000 0.000000 0.061851 0.000000 0.018577
# 5 -0.002983 -0.003921 -0.031845 0.000000 0.110453 0.000000
# 6 0.000000 0.000000 0.000000 0.018577 0.000000 0.061020
#
#
# Mechanical properties :
#
#
# Convention : Reuss Voigt Hill
#
# Bulk Modulus (GPa) = 28.45378 59.61418 44.03398
# Shear Modulus (GPa) = 11.25232 17.22446 14.23839
#
# Velocity S-wave (km/s) = 2.68701 3.32446 3.02258
# Velocity P-wave (km/s) = 5.28053 7.27924 6.35890
#
# Compressibility (1/GPa) = 0.03514471
#
# Stress axis : x y z
#
# Youngs Moduli (GPa) = 47.22669 15.17871 33.14214
#
# Poissons Ratio (x) = 0.34380 -0.01832
# Poissons Ratio (y) = 1.06969 0.62788
# Poissons Ratio (z) = -0.02611 0.28756
#
# Static dielectric constant tensor:
#      x y z
#    x 1.515210 0.000000 0.001800 
#    y 0.000000 1.519340 0.000000 
#    z 0.001800 0.000000 1.510120 
# 
# From -- ./inp_files/92449.got.cif
#   From: 2010.05.17/outbox.cif.g08.bks.cpg/sg10_47_cif.got.tgz:92449.got - 2010.06.03 11:33:40.
