data_PCOD9146047
_publ_section_title
;
Structure prediction by ZEFSAII (Michael W. Deem and Ramdas Pophale) SiO2 
 PCOD9146047
Probable space group: P 2/M
;
_chemical_formula_sum "Si O2"
_cell_formula_units_Z 24
_cell_length_a 16.447450
_cell_length_b 9.996375
_cell_length_c 23.757123
_cell_angle_alpha 90.000000
_cell_angle_beta 162.585284
_cell_angle_gamma 90.000000
_cell_volume 1169.017942
_symmetry_space_group_name_H-M "P 2/M"
_symmetry_group_IT_number 10
_symmetry_cell_setting 'monoclinic'
loop_
_space_group_symop_operation_xyz
x,y,z
-x,y,-z
-x,-y,-z
x,-y,z
loop_
_atom_site_type_symbol
_atom_site_label
_atom_site_fract_x
_atom_site_fract_y
_atom_site_fract_z
Si Si1 0.766641 0.159370 0.709978
Si Si2 0.348878 0.154136 0.668408
Si Si3 0.320821 0.250237 0.018899
Si Si4 0.242321 0.146209 0.770216
Si Si5 0.058643 0.650788 0.740570
Si Si6 0.549881 0.157816 0.394056
O O1 0.500000 0.208468 0.500000
O O2 0.707567 0.187942 0.736641
O O3 0.773875 0.000000 0.708339
O O4 0.045846 0.209135 0.868633
O O5 0.464773 0.261710 0.788522
O O6 0.476507 0.172786 0.690461
O O7 0.025100 0.160085 0.445586
O O8 0.415049 0.000000 0.729885
O O9 0.486494 0.150638 0.087187
O O10 0.223574 0.354769 0.907863
O O11 0.217936 0.266997 0.797795
O O12 0.216471 0.000000 0.781054
O O13 0.993357 0.500000 0.679307
O O14 0.792847 0.743991 0.572900
O O15 0.620068 0.000000 0.450382
#
# Coordination Sequence:
#
# PCOD9146047 Si02
#       6
#     4   4   4   4   4   4
#     4  10  19  32  56  90 123 152 193 243 288 345
#     4   9  19  35  58  89 122 154 193 241 292 352
#     4  12  22  34  57  88 124 159 193 238 298 349
#     4  10  22  39  61  89 120 155 197 243 296 356
#     4  11  24  41  61  86 119 157 202 249 296 350
#     4   9  19  39  62  88 122 156 196 242 293 350
#
# _framework density 20.530052000000001
#
# number of rings (size 3 to 8) (size 9 to 14) (size 15 to 20)
#    0.000    1.833    1.667    4.000    0.000    7.333 
#    0.000    7.500    0.000    5.000    0.000    5.833 
#    0.000    0.000    0.000    0.000    0.000    0.000 
#
# Total GULP energy -133717.463790 kJ/mol
# GULP energy per Si atom -5571.560991 kJ/mol
# Density = 2.048332 g / cm^3
# Si number density = 20.530052 Si / 1000 Ang^3
#
#
#
# Elastic Constant Matrix: (Units=GPa)
#
#
# Indices 1 2 3 4 5 6 
#
# 1 109.7226 49.4839 42.1711 0.0000 18.8215 0.0000
# 2 49.4839 98.0258 30.0658 0.0000 -2.6971 0.0000
# 3 42.1711 30.0658 86.3438 0.0000 8.8089 0.0000
# 4 0.0000 0.0000 0.0000 -2.0373 0.0000 -19.0432
# 5 18.8215 -2.6971 8.8089 0.0000 54.6195 0.0000
# 6 0.0000 0.0000 0.0000 -19.0432 0.0000 -25.0229
#
#
#
# Elastic Compliance Matrix: (Units=1/GPa)
#
#
# Indices 1 2 3 4 5 6 
#
# 1 0.014286 -0.005975 -0.004438 0.000000 -0.004502 0.000000
# 2 -0.005975 0.014001 -0.002275 0.000000 0.003117 0.000000
# 3 -0.004438 -0.002275 0.014638 0.000000 -0.000944 0.000000
# 4 0.000000 0.000000 0.000000 0.080288 0.000000 -0.061102
# 5 -0.004502 0.003117 -0.000944 0.000000 0.020166 0.000000
# 6 0.000000 0.000000 0.000000 -0.061102 0.000000 0.006537
#
#
# Mechanical properties :
#
#
# Convention : Reuss Voigt Hill
#
# Bulk Modulus (GPa) = 56.98120 59.72596 58.35358
# Shear Modulus (GPa) = 27.60279 17.00329 22.30304
#
# Velocity S-wave (km/s) = 3.67073 2.88099 3.29957
# Velocity P-wave (km/s) = 6.76616 6.34208 6.55755
#
# Compressibility (1/GPa) = 0.01754965
#
# Stress axis : x y z
#
# Youngs Moduli (GPa) = 69.99711 71.42351 68.31695
#
# Poissons Ratio (x) = 0.42672 0.30318
# Poissons Ratio (y) = 0.41820 0.15544
# Poissons Ratio (z) = 0.31064 0.16251
#
# Static dielectric constant tensor:
#      x y z
#    x 1.790600 0.000000 -0.023220 
#    y 0.000000 1.728240 0.000000 
#    z -0.023220 0.000000 1.780320 
# 
# From -- ./inp_files/93384.got.cif
#   From: 2010.05.17/outbox.cif.g08.bks.cpg/sg10_47_cif.got.tgz:93384.got - 2010.06.03 11:33:40.
