data_PCOD9146316
_publ_section_title
;
Structure prediction by ZEFSAII (Michael W. Deem and Ramdas Pophale) SiO2 
 PCOD9146316
Probable space group: P 2/M
;
_chemical_formula_sum "Si O2"
_cell_formula_units_Z 32
_cell_length_a 24.361354
_cell_length_b 7.728245
_cell_length_c 25.712426
_cell_angle_alpha 90.000000
_cell_angle_beta 161.976604
_cell_angle_gamma 90.000000
_cell_volume 1497.797621
_symmetry_space_group_name_H-M "P 2/M"
_symmetry_group_IT_number 10
_symmetry_cell_setting 'monoclinic'
loop_
_space_group_symop_operation_xyz
x,y,z
-x,y,-z
-x,-y,-z
x,-y,z
loop_
_atom_site_type_symbol
_atom_site_label
_atom_site_fract_x
_atom_site_fract_y
_atom_site_fract_z
Si Si1 0.570560 0.206010 0.315975
Si Si2 0.444165 0.711922 0.507195
Si Si3 0.685470 0.290967 0.820026
Si Si4 0.944432 0.288350 0.806354
Si Si5 0.039109 0.299209 0.297205
Si Si6 0.095510 0.699852 0.535194
Si Si7 0.829245 0.197978 0.207196
Si Si8 0.519031 0.202827 0.153797
O O1 0.422986 0.239325 0.226326
O O2 0.516806 0.274158 0.210570
O O3 0.755474 0.287446 0.500952
O O4 0.601489 0.000000 0.339493
O O5 0.500000 0.767280 0.500000
O O6 0.444401 0.500000 0.507685
O O7 0.581243 0.769842 0.675127
O O8 0.246224 0.767951 0.344420
O O9 0.686172 0.500000 0.818923
O O10 0.888256 0.233204 0.008592
O O11 0.940771 0.500000 0.802050
O O12 0.974077 0.232287 0.773486
O O13 0.983849 0.500000 0.247995
O O14 0.922594 0.203188 0.234914
O O15 0.137467 0.500000 0.584127
O O16 0.282121 0.783241 0.688150
O O17 0.000000 0.775207 0.500000
O O18 0.958976 0.709414 0.364317
O O19 0.817499 0.000000 0.215336
O O20 0.633425 0.274713 0.021326
O O21 0.473012 0.000000 0.116797
#
# Coordination Sequence:
#
# PCOD9146316 Si02
#       8
#     4   4   4   4   4   4   4   4
#     4  11  21  35  57  85 115 148 186 228 280 342
#     4   9  17  30  49  76 109 142 182 232 280 328
#     4  10  19  33  54  78 109 145 180 228 283 335
#     4   9  18  31  50  80 111 141 182 226 278 338
#     4  11  20  34  57  85 117 150 184 229 285 342
#     4  11  25  43  63  88 118 155 199 244 287 335
#     4  11  23  40  62  90 121 153 193 237 288 347
#     4  10  23  41  62  88 119 155 193 237 288 347
#
# _framework density 21.364702000000001
#
# number of rings (size 3 to 8) (size 9 to 14) (size 15 to 20)
#    0.000    1.750    2.500    2.250    0.000    3.500 
#    0.000    5.625    0.000    0.375    0.000    0.875 
#    0.000    0.000    0.000    0.000    0.000    0.000 
#
# Total GULP energy -178839.364310 kJ/mol
# GULP energy per Si atom -5588.730135 kJ/mol
# Density = 2.131608 g / cm^3
# Si number density = 21.364702 Si / 1000 Ang^3
#
#
#
# Elastic Constant Matrix: (Units=GPa)
#
#
# Indices 1 2 3 4 5 6 
#
# 1 133.3583 -6.5848 65.3762 0.0000 -3.9857 0.0000
# 2 -6.5848 37.3946 -5.5130 0.0000 -1.5594 0.0000
# 3 65.3762 -5.5130 169.0771 0.0000 9.9292 0.0000
# 4 0.0000 0.0000 0.0000 15.5073 0.0000 69.2254
# 5 -3.9857 -1.5594 9.9292 0.0000 -2.3724 0.0000
# 6 0.0000 0.0000 0.0000 69.2254 0.0000 250.4325
#
#
#
# Elastic Compliance Matrix: (Units=1/GPa)
#
#
# Indices 1 2 3 4 5 6 
#
# 1 0.007766 0.000243 -0.001782 0.000000 -0.020664 0.000000
# 2 0.000243 0.026511 0.001459 0.000000 -0.011728 0.000000
# 3 -0.001782 0.001459 0.005243 0.000000 0.023977 0.000000
# 4 0.000000 0.000000 0.000000 -0.275619 0.000000 0.076187
# 5 -0.020664 -0.011728 0.023977 0.000000 -0.278736 0.000000
# 6 0.000000 0.000000 0.000000 0.076187 0.000000 -0.017067
#
#
# Mechanical properties :
#
#
# Convention : Reuss Voigt Hill
#
# Bulk Modulus (GPa) = 25.40555 49.59852 37.50204
# Shear Modulus (GPa) = -9.64091 71.81692 31.08801
#
# Velocity S-wave (km/s) = -2.12658 5.80411 3.81873
# Velocity P-wave (km/s) = 2.42640 8.25727 6.08564
#
# Compressibility (1/GPa) = 0.03936147
#
# Stress axis : x y z
#
# Youngs Moduli (GPa) = 128.75985 37.72059 190.73591
#
# Poissons Ratio (x) = -0.00917 0.33981
# Poissons Ratio (y) = -0.03131 -0.27831
# Poissons Ratio (z) = 0.22939 -0.05504
#
# Static dielectric constant tensor:
#      x y z
#    x 1.733890 0.000000 -0.010130 
#    y 0.000000 2.820190 0.000000 
#    z -0.010130 0.000000 1.766270 
# 
# From -- ./inp_files/90640.got.cif
#   From: 2010.05.17/outbox.cif.g08.bks.cpg/sg10_46_cif.got.tgz:90640.got - 2010.06.03 11:33:40.
