data_PCOD9146189
_publ_section_title
;
Structure prediction by ZEFSAII (Michael W. Deem and Ramdas Pophale) SiO2 
 PCOD9146189
Probable space group: P 2/M
;
_chemical_formula_sum "Si O2"
_cell_formula_units_Z 32
_cell_length_a 21.983405
_cell_length_b 13.949252
_cell_length_c 16.853895
_cell_angle_alpha 90.000000
_cell_angle_beta 20.766478
_cell_angle_gamma 90.000000
_cell_volume 1832.465722
_symmetry_space_group_name_H-M "P 2/M"
_symmetry_group_IT_number 10
_symmetry_cell_setting 'monoclinic'
loop_
_space_group_symop_operation_xyz
x,y,z
-x,y,-z
-x,-y,-z
x,-y,z
loop_
_atom_site_type_symbol
_atom_site_label
_atom_site_fract_x
_atom_site_fract_y
_atom_site_fract_z
Si Si1 0.016127 0.768153 0.293108
Si Si2 0.167078 0.109525 0.354182
Si Si3 0.462254 0.607443 0.960358
Si Si4 0.338880 0.773684 0.016014
Si Si5 0.974846 0.111775 0.873245
Si Si6 0.347106 0.112685 0.622576
Si Si7 0.689030 0.221157 0.491112
Si Si8 0.822359 0.389969 0.429353
O O1 0.872589 0.820307 0.523474
O O2 0.064260 0.833702 0.159857
O O3 0.946419 0.670262 0.337429
O O4 0.184225 0.766363 0.142578
O O5 0.000000 0.110712 0.500000
O O6 0.194699 0.000000 0.346835
O O7 0.311567 0.147505 0.117882
O O8 0.394926 0.500000 0.053830
O O9 0.337367 0.673084 0.063554
O O10 0.641222 0.603507 0.695698
O O11 0.500000 0.650530 0.000000
O O12 0.520240 0.787075 0.751332
O O13 0.163042 0.145115 0.669029
O O14 0.970687 0.000000 0.862858
O O15 0.833206 0.130997 0.113223
O O16 0.500000 0.120683 0.500000
O O17 0.365330 0.191088 0.531102
O O18 0.347879 0.000000 0.593750
O O19 0.778744 0.323204 0.405527
O O20 0.878458 0.500000 0.344437
#
# Coordination Sequence:
#
# PCOD9146189 Si02
#       8
#     4   4   4   4   4   4   4   4
#     4  10  19  33  53  74 101 135 174 218 258 301
#     4   9  18  31  46  68 102 139 170 204 249 300
#     4   9  17  31  50  71  98 131 169 214 261 307
#     4  10  20  32  50  77 103 135 175 213 257 305
#     4  10  20  34  53  77 105 137 172 209 252 303
#     4  10  20  34  55  82 108 135 170 212 255 299
#     4  10  20  34  53  76 107 138 170 209 256 311
#     4   9  19  34  52  73  99 134 170 210 261 311
#
# _framework density 17.462810000000001
#
# number of rings (size 3 to 8) (size 9 to 14) (size 15 to 20)
#    0.000    2.375    0.000    2.625    0.000    3.000 
#    0.000    0.000    0.000   18.750    0.000    0.000 
#    0.000    0.000    0.000    0.000    0.000    0.000 
#
# Total GULP energy -178226.223768 kJ/mol
# GULP energy per Si atom -5569.569493 kJ/mol
# Density = 1.742306 g / cm^3
# Si number density = 17.462810 Si / 1000 Ang^3
#
#
#
# Elastic Constant Matrix: (Units=GPa)
#
#
# Indices 1 2 3 4 5 6 
#
# 1 65.7083 33.4487 24.6596 0.0000 8.3750 0.0000
# 2 33.4487 88.7926 41.8302 0.0000 13.5622 0.0000
# 3 24.6596 41.8302 56.7299 0.0000 -0.5022 0.0000
# 4 0.0000 0.0000 0.0000 15.5418 0.0000 3.3960
# 5 8.3750 13.5622 -0.5022 0.0000 21.9279 0.0000
# 6 0.0000 0.0000 0.0000 3.3960 0.0000 18.7673
#
#
#
# Elastic Compliance Matrix: (Units=1/GPa)
#
#
# Indices 1 2 3 4 5 6 
#
# 1 0.020136 -0.004021 -0.005835 0.000000 -0.005337 0.000000
# 2 -0.004021 0.021172 -0.013968 0.000000 -0.011879 0.000000
# 3 -0.005835 -0.013968 0.030566 0.000000 0.011568 0.000000
# 4 0.000000 0.000000 0.000000 0.066991 0.000000 -0.012122
# 5 -0.005337 -0.011879 0.011568 0.000000 0.055254 0.000000
# 6 0.000000 0.000000 0.000000 -0.012122 0.000000 0.055478
#
#
# Mechanical properties :
#
#
# Convention : Reuss Voigt Hill
#
# Bulk Modulus (GPa) = 41.28065 45.67866 43.47966
# Shear Modulus (GPa) = 16.37624 18.66690 17.52157
#
# Velocity S-wave (km/s) = 3.06564 3.27303 3.17103
# Velocity P-wave (km/s) = 6.01842 6.36381 6.19352
#
# Compressibility (1/GPa) = 0.02422442
#
# Stress axis : x y z
#
# Youngs Moduli (GPa) = 49.66283 47.23244 32.71631
#
# Poissons Ratio (x) = 0.18994 0.19089
# Poissons Ratio (y) = 0.19971 0.45699
# Poissons Ratio (z) = 0.28977 0.65976
#
# Static dielectric constant tensor:
#      x y z
#    x 1.656100 0.000000 -0.022210 
#    y 0.000000 1.612680 0.000000 
#    z -0.022210 0.000000 1.596080 
# 
# From -- ./inp_files/70745.got.cif
#   From: 2010.05.17/outbox.cif.g08.bks.cpg/sg10_36_cif.got.tgz:70745.got - 2010.06.03 11:33:40.
