data_PCOD9146118
_publ_section_title
;
Structure prediction by ZEFSAII (Michael W. Deem and Ramdas Pophale) SiO2 
 PCOD9146118
Probable space group: P 2/M
;
_chemical_formula_sum "Si O2"
_cell_formula_units_Z 32
_cell_length_a 11.537603
_cell_length_b 8.609247
_cell_length_c 23.718234
_cell_angle_alpha 90.000000
_cell_angle_beta 124.064300
_cell_angle_gamma 90.000000
_cell_volume 1951.678052
_symmetry_space_group_name_H-M "P 2/M"
_symmetry_group_IT_number 10
_symmetry_cell_setting 'monoclinic'
loop_
_space_group_symop_operation_xyz
x,y,z
-x,y,-z
-x,-y,-z
x,-y,z
loop_
_atom_site_type_symbol
_atom_site_label
_atom_site_fract_x
_atom_site_fract_y
_atom_site_fract_z
Si Si1 0.606195 0.684048 0.653464
Si Si2 0.636177 0.316655 0.970402
Si Si3 0.034600 0.811518 0.771409
Si Si4 0.332750 0.185429 0.898602
Si Si5 0.184755 0.685153 0.196498
Si Si6 0.154684 0.814955 0.063773
Si Si7 0.613841 0.815052 0.480603
Si Si8 0.172580 0.185785 0.375297
O O1 0.621458 0.500000 0.647958
O O2 0.666651 0.717399 0.731936
O O3 0.452059 0.735171 0.592173
O O4 0.712388 0.773313 0.640835
O O5 0.643828 0.500000 0.982167
O O6 0.475161 0.266995 0.917971
O O7 0.731295 0.267564 0.944207
O O8 0.686478 0.230559 0.041027
O O9 0.194468 0.768217 0.826702
O O10 0.935938 0.742341 0.793490
O O11 0.970977 0.761443 0.693406
O O12 0.025019 0.000000 0.772108
O O13 0.350753 0.000000 0.899535
O O14 0.171867 0.500000 0.185861
O O15 0.171195 0.767264 0.133105
O O16 0.170051 0.000000 0.061932
O O17 0.000000 0.771416 0.000000
O O18 0.500000 0.790827 0.500000
O O19 0.760006 0.756732 0.547557
O O20 0.621598 0.000000 0.472882
O O21 0.165394 0.000000 0.379114
#
# Coordination Sequence:
#
# PCOD9146118 Si02
#       8
#     4   4   4   4   4   4   4   4
#     4   9  16  24  35  54  81 112 146 181 216 256
#     4  11  22  35  51  70  92 118 148 184 226 267
#     4   9  17  29  46  66  90 122 154 186 224 263
#     4  10  19  33  52  71  92 118 151 187 222 264
#     4  10  20  31  44  65  92 121 152 187 225 267
#     4  11  23  37  52  69  90 117 149 185 224 266
#     4   8  13  21  34  51  75 110 147 180 213 253
#     4   8  14  24  36  54  81 112 147 181 215 257
#
# _framework density 16.396146999999999
#
# number of rings (size 3 to 8) (size 9 to 14) (size 15 to 20)
#    0.000    2.500    0.000    4.875    0.000    8.750 
#    0.000    0.000    0.000    0.000    0.000    0.000 
#    0.000    1.000    0.000   11.500    0.000    4.125 
#
# Total GULP energy -178217.386325 kJ/mol
# GULP energy per Si atom -5569.293323 kJ/mol
# Density = 1.635883 g / cm^3
# Si number density = 16.396147 Si / 1000 Ang^3
#
#
#
# Elastic Constant Matrix: (Units=GPa)
#
#
# Indices 1 2 3 4 5 6 
#
# 1 33.3533 6.8786 32.2527 0.0000 10.7057 0.0000
# 2 6.8786 8.9452 8.6723 0.0000 3.4944 0.0000
# 3 32.2527 8.6723 121.0216 0.0000 32.0225 0.0000
# 4 0.0000 0.0000 0.0000 23.7456 0.0000 -7.3494
# 5 10.7057 3.4944 32.0225 0.0000 23.3153 0.0000
# 6 0.0000 0.0000 0.0000 -7.3494 0.0000 12.2833
#
#
#
# Elastic Compliance Matrix: (Units=1/GPa)
#
#
# Indices 1 2 3 4 5 6 
#
# 1 0.045258 -0.024161 -0.009095 0.000000 -0.004669 0.000000
# 2 -0.024161 0.134453 -0.001255 0.000000 -0.007333 0.000000
# 3 -0.009095 -0.001255 0.015115 0.000000 -0.016396 0.000000
# 4 0.000000 0.000000 0.000000 0.051684 0.000000 0.030924
# 5 -0.004669 -0.007333 -0.016396 0.000000 0.068652 0.000000
# 6 0.000000 0.000000 0.000000 0.030924 0.000000 0.099913
#
#
# Mechanical properties :
#
#
# Convention : Reuss Voigt Hill
#
# Bulk Modulus (GPa) = 7.94886 28.76968 18.35927
# Shear Modulus (GPa) = 9.50511 19.56994 14.53753
#
# Velocity S-wave (km/s) = 2.41034 3.45856 2.98089
# Velocity P-wave (km/s) = 3.55033 5.79081 4.80304
#
# Compressibility (1/GPa) = 0.12580415
#
# Stress axis : x y z
#
# Youngs Moduli (GPa) = 22.09554 7.43753 66.15945
#
# Poissons Ratio (x) = 0.17970 0.60170
# Poissons Ratio (y) = 0.53385 0.08306
# Poissons Ratio (z) = 0.20095 0.00934
#
# Static dielectric constant tensor:
#      x y z
#    x 1.525930 0.000000 0.041870 
#    y 0.000000 1.549980 0.000000 
#    z 0.041870 0.000000 1.606410 
# 
# From -- ./inp_files/83403.got.cif
#   From: 2010.05.17/outbox.cif.g08.bks.cpg/sg10_42_cif.got.tgz:83403.got - 2010.06.03 11:33:40.
