data_PCOD9146839
_publ_section_title
;
Structure prediction by ZEFSAII (Michael W. Deem and Ramdas Pophale) SiO2 
 PCOD9146839
Probable space group: P 2/M
;
_chemical_formula_sum "Si O2"
_cell_formula_units_Z 24
_cell_length_a 21.946929
_cell_length_b 7.878318
_cell_length_c 10.433817
_cell_angle_alpha 90.000000
_cell_angle_beta 44.255798
_cell_angle_gamma 90.000000
_cell_volume 1258.985179
_symmetry_space_group_name_H-M "P 2/M"
_symmetry_group_IT_number 10
_symmetry_cell_setting 'monoclinic'
loop_
_space_group_symop_operation_xyz
x,y,z
-x,y,-z
-x,-y,-z
x,-y,z
loop_
_atom_site_type_symbol
_atom_site_label
_atom_site_fract_x
_atom_site_fract_y
_atom_site_fract_z
Si Si1 0.731091 0.792684 0.007973
Si Si2 0.269863 0.794865 0.699641
Si Si3 0.929667 0.207375 0.002458
Si Si4 0.416296 0.307542 0.278138
Si Si5 0.931009 0.207143 0.708770
Si Si6 0.393254 0.804804 0.029691
O O1 0.831221 0.742967 0.830276
O O2 0.665346 0.734168 0.997104
O O3 0.728191 0.000000 0.013317
O O4 0.709314 0.738838 0.186042
O O5 0.170319 0.740547 0.819589
O O6 0.340276 0.735320 0.491414
O O7 0.270181 0.000000 0.698547
O O8 0.930300 0.000000 0.003317
O O9 0.951456 0.259082 0.823921
O O10 0.000000 0.266482 0.000000
O O11 0.444626 0.500000 0.254182
O O12 0.384815 0.285130 0.179241
O O13 0.504464 0.199823 0.160756
O O14 0.000000 0.267369 0.500000
O O15 0.932549 0.000000 0.705178
O O16 0.367142 0.000000 0.090433
#
# Coordination Sequence:
#
# PCOD9146839 Si02
#       6
#     4   4   4   4   4   4
#     4   8  16  29  47  72  98 125 159 198 237 282
#     4   9  17  32  51  72 100 130 161 197 238 284
#     4   8  14  24  41  68  98 125 154 191 233 277
#     4  11  22  35  49  70  99 127 160 200 243 288
#     4   8  13  22  37  62  98 128 148 182 234 282
#     4  10  19  34  54  73  94 124 162 200 243 289
#
# _framework density 19.062971999999998
#
# number of rings (size 3 to 8) (size 9 to 14) (size 15 to 20)
#    0.000    3.000    0.000    5.000    0.000    2.000 
#    0.000   10.000    0.000    0.500    0.000    0.000 
#    0.000    8.000    0.000    0.000    0.000    0.000 
#
# Total GULP energy -133808.603943 kJ/mol
# GULP energy per Si atom -5575.358498 kJ/mol
# Density = 1.901958 g / cm^3
# Si number density = 19.062972 Si / 1000 Ang^3
#
#
#
# Elastic Constant Matrix: (Units=GPa)
#
#
# Indices 1 2 3 4 5 6 
#
# 1 178.8492 -1.2592 87.1416 0.0000 16.6047 0.0000
# 2 -1.2592 24.7381 -1.2226 0.0000 1.2346 0.0000
# 3 87.1416 -1.2226 179.6924 0.0000 2.2182 0.0000
# 4 0.0000 0.0000 0.0000 -23.0685 0.0000 -4.4783
# 5 16.6047 1.2346 2.2182 0.0000 8.2297 0.0000
# 6 0.0000 0.0000 0.0000 -4.4783 0.0000 -19.9597
#
#
#
# Elastic Compliance Matrix: (Units=1/GPa)
#
#
# Indices 1 2 3 4 5 6 
#
# 1 0.009362 0.001157 -0.004311 0.000000 -0.017901 0.000000
# 2 0.001157 0.040894 -0.000179 0.000000 -0.008421 0.000000
# 3 -0.004311 -0.000179 0.007572 0.000000 0.006684 0.000000
# 4 0.000000 0.000000 0.000000 -0.045323 0.000000 0.010169
# 5 -0.017901 -0.008421 0.006684 0.000000 0.157090 0.000000
# 6 0.000000 0.000000 0.000000 0.010169 0.000000 -0.052382
#
#
# Mechanical properties :
#
#
# Convention : Reuss Voigt Hill
#
# Bulk Modulus (GPa) = 19.54599 61.39992 40.47296
# Shear Modulus (GPa) = 35.47807 12.94830 24.21319
#
# Velocity S-wave (km/s) = 4.31873 2.60905 3.56781
# Velocity P-wave (km/s) = 5.92825 6.43079 6.18463
#
# Compressibility (1/GPa) = 0.05116139
#
# Stress axis : x y z
#
# Youngs Moduli (GPa) = 106.81527 24.45360 132.06458
#
# Poissons Ratio (x) = -0.02829 0.56936
# Poissons Ratio (y) = -0.12357 0.02362
# Poissons Ratio (z) = 0.46050 0.00437
#
# Static dielectric constant tensor:
#      x y z
#    x 1.652810 0.000000 0.004480 
#    y 0.000000 1.672740 0.000000 
#    z 0.004480 0.000000 1.633980 
# 
# From -- ./inp_files/33770.got.cif
#   From: 2010.05.17/outbox.cif.g08.bks.cpg/sg10_17_cif.got.tgz:33770.got - 2010.06.03 11:33:40.
