data_PCOD9146195
_publ_section_title
;
Structure prediction by ZEFSAII (Michael W. Deem and Ramdas Pophale) SiO2 
 PCOD9146195
Probable space group: P 2/M
;
_chemical_formula_sum "Si O2"
_cell_formula_units_Z 28
_cell_length_a 16.136407
_cell_length_b 7.368006
_cell_length_c 18.047599
_cell_angle_alpha 90.000000
_cell_angle_beta 35.614215
_cell_angle_gamma 90.000000
_cell_volume 1249.514904
_symmetry_space_group_name_H-M "P 2/M"
_symmetry_group_IT_number 10
_symmetry_cell_setting 'monoclinic'
loop_
_space_group_symop_operation_xyz
x,y,z
-x,y,-z
-x,-y,-z
x,-y,z
loop_
_atom_site_type_symbol
_atom_site_label
_atom_site_fract_x
_atom_site_fract_y
_atom_site_fract_z
Si Si1 0.615294 0.293737 0.678882
Si Si2 0.135910 0.719440 0.213168
Si Si3 0.156695 0.210315 0.367986
Si Si4 0.693181 0.721964 0.053133
Si Si5 0.661420 0.278884 0.366738
Si Si6 0.158909 0.721150 0.904386
Si Si7 0.817203 0.278089 0.402432
O O1 0.581537 0.500000 0.679697
O O2 0.721339 0.297804 0.671429
O O3 0.703109 0.214542 0.546401
O O4 0.465482 0.213609 0.812652
O O5 0.134268 0.500000 0.214337
O O6 0.178167 0.776540 0.264789
O O7 0.243256 0.781310 0.071308
O O8 0.975602 0.780127 0.309651
O O9 0.000000 0.286395 0.500000
O O10 0.155891 0.000000 0.391199
O O11 0.691130 0.500000 0.051777
O O12 0.793844 0.775235 0.048076
O O13 0.500000 0.219536 0.500000
O O14 0.658647 0.500000 0.367845
O O15 0.727959 0.220956 0.240239
O O16 0.764523 0.225270 0.359362
O O17 0.158233 0.500000 0.903949
O O18 0.000000 0.780420 0.000000
O O19 0.819459 0.500000 0.402645
#
# Coordination Sequence:
#
# PCOD9146195 Si02
#       7
#     4   4   4   4   4   4   4
#     4  10  19  33  53  75 103 136 169 206 251 298
#     4  10  19  33  53  75 101 132 169 206 245 297
#     4  11  23  38  55  76 100 125 164 213 260 307
#     4   9  18  30  46  73 106 138 170 205 245 294
#     4   9  15  22  35  60  96 132 163 198 240 283
#     4   9  15  24  39  62 100 142 168 193 240 292
#     4   9  16  26  44  69  96 132 173 205 237 289
#
# _framework density 22.408695999999999
#
# number of rings (size 3 to 8) (size 9 to 14) (size 15 to 20)
#    0.000    2.429    1.429    2.143    0.000    8.000 
#    0.000    3.571    0.000    0.000    0.000    0.000 
#    0.000   22.857    0.000    0.000    0.000    0.000 
#
# Total GULP energy -156515.062108 kJ/mol
# GULP energy per Si atom -5589.823647 kJ/mol
# Density = 2.235769 g / cm^3
# Si number density = 22.408696 Si / 1000 Ang^3
#
#
#
# Elastic Constant Matrix: (Units=GPa)
#
#
# Indices 1 2 3 4 5 6 
#
# 1 54.6730 -12.0384 4.1624 0.0000 12.8871 0.0000
# 2 -12.0384 80.6241 -2.0283 0.0000 -3.6817 0.0000
# 3 4.1624 -2.0283 118.9852 0.0000 10.5399 0.0000
# 4 0.0000 0.0000 0.0000 -26.0224 0.0000 -33.2821
# 5 12.8871 -3.6817 10.5399 0.0000 45.7647 0.0000
# 6 0.0000 0.0000 0.0000 -33.2821 0.0000 -85.8297
#
#
#
# Elastic Compliance Matrix: (Units=1/GPa)
#
#
# Indices 1 2 3 4 5 6 
#
# 1 0.020191 0.002763 -0.000179 0.000000 -0.005422 0.000000
# 2 0.002763 0.012829 0.000102 0.000000 0.000231 0.000000
# 3 -0.000179 0.000102 0.008582 0.000000 -0.001918 0.000000
# 4 0.000000 0.000000 0.000000 -0.076239 0.000000 0.029563
# 5 -0.005422 0.000231 -0.001918 0.000000 0.023838 0.000000
# 6 0.000000 0.000000 0.000000 0.029563 0.000000 -0.023115
#
#
# Mechanical properties :
#
#
# Convention : Reuss Voigt Hill
#
# Bulk Modulus (GPa) = 21.28911 26.05261 23.67086
# Shear Modulus (GPa) = -211.62275 4.39496 -103.61389
#
# Velocity S-wave (km/s) = -9.72845 1.40197 -6.80725
# Velocity P-wave (km/s) = 10.80136 3.77784 7.15532
#
# Compressibility (1/GPa) = 0.04697237
#
# Stress axis : x y z
#
# Youngs Moduli (GPa) = 49.52815 77.94939 116.51890
#
# Poissons Ratio (x) = -0.21535 0.02085
# Poissons Ratio (y) = -0.13683 -0.01184
# Poissons Ratio (z) = 0.00886 -0.00792
#
# Static dielectric constant tensor:
#      x y z
#    x 1.755820 0.000000 -0.010130 
#    y 0.000000 1.906250 0.000000 
#    z -0.010130 0.000000 1.791440 
# 
# From -- ./inp_files/67093.got.cif
#   From: 2010.05.17/outbox.cif.g08.bks.cpg/sg10_34_cif.got.tgz:67093.got - 2010.06.03 11:33:40.
