data_PCOD9146218
_publ_section_title
;
Structure prediction by ZEFSAII (Michael W. Deem and Ramdas Pophale) SiO2 
 PCOD9146218
Probable space group: P 2/M
;
_chemical_formula_sum "Si O2"
_cell_formula_units_Z 32
_cell_length_a 12.698558
_cell_length_b 9.160825
_cell_length_c 24.002966
_cell_angle_alpha 90.000000
_cell_angle_beta 46.722425
_cell_angle_gamma 90.000000
_cell_volume 2032.870977
_symmetry_space_group_name_H-M "P 2/M"
_symmetry_group_IT_number 10
_symmetry_cell_setting 'monoclinic'
loop_
_space_group_symop_operation_xyz
x,y,z
-x,y,-z
-x,-y,-z
x,-y,z
loop_
_atom_site_type_symbol
_atom_site_label
_atom_site_fract_x
_atom_site_fract_y
_atom_site_fract_z
Si Si1 0.615524 0.825268 0.685520
Si Si2 0.829489 0.326984 0.416990
Si Si3 0.949122 0.826565 0.581587
Si Si4 0.329674 0.826070 0.851389
Si Si5 0.543067 0.673515 0.594943
Si Si6 0.879692 0.668765 0.994216
Si Si7 0.903732 0.826086 0.159990
Si Si8 0.755889 0.175425 0.329601
O O1 0.778116 0.796835 0.646593
O O2 0.492662 0.787960 0.775165
O O3 0.583466 0.739570 0.640352
O O4 0.603107 0.000000 0.678561
O O5 0.845897 0.500000 0.401955
O O6 0.678655 0.303671 0.504715
O O7 0.820792 0.241908 0.362139
O O8 0.956688 0.264846 0.409513
O O9 0.000000 0.794483 0.500000
O O10 0.972979 0.000000 0.582308
O O11 0.228931 0.791542 0.834113
O O12 0.320356 0.000000 0.863604
O O13 0.260604 0.745934 0.929163
O O14 0.516158 0.500000 0.608773
O O15 0.401363 0.754558 0.623757
O O16 0.852091 0.500000 0.992715
O O17 0.955014 0.746430 0.914685
O O18 0.000000 0.678425 0.000000
O O19 0.853755 0.788421 0.240165
O O20 0.926355 0.000000 0.148608
O O21 0.743677 0.000000 0.337367
#
# Coordination Sequence:
#
# PCOD9146218 Si02
#       8
#     4   4   4   4   4   4   4   4
#     4  10  19  33  53  77 101 132 174 213 254 298
#     4  11  24  38  51  72 103 137 173 212 259 307
#     4  10  20  35  57  77  97 129 174 221 257 295
#     4   9  16  29  47  69 100 131 164 204 246 295
#     4  11  22  34  50  73 104 137 169 208 257 306
#     4   9  17  27  42  68 100 132 164 196 238 296
#     4   9  17  30  48  70  97 131 165 200 247 297
#     4  11  22  36  54  75 100 134 176 214 250 300
#
# _framework density 15.741286000000001
#
# number of rings (size 3 to 8) (size 9 to 14) (size 15 to 20)
#    0.000    2.000    2.500    1.875    0.000    6.750 
#    0.000    0.000    0.000    0.000    0.000    0.875 
#    0.000    7.000    0.000    0.000    0.000    0.000 
#
# Total GULP energy -178563.630712 kJ/mol
# GULP energy per Si atom -5580.113460 kJ/mol
# Density = 1.570546 g / cm^3
# Si number density = 15.741286 Si / 1000 Ang^3
#
#
#
# Elastic Constant Matrix: (Units=GPa)
#
#
# Indices 1 2 3 4 5 6 
#
# 1 83.4556 54.1269 68.6357 0.0000 3.4482 0.0000
# 2 54.1269 67.0501 75.7940 0.0000 -1.3007 0.0000
# 3 68.6357 75.7940 142.5564 0.0000 -17.3829 0.0000
# 4 0.0000 0.0000 0.0000 17.6143 0.0000 -2.8706
# 5 3.4482 -1.3007 -17.3829 0.0000 14.7360 0.0000
# 6 0.0000 0.0000 0.0000 -2.8706 0.0000 15.9967
#
#
#
# Elastic Compliance Matrix: (Units=1/GPa)
#
#
# Indices 1 2 3 4 5 6 
#
# 1 0.028934 -0.013562 -0.008984 0.000000 -0.018565 0.000000
# 2 -0.013562 0.052327 -0.023759 0.000000 -0.020234 0.000000
# 3 -0.008984 -0.023759 0.028000 0.000000 0.033035 0.000000
# 4 0.000000 0.000000 0.000000 0.058482 0.000000 0.010495
# 5 -0.018565 -0.020234 0.033035 0.000000 0.109387 0.000000
# 6 0.000000 0.000000 0.000000 0.010495 0.000000 0.064396
#
#
# Mechanical properties :
#
#
# Convention : Reuss Voigt Hill
#
# Bulk Modulus (GPa) = 60.05264 76.68614 68.36939
# Shear Modulus (GPa) = 11.37177 15.96977 13.67077
#
# Velocity S-wave (km/s) = 2.69070 3.18860 2.95017
# Velocity P-wave (km/s) = 6.91995 7.89801 7.42510
#
# Compressibility (1/GPa) = 0.01665206
#
# Stress axis : x y z
#
# Youngs Moduli (GPa) = 34.56180 19.11074 35.71411
#
# Poissons Ratio (x) = 0.25918 0.32084
# Poissons Ratio (y) = 0.46872 0.84852
# Poissons Ratio (z) = 0.31049 0.45404
#
# Static dielectric constant tensor:
#      x y z
#    x 1.493670 0.000000 -0.008810 
#    y 0.000000 1.523720 0.000000 
#    z -0.008810 0.000000 1.521980 
# 
# From -- ./inp_files/54780.got.cif
#   From: 2010.05.17/outbox.cif.g08.bks.cpg/sg10_28_cif.got.tgz:54780.got - 2010.06.03 11:33:40.
