data_PCOD9146962
_publ_section_title
;
Structure prediction by ZEFSAII (Michael W. Deem and Ramdas Pophale) SiO2 
 PCOD9146962
Probable space group: P 2/M
;
_chemical_formula_sum "Si O2"
_cell_formula_units_Z 28
_cell_length_a 12.044685
_cell_length_b 7.902216
_cell_length_c 15.357362
_cell_angle_alpha 90.000000
_cell_angle_beta 117.060911
_cell_angle_gamma 90.000000
_cell_volume 1301.686177
_symmetry_space_group_name_H-M "P 2/M"
_symmetry_group_IT_number 10
_symmetry_cell_setting 'monoclinic'
loop_
_space_group_symop_operation_xyz
x,y,z
-x,y,-z
-x,-y,-z
x,-y,z
loop_
_atom_site_type_symbol
_atom_site_label
_atom_site_fract_x
_atom_site_fract_y
_atom_site_fract_z
Si Si1 0.761280 0.805550 0.718017
Si Si2 0.622429 0.302371 0.830636
Si Si3 0.123617 0.292099 0.989814
Si Si4 0.915542 0.196404 0.390109
Si Si5 0.025828 0.694436 0.776559
Si Si6 0.363739 0.303180 0.493346
Si Si7 0.636778 0.298442 0.310880
O O1 0.658711 0.717624 0.741933
O O2 0.722367 0.795429 0.603944
O O3 0.889903 0.706582 0.771444
O O4 0.775782 0.000000 0.749617
O O5 0.618275 0.500000 0.853734
O O6 0.481562 0.231305 0.786514
O O7 0.744991 0.232319 0.922948
O O8 0.121633 0.500000 0.990722
O O9 0.113558 0.239296 0.885138
O O10 0.000000 0.237904 0.000000
O O11 0.976713 0.214179 0.316944
O O12 0.777398 0.272312 0.330401
O O13 0.000000 0.268700 0.500000
O O14 0.896930 0.000000 0.404288
O O15 0.057442 0.500000 0.769565
O O16 0.500000 0.300203 0.500000
O O17 0.321183 0.500000 0.480827
O O18 0.366284 0.232018 0.591240
O O19 0.614880 0.500000 0.309232
#
# Coordination Sequence:
#
# PCOD9146962 Si02
#       7
#     4   4   4   4   4   4   4
#     4  12  23  33  51  85 124 159 192 236 300 359
#     4  10  19  37  60  86 119 154 196 244 293 351
#     4   9  17  33  62  93 119 151 197 250 301 344
#     4  11  25  44  63  85 118 158 200 248 300 357
#     4  11  22  39  64  89 115 154 204 252 296 350
#     4  10  19  34  55  82 113 150 195 242 291 348
#     4  10  21  37  61  87 115 154 199 246 295 351
#
# _framework density 21.510559000000001
#
# number of rings (size 3 to 8) (size 9 to 14) (size 15 to 20)
#    0.000    1.571    2.857    3.000    0.000    4.857 
#    0.000    2.857    0.000    4.286    0.000    0.000 
#    0.000    0.000    0.000    0.000    0.000    0.000 
#
# Total GULP energy -156238.096578 kJ/mol
# GULP energy per Si atom -5579.932021 kJ/mol
# Density = 2.146160 g / cm^3
# Si number density = 21.510559 Si / 1000 Ang^3
#
#
#
# Elastic Constant Matrix: (Units=GPa)
#
#
# Indices 1 2 3 4 5 6 
#
# 1 79.7062 -6.2842 31.4925 0.0000 24.0943 0.0000
# 2 -6.2842 28.4681 9.4052 0.0000 4.3493 0.0000
# 3 31.4925 9.4052 131.3474 0.0000 29.2685 0.0000
# 4 0.0000 0.0000 0.0000 -113.4520 0.0000 -1.0769
# 5 24.0943 4.3493 29.2685 0.0000 35.6356 0.0000
# 6 0.0000 0.0000 0.0000 -1.0769 0.0000 -14.6218
#
#
#
# Elastic Compliance Matrix: (Units=1/GPa)
#
#
# Indices 1 2 3 4 5 6 
#
# 1 0.017060 0.006091 -0.002192 0.000000 -0.010478 0.000000
# 2 0.006091 0.038380 -0.002750 0.000000 -0.006543 0.000000
# 3 -0.002192 -0.002750 0.009707 0.000000 -0.006155 0.000000
# 4 0.000000 0.000000 0.000000 -0.008820 0.000000 0.000650
# 5 -0.010478 -0.006543 -0.006155 0.000000 0.041001 0.000000
# 6 0.000000 0.000000 0.000000 0.000650 0.000000 -0.068439
#
#
# Mechanical properties :
#
#
# Convention : Reuss Voigt Hill
#
# Bulk Modulus (GPa) = 14.82709 34.30539 24.56624
# Shear Modulus (GPa) = 101.89044 -4.82709 48.53167
#
# Velocity S-wave (km/s) = 6.88988 -1.49964 4.75508
# Velocity P-wave (km/s) = 8.37865 3.60336 6.44927
#
# Compressibility (1/GPa) = 0.06744413
#
# Stress axis : x y z
#
# Youngs Moduli (GPa) = 58.61823 26.05530 103.01353
#
# Poissons Ratio (x) = -0.15869 0.22576
# Poissons Ratio (y) = -0.35702 0.28333
# Poissons Ratio (z) = 0.12847 0.07166
#
# Static dielectric constant tensor:
#      x y z
#    x 1.770900 0.000000 0.039270 
#    y 0.000000 1.773110 0.000000 
#    z 0.039270 0.000000 1.831170 
# 
# From -- ./inp_files/63405.got.cif
#   From: 2010.05.17/outbox.cif.g08.bks.cpg/sg10_32_cif.got.tgz:63405.got - 2010.06.03 11:33:40.
