data_PCOD9146934
_publ_section_title
;
Structure prediction by ZEFSAII (Michael W. Deem and Ramdas Pophale) SiO2 
 PCOD9146934
Probable space group: P 2/M
;
_chemical_formula_sum "Si O2"
_cell_formula_units_Z 22
_cell_length_a 11.775196
_cell_length_b 11.892572
_cell_length_c 7.026134
_cell_angle_alpha 90.000000
_cell_angle_beta 85.776973
_cell_angle_gamma 90.000000
_cell_volume 981.249917
_symmetry_space_group_name_H-M "P 2/M"
_symmetry_group_IT_number 10
_symmetry_cell_setting 'monoclinic'
loop_
_space_group_symop_operation_xyz
x,y,z
-x,y,-z
-x,-y,-z
x,-y,z
loop_
_atom_site_type_symbol
_atom_site_label
_atom_site_fract_x
_atom_site_fract_y
_atom_site_fract_z
Si Si1 0.465113 0.368861 0.777798
Si Si2 0.679827 0.238437 0.743826
Si Si3 0.108607 0.128685 0.363606
Si Si4 0.674077 0.000000 0.282934
Si Si5 0.415468 0.000000 0.263874
Si Si6 0.761453 0.244672 0.148647
Si Si7 0.000000 0.207475 0.000000
O O1 0.460776 0.500000 0.734306
O O2 0.575077 0.307475 0.675440
O O3 0.344912 0.310913 0.744422
O O4 0.500000 0.357592 0.000000
O O5 0.788845 0.212363 0.601445
O O6 0.633731 0.115502 0.806456
O O7 0.732379 0.281136 0.933546
O O8 0.000000 0.155279 0.500000
O O9 0.141398 0.000000 0.399869
O O10 0.070568 0.138054 0.148571
O O11 0.740652 0.113289 0.211195
O O12 0.549028 0.000000 0.205161
O O13 0.627140 0.000000 0.508445
O O14 0.897987 0.267521 0.132781
#
# Coordination Sequence:
#
# PCOD9146934 Si02
#       7
#     4   4   4   2   2   4   2
#     4   9  18  35  59  82 102 134 185 236 279 322
#     4  10  19  34  55  79 108 140 183 225 272 328
#     4  10  21  33  51  80 114 154 181 218 272 329
#     4  11  23  30  50  79 115 150 169 219 278 329
#     4  11  21  33  47  83 113 142 181 214 274 340
#     4  10  21  34  53  79 109 146 177 222 275 322
#     4  10  23  34  49  80 116 148 187 219 264 342
#
# _framework density 22.420382
#
# number of rings (size 3 to 8) (size 9 to 14) (size 15 to 20)
#    0.000    2.000    2.727    0.818    7.636    0.727 
#    0.000    0.455    0.000    3.818    0.000    0.000 
#    0.000    0.000    0.000    0.000    0.000    0.000 
#
# Total GULP energy -122627.905034 kJ/mol
# GULP energy per Si atom -5573.995683 kJ/mol
# Density = 2.236935 g / cm^3
# Si number density = 22.420382 Si / 1000 Ang^3
#
#
#
# Elastic Constant Matrix: (Units=GPa)
#
#
# Indices 1 2 3 4 5 6 
#
# 1 186.8205 67.7936 35.0777 0.0000 -50.4276 0.0000
# 2 67.7936 96.6454 11.7556 0.0000 -26.0594 0.0000
# 3 35.0777 11.7556 89.6087 0.0000 -21.8301 0.0000
# 4 0.0000 0.0000 0.0000 934.5454 0.0000 -277.1277
# 5 -50.4276 -26.0594 -21.8301 0.0000 47.6632 0.0000
# 6 0.0000 0.0000 0.0000 -277.1277 0.0000 90.8793
#
#
#
# Elastic Compliance Matrix: (Units=1/GPa)
#
#
# Indices 1 2 3 4 5 6 
#
# 1 0.008928 -0.004361 -0.001354 0.000000 0.006442 0.000000
# 2 -0.004361 0.014267 0.000689 0.000000 0.003501 0.000000
# 3 -0.001354 0.000689 0.012766 0.000000 0.004792 0.000000
# 4 0.000000 0.000000 0.000000 0.011177 0.000000 0.034082
# 5 0.006442 0.003501 0.004792 0.000000 0.031905 0.000000
# 6 0.000000 0.000000 0.000000 0.034082 0.000000 0.114935
#
#
# Mechanical properties :
#
#
# Convention : Reuss Voigt Hill
#
# Bulk Modulus (GPa) = 38.59676 66.92538 52.76107
# Shear Modulus (GPa) = 23.51097 231.84743 127.67920
#
# Velocity S-wave (km/s) = 3.24179 10.18006 7.55457
# Velocity P-wave (km/s) = 5.59148 12.96508 9.98394
#
# Compressibility (1/GPa) = 0.02590891
#
# Stress axis : x y z
#
# Youngs Moduli (GPa) = 112.00338 70.09288 78.33029
#
# Poissons Ratio (x) = 0.30570 0.10603
# Poissons Ratio (y) = 0.48849 -0.05394
# Poissons Ratio (z) = 0.15161 -0.04827
#
# Static dielectric constant tensor:
#      x y z
#    x 1.872880 0.000000 0.004460 
#    y 0.000000 1.769750 0.000000 
#    z 0.004460 0.000000 2.017700 
# 
# From -- ./inp_files/23971.got.cif
#   From: 2010.05.17/outbox.cif.g08.bks.cpg/sg10_12_cif.got.tgz:23971.got - 2010.06.03 11:33:40.
