data_PCOD9146973
_publ_section_title
;
Structure prediction by ZEFSAII (Michael W. Deem and Ramdas Pophale) SiO2 
 PCOD9146973
Probable space group: P 2/M
;
_chemical_formula_sum "Si O2"
_cell_formula_units_Z 20
_cell_length_a 14.338203
_cell_length_b 18.585963
_cell_length_c 12.078732
_cell_angle_alpha 90.000000
_cell_angle_beta 159.903905
_cell_angle_gamma 90.000000
_cell_volume 1105.984003
_symmetry_space_group_name_H-M "P 2/M"
_symmetry_group_IT_number 10
_symmetry_cell_setting 'monoclinic'
loop_
_space_group_symop_operation_xyz
x,y,z
-x,y,-z
-x,-y,-z
x,-y,z
loop_
_atom_site_type_symbol
_atom_site_label
_atom_site_fract_x
_atom_site_fract_y
_atom_site_fract_z
Si Si1 0.307253 0.000000 0.890603
Si Si2 0.197806 0.078996 0.116204
Si Si3 0.440455 0.840200 0.065190
Si Si4 0.804065 0.658752 0.888162
Si Si5 0.964627 0.791135 0.218865
Si Si6 0.198032 0.500000 0.115973
O O1 0.000000 0.000000 0.500000
O O2 0.500000 0.000000 0.000000
O O3 0.381248 0.924177 0.029905
O O4 0.500000 0.079114 0.500000
O O5 0.139254 0.000000 0.000446
O O6 0.158394 0.143644 0.989305
O O7 0.000000 0.088212 0.000000
O O8 0.714573 0.806957 0.421385
O O9 0.500000 0.837774 0.000000
O O10 0.181354 0.797690 0.824404
O O11 0.500000 0.667757 0.500000
O O12 0.835674 0.578412 0.975398
O O13 0.884553 0.718475 0.066798
O O14 0.000000 0.664583 0.000000
O O15 0.500000 0.500000 0.500000
O O16 0.000000 0.500000 0.000000
#
# Coordination Sequence:
#
# PCOD9146973 Si02
#       6
#     2   4   4   4   4   2
#     4  10  20  38  56  70  94 130 174 236 282 310
#     4  10  21  35  49  70 103 136 170 207 248 310
#     4  11  24  38  54  76 103 134 182 234 280 313
#     4  10  19  34  55  84 116 142 175 213 260 322
#     4  12  22  34  57  78 103 142 179 217 274 313
#     4   8  16  30  52  80 113 144 167 210 262 310
#
# _framework density 18.083444
#
# number of rings (size 3 to 8) (size 9 to 14) (size 15 to 20)
#    0.000    1.600    0.000    6.600    2.800    0.000 
#    0.000    0.000    0.000    0.000    0.000    4.200 
#    0.000    0.000    0.000    0.000    0.000    0.000 
#
# Total GULP energy -111578.753200 kJ/mol
# GULP energy per Si atom -5578.937660 kJ/mol
# Density = 1.804228 g / cm^3
# Si number density = 18.083444 Si / 1000 Ang^3
#
#
#
# Elastic Constant Matrix: (Units=GPa)
#
#
# Indices 1 2 3 4 5 6 
#
# 1 78.0785 43.6976 20.4436 0.0000 21.6556 0.0000
# 2 43.6976 162.4215 37.5037 0.0000 -13.5258 0.0000
# 3 20.4436 37.5037 93.0194 0.0000 27.5948 0.0000
# 4 0.0000 0.0000 0.0000 23.1931 0.0000 2.6770
# 5 21.6556 -13.5258 27.5948 0.0000 37.0607 0.0000
# 6 0.0000 0.0000 0.0000 2.6770 0.0000 10.0456
#
#
#
# Elastic Compliance Matrix: (Units=1/GPa)
#
#
# Indices 1 2 3 4 5 6 
#
# 1 0.021584 -0.008337 0.004186 0.000000 -0.018772 0.000000
# 2 -0.008337 0.011141 -0.006816 0.000000 0.014013 0.000000
# 3 0.004186 -0.006816 0.018023 0.000000 -0.018354 0.000000
# 4 0.000000 0.000000 0.000000 0.044484 0.000000 -0.011854
# 5 -0.018772 0.014013 -0.018354 0.000000 0.056732 0.000000
# 6 0.000000 0.000000 0.000000 -0.011854 0.000000 0.102705
#
#
# Mechanical properties :
#
#
# Convention : Reuss Voigt Hill
#
# Bulk Modulus (GPa) = 34.70515 59.64546 47.17530
# Shear Modulus (GPa) = 17.46988 29.51819 23.49403
#
# Velocity S-wave (km/s) = 3.11154 4.04460 3.60835
# Velocity P-wave (km/s) = 5.66941 7.40721 6.59579
#
# Compressibility (1/GPa) = 0.02881417
#
# Stress axis : x y z
#
# Youngs Moduli (GPa) = 46.33125 89.76210 55.48327
#
# Poissons Ratio (x) = 0.74832 -0.23227
# Poissons Ratio (y) = 0.38625 0.37820
# Poissons Ratio (z) = -0.19396 0.61185
#
# Static dielectric constant tensor:
#      x y z
#    x 1.637650 0.000000 -0.000360 
#    y 0.000000 1.653630 0.000000 
#    z -0.000360 0.000000 1.634940 
# 
# From -- ./inp_files/51855.got.cif
#   From: 2010.05.17/outbox.cif.g08.bks.cpg/sg10_26_cif.got.tgz:51855.got - 2010.06.03 11:33:40.
