data_PCOD9146314
_publ_section_title
;
Structure prediction by ZEFSAII (Michael W. Deem and Ramdas Pophale) SiO2 
 PCOD9146314
Probable space group: P 2/M
;
_chemical_formula_sum "Si O2"
_cell_formula_units_Z 28
_cell_length_a 13.083867
_cell_length_b 7.883440
_cell_length_c 15.384950
_cell_angle_alpha 90.000000
_cell_angle_beta 123.131903
_cell_angle_gamma 90.000000
_cell_volume 1328.888241
_symmetry_space_group_name_H-M "P 2/M"
_symmetry_group_IT_number 10
_symmetry_cell_setting 'monoclinic'
loop_
_space_group_symop_operation_xyz
x,y,z
-x,y,-z
-x,-y,-z
x,-y,z
loop_
_atom_site_type_symbol
_atom_site_label
_atom_site_fract_x
_atom_site_fract_y
_atom_site_fract_z
Si Si1 0.633524 0.708150 0.709597
Si Si2 0.241612 0.691731 0.058569
Si Si3 0.996805 0.194380 0.098993
Si Si4 0.380935 0.295345 0.680291
Si Si5 0.172638 0.302746 0.329606
Si Si6 0.887181 0.707745 0.508170
Si Si7 0.483169 0.198249 0.092609
O O1 0.633340 0.500000 0.709732
O O2 0.725689 0.761633 0.830426
O O3 0.496445 0.761363 0.673227
O O4 0.699823 0.766070 0.651759
O O5 0.196322 0.500000 0.045857
O O6 0.372311 0.691615 0.075315
O O7 0.148191 0.793126 0.955514
O O8 0.073635 0.290692 0.206518
O O9 0.037256 0.000000 0.119355
O O10 0.000000 0.255425 0.000000
O O11 0.383690 0.500000 0.679414
O O12 0.246626 0.241855 0.588809
O O13 0.407361 0.235688 0.790476
O O14 0.198681 0.500000 0.359858
O O15 0.116073 0.233286 0.392536
O O16 0.893520 0.500000 0.510196
O O17 0.000000 0.765828 0.500000
O O18 0.451205 0.000000 0.086966
O O19 0.500000 0.234758 0.000000
#
# Coordination Sequence:
#
# PCOD9146314 Si02
#       7
#     4   4   4   4   4   4   4
#     4   8  15  28  49  78 103 131 173 222 272 323
#     4  10  19  33  54  79 109 144 184 229 273 327
#     4  11  22  34  51  80 117 152 182 222 281 341
#     4   9  18  34  55  78 107 142 183 230 280 332
#     4  10  19  33  54  78 108 146 189 234 278 331
#     4   9  19  35  55  81 110 140 182 236 283 325
#     4  10  21  36  54  80 113 146 184 227 277 337
#
# _framework density 21.070245
#
# number of rings (size 3 to 8) (size 9 to 14) (size 15 to 20)
#    0.000    2.429    1.429    2.143    0.000    3.429 
#    0.000    5.000    0.000    0.857    0.000    3.000 
#    0.000    0.000    0.000    0.000    0.000    0.000 
#
# Total GULP energy -156028.211154 kJ/mol
# GULP energy per Si atom -5572.436113 kJ/mol
# Density = 2.102229 g / cm^3
# Si number density = 21.070245 Si / 1000 Ang^3
#
#
#
# Elastic Constant Matrix: (Units=GPa)
#
#
# Indices 1 2 3 4 5 6 
#
# 1 139.3551 20.2543 84.6056 0.0000 -10.4950 0.0000
# 2 20.2543 19.5588 4.5146 0.0000 -9.9334 0.0000
# 3 84.6056 4.5146 104.8592 0.0000 -7.3182 0.0000
# 4 0.0000 0.0000 0.0000 -6.1300 0.0000 -5.8119
# 5 -10.4950 -9.9334 -7.3182 0.0000 32.6321 0.0000
# 6 0.0000 0.0000 0.0000 -5.8119 0.0000 8.6733
#
#
#
# Elastic Compliance Matrix: (Units=1/GPa)
#
#
# Indices 1 2 3 4 5 6 
#
# 1 0.017746 -0.016403 -0.013778 0.000000 -0.002376 0.000000
# 2 -0.016403 0.075826 0.011392 0.000000 0.020361 0.000000
# 3 -0.013778 0.011392 0.020415 0.000000 0.003615 0.000000
# 4 0.000000 0.000000 0.000000 -0.099755 0.000000 -0.066845
# 5 -0.002376 0.020361 0.003615 0.000000 0.036889 0.000000
# 6 0.000000 0.000000 0.000000 -0.066845 0.000000 0.070505
#
#
# Mechanical properties :
#
#
# Convention : Reuss Voigt Hill
#
# Bulk Modulus (GPa) = 13.08773 53.61355 33.35064
# Shear Modulus (GPa) = 27.07468 17.32830 22.20149
#
# Velocity S-wave (km/s) = 3.58854 2.87087 3.24958
# Velocity P-wave (km/s) = 4.83685 6.04066 5.47196
#
# Compressibility (1/GPa) = 0.07640745
#
# Stress axis : x y z
#
# Youngs Moduli (GPa) = 56.35068 13.18809 48.98319
#
# Poissons Ratio (x) = 0.21633 0.67489
# Poissons Ratio (y) = 0.92434 -0.55799
# Poissons Ratio (z) = 0.77640 -0.15023
#
# Static dielectric constant tensor:
#      x y z
#    x 1.850590 0.000000 0.006990 
#    y 0.000000 1.757380 0.000000 
#    z 0.006990 0.000000 1.775130 
# 
# From -- ./inp_files/63941.got.cif
#   From: 2010.05.17/outbox.cif.g08.bks.cpg/sg10_32_cif.got.tgz:63941.got - 2010.06.03 11:33:40.
