data_PCOD9146482
_publ_section_title
;
Structure prediction by ZEFSAII (Michael W. Deem and Ramdas Pophale) SiO2 
 PCOD9146482
Probable space group: P 2/M
;
_chemical_formula_sum "Si O2"
_cell_formula_units_Z 32
_cell_length_a 30.431881
_cell_length_b 14.002084
_cell_length_c 10.454741
_cell_angle_alpha 90.000000
_cell_angle_beta 152.452087
_cell_angle_gamma 90.000000
_cell_volume 2060.332407
_symmetry_space_group_name_H-M "P 2/M"
_symmetry_group_IT_number 10
_symmetry_cell_setting 'monoclinic'
loop_
_space_group_symop_operation_xyz
x,y,z
-x,y,-z
-x,-y,-z
x,-y,z
loop_
_atom_site_type_symbol
_atom_site_label
_atom_site_fract_x
_atom_site_fract_y
_atom_site_fract_z
Si Si1 0.524564 0.887405 0.713901
Si Si2 0.217747 0.114724 0.288670
Si Si3 0.178608 0.114424 0.702646
Si Si4 0.723238 0.796950 0.289101
Si Si5 0.678167 0.884348 0.702374
Si Si6 0.161398 0.609793 0.428862
Si Si7 0.993704 0.390211 0.196907
Si Si8 0.985671 0.196534 0.313131
O O1 0.500000 0.882138 0.500000
O O2 0.430141 0.857981 0.547053
O O3 0.546526 0.000000 0.797784
O O4 0.614445 0.822786 0.978738
O O5 0.251439 0.162865 0.506162
O O6 0.281982 0.144556 0.332636
O O7 0.222297 0.000000 0.312272
O O8 0.110816 0.147004 0.981843
O O9 0.215325 0.149516 0.660936
O O10 0.075102 0.153433 0.468722
O O11 0.177179 0.000000 0.700633
O O12 0.251966 0.147600 0.003001
O O13 0.755601 0.687025 0.363186
O O14 0.680222 0.000000 0.710892
O O15 0.194301 0.500000 0.516015
O O16 0.091877 0.624397 0.371459
O O17 0.091235 0.621145 0.125779
O O18 0.991947 0.500000 0.237866
O O19 0.982426 0.308980 0.272907
O O20 0.000000 0.179082 0.500000
#
# Coordination Sequence:
#
# PCOD9146482 Si02
#       8
#     4   4   4   4   4   4   4   4
#     4  10  19  33  55  81 106 138 181 221 258 306
#     4  11  23  35  49  77 114 145 177 215 255 312
#     4  11  21  33  51  76 110 149 179 208 253 317
#     4  12  21  34  56  82 103 134 180 228 265 304
#     4   9  19  36  52  71 106 148 183 214 254 303
#     4   9  18  34  56  76 101 134 170 218 275 322
#     4   9  18  35  53  74 102 134 177 225 265 309
#     4  12  22  33  52  77 107 149 181 207 261 325
#
# _framework density 15.531475
#
# number of rings (size 3 to 8) (size 9 to 14) (size 15 to 20)
#    0.000    1.625    5.000    2.250    0.000    1.750 
#    0.000    3.125    0.000    0.375    0.000    2.625 
#    0.000    0.000    0.000    0.000    0.000    0.000 
#
# Total GULP energy -178542.789885 kJ/mol
# GULP energy per Si atom -5579.462184 kJ/mol
# Density = 1.549612 g / cm^3
# Si number density = 15.531475 Si / 1000 Ang^3
#
#
#
# Elastic Constant Matrix: (Units=GPa)
#
#
# Indices 1 2 3 4 5 6 
#
# 1 108.0652 27.4866 49.4407 0.0000 11.8419 0.0000
# 2 27.4866 79.9633 39.6677 0.0000 10.3190 0.0000
# 3 49.4407 39.6677 94.9083 0.0000 16.5813 0.0000
# 4 0.0000 0.0000 0.0000 22.6328 0.0000 2.5436
# 5 11.8419 10.3190 16.5813 0.0000 32.0708 0.0000
# 6 0.0000 0.0000 0.0000 2.5436 0.0000 12.2322
#
#
#
# Elastic Compliance Matrix: (Units=1/GPa)
#
#
# Indices 1 2 3 4 5 6 
#
# 1 0.012301 -0.001260 -0.005671 0.000000 -0.001205 0.000000
# 2 -0.001260 0.016004 -0.005732 0.000000 -0.001721 0.000000
# 3 -0.005671 -0.005732 0.016708 0.000000 -0.004700 0.000000
# 4 0.000000 0.000000 0.000000 0.045241 0.000000 -0.009408
# 5 -0.001205 -0.001721 -0.004700 0.000000 0.034609 0.000000
# 6 0.000000 0.000000 0.000000 -0.009408 0.000000 0.083707
#
#
# Mechanical properties :
#
#
# Convention : Reuss Voigt Hill
#
# Bulk Modulus (GPa) = 50.79506 57.34742 54.07124
# Shear Modulus (GPa) = 20.79362 24.47660 22.63511
#
# Velocity S-wave (km/s) = 3.66294 3.97411 3.82169
# Velocity P-wave (km/s) = 7.11794 7.61982 7.37315
#
# Compressibility (1/GPa) = 0.01968696
#
# Stress axis : x y z
#
# Youngs Moduli (GPa) = 81.29747 62.48254 59.85297
#
# Poissons Ratio (x) = 0.07870 0.33941
# Poissons Ratio (y) = 0.10240 0.34310
# Poissons Ratio (z) = 0.46102 0.35818
#
# Static dielectric constant tensor:
#      x y z
#    x 1.515550 0.000000 -0.001510 
#    y 0.000000 1.504250 0.000000 
#    z -0.001510 0.000000 1.504020 
# 
# From -- ./inp_files/29533.got.cif
#   From: 2010.05.17/outbox.cif.g08.bks.cpg/sg10_15_cif.got.tgz:29533.got - 2010.06.03 11:33:40.
