data_PCOD9146031
_publ_section_title
;
Structure prediction by ZEFSAII (Michael W. Deem and Ramdas Pophale) SiO2 
 PCOD9146031
Probable space group: P 2/M
;
_chemical_formula_sum "Si O2"
_cell_formula_units_Z 24
_cell_length_a 24.012850
_cell_length_b 7.325538
_cell_length_c 11.496759
_cell_angle_alpha 90.000000
_cell_angle_beta 149.666523
_cell_angle_gamma 90.000000
_cell_volume 1021.356984
_symmetry_space_group_name_H-M "P 2/M"
_symmetry_group_IT_number 10
_symmetry_cell_setting 'monoclinic'
loop_
_space_group_symop_operation_xyz
x,y,z
-x,y,-z
-x,-y,-z
x,-y,z
loop_
_atom_site_type_symbol
_atom_site_label
_atom_site_fract_x
_atom_site_fract_y
_atom_site_fract_z
Si Si1 0.740852 0.778652 0.176469
Si Si2 0.008055 0.706691 0.381357
Si Si3 0.304254 0.779588 0.391208
Si Si4 0.627497 0.777919 0.733428
Si Si5 0.525771 0.222184 0.917138
Si Si6 0.062244 0.710790 0.997449
O O1 0.862100 0.705157 0.411695
O O2 0.749125 0.000000 0.194367
O O3 0.691588 0.723119 0.963427
O O4 0.646438 0.719761 0.095380
O O5 0.963272 0.500000 0.311461
O O6 0.000000 0.786348 0.500000
O O7 0.957097 0.788472 0.169202
O O8 0.306498 0.721624 0.261336
O O9 0.422187 0.719267 0.653278
O O10 0.193559 0.717003 0.254065
O O11 0.303089 0.000000 0.394619
O O12 0.500000 0.718155 0.500000
O O13 0.623566 0.000000 0.727027
O O14 0.527220 0.000000 0.913436
O O15 0.500000 0.277953 0.000000
O O16 0.025183 0.500000 0.921545
O O17 0.000000 0.787411 0.000000
#
# Coordination Sequence:
#
# PCOD9146031 Si02
#       6
#     4   4   4   4   4   4
#     4  10  19  32  56  83 108 138 175 219 263 316
#     4  10  22  40  58  76 106 146 182 221 270 317
#     4  10  19  33  57  82 106 137 177 221 261 314
#     4   9  15  28  50  79 110 137 166 206 263 317
#     4   9  18  31  49  79 113 140 167 211 270 317
#     4  10  23  41  57  75 106 146 181 220 272 319
#
# _framework density 23.498149000000002
#
# number of rings (size 3 to 8) (size 9 to 14) (size 15 to 20)
#    0.000    2.333    1.667    1.000    2.333    1.333 
#    0.000    0.833    0.000    2.000    0.000    0.000 
#    0.000    0.000    0.000    0.000    0.000    0.000 
#
# Total GULP energy -134020.233172 kJ/mol
# GULP energy per Si atom -5584.176382 kJ/mol
# Density = 2.344467 g / cm^3
# Si number density = 23.498149 Si / 1000 Ang^3
#
#
#
# Elastic Constant Matrix: (Units=GPa)
#
#
# Indices 1 2 3 4 5 6 
#
# 1 161.7657 3.0788 28.9935 0.0000 16.0032 0.0000
# 2 3.0788 93.0779 -2.4955 0.0000 -5.6241 0.0000
# 3 28.9935 -2.4955 84.7066 0.0000 23.8219 0.0000
# 4 0.0000 0.0000 0.0000 5.8351 0.0000 20.1900
# 5 16.0032 -5.6241 23.8219 0.0000 47.3852 0.0000
# 6 0.0000 0.0000 0.0000 20.1900 0.0000 -5.0313
#
#
#
# Elastic Compliance Matrix: (Units=1/GPa)
#
#
# Indices 1 2 3 4 5 6 
#
# 1 0.006664 -0.000352 -0.001918 0.000000 -0.001328 0.000000
# 2 -0.000352 0.010840 0.000052 0.000000 0.001379 0.000000
# 3 -0.001918 0.000052 0.014301 0.000000 -0.006536 0.000000
# 4 0.000000 0.000000 0.000000 0.011514 0.000000 0.046202
# 5 -0.001328 0.001379 -0.006536 0.000000 0.025002 0.000000
# 6 0.000000 0.000000 0.000000 0.046202 0.000000 -0.013353
#
#
# Mechanical properties :
#
#
# Convention : Reuss Voigt Hill
#
# Bulk Modulus (GPa) = 36.53705 44.30043 40.41874
# Shear Modulus (GPa) = 72.96455 30.30268 51.63361
#
# Velocity S-wave (km/s) = 5.57840 3.59496 4.69267
# Velocity P-wave (km/s) = 7.55474 6.01044 6.82640
#
# Compressibility (1/GPa) = 0.02736947
#
# Stress axis : x y z
#
# Youngs Moduli (GPa) = 150.06949 92.25028 69.92296
#
# Poissons Ratio (x) = 0.03248 0.13409
# Poissons Ratio (y) = 0.05284 -0.00363
# Poissons Ratio (z) = 0.28778 -0.00479
#
# Static dielectric constant tensor:
#      x y z
#    x 1.895260 0.000000 -0.031520 
#    y 0.000000 1.920650 0.000000 
#    z -0.031520 0.000000 1.875340 
# 
# From -- ./inp_files/45040.got.cif
#   From: 2010.05.17/outbox.cif.g08.bks.cpg/sg10_23_cif.got.tgz:45040.got - 2010.06.03 11:33:40.
