data_PCOD9146974
_publ_section_title
;
Structure prediction by ZEFSAII (Michael W. Deem and Ramdas Pophale) SiO2 
 PCOD9146974
Probable space group: P 2/M
;
_chemical_formula_sum "Si O2"
_cell_formula_units_Z 32
_cell_length_a 7.000898
_cell_length_b 19.370630
_cell_length_c 11.627056
_cell_angle_alpha 90.000000
_cell_angle_beta 89.075565
_cell_angle_gamma 90.000000
_cell_volume 1576.560822
_symmetry_space_group_name_H-M "P 2/M"
_symmetry_group_IT_number 10
_symmetry_cell_setting 'monoclinic'
loop_
_space_group_symop_operation_xyz
x,y,z
-x,y,-z
-x,-y,-z
x,-y,z
loop_
_atom_site_type_symbol
_atom_site_label
_atom_site_fract_x
_atom_site_fract_y
_atom_site_fract_z
Si Si1 0.227630 0.422994 0.992376
Si Si2 0.213858 0.193419 0.857784
Si Si3 0.997120 0.581066 0.638967
Si Si4 0.504054 0.420174 0.363071
Si Si5 0.733746 0.651962 0.769307
Si Si6 0.232318 0.800434 0.122306
Si Si7 0.495990 0.922191 0.860758
Si Si8 0.252826 0.659938 0.760440
O O1 0.300242 0.500000 0.969804
O O2 0.267570 0.373001 0.886800
O O3 0.287941 0.392755 0.113666
O O4 0.000000 0.427138 0.000000
O O5 0.309609 0.120766 0.826333
O O6 0.249652 0.257057 0.771932
O O7 0.990122 0.184839 0.870622
O O8 0.283651 0.211966 0.987090
O O9 0.001005 0.500000 0.674312
O O10 0.243634 0.597601 0.658408
O O11 0.000000 0.590620 0.500000
O O12 0.991209 0.646862 0.739795
O O13 0.500000 0.413949 0.500000
O O14 0.510030 0.500000 0.324145
O O15 0.251933 0.406356 0.340615
O O16 0.503334 0.350040 0.278119
O O17 0.732027 0.732218 0.805058
O O18 0.338694 0.867644 0.168144
O O19 0.510500 0.000000 0.815443
O O20 0.500000 0.927427 0.000000
#
# Coordination Sequence:
#
# PCOD9146974 Si02
#       8
#     4   4   4   4   4   4   4   4
#     4  11  20  31  51  79 107 138 186 241 286 341
#     4  10  19  34  55  84 120 155 187 233 297 353
#     4  11  22  35  53  75 104 150 200 242 283 326
#     4  11  25  41  53  71 105 151 202 254 303 345
#     4  12  21  36  55  76 109 147 189 240 294 350
#     4  10  19  34  55  84 120 155 187 233 297 353
#     4   9  19  34  54  82 118 159 197 225 270 357
#     4  12  21  36  55  76 109 147 189 240 294 350
#
# _framework density 20.297343999999999
#
# number of rings (size 3 to 8) (size 9 to 14) (size 15 to 20)
#    0.000    1.250    3.750    3.750    0.000    3.000 
#    0.000    3.750    0.000    0.000    0.000    0.000 
#    0.000   19.000    0.000    0.000    0.000    0.000 
#
# Total GULP energy -178437.505036 kJ/mol
# GULP energy per Si atom -5576.172032 kJ/mol
# Density = 2.025115 g / cm^3
# Si number density = 20.297344 Si / 1000 Ang^3
#
#
#
# Elastic Constant Matrix: (Units=GPa)
#
#
# Indices 1 2 3 4 5 6 
#
# 1 134.0593 47.2277 20.2412 0.0000 27.8931 0.0000
# 2 47.2277 181.3185 54.2674 0.0000 20.0260 0.0000
# 3 20.2412 54.2674 77.8334 0.0000 8.2210 0.0000
# 4 0.0000 0.0000 0.0000 9.0747 0.0000 1.0743
# 5 27.8931 20.0260 8.2210 0.0000 40.0056 0.0000
# 6 0.0000 0.0000 0.0000 1.0743 0.0000 29.4449
#
#
#
# Elastic Compliance Matrix: (Units=1/GPa)
#
#
# Indices 1 2 3 4 5 6 
#
# 1 0.009278 -0.001591 -0.000720 0.000000 -0.005525 0.000000
# 2 -0.001591 0.007505 -0.004640 0.000000 -0.001694 0.000000
# 3 -0.000720 -0.004640 0.016327 0.000000 -0.000530 0.000000
# 4 0.000000 0.000000 0.000000 0.110675 0.000000 -0.004038
# 5 -0.005525 -0.001694 -0.000530 0.000000 0.029805 0.000000
# 6 0.000000 0.000000 0.000000 -0.004038 0.000000 0.034109
#
#
# Mechanical properties :
#
#
# Convention : Reuss Voigt Hill
#
# Bulk Modulus (GPa) = 52.06319 70.74265 61.40292
# Shear Modulus (GPa) = 21.92941 33.80338 27.86639
#
# Velocity S-wave (km/s) = 3.29052 4.08537 3.70930
# Velocity P-wave (km/s) = 6.33582 7.56191 6.97586
#
# Compressibility (1/GPa) = 0.01920743
#
# Stress axis : x y z
#
# Youngs Moduli (GPa) = 107.78122 133.23575 61.24994
#
# Poissons Ratio (x) = 0.21197 0.04410
# Poissons Ratio (y) = 0.17148 0.28422
# Poissons Ratio (z) = 0.07761 0.61826
#
# Static dielectric constant tensor:
#      x y z
#    x 2.441110 0.000000 0.003620 
#    y 0.000000 1.643610 0.000000 
#    z 0.003620 0.000000 1.648440 
# 
# From -- ./inp_files/42968.got.cif
#   From: 2010.05.17/outbox.cif.g08.bks.cpg/sg10_22_cif.got.tgz:42968.got - 2010.06.03 11:33:40.
