data_PCOD9146693
_publ_section_title
;
Structure prediction by ZEFSAII (Michael W. Deem and Ramdas Pophale) SiO2 
 PCOD9146693
Probable space group: P 2/M
;
_chemical_formula_sum "Si O2"
_cell_formula_units_Z 28
_cell_length_a 9.926629
_cell_length_b 9.089161
_cell_length_c 28.345665
_cell_angle_alpha 90.000000
_cell_angle_beta 37.738806
_cell_angle_gamma 90.000000
_cell_volume 1565.338311
_symmetry_space_group_name_H-M "P 2/M"
_symmetry_group_IT_number 10
_symmetry_cell_setting 'monoclinic'
loop_
_space_group_symop_operation_xyz
x,y,z
-x,y,-z
-x,-y,-z
x,-y,z
loop_
_atom_site_type_symbol
_atom_site_label
_atom_site_fract_x
_atom_site_fract_y
_atom_site_fract_z
Si Si1 0.343962 0.675383 0.630321
Si Si2 0.659495 0.825613 0.807477
Si Si3 0.747813 0.171409 0.951528
Si Si4 0.063138 0.825617 0.627106
Si Si5 0.751761 0.670649 0.050792
Si Si6 0.145718 0.322699 0.504800
Si Si7 0.945943 0.324415 0.809041
O O1 0.333501 0.500000 0.623709
O O2 0.245754 0.757630 0.611888
O O3 0.595301 0.714189 0.571987
O O4 0.181260 0.705354 0.719269
O O5 0.420423 0.755155 0.868185
O O6 0.769739 0.746487 0.821981
O O7 0.828267 0.801586 0.717854
O O8 0.643691 0.000000 0.820792
O O9 0.907520 0.250380 0.870015
O O10 0.805458 0.000000 0.940824
O O11 0.500000 0.179791 0.000000
O O12 0.746748 0.252557 0.001503
O O13 0.069345 0.750215 0.574643
O O14 0.099317 0.000000 0.612980
O O15 0.685811 0.500000 0.065391
O O16 0.000000 0.678161 0.000000
O O17 0.128584 0.500000 0.513674
O O18 0.000000 0.277603 0.500000
O O19 0.915342 0.500000 0.820497
#
# Coordination Sequence:
#
# PCOD9146693 Si02
#       7
#     4   4   4   4   4   4   4
#     4   9  19  36  58  84 112 144 186 232 276 327
#     4  10  20  36  57  82 114 147 185 229 279 336
#     4  11  22  36  58  85 114 149 187 228 279 335
#     4  10  21  36  58  86 113 143 184 230 276 329
#     4  11  24  40  58  83 112 147 191 234 277 328
#     4  10  21  38  58  81 113 150 186 225 276 332
#     4  10  19  33  57  85 113 143 186 240 282 320
#
# _framework density 17.887506999999999
#
# number of rings (size 3 to 8) (size 9 to 14) (size 15 to 20)
#    0.000    1.857    1.429    2.571    0.000    6.571 
#    2.571    0.000    0.000    0.000    0.000    0.000 
#    0.000    0.000    0.000    0.000    0.000    0.000 
#
# Total GULP energy -156358.851629 kJ/mol
# GULP energy per Si atom -5584.244701 kJ/mol
# Density = 1.784679 g / cm^3
# Si number density = 17.887507 Si / 1000 Ang^3
#
#
#
# Elastic Constant Matrix: (Units=GPa)
#
#
# Indices 1 2 3 4 5 6 
#
# 1 92.5419 55.8994 68.0516 0.0000 -0.9104 0.0000
# 2 55.8994 92.4868 69.9553 0.0000 -1.9679 0.0000
# 3 68.0516 69.9553 119.2711 0.0000 -1.8950 0.0000
# 4 0.0000 0.0000 0.0000 29.5078 0.0000 -4.5153
# 5 -0.9104 -1.9679 -1.8950 0.0000 22.0978 0.0000
# 6 0.0000 0.0000 0.0000 -4.5153 0.0000 -19.2031
#
#
#
# Elastic Compliance Matrix: (Units=1/GPa)
#
#
# Indices 1 2 3 4 5 6 
#
# 1 0.020517 -0.006381 -0.007970 0.000000 -0.000406 0.000000
# 2 -0.006381 0.021431 -0.008915 0.000000 0.000881 0.000000
# 3 -0.007970 -0.008915 0.018168 0.000000 0.000436 0.000000
# 4 0.000000 0.000000 0.000000 0.032712 0.000000 -0.007692
# 5 -0.000406 0.000881 0.000436 0.000000 0.045352 0.000000
# 6 0.000000 0.000000 0.000000 -0.007692 0.000000 -0.050266
#
#
# Mechanical properties :
#
#
# Convention : Reuss Voigt Hill
#
# Bulk Modulus (GPa) = 73.61930 76.90139 75.26035
# Shear Modulus (GPa) = 35.97781 13.84007 24.90894
#
# Velocity S-wave (km/s) = 4.48966 2.78461 3.73571
# Velocity P-wave (km/s) = 8.25362 7.30916 7.79570
#
# Compressibility (1/GPa) = 0.01358339
#
# Stress axis : x y z
#
# Youngs Moduli (GPa) = 48.73942 46.66174 55.04274
#
# Poissons Ratio (x) = 0.29774 0.43871
# Poissons Ratio (y) = 0.31099 0.49071
# Poissons Ratio (z) = 0.38847 0.41599
#
# Static dielectric constant tensor:
#      x y z
#    x 1.579100 0.000000 -0.015910 
#    y 0.000000 1.598200 0.000000 
#    z -0.015910 0.000000 1.626080 
# 
# From -- ./inp_files/91815.got.cif
#   From: 2010.05.17/outbox.cif.g08.bks.cpg/sg10_46_cif.got.tgz:91815.got - 2010.06.03 11:33:40.
