data_PCOD9146901
_publ_section_title
;
Structure prediction by ZEFSAII (Michael W. Deem and Ramdas Pophale) SiO2 
 PCOD9146901
Probable space group: P 2/M
;
_chemical_formula_sum "Si O2"
_cell_formula_units_Z 32
_cell_length_a 11.965793
_cell_length_b 14.992135
_cell_length_c 14.106873
_cell_angle_alpha 90.000000
_cell_angle_beta 137.632330
_cell_angle_gamma 90.000000
_cell_volume 1705.382884
_symmetry_space_group_name_H-M "P 2/M"
_symmetry_group_IT_number 10
_symmetry_cell_setting 'monoclinic'
loop_
_space_group_symop_operation_xyz
x,y,z
-x,y,-z
-x,-y,-z
x,-y,z
loop_
_atom_site_type_symbol
_atom_site_label
_atom_site_fract_x
_atom_site_fract_y
_atom_site_fract_z
Si Si1 0.644310 0.104818 0.727369
Si Si2 0.810997 0.730893 0.907091
Si Si3 0.641938 0.357265 0.302214
Si Si4 0.566705 0.396864 0.645120
Si Si5 0.096083 0.597108 0.683080
Si Si6 0.295239 0.603659 0.998749
Si Si7 0.112004 0.772951 0.483515
Si Si8 0.738385 0.104403 0.574029
O O1 0.712630 0.175607 0.845208
O O2 0.735301 0.125036 0.683959
O O3 0.449641 0.117158 0.582376
O O4 0.670047 0.000000 0.766357
O O5 0.712330 0.668257 0.770342
O O6 0.802730 0.673047 0.997439
O O7 0.000000 0.746836 0.000000
O O8 0.574938 0.390529 0.361984
O O9 0.796644 0.402459 0.346186
O O10 0.710532 0.257938 0.363074
O O11 0.485983 0.369865 0.135266
O O12 0.500000 0.370636 0.500000
O O13 0.621627 0.500000 0.674431
O O14 0.015300 0.500000 0.645310
O O15 0.226769 0.608038 0.850246
O O16 0.975788 0.681640 0.606735
O O17 0.277550 0.500000 0.019656
O O18 0.140997 0.837500 0.414365
O O19 0.000000 0.808084 0.500000
O O20 0.776533 0.000000 0.588365
#
# Coordination Sequence:
#
# PCOD9146901 Si02
#       8
#     4   4   4   4   4   4   4   4
#     4   9  20  37  60  85 104 138 187 227 272 334
#     4  11  23  34  54  80 112 147 170 230 283 332
#     4  10  19  34  55  75 105 145 189 234 260 310
#     4  10  22  36  53  80 111 152 195 228 269 324
#     4  10  21  35  53  77 109 149 187 228 271 311
#     4  10  21  36  53  75 104 148 195 223 260 320
#     4  10  22  34  53  86 116 138 177 229 281 331
#     4   9  18  36  62  83 106 139 181 228 273 331
#
# _framework density 18.764116000000001
#
# number of rings (size 3 to 8) (size 9 to 14) (size 15 to 20)
#    0.000    2.125    0.000    4.875    5.250    5.750 
#    0.000    2.500    0.000    0.000    0.000    0.000 
#    0.000   12.000    0.000    0.000    0.000    0.000 
#
# Total GULP energy -178509.982840 kJ/mol
# GULP energy per Si atom -5578.436964 kJ/mol
# Density = 1.872141 g / cm^3
# Si number density = 18.764116 Si / 1000 Ang^3
#
#
#
# Elastic Constant Matrix: (Units=GPa)
#
#
# Indices 1 2 3 4 5 6 
#
# 1 64.4397 45.0556 31.0104 0.0000 -5.9149 0.0000
# 2 45.0556 62.2184 21.8765 0.0000 -0.0356 0.0000
# 3 31.0104 21.8765 62.5316 0.0000 -15.6150 0.0000
# 4 0.0000 0.0000 0.0000 12.8831 0.0000 -7.9716
# 5 -5.9149 -0.0356 -15.6150 0.0000 27.2195 0.0000
# 6 0.0000 0.0000 0.0000 -7.9716 0.0000 15.3906
#
#
#
# Elastic Compliance Matrix: (Units=1/GPa)
#
#
# Indices 1 2 3 4 5 6 
#
# 1 0.036353 -0.023039 -0.009341 0.000000 0.002511 0.000000
# 2 -0.023039 0.033363 -0.001734 0.000000 -0.005958 0.000000
# 3 -0.009341 -0.001734 0.024188 0.000000 0.011844 0.000000
# 4 0.000000 0.000000 0.000000 0.114230 0.000000 0.059166
# 5 0.002511 -0.005958 0.011844 0.000000 0.044071 0.000000
# 6 0.000000 0.000000 0.000000 0.059166 0.000000 0.095620
#
#
# Mechanical properties :
#
#
# Convention : Reuss Voigt Hill
#
# Bulk Modulus (GPa) = 38.94696 42.78608 40.86652
# Shear Modulus (GPa) = 11.77549 17.18180 14.47865
#
# Velocity S-wave (km/s) = 2.50782 3.02929 2.78081
# Velocity P-wave (km/s) = 5.40247 5.92343 5.66894
#
# Compressibility (1/GPa) = 0.02567595
#
# Stress axis : x y z
#
# Youngs Moduli (GPa) = 27.50834 29.97372 41.34216
#
# Poissons Ratio (x) = 0.69057 0.38616
# Poissons Ratio (y) = 0.63377 0.07169
# Poissons Ratio (z) = 0.25694 0.05198
#
# Static dielectric constant tensor:
#      x y z
#    x 1.665050 0.000000 -0.002260 
#    y 0.000000 1.660160 0.000000 
#    z -0.002260 0.000000 1.666230 
# 
# From -- ./inp_files/65131.got.cif
#   From: 2010.05.17/outbox.cif.g08.bks.cpg/sg10_33_cif.got.tgz:65131.got - 2010.06.03 11:33:40.
