data_PCOD9146405
_publ_section_title
;
Structure prediction by ZEFSAII (Michael W. Deem and Ramdas Pophale) SiO2 
 PCOD9146405
Probable space group: P 2/M
;
_chemical_formula_sum "Si O2"
_cell_formula_units_Z 32
_cell_length_a 15.858444
_cell_length_b 7.745577
_cell_length_c 21.421056
_cell_angle_alpha 90.000000
_cell_angle_beta 152.788164
_cell_angle_gamma 90.000000
_cell_volume 1203.203259
_symmetry_space_group_name_H-M "P 2/M"
_symmetry_group_IT_number 10
_symmetry_cell_setting 'monoclinic'
loop_
_space_group_symop_operation_xyz
x,y,z
-x,y,-z
-x,-y,-z
x,-y,z
loop_
_atom_site_type_symbol
_atom_site_label
_atom_site_fract_x
_atom_site_fract_y
_atom_site_fract_z
Si Si1 0.951401 0.205798 0.305254
Si Si2 0.724840 0.205386 0.783379
Si Si3 0.380923 0.204069 0.986166
Si Si4 0.043636 0.705518 0.187676
Si Si5 0.300176 0.701156 0.602628
Si Si6 0.732593 0.209981 0.284263
Si Si7 0.305041 0.700540 0.104494
Si Si8 0.386607 0.793266 0.486852
O O1 0.819909 0.279213 0.163705
O O2 0.853781 0.266412 0.305169
O O3 0.166749 0.232247 0.460535
O O4 0.927680 0.000000 0.285406
O O5 0.844003 0.238435 0.800168
O O6 0.790946 0.291415 0.890451
O O7 0.517021 0.270075 0.628815
O O8 0.724613 0.000000 0.793632
O O9 0.363648 0.000000 0.987543
O O10 0.500000 0.216945 0.000000
O O11 0.522736 0.272951 0.131274
O O12 0.031149 0.500000 0.179487
O O13 0.173744 0.755232 0.331400
O O14 0.837142 0.776729 0.039580
O O15 0.324463 0.500000 0.606743
O O16 0.204851 0.726778 0.607419
O O17 0.498758 0.785405 0.749147
O O18 0.736214 0.000000 0.287257
O O19 0.335102 0.500000 0.108828
O O20 0.500000 0.732532 0.500000
O O21 0.399810 0.000000 0.497833
#
# Coordination Sequence:
#
# PCOD9146405 Si02
#       8
#     4   4   4   4   4   4   4   4
#     4   9  17  32  55  79 101 127 164 208 250 297
#     4  10  20  34  55  81 104 127 160 206 256 300
#     4   7  12  26  50  77 100 122 155 203 251 293
#     4  10  19  33  55  78 100 132 171 205 243 295
#     4  11  23  36  48  68 103 140 171 206 247 291
#     4   9  17  32  55  79 100 127 165 206 250 300
#     4  10  23  39  50  67 100 139 175 208 243 291
#     4   8  16  31  50  77 108 128 153 202 254 296
#
# _framework density 26.595675
#
# number of rings (size 3 to 8) (size 9 to 14) (size 15 to 20)
#    0.000    2.750    0.000    4.125    0.000    8.250 
#    0.000    1.875    0.000    8.250    0.000    0.000 
#    0.000    0.000    0.000    0.000    0.000    0.000 
#
# Total GULP energy -178848.151202 kJ/mol
# GULP energy per Si atom -5589.004725 kJ/mol
# Density = 2.653514 g / cm^3
# Si number density = 26.595675 Si / 1000 Ang^3
#
#
#
# Elastic Constant Matrix: (Units=GPa)
#
#
# Indices 1 2 3 4 5 6 
#
# 1 72.9495 3.0073 48.4559 0.0000 -20.1948 0.0000
# 2 3.0073 70.3163 3.8406 0.0000 -7.8414 0.0000
# 3 48.4559 3.8406 268.3122 0.0000 -20.0445 0.0000
# 4 0.0000 0.0000 0.0000 52.3539 0.0000 -63.7083
# 5 -20.1948 -7.8414 -20.0445 0.0000 60.8664 0.0000
# 6 0.0000 0.0000 0.0000 -63.7083 0.0000 183.0510
#
#
#
# Elastic Compliance Matrix: (Units=1/GPa)
#
#
# Indices 1 2 3 4 5 6 
#
# 1 0.016787 -0.000050 -0.002681 0.000000 0.004680 0.000000
# 2 -0.000050 0.014430 -0.000061 0.000000 0.001822 0.000000
# 3 -0.002681 -0.000061 0.004250 0.000000 0.000502 0.000000
# 4 0.000000 0.000000 0.000000 0.033133 0.000000 0.011532
# 5 0.004680 0.001822 0.000502 0.000000 0.018382 0.000000
# 6 0.000000 0.000000 0.000000 0.011532 0.000000 0.009476
#
#
# Mechanical properties :
#
#
# Convention : Reuss Voigt Hill
#
# Bulk Modulus (GPa) = 33.46498 58.02063 45.74281
# Shear Modulus (GPa) = 44.64134 83.00587 63.82361
#
# Velocity S-wave (km/s) = 4.10142 5.59268 4.90406
# Velocity P-wave (km/s) = 5.91938 7.97291 7.02162
#
# Compressibility (1/GPa) = 0.02988199
#
# Stress axis : x y z
#
# Youngs Moduli (GPa) = 59.57058 69.29931 235.31603
#
# Poissons Ratio (x) = 0.00343 0.63094
# Poissons Ratio (y) = 0.00295 0.01446
# Poissons Ratio (z) = 0.15972 0.00426
#
# Static dielectric constant tensor:
#      x y z
#    x 2.176870 0.000000 0.086550 
#    y 0.000000 1.941150 0.000000 
#    z 0.086550 0.000000 2.180850 
# 
# From -- ./inp_files/93742.got.cif
#   From: 2010.05.17/outbox.cif.g08.bks.cpg/sg10_47_cif.got.tgz:93742.got - 2010.06.03 11:33:40.
