data_PCOD9146264
_publ_section_title
;
Structure prediction by ZEFSAII (Michael W. Deem and Ramdas Pophale) SiO2 
 PCOD9146264
Probable space group: P 2/M
;
_chemical_formula_sum "Si O2"
_cell_formula_units_Z 30
_cell_length_a 14.216446
_cell_length_b 14.021588
_cell_length_c 9.433125
_cell_angle_alpha 90.000000
_cell_angle_beta 116.634301
_cell_angle_gamma 90.000000
_cell_volume 1680.838456
_symmetry_space_group_name_H-M "P 2/M"
_symmetry_group_IT_number 10
_symmetry_cell_setting 'monoclinic'
loop_
_space_group_symop_operation_xyz
x,y,z
-x,y,-z
-x,-y,-z
x,-y,z
loop_
_atom_site_type_symbol
_atom_site_label
_atom_site_fract_x
_atom_site_fract_y
_atom_site_fract_z
Si Si1 0.500000 0.834741 0.500000
Si Si2 0.041328 0.607912 0.819487
Si Si3 0.818633 0.390395 0.346370
Si Si4 0.161928 0.712329 0.341525
Si Si5 0.562184 0.270355 0.829704
Si Si6 0.291599 0.108998 0.525246
Si Si7 0.254583 0.609008 0.146611
Si Si8 0.350424 0.764974 0.828332
O O1 0.456417 0.775861 0.335870
O O2 0.602818 0.885839 0.501393
O O3 0.998629 0.500000 0.819248
O O4 0.077668 0.611900 0.680791
O O5 0.956259 0.689616 0.791293
O O6 0.148693 0.617575 0.981222
O O7 0.780570 0.500000 0.315676
O O8 0.831090 0.354513 0.514854
O O9 0.741691 0.311925 0.227573
O O10 0.202302 0.817653 0.408497
O O11 0.238920 0.674074 0.272878
O O12 0.641178 0.357838 0.864066
O O13 0.447761 0.289129 0.817867
O O14 0.615767 0.206050 0.990067
O O15 0.321952 0.149842 0.701720
O O16 0.256108 0.000000 0.507481
O O17 0.264178 0.500000 0.196721
#
# Coordination Sequence:
#
# PCOD9146264 Si02
#       8
#     2   4   4   4   4   4   4   4
#     4  10  19  38  61  84 110 142 181 230 285 340
#     4  10  20  34  55  82 112 153 197 227 263 321
#     4  10  19  33  53  81 110 148 194 226 265 326
#     4  11  21  35  54  81 114 146 179 238 282 320
#     4  10  19  36  54  83 114 149 183 220 282 332
#     4  10  21  38  61  85 107 141 184 233 286 338
#     4  11  21  34  54  83 118 152 190 224 267 331
#     4   9  20  35  57  78 116 147 182 231 277 335
#
# _framework density 17.848234999999999
#
# number of rings (size 3 to 8) (size 9 to 14) (size 15 to 20)
#    0.000    1.867    2.667    2.200    0.000    2.667 
#    0.000    7.667    0.000    8.000    0.000    0.000 
#    0.000    0.000    0.000    0.000    0.000    0.000 
#
# Total GULP energy -167103.927966 kJ/mol
# GULP energy per Si atom -5570.130932 kJ/mol
# Density = 1.780761 g / cm^3
# Si number density = 17.848235 Si / 1000 Ang^3
#
#
#
# Elastic Constant Matrix: (Units=GPa)
#
#
# Indices 1 2 3 4 5 6 
#
# 1 67.1067 44.4758 15.4932 0.0000 2.8502 0.0000
# 2 44.4758 105.3588 32.6566 0.0000 8.8162 0.0000
# 3 15.4932 32.6566 85.7755 0.0000 -7.9880 0.0000
# 4 0.0000 0.0000 0.0000 11.3713 0.0000 2.2181
# 5 2.8502 8.8162 -7.9880 0.0000 29.3874 0.0000
# 6 0.0000 0.0000 0.0000 2.2181 0.0000 13.2894
#
#
#
# Elastic Compliance Matrix: (Units=1/GPa)
#
#
# Indices 1 2 3 4 5 6 
#
# 1 0.020713 -0.008660 -0.000399 0.000000 0.000481 0.000000
# 2 -0.008660 0.014982 -0.004597 0.000000 -0.004904 0.000000
# 3 -0.000399 -0.004597 0.013966 0.000000 0.005214 0.000000
# 4 0.000000 0.000000 0.000000 0.090900 0.000000 -0.015172
# 5 0.000481 -0.004904 0.005214 0.000000 0.036870 0.000000
# 6 0.000000 0.000000 0.000000 -0.015172 0.000000 0.077780
#
#
# Mechanical properties :
#
#
# Convention : Reuss Voigt Hill
#
# Bulk Modulus (GPa) = 44.74448 49.27689 47.01069
# Shear Modulus (GPa) = 17.24295 21.85065 19.54680
#
# Velocity S-wave (km/s) = 3.11157 3.50272 3.31292
# Velocity P-wave (km/s) = 6.16709 6.63532 6.40548
#
# Compressibility (1/GPa) = 0.02234913
#
# Stress axis : x y z
#
# Youngs Moduli (GPa) = 48.27864 66.74567 71.60222
#
# Poissons Ratio (x) = 0.57803 0.02860
# Poissons Ratio (y) = 0.41810 0.32912
# Poissons Ratio (z) = 0.01928 0.30680
#
# Static dielectric constant tensor:
#      x y z
#    x 1.626390 0.000000 0.006780 
#    y 0.000000 1.563780 0.000000 
#    z 0.006780 0.000000 1.678910 
# 
# From -- ./inp_files/25373.got.cif
#   From: 2010.05.17/outbox.cif.g08.bks.cpg/sg10_13_cif.got.tgz:25373.got - 2010.06.03 11:33:40.
