data_PCOD9146882
_publ_section_title
;
Structure prediction by ZEFSAII (Michael W. Deem and Ramdas Pophale) SiO2 
 PCOD9146882
Probable space group: P 2/M
;
_chemical_formula_sum "Si O2"
_cell_formula_units_Z 28
_cell_length_a 19.290255
_cell_length_b 9.116327
_cell_length_c 14.187871
_cell_angle_alpha 90.000000
_cell_angle_beta 146.268955
_cell_angle_gamma 90.000000
_cell_volume 1385.475847
_symmetry_space_group_name_H-M "P 2/M"
_symmetry_group_IT_number 10
_symmetry_cell_setting 'monoclinic'
loop_
_space_group_symop_operation_xyz
x,y,z
-x,y,-z
-x,-y,-z
x,-y,z
loop_
_atom_site_type_symbol
_atom_site_label
_atom_site_fract_x
_atom_site_fract_y
_atom_site_fract_z
Si Si1 0.725308 0.828115 0.111699
Si Si2 0.524230 0.671975 0.137515
Si Si3 0.677275 0.826020 0.458263
Si Si4 0.121169 0.664763 0.569199
Si Si5 0.526819 0.672838 0.640279
Si Si6 0.194143 0.674841 0.975600
Si Si7 0.922935 0.671221 0.703822
O O1 0.787211 0.781424 0.280038
O O2 0.811628 0.774159 0.124089
O O3 0.699650 0.000000 0.079022
O O4 0.600746 0.733643 0.956672
O O5 0.541192 0.500000 0.174086
O O6 0.636415 0.760398 0.310590
O O7 0.500000 0.695299 0.000000
O O8 0.573975 0.762550 0.413236
O O9 0.816948 0.767411 0.632901
O O10 0.672871 0.000000 0.452535
O O11 0.178330 0.500000 0.641146
O O12 0.088350 0.688807 0.423102
O O13 0.000000 0.664681 0.500000
O O14 0.500000 0.695129 0.500000
O O15 0.509371 0.500000 0.642847
O O16 0.672713 0.706480 0.825618
O O17 0.191138 0.500000 0.947097
O O18 0.067688 0.702611 0.891004
O O19 0.897510 0.500000 0.695139
#
# Coordination Sequence:
#
# PCOD9146882 Si02
#       7
#     4   4   4   4   4   4   4
#     4  12  23  33  52  84 121 159 202 256 313 362
#     4  11  23  39  59  82 116 166 216 259 303 363
#     4  12  25  40  61  93 130 166 202 257 324 380
#     4  10  19  34  54  79 115 166 220 260 301 359
#     4  10  22  43  73 101 122 155 207 264 319 380
#     4  10  20  39  65  89 118 158 205 254 304 367
#     4  10  21  38  61  87 120 168 214 256 306 365
#
# _framework density 20.209662999999999
#
# number of rings (size 3 to 8) (size 9 to 14) (size 15 to 20)
#    0.000    1.286    2.857    3.857    0.000    6.286 
#    0.000    0.714    0.000    4.286    0.000    0.000 
#    0.000    0.000    0.000    0.000    0.000    0.000 
#
# Total GULP energy -156453.345263 kJ/mol
# GULP energy per Si atom -5587.619474 kJ/mol
# Density = 2.016367 g / cm^3
# Si number density = 20.209663 Si / 1000 Ang^3
#
#
#
# Elastic Constant Matrix: (Units=GPa)
#
#
# Indices 1 2 3 4 5 6 
#
# 1 79.3745 58.3030 52.3196 0.0000 23.5278 0.0000
# 2 58.3030 93.7155 53.9473 0.0000 21.5994 0.0000
# 3 52.3196 53.9473 93.3750 0.0000 20.8934 0.0000
# 4 0.0000 0.0000 0.0000 -20.8359 0.0000 -12.4174
# 5 23.5278 21.5994 20.8934 0.0000 35.6074 0.0000
# 6 0.0000 0.0000 0.0000 -12.4174 0.0000 -2.8500
#
#
#
# Elastic Compliance Matrix: (Units=1/GPa)
#
#
# Indices 1 2 3 4 5 6 
#
# 1 0.028148 -0.011537 -0.007494 0.000000 -0.007203 0.000000
# 2 -0.011537 0.021504 -0.005464 0.000000 -0.002215 0.000000
# 3 -0.007494 -0.005464 0.018667 0.000000 -0.002687 0.000000
# 4 0.000000 0.000000 0.000000 0.030059 0.000000 -0.130970
# 5 -0.007203 -0.002215 -0.002687 0.000000 0.035764 0.000000
# 6 0.000000 0.000000 0.000000 -0.130970 0.000000 0.219761
#
#
# Mechanical properties :
#
#
# Convention : Reuss Voigt Hill
#
# Bulk Modulus (GPa) = 51.73940 66.17832 58.95886
# Shear Modulus (GPa) = 12.21490 9.17732 10.69611
#
# Velocity S-wave (km/s) = 2.46114 2.13329 2.30305
# Velocity P-wave (km/s) = 5.80803 6.23577 6.02570
#
# Compressibility (1/GPa) = 0.01932763
#
# Stress axis : x y z
#
# Youngs Moduli (GPa) = 35.52639 46.50293 53.57177
#
# Poissons Ratio (x) = 0.53653 0.40149
# Poissons Ratio (y) = 0.40988 0.29270
# Poissons Ratio (z) = 0.26625 0.25408
#
# Static dielectric constant tensor:
#      x y z
#    x 1.756300 0.000000 0.038380 
#    y 0.000000 1.675590 0.000000 
#    z 0.038380 0.000000 1.758010 
# 
# From -- ./inp_files/70281.got.cif
#   From: 2010.05.17/outbox.cif.g08.bks.cpg/sg10_36_cif.got.tgz:70281.got - 2010.06.03 11:33:40.
