data_PCOD9146033
_publ_section_title
;
Structure prediction by ZEFSAII (Michael W. Deem and Ramdas Pophale) SiO2 
 PCOD9146033
Probable space group: P 2/M
;
_chemical_formula_sum "Si O2"
_cell_formula_units_Z 32
_cell_length_a 10.208838
_cell_length_b 12.901510
_cell_length_c 21.650707
_cell_angle_alpha 90.000000
_cell_angle_beta 144.984491
_cell_angle_gamma 90.000000
_cell_volume 1636.244045
_symmetry_space_group_name_H-M "P 2/M"
_symmetry_group_IT_number 10
_symmetry_cell_setting 'monoclinic'
loop_
_space_group_symop_operation_xyz
x,y,z
-x,y,-z
-x,-y,-z
x,-y,z
loop_
_atom_site_type_symbol
_atom_site_label
_atom_site_fract_x
_atom_site_fract_y
_atom_site_fract_z
Si Si1 0.126988 0.161522 0.139293
Si Si2 0.808227 0.117260 0.696993
Si Si3 0.495710 0.686072 0.430982
Si Si4 0.755604 0.388068 0.785723
Si Si5 0.462359 0.383863 0.793765
Si Si6 0.960931 0.623603 0.557096
Si Si7 0.356968 0.168417 0.102194
Si Si8 0.320344 0.880026 0.880193
O O1 0.196992 0.113217 0.230576
O O2 0.108506 0.285441 0.143865
O O3 0.309707 0.141356 0.155576
O O4 0.875032 0.131680 0.020347
O O5 0.620046 0.201241 0.606447
O O6 0.062402 0.161188 0.780068
O O7 0.779834 0.000000 0.661321
O O8 0.500000 0.635677 0.500000
O O9 0.346845 0.627482 0.321750
O O10 0.751160 0.687208 0.503333
O O11 0.872376 0.500000 0.836202
O O12 0.552372 0.387706 0.757765
O O13 0.494911 0.500000 0.831936
O O14 0.600234 0.292691 0.880237
O O15 0.194501 0.359238 0.684977
O O16 0.907404 0.500000 0.539927
O O17 0.000000 0.647909 0.500000
O O18 0.564085 0.124959 0.142233
O O19 0.288490 0.000000 0.886561
O O20 0.500000 0.834415 0.000000
#
# Coordination Sequence:
#
# PCOD9146033 Si02
#       8
#     4   4   4   4   4   4   4   4
#     4   9  19  33  53  87 109 143 177 221 268 313
#     4  10  22  41  58  75 105 143 182 221 273 333
#     4  11  23  35  55  82 106 137 181 230 280 313
#     4   9  17  33  53  78 111 145 179 214 260 319
#     4   9  18  32  54  81 110 147 183 216 258 312
#     4  10  19  35  58  80 106 143 183 220 262 316
#     4  10  19  32  56  83 116 138 180 225 263 312
#     4  10  20  36  58  79 101 138 179 219 270 326
#
# _framework density 19.556985000000001
#
# number of rings (size 3 to 8) (size 9 to 14) (size 15 to 20)
#    0.000    2.250    2.500    0.375    1.750    2.250 
#    0.000    3.750    0.000    0.750    0.000    0.000 
#    0.000    0.000    0.000    0.000    0.000    0.000 
#
# Total GULP energy -178356.630572 kJ/mol
# GULP energy per Si atom -5573.644705 kJ/mol
# Density = 1.951247 g / cm^3
# Si number density = 19.556985 Si / 1000 Ang^3
#
#
#
# Elastic Constant Matrix: (Units=GPa)
#
#
# Indices 1 2 3 4 5 6 
#
# 1 102.7595 8.0620 32.0489 0.0000 13.4683 0.0000
# 2 8.0620 65.4942 15.4521 0.0000 13.3456 0.0000
# 3 32.0489 15.4521 54.2969 0.0000 6.4857 0.0000
# 4 0.0000 0.0000 0.0000 28.0464 0.0000 10.2829
# 5 13.4683 13.3456 6.4857 0.0000 30.6385 0.0000
# 6 0.0000 0.0000 0.0000 10.2829 0.0000 15.3662
#
#
#
# Elastic Compliance Matrix: (Units=1/GPa)
#
#
# Indices 1 2 3 4 5 6 
#
# 1 0.012449 0.001048 -0.007118 0.000000 -0.004422 0.000000
# 2 0.001048 0.017735 -0.004809 0.000000 -0.007168 0.000000
# 3 -0.007118 -0.004809 0.023969 0.000000 0.000150 0.000000
# 4 0.000000 0.000000 0.000000 0.047247 0.000000 -0.031617
# 5 -0.004422 -0.007168 0.000150 0.000000 0.037673 0.000000
# 6 0.000000 0.000000 0.000000 -0.031617 0.000000 0.086236
#
#
# Mechanical properties :
#
#
# Convention : Reuss Voigt Hill
#
# Bulk Modulus (GPa) = 30.86980 37.07518 33.97249
# Shear Modulus (GPa) = 19.38993 25.94274 22.66633
#
# Velocity S-wave (km/s) = 3.15216 3.64609 3.40809
# Velocity P-wave (km/s) = 5.39138 6.06003 5.73546
#
# Compressibility (1/GPa) = 0.03239412
#
# Stress axis : x y z
#
# Youngs Moduli (GPa) = 80.32914 56.38657 41.71974
#
# Poissons Ratio (x) = -0.05909 0.29696
# Poissons Ratio (y) = -0.08419 0.20065
# Poissons Ratio (z) = 0.57178 0.27119
#
# Static dielectric constant tensor:
#      x y z
#    x 1.686070 0.000000 0.001340 
#    y 0.000000 1.723120 0.000000 
#    z 0.001340 0.000000 1.686280 
# 
# From -- ./inp_files/35119.got.cif
#   From: 2010.05.17/outbox.cif.g08.bks.cpg/sg10_18_cif.got.tgz:35119.got - 2010.06.03 11:33:40.
