data_PCOD9146643
_publ_section_title
;
Structure prediction by ZEFSAII (Michael W. Deem and Ramdas Pophale) SiO2 
 PCOD9146643
Probable space group: P 2/M
;
_chemical_formula_sum "Si O2"
_cell_formula_units_Z 32
_cell_length_a 16.666526
_cell_length_b 7.573827
_cell_length_c 25.310775
_cell_angle_alpha 90.000000
_cell_angle_beta 153.497099
_cell_angle_gamma 90.000000
_cell_volume 1425.730519
_symmetry_space_group_name_H-M "P 2/M"
_symmetry_group_IT_number 10
_symmetry_cell_setting 'monoclinic'
loop_
_space_group_symop_operation_xyz
x,y,z
-x,y,-z
-x,-y,-z
x,-y,z
loop_
_atom_site_type_symbol
_atom_site_label
_atom_site_fract_x
_atom_site_fract_y
_atom_site_fract_z
Si Si1 0.552550 0.703950 0.666601
Si Si2 0.747727 0.796875 0.005537
Si Si3 0.438824 0.703330 0.210113
Si Si4 0.447266 0.215554 0.909112
Si Si5 0.843159 0.786304 0.447404
Si Si6 0.221212 0.206331 0.397761
Si Si7 0.960977 0.783854 0.331297
Si Si8 0.155055 0.214876 0.244131
O O1 0.502381 0.500000 0.644619
O O2 0.572325 0.780655 0.737149
O O3 0.395070 0.781577 0.537361
O O4 0.734785 0.717641 0.740863
O O5 0.672933 0.792610 0.902059
O O6 0.596109 0.719712 0.955183
O O7 0.769151 0.000000 0.035614
O O8 0.948726 0.723299 0.124909
O O9 0.378650 0.500000 0.176344
O O10 0.649049 0.712832 0.319383
O O11 0.242609 0.274530 0.778734
O O12 0.443764 0.000000 0.903505
O O13 0.500000 0.261084 0.000000
O O14 0.000000 0.733374 0.500000
O O15 0.907224 0.733387 0.543449
O O16 0.829136 0.000000 0.437324
O O17 0.244810 0.274317 0.352389
O O18 0.050802 0.279081 0.329800
O O19 0.181639 0.000000 0.367065
O O20 0.958200 0.000000 0.328842
O O21 0.160938 0.000000 0.243339
#
# Coordination Sequence:
#
# PCOD9146643 Si02
#       8
#     4   4   4   4   4   4   4   4
#     4  11  24  40  58  82 113 152 197 241 290 345
#     4  10  21  38  60  87 118 151 192 239 287 343
#     4  11  24  40  57  80 115 156 196 238 287 341
#     4   9  16  29  53  86 120 149 181 226 278 334
#     4  10  19  33  56  85 112 144 190 235 280 335
#     4  10  19  35  59  87 118 148 185 236 294 351
#     4   9  16  27  49  81 113 145 178 218 273 332
#     4  10  22  38  59  87 114 146 190 242 299 351
#
# _framework density 22.444634000000001
#
# number of rings (size 3 to 8) (size 9 to 14) (size 15 to 20)
#    0.000    2.000    1.250    2.625    0.000    9.750 
#    0.000    2.500    0.000    0.375    0.000    0.000 
#    0.000    0.000    0.000    0.000    0.000    0.000 
#
# Total GULP energy -178812.667127 kJ/mol
# GULP energy per Si atom -5587.895848 kJ/mol
# Density = 2.239355 g / cm^3
# Si number density = 22.444634 Si / 1000 Ang^3
#
#
#
# Elastic Constant Matrix: (Units=GPa)
#
#
# Indices 1 2 3 4 5 6 
#
# 1 133.0743 -3.6258 31.9753 0.0000 6.1609 0.0000
# 2 -3.6258 47.5158 -9.2594 0.0000 -1.0293 0.0000
# 3 31.9753 -9.2594 90.0935 0.0000 4.3267 0.0000
# 4 0.0000 0.0000 0.0000 206.4780 0.0000 53.7893
# 5 6.1609 -1.0293 4.3267 0.0000 37.9387 0.0000
# 6 0.0000 0.0000 0.0000 53.7893 0.0000 75.2133
#
#
#
# Elastic Compliance Matrix: (Units=1/GPa)
#
#
# Indices 1 2 3 4 5 6 
#
# 1 0.008254 0.000047 -0.002876 0.000000 -0.001011 0.000000
# 2 0.000047 0.021480 0.002175 0.000000 0.000327 0.000000
# 3 -0.002876 0.002175 0.012386 0.000000 -0.000887 0.000000
# 4 0.000000 0.000000 0.000000 0.005952 0.000000 -0.004257
# 5 -0.001011 0.000327 -0.000887 0.000000 0.026632 0.000000
# 6 0.000000 0.000000 0.000000 -0.004257 0.000000 0.016340
#
#
# Mechanical properties :
#
#
# Convention : Reuss Voigt Hill
#
# Bulk Modulus (GPa) = 24.50161 34.31818 29.40989
# Shear Modulus (GPa) = 47.18953 80.69892 63.94422
#
# Velocity S-wave (km/s) = 4.59026 6.00273 5.34337
# Velocity P-wave (km/s) = 6.24773 7.96034 7.15546
#
# Compressibility (1/GPa) = 0.04081365
#
# Stress axis : x y z
#
# Youngs Moduli (GPa) = 121.15737 46.55451 80.73372
#
# Poissons Ratio (x) = -0.00221 0.23218
# Poissons Ratio (y) = -0.00575 -0.17560
# Poissons Ratio (z) = 0.34844 -0.10126
#
# Static dielectric constant tensor:
#      x y z
#    x 1.834840 0.000000 -0.005330 
#    y 0.000000 1.882940 0.000000 
#    z -0.005330 0.000000 1.789560 
# 
# From -- ./inp_files/89620.got.cif
#   From: 2010.05.17/outbox.cif.g08.bks.cpg/sg10_45_cif.got.tgz:89620.got - 2010.06.03 11:33:40.
