data_PCOD9146902
_publ_section_title
;
Structure prediction by ZEFSAII (Michael W. Deem and Ramdas Pophale) SiO2 
 PCOD9146902
Probable space group: P 2/M
;
_chemical_formula_sum "Si O2"
_cell_formula_units_Z 28
_cell_length_a 18.893646
_cell_length_b 7.571920
_cell_length_c 23.835383
_cell_angle_alpha 90.000000
_cell_angle_beta 22.734725
_cell_angle_gamma 90.000000
_cell_volume 1317.814237
_symmetry_space_group_name_H-M "P 2/M"
_symmetry_group_IT_number 10
_symmetry_cell_setting 'monoclinic'
loop_
_space_group_symop_operation_xyz
x,y,z
-x,y,-z
-x,-y,-z
x,-y,z
loop_
_atom_site_type_symbol
_atom_site_label
_atom_site_fract_x
_atom_site_fract_y
_atom_site_fract_z
Si Si1 0.349312 0.704061 0.066706
Si Si2 0.070800 0.795393 0.773673
Si Si3 0.144877 0.291611 0.847323
Si Si4 0.459671 0.213380 0.465286
Si Si5 0.323609 0.199891 0.960321
Si Si6 0.907393 0.213446 0.652334
Si Si7 0.717335 0.215963 0.676560
O O1 0.393879 0.500000 0.021873
O O2 0.337238 0.804843 0.017711
O O3 0.162915 0.714577 0.237883
O O4 0.500000 0.776179 0.000000
O O5 0.111279 0.791840 0.810692
O O6 0.250186 0.723470 0.610023
O O7 0.870734 0.713023 0.911285
O O8 0.054756 0.000000 0.767180
O O9 0.112852 0.500000 0.864266
O O10 0.362223 0.266415 0.700790
O O11 0.000000 0.226524 0.000000
O O12 0.500000 0.270690 0.500000
O O13 0.455030 0.000000 0.467987
O O14 0.319711 0.000000 0.939716
O O15 0.519749 0.280766 0.801006
O O16 0.774026 0.269331 0.698440
O O17 0.111809 0.267548 0.486509
O O18 0.902635 0.000000 0.657549
O O19 0.710232 0.000000 0.682521
#
# Coordination Sequence:
#
# PCOD9146902 Si02
#       7
#     4   4   4   4   4   4   4
#     4  11  22  33  46  71 102 131 168 211 253 301
#     4   9  19  34  53  78 103 130 167 210 253 298
#     4  10  20  33  52  79 106 135 170 201 236 293
#     4   8  15  30  51  75 102 129 163 205 244 286
#     4  10  19  34  55  75  98 131 170 210 257 304
#     4   9  16  30  51  72  93 122 165 213 256 296
#     4   8  15  28  50  75  94 120 163 211 252 297
#
# _framework density 21.247305999999998
#
# number of rings (size 3 to 8) (size 9 to 14) (size 15 to 20)
#    0.000    2.714    1.429    2.571    0.000    4.857 
#    0.000    3.571    0.000    6.857    0.000    0.000 
#    0.000    0.000    0.000    0.000    0.000    0.000 
#
# Total GULP energy -156034.808257 kJ/mol
# GULP energy per Si atom -5572.671723 kJ/mol
# Density = 2.119895 g / cm^3
# Si number density = 21.247306 Si / 1000 Ang^3
#
#
#
# Elastic Constant Matrix: (Units=GPa)
#
#
# Indices 1 2 3 4 5 6 
#
# 1 21.2361 -6.2098 31.6140 0.0000 -15.1675 0.0000
# 2 -6.2098 55.8959 0.0363 0.0000 -5.0020 0.0000
# 3 31.6140 0.0363 202.5208 0.0000 -25.0292 0.0000
# 4 0.0000 0.0000 0.0000 29.2097 0.0000 11.7296
# 5 -15.1675 -5.0020 -25.0292 0.0000 41.8490 0.0000
# 6 0.0000 0.0000 0.0000 11.7296 0.0000 -0.4495
#
#
#
# Elastic Compliance Matrix: (Units=1/GPa)
#
#
# Indices 1 2 3 4 5 6 
#
# 1 0.083575 0.011598 -0.009862 0.000000 0.025778 0.000000
# 2 0.011598 0.019709 -0.001083 0.000000 0.005911 0.000000
# 3 -0.009862 -0.001083 0.006500 0.000000 0.000184 0.000000
# 4 0.000000 0.000000 0.000000 0.002982 0.000000 0.077828
# 5 0.025778 0.005911 0.000184 0.000000 0.034055 0.000000
# 6 0.000000 0.000000 0.000000 0.077828 0.000000 -0.193812
#
#
# Mechanical properties :
#
#
# Convention : Reuss Voigt Hill
#
# Bulk Modulus (GPa) = 9.00189 36.72598 22.86393
# Shear Modulus (GPa) = -443.81058 31.06932 -206.37063
#
# Velocity S-wave (km/s) = -14.46831 3.82811 -9.86604
# Velocity P-wave (km/s) = 16.57900 6.07139 10.90875
#
# Compressibility (1/GPa) = 0.11108778
#
# Stress axis : x y z
#
# Youngs Moduli (GPa) = 11.96535 50.73929 153.84108
#
# Poissons Ratio (x) = -0.58848 1.51725
# Poissons Ratio (y) = -0.13878 0.16668
# Poissons Ratio (z) = 0.11801 0.05497
#
# Static dielectric constant tensor:
#      x y z
#    x 1.747660 0.000000 -0.030720 
#    y 0.000000 1.791830 0.000000 
#    z -0.030720 0.000000 1.858970 
# 
# From -- ./inp_files/93522.got.cif
#   From: 2010.05.17/outbox.cif.g08.bks.cpg/sg10_47_cif.got.tgz:93522.got - 2010.06.03 11:33:40.
