data_PCOD9146782
_publ_section_title
;
Structure prediction by ZEFSAII (Michael W. Deem and Ramdas Pophale) SiO2 
 PCOD9146782
Probable space group: P 2/M
;
_chemical_formula_sum "Si O2"
_cell_formula_units_Z 32
_cell_length_a 12.644382
_cell_length_b 8.248360
_cell_length_c 20.925711
_cell_angle_alpha 90.000000
_cell_angle_beta 126.155821
_cell_angle_gamma 90.000000
_cell_volume 1762.148500
_symmetry_space_group_name_H-M "P 2/M"
_symmetry_group_IT_number 10
_symmetry_cell_setting 'monoclinic'
loop_
_space_group_symop_operation_xyz
x,y,z
-x,y,-z
-x,-y,-z
x,-y,z
loop_
_atom_site_type_symbol
_atom_site_label
_atom_site_fract_x
_atom_site_fract_y
_atom_site_fract_z
Si Si1 0.614777 0.695427 0.875854
Si Si2 0.146799 0.198710 0.291907
Si Si3 0.318754 0.804915 0.235467
Si Si4 0.319334 0.693226 0.737736
Si Si5 0.644229 0.695802 0.028555
Si Si6 0.148554 0.806919 0.792528
Si Si7 0.615090 0.195750 0.374234
Si Si8 0.355759 0.802044 0.472508
O O1 0.612379 0.500000 0.875269
O O2 0.694641 0.750235 0.842327
O O3 0.463935 0.751998 0.812166
O O4 0.664562 0.750849 0.962729
O O5 0.210256 0.250821 0.247220
O O6 0.243943 0.250218 0.383497
O O7 0.998881 0.255372 0.249691
O O8 0.146485 0.000000 0.291908
O O9 0.463467 0.751259 0.310660
O O10 0.319482 0.000000 0.236827
O O11 0.320363 0.500000 0.742449
O O12 0.210382 0.757362 0.746885
O O13 0.306627 0.743904 0.659513
O O14 0.642070 0.500000 0.027987
O O15 0.754174 0.749341 0.117136
O O16 0.500000 0.750432 0.000000
O O17 0.143378 0.000000 0.793010
O O18 0.663275 0.249735 0.460968
O O19 0.616009 0.000000 0.373643
O O20 0.500000 0.752060 0.500000
O O21 0.355985 0.000000 0.472141
#
# Coordination Sequence:
#
# PCOD9146782 Si02
#       8
#     4   4   4   4   4   4   4   4
#     4   9  18  32  52  75  98 127 167 212 254 299
#     4   9  18  32  49  75 110 141 165 204 260 310
#     4   9  16  29  50  76 105 132 163 206 255 300
#     4  10  19  34  52  71 102 140 171 206 260 308
#     4  10  19  36  56  74  99 133 173 213 256 304
#     4  11  22  34  51  77 107 135 170 211 254 306
#     4   9  16  27  51  83 103 124 170 221 254 292
#     4   9  14  26  51  80 106 133 170 212 255 300
#
# _framework density 18.159649999999999
#
# number of rings (size 3 to 8) (size 9 to 14) (size 15 to 20)
#    0.000    2.500    2.500    0.750    0.000    1.250 
#    0.000    2.500    0.000   10.125    0.000    0.000 
#    0.000    0.000    0.000    0.000    0.000    0.000 
#
# Total GULP energy -178454.703295 kJ/mol
# GULP energy per Si atom -5576.709478 kJ/mol
# Density = 1.811832 g / cm^3
# Si number density = 18.159650 Si / 1000 Ang^3
#
#
#
# Elastic Constant Matrix: (Units=GPa)
#
#
# Indices 1 2 3 4 5 6 
#
# 1 176.4811 15.0481 108.8867 0.0000 -20.3798 0.0000
# 2 15.0481 6.4345 15.4844 0.0000 -2.3682 0.0000
# 3 108.8867 15.4844 138.6568 0.0000 -18.5873 0.0000
# 4 0.0000 0.0000 0.0000 -87.3786 0.0000 108.3350
# 5 -20.3798 -2.3682 -18.5873 0.0000 33.7464 0.0000
# 6 0.0000 0.0000 0.0000 108.3350 0.0000 -116.4287
#
#
#
# Elastic Compliance Matrix: (Units=1/GPa)
#
#
# Indices 1 2 3 4 5 6 
#
# 1 0.011339 -0.006833 -0.007868 0.000000 0.002034 0.000000
# 2 -0.006833 0.216768 -0.018739 0.000000 0.000764 0.000000
# 3 -0.007868 -0.018739 0.015840 0.000000 0.002658 0.000000
# 4 0.000000 0.000000 0.000000 0.074486 0.000000 0.069308
# 5 0.002034 0.000764 0.002658 0.000000 0.032379 0.000000
# 6 0.000000 0.000000 0.000000 0.069308 0.000000 0.055901
#
#
# Mechanical properties :
#
#
# Convention : Reuss Voigt Hill
#
# Bulk Modulus (GPa) = 5.64762 66.71234 36.17998
# Shear Modulus (GPa) = 9.38764 -21.86864 -6.24050
#
# Velocity S-wave (km/s) = 2.27612 -3.47399 -1.85578
# Velocity P-wave (km/s) = 3.16613 4.55246 3.92105
#
# Compressibility (1/GPa) = 0.17706566
#
# Stress axis : x y z
#
# Youngs Moduli (GPa) = 88.19457 4.61322 63.13146
#
# Poissons Ratio (x) = 0.03152 0.49674
# Poissons Ratio (y) = 0.60267 1.18301
# Poissons Ratio (z) = 0.69395 0.08645
#
# Static dielectric constant tensor:
#      x y z
#    x 1.620460 0.000000 -0.013370 
#    y 0.000000 1.637580 0.000000 
#    z -0.013370 0.000000 1.615390 
# 
# From -- ./inp_files/55373.got.cif
#   From: 2010.05.17/outbox.cif.g08.bks.cpg/sg10_28_cif.got.tgz:55373.got - 2010.06.03 11:33:40.
