data_PCOD9146837
_publ_section_title
;
Structure prediction by ZEFSAII (Michael W. Deem and Ramdas Pophale) SiO2 
 PCOD9146837
Probable space group: P 2/M
;
_chemical_formula_sum "Si O2"
_cell_formula_units_Z 32
_cell_length_a 16.407979
_cell_length_b 8.359151
_cell_length_c 26.396845
_cell_angle_alpha 90.000000
_cell_angle_beta 150.271838
_cell_angle_gamma 90.000000
_cell_volume 1795.356690
_symmetry_space_group_name_H-M "P 2/M"
_symmetry_group_IT_number 10
_symmetry_cell_setting 'monoclinic'
loop_
_space_group_symop_operation_xyz
x,y,z
-x,y,-z
-x,-y,-z
x,-y,z
loop_
_atom_site_type_symbol
_atom_site_label
_atom_site_fract_x
_atom_site_fract_y
_atom_site_fract_z
Si Si1 0.476811 0.191128 0.728783
Si Si2 0.904231 0.304788 0.301410
Si Si3 0.023677 0.306915 0.773173
Si Si4 0.844480 0.804846 0.948161
Si Si5 0.232723 0.808872 0.980753
Si Si6 0.407102 0.691398 0.802367
Si Si7 0.727832 0.306914 0.477330
Si Si8 0.344279 0.304801 0.448093
O O1 0.667775 0.245279 0.830379
O O2 0.403504 0.252716 0.742226
O O3 0.374372 0.246147 0.625243
O O4 0.477731 0.000000 0.731287
O O5 0.902552 0.500000 0.300850
O O6 0.903093 0.256008 0.241805
O O7 0.748636 0.248658 0.249545
O O8 0.080773 0.256009 0.419483
O O9 0.025677 0.500000 0.775089
O O10 0.126986 0.246148 0.876114
O O11 0.832240 0.256078 0.670003
O O12 0.848018 0.000000 0.949340
O O13 0.844418 0.754720 0.007020
O O14 0.000000 0.747644 0.000000
O O15 0.238392 0.000000 0.984839
O O16 0.419669 0.747287 0.080949
O O17 0.403957 0.500000 0.801320
O O18 0.726084 0.500000 0.475498
O O19 0.654468 0.256078 0.492232
O O20 0.500000 0.248467 0.500000
O O21 0.346346 0.500000 0.448782
#
# Coordination Sequence:
#
# PCOD9146837 Si02
#       8
#     4   4   4   4   4   4   4   4
#     4  10  20  33  49  73 102 126 155 198 246 289
#     4   8  17  33  52  72  93 125 167 203 231 275
#     4   9  17  32  52  72  97 129 164 198 236 284
#     4   8  16  32  50  65  89 128 163 189 226 281
#     4  10  20  33  49  73 102 126 155 198 246 289
#     4  10  19  34  54  71  91 124 167 204 236 281
#     4   9  17  32  52  72  97 129 164 198 236 284
#     4   8  15  29  50  75 101 128 161 204 245 277
#
# _framework density 17.823757000000001
#
# number of rings (size 3 to 8) (size 9 to 14) (size 15 to 20)
#    0.000    3.000    0.000    3.375    0.000    2.000 
#    0.000   10.000    0.000   13.500    0.000    0.000 
#    0.000    0.000    0.000    0.000    0.000    0.000 
#
# Total GULP energy -178373.427641 kJ/mol
# GULP energy per Si atom -5574.169614 kJ/mol
# Density = 1.778319 g / cm^3
# Si number density = 17.823757 Si / 1000 Ang^3
#
#
#
# Elastic Constant Matrix: (Units=GPa)
#
#
# Indices 1 2 3 4 5 6 
#
# 1 184.6154 25.3046 139.7304 0.0000 20.5756 0.0000
# 2 25.3046 20.0153 25.9311 0.0000 -0.4035 0.0000
# 3 139.7304 25.9311 179.1897 0.0000 -17.1027 0.0000
# 4 0.0000 0.0000 0.0000 -5.1643 0.0000 9.2155
# 5 20.5756 -0.4035 -17.1027 0.0000 30.6205 0.0000
# 6 0.0000 0.0000 0.0000 9.2155 0.0000 9.1827
#
#
#
# Elastic Compliance Matrix: (Units=1/GPa)
#
#
# Indices 1 2 3 4 5 6 
#
# 1 0.028135 -0.004645 -0.024377 0.000000 -0.032582 0.000000
# 2 -0.004645 0.062822 -0.005379 0.000000 0.000944 0.000000
# 3 -0.024377 -0.005379 0.028441 0.000000 0.032194 0.000000
# 4 0.000000 0.000000 0.000000 -0.069383 0.000000 0.069631
# 5 -0.032582 0.000944 0.032194 0.000000 0.072545 0.000000
# 6 0.000000 0.000000 0.000000 0.069631 0.000000 0.039021
#
#
# Mechanical properties :
#
#
# Convention : Reuss Voigt Hill
#
# Bulk Modulus (GPa) = 19.76435 85.08359 52.42397
# Shear Modulus (GPa) = 20.22271 19.78474 20.00372
#
# Velocity S-wave (km/s) = 3.37203 3.33531 3.35372
# Velocity P-wave (km/s) = 5.12578 7.91657 6.66880
#
# Compressibility (1/GPa) = 0.05059615
#
# Stress axis : x y z
#
# Youngs Moduli (GPa) = 35.54334 15.91799 35.16097
#
# Poissons Ratio (x) = 0.07393 0.85711
# Poissons Ratio (y) = 0.16509 0.18913
# Poissons Ratio (z) = 0.86643 0.08562
#
# Static dielectric constant tensor:
#      x y z
#    x 1.608230 0.000000 0.008330 
#    y 0.000000 1.617630 0.000000 
#    z 0.008330 0.000000 1.595270 
# 
# From -- ./inp_files/89590.got.cif
#   From: 2010.05.17/outbox.cif.g08.bks.cpg/sg10_45_cif.got.tgz:89590.got - 2010.06.03 11:33:40.
