data_PCOD9146406
_publ_section_title
;
Structure prediction by ZEFSAII (Michael W. Deem and Ramdas Pophale) SiO2 
 PCOD9146406
Probable space group: P 2/M
;
_chemical_formula_sum "Si O2"
_cell_formula_units_Z 32
_cell_length_a 13.201252
_cell_length_b 13.694290
_cell_length_c 13.149202
_cell_angle_alpha 90.000000
_cell_angle_beta 45.349166
_cell_angle_gamma 90.000000
_cell_volume 1691.101248
_symmetry_space_group_name_H-M "P 2/M"
_symmetry_group_IT_number 10
_symmetry_cell_setting 'monoclinic'
loop_
_space_group_symop_operation_xyz
x,y,z
-x,y,-z
-x,-y,-z
x,-y,z
loop_
_atom_site_type_symbol
_atom_site_label
_atom_site_fract_x
_atom_site_fract_y
_atom_site_fract_z
Si Si1 0.074734 0.612987 0.641347
Si Si2 0.742385 0.194451 0.151824
Si Si3 0.447691 0.111558 0.419482
Si Si4 0.837555 0.801059 0.314776
Si Si5 0.766244 0.696073 0.828103
Si Si6 0.665869 0.612144 0.699176
Si Si7 0.344603 0.387522 0.883252
Si Si8 0.866574 0.888683 0.860134
O O1 0.067008 0.500000 0.678672
O O2 0.113232 0.689816 0.702363
O O3 0.199862 0.622374 0.469981
O O4 0.922362 0.646990 0.705503
O O5 0.579962 0.156077 0.265971
O O6 0.806635 0.179351 0.218140
O O7 0.736917 0.308869 0.127760
O O8 0.825129 0.137813 0.005420
O O9 0.500000 0.109347 0.500000
O O10 0.305211 0.175174 0.521912
O O11 0.418875 0.000000 0.408743
O O12 0.964965 0.868448 0.264820
O O13 0.681547 0.682273 0.784187
O O14 0.789439 0.807879 0.845173
O O15 0.692320 0.640634 0.974436
O O16 0.667145 0.500000 0.737422
O O17 0.514743 0.624518 0.750428
O O18 0.307092 0.500000 0.890048
O O19 0.831401 0.000000 0.861341
#
# Coordination Sequence:
#
# PCOD9146406 Si02
#       8
#     4   4   4   4   4   4   4   4
#     4  10  20  33  51  77 106 136 171 208 250 304
#     4  10  20  33  51  76 105 137 171 208 252 301
#     4   9  17  30  48  68  92 126 168 210 247 284
#     4  10  20  33  51  76 105 137 171 208 252 301
#     4  10  20  34  54  76 101 130 168 216 262 304
#     4  10  19  33  55  78 100 133 173 211 253 301
#     4  10  20  33  51  77 106 136 171 208 250 304
#     4  10  21  36  54  77 102 131 172 216 259 308
#
# _framework density 18.922581000000001
#
# number of rings (size 3 to 8) (size 9 to 14) (size 15 to 20)
#    0.000    2.125    0.000    3.750    0.000    4.500 
#    0.000    0.000    0.000   24.000    0.000    0.000 
#    0.000    0.000    0.000    0.000    0.000    0.000 
#
# Total GULP energy -178623.779210 kJ/mol
# GULP energy per Si atom -5581.993100 kJ/mol
# Density = 1.887951 g / cm^3
# Si number density = 18.922581 Si / 1000 Ang^3
#
#
#
# Elastic Constant Matrix: (Units=GPa)
#
#
# Indices 1 2 3 4 5 6 
#
# 1 19.4987 6.2829 -12.7553 0.0000 0.5104 0.0000
# 2 6.2829 118.8663 -3.4981 0.0000 -1.8443 0.0000
# 3 -12.7553 -3.4981 41.9892 0.0000 -14.5086 0.0000
# 4 0.0000 0.0000 0.0000 22.4554 0.0000 -3.3918
# 5 0.5104 -1.8443 -14.5086 0.0000 20.2864 0.0000
# 6 0.0000 0.0000 0.0000 -3.3918 0.0000 13.5348
#
#
#
# Elastic Compliance Matrix: (Units=1/GPa)
#
#
# Indices 1 2 3 4 5 6 
#
# 1 0.069145 -0.002603 0.026704 0.000000 0.017122 0.000000
# 2 -0.002603 0.008575 0.000286 0.000000 0.001050 0.000000
# 3 0.026704 0.000286 0.042143 0.000000 0.029494 0.000000
# 4 0.000000 0.000000 0.000000 0.046285 0.000000 0.011599
# 5 0.017122 0.001050 0.029494 0.000000 0.070053 0.000000
# 6 0.000000 0.000000 0.000000 0.011599 0.000000 0.076790
#
#
# Mechanical properties :
#
#
# Convention : Reuss Voigt Hill
#
# Bulk Modulus (GPa) = 5.92992 17.82368 11.87680
# Shear Modulus (GPa) = 15.60412 23.94363 19.77388
#
# Velocity S-wave (km/s) = 2.87475 3.56103 3.23613
# Velocity P-wave (km/s) = 3.76291 5.13299 4.50040
#
# Compressibility (1/GPa) = 0.16863634
#
# Stress axis : x y z
#
# Youngs Moduli (GPa) = 14.46239 116.61629 23.72897
#
# Poissons Ratio (x) = 0.30358 -0.63365
# Poissons Ratio (y) = 0.03765 -0.00679
# Poissons Ratio (z) = -0.38620 -0.03339
#
# Static dielectric constant tensor:
#      x y z
#    x 1.638230 0.000000 -0.021070 
#    y 0.000000 1.659210 0.000000 
#    z -0.021070 0.000000 1.660570 
# 
# From -- ./inp_files/67312.got.cif
#   From: 2010.05.17/outbox.cif.g08.bks.cpg/sg10_34_cif.got.tgz:67312.got - 2010.06.03 11:33:40.
