data_PCOD9146019
_publ_section_title
;
Structure prediction by ZEFSAII (Michael W. Deem and Ramdas Pophale) SiO2 
 PCOD9146019
Probable space group: P 2/M
;
_chemical_formula_sum "Si O2"
_cell_formula_units_Z 28
_cell_length_a 21.187564
_cell_length_b 9.015263
_cell_length_c 14.642819
_cell_angle_alpha 90.000000
_cell_angle_beta 30.500280
_cell_angle_gamma 90.000000
_cell_volume 1419.569304
_symmetry_space_group_name_H-M "P 2/M"
_symmetry_group_IT_number 10
_symmetry_cell_setting 'monoclinic'
loop_
_space_group_symop_operation_xyz
x,y,z
-x,y,-z
-x,-y,-z
x,-y,z
loop_
_atom_site_type_symbol
_atom_site_label
_atom_site_fract_x
_atom_site_fract_y
_atom_site_fract_z
Si Si1 0.641224 0.319503 0.313581
Si Si2 0.829712 0.322915 0.926572
Si Si3 0.937808 0.172423 0.269781
Si Si4 0.724345 0.176573 0.888950
Si Si5 0.461891 0.674201 0.227901
Si Si6 0.711596 0.827135 0.694993
Si Si7 0.237763 0.676374 0.650437
O O1 0.500000 0.266245 0.500000
O O2 0.637264 0.500000 0.322198
O O3 0.726123 0.273072 0.293273
O O4 0.706757 0.279479 0.137488
O O5 0.833998 0.500000 0.914211
O O6 0.820050 0.251324 0.839111
O O7 0.945596 0.264362 0.839959
O O8 0.831934 0.182931 0.480329
O O9 0.874384 0.238682 0.258280
O O10 0.969875 0.000000 0.217697
O O11 0.742253 0.216202 0.760171
O O12 0.732489 0.000000 0.887382
O O13 0.586748 0.233758 0.085494
O O14 0.491684 0.500000 0.187267
O O15 0.394017 0.728390 0.220359
O O16 0.361162 0.696978 0.434043
O O17 0.670441 0.000000 0.746675
O O18 0.210534 0.500000 0.685237
#
# Coordination Sequence:
#
# PCOD9146019 Si02
#       7
#     4   4   4   4   4   4   4
#     4   9  18  35  59  84 110 141 176 215 264 323
#     4  11  23  38  57  81 108 139 181 229 271 315
#     4  10  21  39  58  78 108 143 182 224 269 321
#     4  11  22  36  54  77 109 148 185 221 269 325
#     4  10  19  32  55  86 114 139 176 227 274 316
#     4   9  20  37  56  77 106 148 187 218 262 326
#     4   9  18  35  59  83 109 144 183 221 264 317
#
# _framework density 19.724291999999998
#
# number of rings (size 3 to 8) (size 9 to 14) (size 15 to 20)
#    0.000    2.143    0.000    3.000    0.000    7.429 
#    0.000    7.143    0.000    3.000    0.000    0.000 
#    0.000    0.000    0.000    0.000    0.000    0.000 
#
# Total GULP energy -156430.464761 kJ/mol
# GULP energy per Si atom -5586.802313 kJ/mol
# Density = 1.967940 g / cm^3
# Si number density = 19.724292 Si / 1000 Ang^3
#
#
#
# Elastic Constant Matrix: (Units=GPa)
#
#
# Indices 1 2 3 4 5 6 
#
# 1 123.9312 26.8819 12.6762 0.0000 8.3382 0.0000
# 2 26.8819 39.5784 12.1896 0.0000 4.0958 0.0000
# 3 12.6762 12.1896 13.9745 0.0000 -4.4835 0.0000
# 4 0.0000 0.0000 0.0000 29.3436 0.0000 -17.7314
# 5 8.3382 4.0958 -4.4835 0.0000 28.3422 0.0000
# 6 0.0000 0.0000 0.0000 -17.7314 0.0000 47.8180
#
#
#
# Elastic Compliance Matrix: (Units=1/GPa)
#
#
# Indices 1 2 3 4 5 6 
#
# 1 0.009884 -0.004515 -0.006059 0.000000 -0.003214 0.000000
# 2 -0.004515 0.039709 -0.033665 0.000000 -0.009736 0.000000
# 3 -0.006059 -0.033665 0.114357 0.000000 0.024738 0.000000
# 4 0.000000 0.000000 0.000000 0.043920 0.000000 0.016286
# 5 -0.003214 -0.009736 0.024738 0.000000 0.041549 0.000000
# 6 0.000000 0.000000 0.000000 0.016286 0.000000 0.026952
#
#
# Mechanical properties :
#
#
# Convention : Reuss Voigt Hill
#
# Bulk Modulus (GPa) = 13.24988 31.21995 22.23492
# Shear Modulus (GPa) = 12.82032 29.48319 21.15175
#
# Velocity S-wave (km/s) = 2.55223 3.87041 3.27826
# Velocity P-wave (km/s) = 3.92649 5.98632 5.06228
#
# Compressibility (1/GPa) = 0.07547236
#
# Stress axis : x y z
#
# Youngs Moduli (GPa) = 101.17086 25.18343 8.74453
#
# Poissons Ratio (x) = 0.11370 0.05298
# Poissons Ratio (y) = 0.45676 0.29439
# Poissons Ratio (z) = 0.61300 0.84780
#
# Static dielectric constant tensor:
#      x y z
#    x 1.680060 0.000000 0.012470 
#    y 0.000000 1.657900 0.000000 
#    z 0.012470 0.000000 1.698330 
# 
# From -- ./inp_files/49388.got.cif
#   From: 2010.05.17/outbox.cif.g08.bks.cpg/sg10_25_cif.got.tgz:49388.got - 2010.06.03 11:33:40.
