data_PCOD9146805
_publ_section_title
;
Structure prediction by ZEFSAII (Michael W. Deem and Ramdas Pophale) SiO2 
 PCOD9146805
Probable space group: P 2/M
;
_chemical_formula_sum "Si O2"
_cell_formula_units_Z 32
_cell_length_a 11.533496
_cell_length_b 8.857355
_cell_length_c 18.045069
_cell_angle_alpha 90.000000
_cell_angle_beta 82.071382
_cell_angle_gamma 90.000000
_cell_volume 1825.795118
_symmetry_space_group_name_H-M "P 2/M"
_symmetry_group_IT_number 10
_symmetry_cell_setting 'monoclinic'
loop_
_space_group_symop_operation_xyz
x,y,z
-x,y,-z
-x,-y,-z
x,-y,z
loop_
_atom_site_type_symbol
_atom_site_label
_atom_site_fract_x
_atom_site_fract_y
_atom_site_fract_z
Si Si1 0.200225 0.678626 0.164254
Si Si2 0.631170 0.822260 0.964929
Si Si3 0.992303 0.181310 0.087273
Si Si4 0.615794 0.821889 0.393002
Si Si5 0.274033 0.176934 0.881282
Si Si6 0.302936 0.818107 0.296022
Si Si7 0.441770 0.677992 0.750701
Si Si8 0.662450 0.822428 0.546927
O O1 0.196000 0.500000 0.172162
O O2 0.312930 0.727515 0.105610
O O3 0.088835 0.739283 0.128812
O O4 0.214741 0.755395 0.242872
O O5 0.630325 0.000000 0.943650
O O6 0.500000 0.780129 0.000000
O O7 0.708444 0.806070 0.032151
O O8 0.860160 0.212902 0.125233
O O9 0.011552 0.000000 0.088349
O O10 0.000000 0.225965 0.000000
O O11 0.629493 0.731674 0.316050
O O12 0.678924 0.762096 0.462071
O O13 0.476677 0.813805 0.423490
O O14 0.642731 0.000000 0.379536
O O15 0.366988 0.274096 0.828305
O O16 0.295995 0.000000 0.862477
O O17 0.433124 0.761756 0.262691
O O18 0.279429 0.763487 0.382737
O O19 0.303256 0.000000 0.295886
O O20 0.462029 0.500000 0.746717
O O21 0.691188 0.000000 0.539062
#
# Coordination Sequence:
#
# PCOD9146805 Si02
#       8
#     4   4   4   4   4   4   4   4
#     4  12  24  35  51  77 106 131 161 206 263 309
#     4  10  20  35  55  75  97 131 171 207 245 296
#     4  10  20  39  61  76  92 124 174 219 250 295
#     4   8  13  26  46  68  97 133 172 204 241 292
#     4  10  20  35  55  75  96 130 174 212 248 293
#     4  10  19  34  53  72 101 139 177 210 247 295
#     4  11  21  31  46  75 112 139 165 204 255 305
#     4   7  12  24  46  71  93 127 173 214 240 278
#
# _framework density 17.526610000000002
#
# number of rings (size 3 to 8) (size 9 to 14) (size 15 to 20)
#    0.000    2.250    1.250    4.875    0.000    2.500 
#    0.000    5.625    0.000    0.000    0.000    0.875 
#    0.000    7.000    0.000    0.000    0.000    0.000 
#
# Total GULP energy -178427.003171 kJ/mol
# GULP energy per Si atom -5575.843849 kJ/mol
# Density = 1.748672 g / cm^3
# Si number density = 17.526610 Si / 1000 Ang^3
#
#
#
# Elastic Constant Matrix: (Units=GPa)
#
#
# Indices 1 2 3 4 5 6 
#
# 1 47.8062 17.9881 13.7679 0.0000 23.4909 0.0000
# 2 17.9881 50.9690 21.3436 0.0000 12.8337 0.0000
# 3 13.7679 21.3436 68.3643 0.0000 32.9401 0.0000
# 4 0.0000 0.0000 0.0000 -44.3224 0.0000 16.0683
# 5 23.4909 12.8337 32.9401 0.0000 25.4948 0.0000
# 6 0.0000 0.0000 0.0000 16.0683 0.0000 4.2529
#
#
#
# Elastic Compliance Matrix: (Units=1/GPa)
#
#
# Indices 1 2 3 4 5 6 
#
# 1 0.073776 -0.015596 0.050290 0.000000 -0.125103 0.000000
# 2 -0.015596 0.026217 -0.014861 0.000000 0.020374 0.000000
# 3 0.050290 -0.014861 0.073814 0.000000 -0.134227 0.000000
# 4 0.000000 0.000000 0.000000 -0.009521 0.000000 0.035972
# 5 -0.125103 0.020374 -0.134227 0.000000 0.317663 0.000000
# 6 0.000000 0.000000 0.000000 0.035972 0.000000 0.099225
#
#
# Mechanical properties :
#
#
# Convention : Reuss Voigt Hill
#
# Bulk Modulus (GPa) = 4.68445 30.37096 17.52770
# Shear Modulus (GPa) = 8.16105 4.68771 6.42438
#
# Velocity S-wave (km/s) = 2.16020 1.63720 1.91663
# Velocity P-wave (km/s) = 2.98338 4.57603 3.86268
#
# Compressibility (1/GPa) = 0.21347242
#
# Stress axis : x y z
#
# Youngs Moduli (GPa) = 13.55460 38.14299 13.54752
#
# Poissons Ratio (x) = 0.59489 -0.68131
# Poissons Ratio (y) = 0.21140 0.20133
# Poissons Ratio (z) = -0.68166 0.56685
#
# Static dielectric constant tensor:
#      x y z
#    x 1.589940 0.000000 0.030630 
#    y 0.000000 1.585640 0.000000 
#    z 0.030630 0.000000 1.637790 
# 
# From -- ./inp_files/75995.got.cif
#   From: 2010.05.17/outbox.cif.g08.bks.cpg/sg10_38_cif.got.tgz:75995.got - 2010.06.03 11:33:40.
