data_PCOD9146178
_publ_section_title
;
Structure prediction by ZEFSAII (Michael W. Deem and Ramdas Pophale) SiO2 
 PCOD9146178
Probable space group: P 2/M
;
_chemical_formula_sum "Si O2"
_cell_formula_units_Z 30
_cell_length_a 13.826927
_cell_length_b 16.362210
_cell_length_c 5.630655
_cell_angle_alpha 90.000000
_cell_angle_beta 95.201008
_cell_angle_gamma 90.000000
_cell_volume 1268.629435
_symmetry_space_group_name_H-M "P 2/M"
_symmetry_group_IT_number 10
_symmetry_cell_setting 'monoclinic'
loop_
_space_group_symop_operation_xyz
x,y,z
-x,y,-z
-x,-y,-z
x,-y,z
loop_
_atom_site_type_symbol
_atom_site_label
_atom_site_fract_x
_atom_site_fract_y
_atom_site_fract_z
Si Si1 0.630062 0.264229 0.675386
Si Si2 0.373875 0.323278 0.824003
Si Si3 0.110950 0.882300 0.779337
Si Si4 0.143524 0.310024 0.798947
Si Si5 0.441698 0.500000 0.737959
Si Si6 0.852817 0.687884 0.700457
Si Si7 0.884591 0.881903 0.719116
Si Si8 0.560516 0.907943 0.763993
O O1 0.589158 0.271774 0.396603
O O2 0.736053 0.305004 0.672895
O O3 0.631755 0.169401 0.751229
O O4 0.586102 0.309793 0.898126
O O5 0.260267 0.302024 0.827131
O O6 0.382399 0.416459 0.741745
O O7 0.108218 0.783607 0.785415
O O8 0.159064 0.907516 0.542588
O O9 0.997923 0.907081 0.747499
O O10 0.157015 0.908330 0.037718
O O11 0.115049 0.349000 0.542251
O O12 0.115027 0.349234 0.042584
O O13 0.500000 0.500000 0.500000
O O14 0.500000 0.500000 0.000000
O O15 0.883716 0.783161 0.713089
O O16 0.500000 0.906343 0.500000
O O17 0.601535 0.000000 0.789725
O O18 0.500000 0.895625 0.000000
#
# Coordination Sequence:
#
# PCOD9146178 Si02
#       8
#     4   4   4   4   2   4   4   4
#     4  10  19  33  53  72  93 124 158 191 236 288
#     4  10  21  35  51  70  93 123 158 198 240 282
#     4   8  12  18  31  50  76 108 136 169 215 258
#     4   8  14  25  39  57  81 109 144 181 222 265
#     4  12  26  40  52  70  96 122 158 206 246 284
#     4   8  14  23  37  59  85 111 142 179 216 261
#     4   8  12  18  29  50  80 108 134 169 215 252
#     4  10  21  35  51  73  98 122 153 195 240 287
#
# _framework density 23.647570000000002
#
# number of rings (size 3 to 8) (size 9 to 14) (size 15 to 20)
#    0.000    2.933    0.000    1.600    0.000    3.200 
#    0.000    0.000    0.000    0.000    0.000    0.000 
#    0.000   38.400    0.000   43.200    0.000   34.000 
#
# Total GULP energy -167101.240356 kJ/mol
# GULP energy per Si atom -5570.041345 kJ/mol
# Density = 2.359375 g / cm^3
# Si number density = 23.647570 Si / 1000 Ang^3
#
#
#
# Elastic Constant Matrix: (Units=GPa)
#
#
# Indices 1 2 3 4 5 6 
#
# 1 44.3104 -3.0619 18.6174 0.0000 3.6411 0.0000
# 2 -3.0619 63.8477 10.3845 0.0000 -3.4262 0.0000
# 3 18.6174 10.3845 325.9032 0.0000 -9.4962 0.0000
# 4 0.0000 0.0000 0.0000 33.6987 0.0000 4.5141
# 5 3.6411 -3.4262 -9.4962 0.0000 8.0562 0.0000
# 6 0.0000 0.0000 0.0000 4.5141 0.0000 -27.4821
#
#
#
# Elastic Compliance Matrix: (Units=1/GPa)
#
#
# Indices 1 2 3 4 5 6 
#
# 1 0.024429 0.000775 -0.001794 0.000000 -0.012826 0.000000
# 2 0.000775 0.016086 -0.000381 0.000000 0.006042 0.000000
# 3 -0.001794 -0.000381 0.003316 0.000000 0.004557 0.000000
# 4 0.000000 0.000000 0.000000 0.029036 0.000000 0.004769
# 5 -0.012826 0.006042 0.004557 0.000000 0.137867 0.000000
# 6 0.000000 0.000000 0.000000 0.004769 0.000000 -0.035604
#
#
# Mechanical properties :
#
#
# Convention : Reuss Voigt Hill
#
# Bulk Modulus (GPa) = 24.37161 53.99348 39.18254
# Shear Modulus (GPa) = 26.09526 30.06265 28.07895
#
# Velocity S-wave (km/s) = 3.32551 3.56937 3.44959
# Velocity P-wave (km/s) = 5.00739 6.31422 5.69839
#
# Compressibility (1/GPa) = 0.04103135
#
# Stress axis : x y z
#
# Youngs Moduli (GPa) = 40.93441 62.16745 301.58616
#
# Poissons Ratio (x) = -0.04818 0.54103
# Poissons Ratio (y) = -0.03173 0.11484
# Poissons Ratio (z) = 0.07343 0.02367
#
# Static dielectric constant tensor:
#      x y z
#    x 1.965650 0.000000 0.055430 
#    y 0.000000 1.826180 0.000000 
#    z 0.055430 0.000000 2.093050 
# 
# From -- ./inp_files/11294.got.cif
#   From: 2010.05.17/outbox.cif.g08.bks.cpg/sg10_6_cif.got.tgz:11294.got - 2010.06.03 11:33:40.
