data_PCOD9146928
_publ_section_title
;
Structure prediction by ZEFSAII (Michael W. Deem and Ramdas Pophale) SiO2 
 PCOD9146928
Probable space group: P 2/M
;
_chemical_formula_sum "Si O2"
_cell_formula_units_Z 32
_cell_length_a 13.269630
_cell_length_b 7.558208
_cell_length_c 31.048749
_cell_angle_alpha 90.000000
_cell_angle_beta 27.826994
_cell_angle_gamma 90.000000
_cell_volume 1453.636163
_symmetry_space_group_name_H-M "P 2/M"
_symmetry_group_IT_number 10
_symmetry_cell_setting 'monoclinic'
loop_
_space_group_symop_operation_xyz
x,y,z
-x,y,-z
-x,-y,-z
x,-y,z
loop_
_atom_site_type_symbol
_atom_site_label
_atom_site_fract_x
_atom_site_fract_y
_atom_site_fract_z
Si Si1 0.540123 0.297593 0.789745
Si Si2 0.017675 0.208328 0.605173
Si Si3 0.910746 0.704018 0.901928
Si Si4 0.783419 0.287058 0.557661
Si Si5 0.744033 0.783362 0.399333
Si Si6 0.638625 0.281908 0.230902
Si Si7 0.951607 0.794219 0.788816
Si Si8 0.465373 0.715877 0.110452
O O1 0.466631 0.500000 0.822448
O O2 0.403025 0.221057 0.802302
O O3 0.537256 0.221655 0.838941
O O4 0.789608 0.296011 0.680429
O O5 0.188809 0.236961 0.502599
O O6 0.108276 0.273801 0.616425
O O7 0.975264 0.000000 0.625008
O O8 0.908754 0.500000 0.916987
O O9 0.916290 0.708137 0.848259
O O10 0.133218 0.779326 0.836554
O O11 0.686120 0.778190 0.004540
O O12 0.784438 0.500000 0.559809
O O13 0.564174 0.225167 0.663112
O O14 0.000000 0.222102 0.500000
O O15 0.500000 0.727346 0.500000
O O16 0.849508 0.723634 0.314803
O O17 0.746813 0.000000 0.398033
O O18 0.634906 0.500000 0.232408
O O19 0.741093 0.778277 0.838335
O O20 0.992139 0.000000 0.782390
O O21 0.453963 0.500000 0.114165
#
# Coordination Sequence:
#
# PCOD9146928 Si02
#       8
#     4   4   4   4   4   4   4   4
#     4  10  19  36  60  83 110 148 188 228 277 334
#     4  11  21  34  55  82 110 144 184 232 276 325
#     4  10  22  39  57  83 115 146 184 234 284 326
#     4  10  19  34  55  78 109 148 182 218 267 327
#     4   9  20  37  54  77 111 146 179 222 277 327
#     4   9  19  36  57  81 114 150 185 227 277 332
#     4  11  22  38  61  84 111 149 188 226 276 340
#     4  10  21  37  61  86 110 142 186 238 282 327
#
# _framework density 22.013760999999999
#
# number of rings (size 3 to 8) (size 9 to 14) (size 15 to 20)
#    0.000    2.000    2.500    1.125    1.750    2.750 
#    0.000    3.125    0.000    3.000    0.000    2.625 
#    0.000    0.000    0.000    0.000    0.000    0.000 
#
# Total GULP energy -178805.874616 kJ/mol
# GULP energy per Si atom -5587.683582 kJ/mol
# Density = 2.196366 g / cm^3
# Si number density = 22.013761 Si / 1000 Ang^3
#
#
#
# Elastic Constant Matrix: (Units=GPa)
#
#
# Indices 1 2 3 4 5 6 
#
# 1 111.0211 -13.3960 51.6951 0.0000 10.4770 0.0000
# 2 -13.3960 54.1873 -7.8276 0.0000 -2.4351 0.0000
# 3 51.6951 -7.8276 134.6978 0.0000 -7.3639 0.0000
# 4 0.0000 0.0000 0.0000 8.8478 0.0000 -12.9143
# 5 10.4770 -2.4351 -7.3639 0.0000 24.7470 0.0000
# 6 0.0000 0.0000 0.0000 -12.9143 0.0000 123.4860
#
#
#
# Elastic Compliance Matrix: (Units=1/GPa)
#
#
# Indices 1 2 3 4 5 6 
#
# 1 0.012128 0.002005 -0.004888 0.000000 -0.006392 0.000000
# 2 0.002005 0.019060 0.000401 0.000000 0.001146 0.000000
# 3 -0.004888 0.000401 0.009594 0.000000 0.004964 0.000000
# 4 0.000000 0.000000 0.000000 0.133382 0.000000 0.013949
# 5 -0.006392 0.001146 0.004964 0.000000 0.044705 0.000000
# 6 0.000000 0.000000 0.000000 0.013949 0.000000 0.009557
#
#
# Mechanical properties :
#
#
# Convention : Reuss Voigt Hill
#
# Bulk Modulus (GPa) = 27.91841 40.09436 34.00638
# Shear Modulus (GPa) = 20.38079 49.37849 34.87964
#
# Velocity S-wave (km/s) = 3.04603 4.74125 3.98483
# Velocity P-wave (km/s) = 5.00808 6.94445 6.05418
#
# Compressibility (1/GPa) = 0.03581866
#
# Stress axis : x y z
#
# Youngs Moduli (GPa) = 82.45241 52.46712 104.22702
#
# Poissons Ratio (x) = -0.10520 0.50941
# Poissons Ratio (y) = -0.16532 -0.04177
# Poissons Ratio (z) = 0.40299 -0.02103
#
# Static dielectric constant tensor:
#      x y z
#    x 1.776100 0.000000 0.006160 
#    y 0.000000 1.852000 0.000000 
#    z 0.006160 0.000000 1.779310 
# 
# From -- ./inp_files/49887.got.cif
#   From: 2010.05.17/outbox.cif.g08.bks.cpg/sg10_25_cif.got.tgz:49887.got - 2010.06.03 11:33:40.
