data_PCOD9146241
_publ_section_title
;
Structure prediction by ZEFSAII (Michael W. Deem and Ramdas Pophale) SiO2 
 PCOD9146241
Probable space group: P 2/M
;
_chemical_formula_sum "Si O2"
_cell_formula_units_Z 32
_cell_length_a 26.586390
_cell_length_b 7.819332
_cell_length_c 21.536110
_cell_angle_alpha 90.000000
_cell_angle_beta 20.032068
_cell_angle_gamma 90.000000
_cell_volume 1533.611024
_symmetry_space_group_name_H-M "P 2/M"
_symmetry_group_IT_number 10
_symmetry_cell_setting 'monoclinic'
loop_
_space_group_symop_operation_xyz
x,y,z
-x,y,-z
-x,-y,-z
x,-y,z
loop_
_atom_site_type_symbol
_atom_site_label
_atom_site_fract_x
_atom_site_fract_y
_atom_site_fract_z
Si Si1 0.004453 0.709506 0.923854
Si Si2 0.809701 0.697256 0.041796
Si Si3 0.618966 0.697634 0.910717
Si Si4 0.078312 0.199724 0.648507
Si Si5 0.246916 0.799988 0.120570
Si Si6 0.919512 0.206388 0.498990
Si Si7 0.720206 0.707219 0.479793
Si Si8 0.400079 0.297335 0.817052
O O1 0.000230 0.500000 0.928438
O O2 0.870060 0.771472 0.036330
O O3 0.000000 0.765932 0.000000
O O4 0.154319 0.758621 0.714927
O O5 0.770609 0.500000 0.100075
O O6 0.681054 0.776641 0.149418
O O7 0.951323 0.700070 0.832035
O O8 0.578845 0.500000 0.966922
O O9 0.639009 0.776175 0.955711
O O10 0.779927 0.712868 0.693798
O O11 0.500000 0.772034 0.000000
O O12 0.089985 0.245235 0.563251
O O13 0.226736 0.229641 0.514661
O O14 0.038117 0.000000 0.698399
O O15 0.083321 0.737863 0.329027
O O16 0.229427 0.000000 0.128201
O O17 0.302077 0.721180 0.992420
O O18 0.907626 0.000000 0.522401
O O19 0.717533 0.500000 0.485164
O O20 0.561036 0.772267 0.644945
O O21 0.416351 0.500000 0.787043
#
# Coordination Sequence:
#
# PCOD9146241 Si02
#       8
#     4   4   4   4   4   4   4   4
#     4   8  14  28  51  77 107 145 185 219 257 310
#     4   9  17  31  52  78 107 141 177 216 265 315
#     4  11  26  43  58  81 110 141 179 221 268 323
#     4  10  19  33  53  79 106 136 178 220 262 316
#     4  11  23  40  60  81 107 140 180 223 271 322
#     4  10  22  39  58  81 107 138 178 223 271 321
#     4   9  19  33  50  76 110 143 177 222 269 312
#     4  10  20  34  53  79 111 141 177 222 272 323
#
# _framework density 20.865787000000001
#
# number of rings (size 3 to 8) (size 9 to 14) (size 15 to 20)
#    0.000    2.250    1.250    2.250    1.750    5.000 
#    0.000    0.625    0.000    9.750    0.000    0.000 
#    0.000    9.000    0.000    0.000    0.000    0.000 
#
# Total GULP energy -178600.100331 kJ/mol
# GULP energy per Si atom -5581.253135 kJ/mol
# Density = 2.081830 g / cm^3
# Si number density = 20.865787 Si / 1000 Ang^3
#
#
#
# Elastic Constant Matrix: (Units=GPa)
#
#
# Indices 1 2 3 4 5 6 
#
# 1 166.0984 2.5502 40.7716 0.0000 -26.7622 0.0000
# 2 2.5502 25.4083 -3.3013 0.0000 0.0964 0.0000
# 3 40.7716 -3.3013 47.6060 0.0000 -25.4475 0.0000
# 4 0.0000 0.0000 0.0000 26.4972 0.0000 19.9283
# 5 -26.7622 0.0964 -25.4475 0.0000 37.9036 0.0000
# 6 0.0000 0.0000 0.0000 19.9283 0.0000 22.6997
#
#
#
# Elastic Compliance Matrix: (Units=1/GPa)
#
#
# Indices 1 2 3 4 5 6 
#
# 1 0.007743 -0.001556 -0.005950 0.000000 0.001476 0.000000
# 2 -0.001556 0.040209 0.005426 0.000000 0.002442 0.000000
# 3 -0.005950 0.005426 0.037785 0.000000 0.021153 0.000000
# 4 0.000000 0.000000 0.000000 0.111087 0.000000 -0.097524
# 5 0.001476 0.002442 0.021153 0.000000 0.041620 0.000000
# 6 0.000000 0.000000 0.000000 -0.097524 0.000000 0.129671
#
#
# Mechanical properties :
#
#
# Convention : Reuss Voigt Hill
#
# Bulk Modulus (GPa) = 12.25822 35.46154 23.85988
# Shear Modulus (GPa) = 12.51666 30.69289 21.60478
#
# Velocity S-wave (km/s) = 2.45187 3.83948 3.22128
# Velocity P-wave (km/s) = 3.72869 6.05702 5.02944
#
# Compressibility (1/GPa) = 0.08157793
#
# Stress axis : x y z
#
# Youngs Moduli (GPa) = 129.15230 24.86998 26.46537
#
# Poissons Ratio (x) = 0.03869 0.15747
# Poissons Ratio (y) = 0.20094 -0.14361
# Poissons Ratio (z) = 0.76847 -0.13495
#
# Static dielectric constant tensor:
#      x y z
#    x 1.776820 0.000000 -0.040240 
#    y 0.000000 1.757810 0.000000 
#    z -0.040240 0.000000 1.726900 
# 
# From -- ./inp_files/86821.got.cif
#   From: 2010.05.17/outbox.cif.g08.bks.cpg/sg10_44_cif.got.tgz:86821.got - 2010.06.03 11:33:40.
