data_PCOD9146097
_publ_section_title
;
Structure prediction by ZEFSAII (Michael W. Deem and Ramdas Pophale) SiO2 
 PCOD9146097
Probable space group: P 2/M
;
_chemical_formula_sum "Si O2"
_cell_formula_units_Z 28
_cell_length_a 12.542855
_cell_length_b 8.942774
_cell_length_c 16.763832
_cell_angle_alpha 90.000000
_cell_angle_beta 66.654153
_cell_angle_gamma 90.000000
_cell_volume 1726.417924
_symmetry_space_group_name_H-M "P 2/M"
_symmetry_group_IT_number 10
_symmetry_cell_setting 'monoclinic'
loop_
_space_group_symop_operation_xyz
x,y,z
-x,y,-z
-x,-y,-z
x,-y,z
loop_
_atom_site_type_symbol
_atom_site_label
_atom_site_fract_x
_atom_site_fract_y
_atom_site_fract_z
Si Si1 0.435230 0.822125 0.273649
Si Si2 0.972692 0.178281 0.783511
Si Si3 0.533928 0.679050 0.400711
Si Si4 0.763721 0.324512 0.770541
Si Si5 0.212357 0.324058 0.059394
Si Si6 0.687590 0.821354 0.127645
Si Si7 0.213927 0.678472 0.743597
O O1 0.459391 0.759686 0.354716
O O2 0.326653 0.745460 0.263235
O O3 0.553063 0.789555 0.188751
O O4 0.419719 0.000000 0.280332
O O5 0.887100 0.239505 0.739566
O O6 0.909541 0.244860 0.881620
O O7 0.100622 0.244900 0.740881
O O8 0.973085 0.000000 0.785346
O O9 0.500000 0.724214 0.500000
O O10 0.516864 0.500000 0.398309
O O11 0.669137 0.709498 0.341352
O O12 0.781390 0.500000 0.750107
O O13 0.720016 0.309879 0.875847
O O14 0.195024 0.500000 0.049103
O O15 0.275058 0.245681 0.967841
O O16 0.761996 0.745706 0.175968
O O17 0.704027 0.000000 0.124075
O O18 0.198045 0.500000 0.753000
#
# Coordination Sequence:
#
# PCOD9146097 Si02
#       7
#     4   4   4   4   4   4   4
#     4  10  20  33  52  77 105 135 166 206 255 302
#     4  10  19  33  51  72 100 134 172 210 252 297
#     4   9  19  36  58  82 105 131 163 200 247 302
#     4   9  19  34  51  72  99 135 176 211 247 295
#     4   9  19  33  48  71  99 134 177 215 250 290
#     4  10  20  32  47  72 103 135 173 213 255 296
#     4  10  19  33  53  75 102 133 167 207 250 300
#
# _framework density 16.218551999999999
#
# number of rings (size 3 to 8) (size 9 to 14) (size 15 to 20)
#    0.857    1.571    0.000    3.000    0.000    3.714 
#    0.000    5.714    0.000    0.857    0.000    6.000 
#    0.000    0.000    0.000    0.000    0.000    0.000 
#
# Total GULP energy -155961.600445 kJ/mol
# GULP energy per Si atom -5570.057159 kJ/mol
# Density = 1.618164 g / cm^3
# Si number density = 16.218552 Si / 1000 Ang^3
#
#
#
# Elastic Constant Matrix: (Units=GPa)
#
#
# Indices 1 2 3 4 5 6 
#
# 1 133.3724 68.7790 44.8770 0.0000 26.2780 0.0000
# 2 68.7790 91.2165 41.4978 0.0000 25.2869 0.0000
# 3 44.8770 41.4978 81.2743 0.0000 19.0662 0.0000
# 4 0.0000 0.0000 0.0000 18.0244 0.0000 0.0646
# 5 26.2780 25.2869 19.0662 0.0000 -19.8716 0.0000
# 6 0.0000 0.0000 0.0000 0.0646 0.0000 29.9539
#
#
#
# Elastic Compliance Matrix: (Units=1/GPa)
#
#
# Indices 1 2 3 4 5 6 
#
# 1 0.012552 -0.008779 -0.003038 0.000000 0.002513 0.000000
# 2 -0.008779 0.018646 -0.006135 0.000000 0.006232 0.000000
# 3 -0.003038 -0.006135 0.016234 0.000000 0.003752 0.000000
# 4 0.000000 0.000000 0.000000 0.055481 0.000000 -0.000120
# 5 0.002513 0.006232 0.003752 0.000000 -0.035471 0.000000
# 6 0.000000 0.000000 0.000000 -0.000120 0.000000 0.033385
#
#
# Mechanical properties :
#
#
# Convention : Reuss Voigt Hill
#
# Bulk Modulus (GPa) = 86.74311 68.46343 77.60327
# Shear Modulus (GPa) = 35.56868 15.66864 25.61866
#
# Velocity S-wave (km/s) = 4.68812 3.11158 3.97872
# Velocity P-wave (km/s) = 9.10520 7.43060 8.31019
#
# Compressibility (1/GPa) = 0.01152829
#
# Stress axis : x y z
#
# Youngs Moduli (GPa) = 79.66687 53.63086 61.60067
#
# Poissons Ratio (x) = 0.47084 0.18713
# Poissons Ratio (y) = 0.69941 0.37791
# Poissons Ratio (z) = 0.24201 0.32901
#
# Static dielectric constant tensor:
#      x y z
#    x 1.533530 0.000000 -0.003910 
#    y 0.000000 1.535560 0.000000 
#    z -0.003910 0.000000 1.523320 
# 
# From -- ./inp_files/63391.got.cif
#   From: 2010.05.17/outbox.cif.g08.bks.cpg/sg10_32_cif.got.tgz:63391.got - 2010.06.03 11:33:40.
