data_PCOD9146896
_publ_section_title
;
Structure prediction by ZEFSAII (Michael W. Deem and Ramdas Pophale) SiO2 
 PCOD9146896
Probable space group: P 2/M
;
_chemical_formula_sum "Si O2"
_cell_formula_units_Z 32
_cell_length_a 10.284970
_cell_length_b 13.934872
_cell_length_c 11.020857
_cell_angle_alpha 90.000000
_cell_angle_beta 69.561445
_cell_angle_gamma 90.000000
_cell_volume 1480.072047
_symmetry_space_group_name_H-M "P 2/M"
_symmetry_group_IT_number 10
_symmetry_cell_setting 'monoclinic'
loop_
_space_group_symop_operation_xyz
x,y,z
-x,y,-z
-x,-y,-z
x,-y,z
loop_
_atom_site_type_symbol
_atom_site_label
_atom_site_fract_x
_atom_site_fract_y
_atom_site_fract_z
Si Si1 0.869543 0.605723 0.852768
Si Si2 0.960562 0.751476 0.638111
Si Si3 0.712334 0.313408 0.107501
Si Si4 0.165304 0.890015 0.917853
Si Si5 0.206369 0.891086 0.615307
Si Si6 0.658793 0.612879 0.395953
Si Si7 0.425386 0.389581 0.193957
Si Si8 0.300356 0.747547 0.418070
O O1 0.928718 0.500000 0.818552
O O2 0.957127 0.686664 0.757344
O O3 0.720231 0.608715 0.829977
O O4 0.836228 0.629366 0.002250
O O5 0.807198 0.784912 0.648601
O O6 0.000000 0.697788 0.500000
O O7 0.065549 0.838117 0.620688
O O8 0.745768 0.201871 0.066424
O O9 0.696903 0.337550 0.255246
O O10 0.572481 0.356946 0.092520
O O11 0.199768 0.888656 0.762826
O O12 0.196437 0.000000 0.950958
O O13 0.000000 0.874757 0.000000
O O14 0.326151 0.832670 0.505047
O O15 0.209695 0.000000 0.574717
O O16 0.500000 0.624669 0.500000
O O17 0.683812 0.500000 0.377379
O O18 0.747052 0.664208 0.472254
O O19 0.444316 0.500000 0.232796
O O20 0.409509 0.308366 0.301632
#
# Coordination Sequence:
#
# PCOD9146896 Si02
#       8
#     4   4   4   4   4   4   4   4
#     4  10  21  36  56  87 119 150 193 235 281 336
#     4   9  20  36  59  80 111 151 191 237 289 337
#     4  12  21  35  61  86 116 146 193 240 279 330
#     4  10  22  40  62  81 107 150 192 234 291 349
#     4  10  20  38  60  84 109 143 196 250 294 334
#     4  11  21  34  56  85 119 159 193 222 271 342
#     4  10  20  36  59  85 118 158 190 222 276 346
#     4  10  19  34  54  85 115 146 189 235 275 337
#
# _framework density 21.620570000000001
#
# number of rings (size 3 to 8) (size 9 to 14) (size 15 to 20)
#    0.000    1.750    2.500    2.625    0.000    4.000 
#    0.000    4.375    0.000    8.625    0.000    0.000 
#    0.000    0.000    0.000    0.000    0.000    0.000 
#
# Total GULP energy -178142.725323 kJ/mol
# GULP energy per Si atom -5566.960166 kJ/mol
# Density = 2.157136 g / cm^3
# Si number density = 21.620570 Si / 1000 Ang^3
#
#
#
# Elastic Constant Matrix: (Units=GPa)
#
#
# Indices 1 2 3 4 5 6 
#
# 1 44.5224 16.8341 -16.1886 0.0000 -2.1484 0.0000
# 2 16.8341 143.7220 21.1586 0.0000 -22.1522 0.0000
# 3 -16.1886 21.1586 81.3158 0.0000 -20.4301 0.0000
# 4 0.0000 0.0000 0.0000 30.6988 0.0000 -3.9608
# 5 -2.1484 -22.1522 -20.4301 0.0000 22.9088 0.0000
# 6 0.0000 0.0000 0.0000 -3.9608 0.0000 30.4614
#
#
#
# Elastic Compliance Matrix: (Units=1/GPa)
#
#
# Indices 1 2 3 4 5 6 
#
# 1 0.026848 -0.003329 0.007778 0.000000 0.006235 0.000000
# 2 -0.003329 0.008591 -0.001146 0.000000 0.006973 0.000000
# 3 0.007778 -0.001146 0.018106 0.000000 0.015768 0.000000
# 4 0.000000 0.000000 0.000000 0.033130 0.000000 0.004308
# 5 0.006235 0.006973 0.015768 0.000000 0.065041 0.000000
# 6 0.000000 0.000000 0.000000 0.004308 0.000000 0.033389
#
#
# Mechanical properties :
#
#
# Convention : Reuss Voigt Hill
#
# Bulk Modulus (GPa) = 16.62477 34.79649 25.71063
# Shear Modulus (GPa) = 25.18255 33.33086 29.25671
#
# Velocity S-wave (km/s) = 3.41655 3.93062 3.68256
# Velocity P-wave (km/s) = 4.82387 6.06043 5.47716
#
# Compressibility (1/GPa) = 0.06015121
#
# Stress axis : x y z
#
# Youngs Moduli (GPa) = 37.24655 116.39681 55.23021
#
# Poissons Ratio (x) = 0.38745 -0.42957
# Poissons Ratio (y) = 0.12398 0.06330
# Poissons Ratio (z) = -0.28969 0.13341
#
# Static dielectric constant tensor:
#      x y z
#    x 1.915710 0.000000 -0.033580 
#    y 0.000000 1.767910 0.000000 
#    z -0.033580 0.000000 1.875300 
# 
# From -- ./inp_files/47000.got.cif
#   From: 2010.05.17/outbox.cif.g08.bks.cpg/sg10_24_cif.got.tgz:47000.got - 2010.06.03 11:33:40.
