data_PCOD9146717
_publ_section_title
;
Structure prediction by ZEFSAII (Michael W. Deem and Ramdas Pophale) SiO2 
 PCOD9146717
Probable space group: P 2/M
;
_chemical_formula_sum "Si O2"
_cell_formula_units_Z 30
_cell_length_a 5.853542
_cell_length_b 18.001184
_cell_length_c 14.241530
_cell_angle_alpha 90.000000
_cell_angle_beta 106.811359
_cell_angle_gamma 90.000000
_cell_volume 1436.505717
_symmetry_space_group_name_H-M "P 2/M"
_symmetry_group_IT_number 10
_symmetry_cell_setting 'monoclinic'
loop_
_space_group_symop_operation_xyz
x,y,z
-x,y,-z
-x,-y,-z
x,-y,z
loop_
_atom_site_type_symbol
_atom_site_label
_atom_site_fract_x
_atom_site_fract_y
_atom_site_fract_z
Si Si1 0.284818 0.700302 0.050135
Si Si2 0.993289 0.417509 0.612843
Si Si3 0.761445 0.130216 0.015670
Si Si4 0.197547 0.915081 0.606635
Si Si5 0.291991 0.272654 0.361754
Si Si6 0.902394 0.808001 0.230993
Si Si7 0.603768 0.668356 0.254331
Si Si8 0.500000 0.840896 0.500000
O O1 0.375718 0.662971 0.158540
O O2 0.500000 0.680255 0.000000
O O3 0.282497 0.791281 0.045870
O O4 0.000000 0.680928 0.000000
O O5 0.902561 0.500000 0.625374
O O6 0.242616 0.402854 0.697532
O O7 0.000000 0.413239 0.500000
O O8 0.834750 0.349009 0.628625
O O9 0.841452 0.152179 0.129041
O O10 0.500000 0.093959 0.000000
O O11 0.000000 0.093614 0.000000
O O12 0.148441 0.860571 0.686587
O O13 0.436889 0.890141 0.581315
O O14 0.000000 0.911545 0.500000
O O15 0.209641 0.000000 0.640473
O O16 0.541228 0.295529 0.347523
O O17 0.294883 0.217647 0.449789
O O18 0.169552 0.222241 0.268121
O O19 0.757465 0.731339 0.221235
#
# Coordination Sequence:
#
# PCOD9146717 Si02
#       8
#     4   4   4   4   4   4   4   2
#     4  10  19  33  57  93 127 160 202 274 337 383
#     4  10  24  42  59  87 130 171 211 261 330 399
#     4  10  19  33  57  89 126 159 203 274 337 377
#     4  11  24  41  58  84 130 174 209 258 327 395
#     4  11  22  33  61  90 117 157 210 268 313 364
#     4  11  21  36  59  90 122 161 214 266 322 388
#     4  11  21  36  62  92 120 164 211 272 325 389
#     4  12  21  36  61  90 122 162 220 268 311 378
#
# _framework density 20.88401
#
# number of rings (size 3 to 8) (size 9 to 14) (size 15 to 20)
#    0.000    1.333    5.333    2.600    3.733    0.533 
#    0.000    1.667    0.000    1.600    0.000    0.000 
#    0.000    0.533    0.000    0.000    0.000    0.000 
#
# Total GULP energy -167044.093147 kJ/mol
# GULP energy per Si atom -5568.136438 kJ/mol
# Density = 2.083648 g / cm^3
# Si number density = 20.884010 Si / 1000 Ang^3
#
#
#
# Elastic Constant Matrix: (Units=GPa)
#
#
# Indices 1 2 3 4 5 6 
#
# 1 88.9970 14.1401 13.4792 0.0000 1.1978 0.0000
# 2 14.1401 70.1638 28.1588 0.0000 6.4439 0.0000
# 3 13.4792 28.1588 92.2420 0.0000 5.4698 0.0000
# 4 0.0000 0.0000 0.0000 4.4035 0.0000 2.8126
# 5 1.1978 6.4439 5.4698 0.0000 33.5673 0.0000
# 6 0.0000 0.0000 0.0000 2.8126 0.0000 -6.5199
#
#
#
# Elastic Compliance Matrix: (Units=1/GPa)
#
#
# Indices 1 2 3 4 5 6 
#
# 1 0.011711 -0.001917 -0.001134 0.000000 0.000135 0.000000
# 2 -0.001917 0.016739 -0.004689 0.000000 -0.002381 0.000000
# 3 -0.001134 -0.004689 0.012503 0.000000 -0.001097 0.000000
# 4 0.000000 0.000000 0.000000 0.178036 0.000000 0.076803
# 5 0.000135 -0.002381 -0.001097 0.000000 0.030422 0.000000
# 6 0.000000 0.000000 0.000000 0.076803 0.000000 -0.120245
#
#
# Mechanical properties :
#
#
# Convention : Reuss Voigt Hill
#
# Bulk Modulus (GPa) = 39.25696 40.32877 39.79286
# Shear Modulus (GPa) = 32.65053 19.33184 25.99118
#
# Velocity S-wave (km/s) = 3.95830 3.04579 3.53164
# Velocity P-wave (km/s) = 6.30312 5.63222 5.97709
#
# Compressibility (1/GPa) = 0.02547319
#
# Stress axis : x y z
#
# Youngs Moduli (GPa) = 85.39053 59.74027 79.98023
#
# Poissons Ratio (x) = 0.11455 0.09070
# Poissons Ratio (y) = 0.16373 0.37500
# Poissons Ratio (z) = 0.09683 0.28010
#
# Static dielectric constant tensor:
#      x y z
#    x 1.873620 0.000000 0.064470 
#    y 0.000000 1.685970 0.000000 
#    z 0.064470 0.000000 1.806620 
# 
# From -- ./inp_files/9794.got.cif
#   From: 2010.05.17/outbox.cif.g08.bks.cpg/sg10_5_cif.got.tgz:9794.got - 2010.06.03 11:33:40.
