data_PCOD9146337
_publ_section_title
;
Structure prediction by ZEFSAII (Michael W. Deem and Ramdas Pophale) SiO2 
 PCOD9146337
Probable space group: P 2/M
;
_chemical_formula_sum "Si O2"
_cell_formula_units_Z 32
_cell_length_a 14.749922
_cell_length_b 7.666951
_cell_length_c 12.886429
_cell_angle_alpha 90.000000
_cell_angle_beta 84.788537
_cell_angle_gamma 90.000000
_cell_volume 1451.262620
_symmetry_space_group_name_H-M "P 2/M"
_symmetry_group_IT_number 10
_symmetry_cell_setting 'monoclinic'
loop_
_space_group_symop_operation_xyz
x,y,z
-x,y,-z
-x,-y,-z
x,-y,z
loop_
_atom_site_type_symbol
_atom_site_label
_atom_site_fract_x
_atom_site_fract_y
_atom_site_fract_z
Si Si1 0.673088 0.795640 0.233272
Si Si2 0.604103 0.288750 0.469710
Si Si3 0.868589 0.786535 0.266820
Si Si4 0.756828 0.289127 0.870544
Si Si5 0.967047 0.790803 0.891499
Si Si6 0.895399 0.211081 0.498245
Si Si7 0.727277 0.702434 0.645007
Si Si8 0.595230 0.704167 0.030532
O O1 0.638486 0.771394 0.354006
O O2 0.777067 0.727590 0.218368
O O3 0.609111 0.716093 0.152206
O O4 0.676063 0.000000 0.210222
O O5 0.500000 0.238180 0.500000
O O6 0.609306 0.500000 0.467657
O O7 0.665463 0.221973 0.559056
O O8 0.863509 0.733034 0.387284
O O9 0.961591 0.727750 0.202886
O O10 0.868081 0.000000 0.267284
O O11 0.754743 0.500000 0.867967
O O12 0.861588 0.244552 0.881443
O O13 0.725416 0.222398 0.760583
O O14 0.685421 0.224622 0.964168
O O15 0.976740 0.000000 0.891968
O O16 0.000000 0.724032 0.000000
O O17 0.829997 0.285609 0.592378
O O18 0.000000 0.261275 0.500000
O O19 0.890238 0.000000 0.505208
O O20 0.699973 0.500000 0.657070
O O21 0.406882 0.500000 0.997410
O O22 0.500000 0.781000 0.000000
#
# Coordination Sequence:
#
# PCOD9146337 Si02
#       8
#     4   4   4   4   4   4   4   4
#     4  11  22  39  63  90 123 152 190 249 298 345
#     4  10  22  39  63  89 117 159 203 240 288 354
#     4   9  18  33  53  81 115 151 188 231 285 344
#     4  10  22  39  58  86 120 152 193 246 296 342
#     4  10  20  36  59  84 112 153 199 238 287 350
#     4  10  19  33  54  79 112 155 196 230 278 344
#     4  10  21  37  57  85 119 152 193 244 289 337
#     4  10  23  42  65  86 113 156 200 242 294 356
#
# _framework density 22.049764
#
# number of rings (size 3 to 8) (size 9 to 14) (size 15 to 20)
#    0.000    2.000    1.250    1.875    1.750    4.000 
#    0.000    1.875    0.000    0.000    0.000    0.000 
#    0.000    0.000    0.000    0.000    0.000    0.000 
#
# Total GULP energy -178799.596838 kJ/mol
# GULP energy per Si atom -5587.487401 kJ/mol
# Density = 2.199958 g / cm^3
# Si number density = 22.049764 Si / 1000 Ang^3
#
#
#
# Elastic Constant Matrix: (Units=GPa)
#
#
# Indices 1 2 3 4 5 6 
#
# 1 129.0944 -3.7124 40.3548 0.0000 9.5580 0.0000
# 2 -3.7124 35.9009 -5.7127 0.0000 -1.7923 0.0000
# 3 40.3548 -5.7127 117.2746 0.0000 10.4263 0.0000
# 4 0.0000 0.0000 0.0000 30.7476 0.0000 -10.7868
# 5 9.5580 -1.7923 10.4263 0.0000 37.7642 0.0000
# 6 0.0000 0.0000 0.0000 -10.7868 0.0000 28.4380
#
#
#
# Elastic Compliance Matrix: (Units=1/GPa)
#
#
# Indices 1 2 3 4 5 6 
#
# 1 0.008759 0.000379 -0.002870 0.000000 -0.001406 0.000000
# 2 0.000379 0.028124 0.001158 0.000000 0.000919 0.000000
# 3 -0.002870 0.001158 0.009741 0.000000 -0.001908 0.000000
# 4 0.000000 0.000000 0.000000 0.037515 0.000000 0.014230
# 5 -0.001406 0.000919 -0.001908 0.000000 0.027406 0.000000
# 6 0.000000 0.000000 0.000000 0.014230 0.000000 0.040562
#
#
# Mechanical properties :
#
#
# Convention : Reuss Voigt Hill
#
# Bulk Modulus (GPa) = 22.75022 38.23658 30.49340
# Shear Modulus (GPa) = 29.51150 36.14598 32.82874
#
# Velocity S-wave (km/s) = 3.66239 4.05321 3.86274
# Velocity P-wave (km/s) = 5.31265 6.26764 5.80980
#
# Compressibility (1/GPa) = 0.04395563
#
# Stress axis : x y z
#
# Youngs Moduli (GPa) = 114.17401 35.55711 102.66160
#
# Poissons Ratio (x) = -0.01347 0.29468
# Poissons Ratio (y) = -0.04324 -0.11888
# Poissons Ratio (z) = 0.32772 -0.04117
#
# Static dielectric constant tensor:
#      x y z
#    x 1.789440 0.000000 0.010340 
#    y 0.000000 1.832110 0.000000 
#    z 0.010340 0.000000 1.790220 
# 
# From -- ./inp_files/49817.got.cif
#   From: 2010.05.17/outbox.cif.g08.bks.cpg/sg10_25_cif.got.tgz:49817.got - 2010.06.03 11:33:40.
