data_PCOD9146776
_publ_section_title
;
Structure prediction by ZEFSAII (Michael W. Deem and Ramdas Pophale) SiO2 
 PCOD9146776
Probable space group: P 2/M
;
_chemical_formula_sum "Si O2"
_cell_formula_units_Z 32
_cell_length_a 27.266841
_cell_length_b 8.622572
_cell_length_c 14.844052
_cell_angle_alpha 90.000000
_cell_angle_beta 145.325125
_cell_angle_gamma 90.000000
_cell_volume 1985.521160
_symmetry_space_group_name_H-M "P 2/M"
_symmetry_group_IT_number 10
_symmetry_cell_setting 'monoclinic'
loop_
_space_group_symop_operation_xyz
x,y,z
-x,y,-z
-x,-y,-z
x,-y,z
loop_
_atom_site_type_symbol
_atom_site_label
_atom_site_fract_x
_atom_site_fract_y
_atom_site_fract_z
Si Si1 0.912285 0.686372 0.919642
Si Si2 0.036371 0.686527 0.801569
Si Si3 0.754285 0.317850 0.202068
Si Si4 0.152907 0.820599 0.491505
Si Si5 0.598424 0.682467 0.241536
Si Si6 0.911086 0.688089 0.316974
Si Si7 0.412615 0.183002 0.972870
Si Si8 0.239619 0.818760 0.427699
O O1 0.908565 0.500000 0.904208
O O2 0.827044 0.756384 0.746557
O O3 0.919866 0.723143 0.036971
O O4 0.000000 0.738193 0.000000
O O5 0.019393 0.500000 0.775174
O O6 0.086333 0.724246 0.784987
O O7 0.946756 0.776712 0.661805
O O8 0.738951 0.500000 0.164036
O O9 0.801255 0.290954 0.368478
O O10 0.824356 0.258031 0.235631
O O11 0.663446 0.232149 0.075006
O O12 0.191170 0.800741 0.450187
O O13 0.166308 0.000000 0.539272
O O14 0.602228 0.500000 0.229307
O O15 0.613711 0.770280 0.169399
O O16 0.670541 0.730479 0.422354
O O17 0.502490 0.730332 0.126362
O O18 0.911309 0.500000 0.326230
O O19 0.000000 0.741821 0.500000
O O20 0.426688 0.000000 0.996590
O O21 0.256793 0.000000 0.438932
#
# Coordination Sequence:
#
# PCOD9146776 Si02
#       8
#     4   4   4   4   4   4   4   4
#     4  10  20  32  50  74  98 130 173 215 250 293
#     4  10  19  34  51  69  99 134 173 216 254 293
#     4  11  20  32  51  72  98 135 177 209 244 298
#     4  11  21  30  45  70 101 134 169 209 254 297
#     4  11  21  34  53  75 100 132 171 205 244 297
#     4   9  17  30  50  74  97 131 173 212 252 293
#     4  11  21  34  50  73 106 134 163 203 255 301
#     4  11  22  34  49  71 103 138 169 205 253 301
#
# _framework density 16.116675999999998
#
# number of rings (size 3 to 8) (size 9 to 14) (size 15 to 20)
#    0.000    1.500    3.750    4.125    0.000    1.750 
#    0.000    1.875    0.000    0.000    0.000    0.875 
#    0.000    7.000    0.000    0.000    0.000    0.000 
#
# Total GULP energy -178601.152978 kJ/mol
# GULP energy per Si atom -5581.286031 kJ/mol
# Density = 1.607999 g / cm^3
# Si number density = 16.116676 Si / 1000 Ang^3
#
#
#
# Elastic Constant Matrix: (Units=GPa)
#
#
# Indices 1 2 3 4 5 6 
#
# 1 84.3311 9.2188 34.1306 0.0000 5.2337 0.0000
# 2 9.2188 20.2251 0.0182 0.0000 -2.6690 0.0000
# 3 34.1306 0.0182 72.9452 0.0000 6.5551 0.0000
# 4 0.0000 0.0000 0.0000 -34.0514 0.0000 17.5989
# 5 5.2337 -2.6690 6.5551 0.0000 24.5557 0.0000
# 6 0.0000 0.0000 0.0000 17.5989 0.0000 6.2810
#
#
#
# Elastic Compliance Matrix: (Units=1/GPa)
#
#
# Indices 1 2 3 4 5 6 
#
# 1 0.015703 -0.007448 -0.007143 0.000000 -0.002249 0.000000
# 2 -0.007448 0.053714 0.002873 0.000000 0.006659 0.000000
# 3 -0.007143 0.002873 0.017301 0.000000 -0.002784 0.000000
# 4 0.000000 0.000000 0.000000 -0.011996 0.000000 0.033611
# 5 -0.002249 0.006659 -0.002784 0.000000 0.042670 0.000000
# 6 0.000000 0.000000 0.000000 0.033611 0.000000 0.065033
#
#
# Mechanical properties :
#
#
# Convention : Reuss Voigt Hill
#
# Bulk Modulus (GPa) = 15.80237 29.35961 22.58099
# Shear Modulus (GPa) = 22.03078 8.29934 15.16506
#
# Velocity S-wave (km/s) = 3.70125 2.27172 3.07083
# Velocity P-wave (km/s) = 5.30018 5.01372 5.15894
#
# Compressibility (1/GPa) = 0.06328166
#
# Stress axis : x y z
#
# Youngs Moduli (GPa) = 63.68281 18.61699 57.80140
#
# Poissons Ratio (x) = 0.13866 0.41289
# Poissons Ratio (y) = 0.47430 -0.16607
# Poissons Ratio (z) = 0.45490 -0.05349
#
# Static dielectric constant tensor:
#      x y z
#    x 1.543510 0.000000 0.013690 
#    y 0.000000 1.548360 0.000000 
#    z 0.013690 0.000000 1.532170 
# 
# From -- ./inp_files/72240.got.cif
#   From: 2010.05.17/outbox.cif.g08.bks.cpg/sg10_37_cif.got.tgz:72240.got - 2010.06.03 11:33:40.
