data_PCOD9146207
_publ_section_title
;
Structure prediction by ZEFSAII (Michael W. Deem and Ramdas Pophale) SiO2 
 PCOD9146207
Probable space group: P 2/M
;
_chemical_formula_sum "Si O2"
_cell_formula_units_Z 32
_cell_length_a 20.636066
_cell_length_b 7.334014
_cell_length_c 26.273437
_cell_angle_alpha 90.000000
_cell_angle_beta 21.665169
_cell_angle_gamma 90.000000
_cell_volume 1467.999405
_symmetry_space_group_name_H-M "P 2/M"
_symmetry_group_IT_number 10
_symmetry_cell_setting 'monoclinic'
loop_
_space_group_symop_operation_xyz
x,y,z
-x,y,-z
-x,-y,-z
x,-y,z
loop_
_atom_site_type_symbol
_atom_site_label
_atom_site_fract_x
_atom_site_fract_y
_atom_site_fract_z
Si Si1 0.483096 0.291986 0.347226
Si Si2 0.463263 0.722095 0.084639
Si Si3 0.408738 0.790557 0.516475
Si Si4 0.988832 0.720524 0.165204
Si Si5 0.180237 0.277878 0.125395
Si Si6 0.930699 0.722432 0.605362
Si Si7 0.123074 0.276834 0.956950
Si Si8 0.889100 0.277045 0.421300
O O1 0.490870 0.500000 0.322639
O O2 0.454089 0.294745 0.429223
O O3 0.675462 0.213846 0.195684
O O4 0.305692 0.213003 0.451970
O O5 0.462126 0.500000 0.086508
O O6 0.270271 0.781210 0.241313
O O7 0.500000 0.776298 0.000000
O O8 0.626597 0.782173 0.999415
O O9 0.500000 0.709906 0.500000
O O10 0.202341 0.782902 0.677667
O O11 0.467883 0.000000 0.469064
O O12 0.984135 0.500000 0.168237
O O13 0.124207 0.778227 0.110014
O O14 0.041780 0.779592 0.070218
O O15 0.180154 0.500000 0.126517
O O16 0.033266 0.221331 0.273907
O O17 0.932499 0.500000 0.604595
O O18 0.000000 0.781115 0.500000
O O19 0.045359 0.778187 0.570607
O O20 0.125164 0.500000 0.954262
O O21 0.000000 0.219180 0.000000
O O22 0.886977 0.500000 0.421493
#
# Coordination Sequence:
#
# PCOD9146207 Si02
#       8
#     4   4   4   4   4   4   4   4
#     4  10  19  33  54  75  99 135 170 208 258 301
#     4   9  14  21  34  51  79 119 153 185 228 277
#     4  11  23  36  51  75 103 129 165 211 253 303
#     4  10  19  33  53  75  99 130 167 207 252 300
#     4   9  15  24  41  64  88 119 162 203 237 284
#     4   9  16  23  33  55  91 130 161 191 236 292
#     4   9  18  31  48  73 100 124 159 205 250 303
#     4   9  15  25  41  63  92 125 164 204 241 289
#
# _framework density 21.798375
#
# number of rings (size 3 to 8) (size 9 to 14) (size 15 to 20)
#    0.000    2.500    2.500    1.125    0.000    3.000 
#    0.000    5.625    0.000    2.250    0.000    0.000 
#    0.000    5.000    0.000    0.000    0.000    0.125 
#
# Total GULP energy -178783.952709 kJ/mol
# GULP energy per Si atom -5586.998522 kJ/mol
# Density = 2.174876 g / cm^3
# Si number density = 21.798375 Si / 1000 Ang^3
#
#
#
# Elastic Constant Matrix: (Units=GPa)
#
#
# Indices 1 2 3 4 5 6 
#
# 1 110.7056 -4.0180 4.8034 0.0000 1.0878 0.0000
# 2 -4.0180 83.1400 -7.1675 0.0000 -0.8413 0.0000
# 3 4.8034 -7.1675 79.7857 0.0000 7.0285 0.0000
# 4 0.0000 0.0000 0.0000 -9.1350 0.0000 -14.0352
# 5 1.0878 -0.8413 7.0285 0.0000 45.9512 0.0000
# 6 0.0000 0.0000 0.0000 -14.0352 0.0000 -35.0973
#
#
#
# Elastic Compliance Matrix: (Units=1/GPa)
#
#
# Indices 1 2 3 4 5 6 
#
# 1 0.009070 0.000394 -0.000499 0.000000 -0.000131 0.000000
# 2 0.000394 0.012139 0.001062 0.000000 0.000050 0.000000
# 3 -0.000499 0.001062 0.012829 0.000000 -0.001931 0.000000
# 4 0.000000 0.000000 0.000000 -0.283898 0.000000 0.113529
# 5 -0.000131 0.000050 -0.001931 0.000000 0.022062 0.000000
# 6 0.000000 0.000000 0.000000 0.113529 0.000000 -0.073892
#
#
# Mechanical properties :
#
#
# Convention : Reuss Voigt Hill
#
# Bulk Modulus (GPa) = 27.81420 28.98523 28.39971
# Shear Modulus (GPa) = -17.14556 19.01134 0.93289
#
# Velocity S-wave (km/s) = -2.80760 2.95641 0.65490
# Velocity P-wave (km/s) = 1.50908 4.99797 3.69168
#
# Compressibility (1/GPa) = 0.03595286
#
# Stress axis : x y z
#
# Youngs Moduli (GPa) = 110.25097 82.37886 77.94739
#
# Poissons Ratio (x) = -0.03246 0.03890
# Poissons Ratio (y) = -0.04344 -0.08281
# Poissons Ratio (z) = 0.05503 -0.08751
#
# Static dielectric constant tensor:
#      x y z
#    x 1.755080 0.000000 -0.029680 
#    y 0.000000 1.725780 0.000000 
#    z -0.029680 0.000000 1.758170 
# 
# From -- ./inp_files/86903.got.cif
#   From: 2010.05.17/outbox.cif.g08.bks.cpg/sg10_44_cif.got.tgz:86903.got - 2010.06.03 11:33:40.
