data_PCOD9146639
_publ_section_title
;
Structure prediction by ZEFSAII (Michael W. Deem and Ramdas Pophale) SiO2 
 PCOD9146639
Probable space group: P 2/M
;
_chemical_formula_sum "Si O2"
_cell_formula_units_Z 28
_cell_length_a 7.615135
_cell_length_b 16.389848
_cell_length_c 11.190322
_cell_angle_alpha 90.000000
_cell_angle_beta 71.083129
_cell_angle_gamma 90.000000
_cell_volume 1321.239758
_symmetry_space_group_name_H-M "P 2/M"
_symmetry_group_IT_number 10
_symmetry_cell_setting 'monoclinic'
loop_
_space_group_symop_operation_xyz
x,y,z
-x,y,-z
-x,-y,-z
x,-y,z
loop_
_atom_site_type_symbol
_atom_site_label
_atom_site_fract_x
_atom_site_fract_y
_atom_site_fract_z
Si Si1 0.479584 0.088550 0.149967
Si Si2 0.861940 0.848020 0.630376
Si Si3 0.676174 0.691458 0.547653
Si Si4 0.052690 0.740682 0.177239
Si Si5 0.552143 0.591523 0.216487
Si Si6 0.912281 0.408497 0.312036
Si Si7 0.304707 0.751003 0.913369
O O1 0.281157 0.097165 0.261319
O O2 0.584364 0.171746 0.159372
O O3 0.558598 0.000000 0.170853
O O4 0.500000 0.087104 0.000000
O O5 0.749785 0.774657 0.589223
O O6 0.978309 0.800719 0.706205
O O7 0.000000 0.885061 0.500000
O O8 0.500000 0.708369 0.500000
O O9 0.603987 0.627252 0.661606
O O10 0.832459 0.644405 0.438260
O O11 0.067925 0.647537 0.217215
O O12 0.876273 0.743930 0.129903
O O13 0.232485 0.766149 0.063001
O O14 0.514272 0.500000 0.180503
O O15 0.739295 0.586360 0.257187
O O16 0.591514 0.664893 0.116749
O O17 0.968137 0.500000 0.330955
#
# Coordination Sequence:
#
# PCOD9146639 Si02
#       7
#     4   4   4   4   4   4   4
#     4  11  24  44  69  93 119 159 206 252 310 377
#     4  12  23  38  64  92 126 156 199 256 315 367
#     4  10  19  33  56  84 116 165 210 248 298 361
#     4  10  21  36  58  92 121 164 203 250 311 354
#     4   9  17  30  55  87 115 158 211 255 294 349
#     4   9  17  31  51  82 123 163 209 249 294 357
#     4  10  20  39  64  86 122 163 209 252 297 376
#
# _framework density 21.192215999999998
#
# number of rings (size 3 to 8) (size 9 to 14) (size 15 to 20)
#    0.000    1.857    4.286    0.429    0.000    2.571 
#    0.000    7.143    0.000    4.286    0.000    0.000 
#    0.000    0.000    0.000    0.000    0.000    0.000 
#
# Total GULP energy -156213.156463 kJ/mol
# GULP energy per Si atom -5579.041302 kJ/mol
# Density = 2.114398 g / cm^3
# Si number density = 21.192216 Si / 1000 Ang^3
#
#
#
# Elastic Constant Matrix: (Units=GPa)
#
#
# Indices 1 2 3 4 5 6 
#
# 1 43.8505 23.9666 19.3153 0.0000 2.7368 0.0000
# 2 23.9666 116.8958 37.3969 0.0000 -17.4248 0.0000
# 3 19.3153 37.3969 126.0475 0.0000 -20.6978 0.0000
# 4 0.0000 0.0000 0.0000 8.8702 0.0000 7.7540
# 5 2.7368 -17.4248 -20.6978 0.0000 31.8071 0.0000
# 6 0.0000 0.0000 0.0000 7.7540 0.0000 40.2399
#
#
#
# Elastic Compliance Matrix: (Units=1/GPa)
#
#
# Indices 1 2 3 4 5 6 
#
# 1 0.028185 -0.005726 -0.003956 0.000000 -0.008136 0.000000
# 2 -0.005726 0.011033 -0.001481 0.000000 0.005573 0.000000
# 3 -0.003956 -0.001481 0.009967 0.000000 0.006015 0.000000
# 4 0.000000 0.000000 0.000000 0.135574 0.000000 -0.026124
# 5 -0.008136 0.005573 0.006015 0.000000 0.039107 0.000000
# 6 0.000000 0.000000 0.000000 -0.026124 0.000000 0.029885
#
#
# Mechanical properties :
#
#
# Convention : Reuss Voigt Hill
#
# Bulk Modulus (GPa) = 37.23158 49.79462 43.51310
# Shear Modulus (GPa) = 17.54209 29.92444 23.73327
#
# Velocity S-wave (km/s) = 2.88021 3.76180 3.35013
# Velocity P-wave (km/s) = 5.35420 6.51275 5.96168
#
# Compressibility (1/GPa) = 0.02685892
#
# Stress axis : x y z
#
# Youngs Moduli (GPa) = 35.48037 90.63684 100.33323
#
# Poissons Ratio (x) = 0.51896 0.39694
# Poissons Ratio (y) = 0.20315 0.14858
# Poissons Ratio (z) = 0.14037 0.13422
#
# Static dielectric constant tensor:
#      x y z
#    x 1.788160 0.000000 -0.000820 
#    y 0.000000 1.739630 0.000000 
#    z -0.000820 0.000000 1.817500 
# 
# From -- ./inp_files/24901.got.cif
#   From: 2010.05.17/outbox.cif.g08.bks.cpg/sg10_13_cif.got.tgz:24901.got - 2010.06.03 11:33:40.
