data_PCOD9146303
_publ_section_title
;
Structure prediction by ZEFSAII (Michael W. Deem and Ramdas Pophale) SiO2 
 PCOD9146303
Probable space group: P 2/M
;
_chemical_formula_sum "Si O2"
_cell_formula_units_Z 28
_cell_length_a 31.210801
_cell_length_b 7.564942
_cell_length_c 10.477736
_cell_angle_alpha 90.000000
_cell_angle_beta 33.563944
_cell_angle_gamma 90.000000
_cell_volume 1367.725240
_symmetry_space_group_name_H-M "P 2/M"
_symmetry_group_IT_number 10
_symmetry_cell_setting 'monoclinic'
loop_
_space_group_symop_operation_xyz
x,y,z
-x,y,-z
-x,-y,-z
x,-y,z
loop_
_atom_site_type_symbol
_atom_site_label
_atom_site_fract_x
_atom_site_fract_y
_atom_site_fract_z
Si Si1 0.916137 0.283646 0.862962
Si Si2 0.089317 0.711875 0.416463
Si Si3 0.502190 0.216137 0.142375
Si Si4 0.235007 0.294134 0.626386
Si Si5 0.660934 0.794992 0.867461
Si Si6 0.255018 0.211146 0.091069
Si Si7 0.331776 0.785564 0.638828
O O1 0.913571 0.500000 0.870283
O O2 0.898609 0.227187 0.760338
O O3 0.004286 0.227852 0.672182
O O4 0.849245 0.222217 0.124170
O O5 0.085294 0.500000 0.420339
O O6 0.163064 0.758334 0.317548
O O7 0.421676 0.266940 0.408008
O O8 0.505012 0.000000 0.133405
O O9 0.500000 0.272432 0.000000
O O10 0.579438 0.281644 0.020885
O O11 0.226590 0.500000 0.614926
O O12 0.279147 0.209421 0.398600
O O13 0.287411 0.277530 0.622976
O O14 0.700730 0.717441 0.894811
O O15 0.644202 0.000000 0.938361
O O16 0.265507 0.000000 0.063496
O O17 0.290437 0.278767 0.870014
O O18 0.328779 0.000000 0.643381
#
# Coordination Sequence:
#
# PCOD9146303 Si02
#       7
#     4   4   4   4   4   4   4
#     4   8  16  30  52  79 101 130 174 215 251 298
#     4   9  16  32  55  75 102 137 170 211 256 302
#     4   9  16  30  54  77  98 134 179 212 248 303
#     4  11  20  33  54  81 104 131 174 217 258 305
#     4  10  21  37  53  73 107 143 172 211 258 307
#     4  10  21  34  51  79 110 137 169 211 263 310
#     4  10  19  33  54  78 104 135 173 213 255 306
#
# _framework density 20.471947
#
# number of rings (size 3 to 8) (size 9 to 14) (size 15 to 20)
#    0.000    2.429    2.857    1.286    0.000    1.143 
#    0.000    7.857    0.000    4.286    0.000    3.000 
#    0.000    0.000    0.000    0.000    0.000    0.000 
#
# Total GULP energy -156273.015666 kJ/mol
# GULP energy per Si atom -5581.179131 kJ/mol
# Density = 2.042535 g / cm^3
# Si number density = 20.471947 Si / 1000 Ang^3
#
#
#
# Elastic Constant Matrix: (Units=GPa)
#
#
# Indices 1 2 3 4 5 6 
#
# 1 134.4829 -5.1842 45.3160 0.0000 -12.0115 0.0000
# 2 -5.1842 45.7833 -8.7184 0.0000 -1.6175 0.0000
# 3 45.3160 -8.7184 96.5569 0.0000 -22.4490 0.0000
# 4 0.0000 0.0000 0.0000 -11.4930 0.0000 -24.0403
# 5 -12.0115 -1.6175 -22.4490 0.0000 31.0837 0.0000
# 6 0.0000 0.0000 0.0000 -24.0403 0.0000 3.3696
#
#
#
# Elastic Compliance Matrix: (Units=1/GPa)
#
#
# Indices 1 2 3 4 5 6 
#
# 1 0.008842 0.000258 -0.004001 0.000000 0.000541 0.000000
# 2 0.000258 0.022488 0.002649 0.000000 0.003184 0.000000
# 3 -0.004001 0.002649 0.014597 0.000000 0.009134 0.000000
# 4 0.000000 0.000000 0.000000 -0.005464 0.000000 -0.038984
# 5 0.000541 0.003184 0.009134 0.000000 0.039143 0.000000
# 6 0.000000 0.000000 0.000000 -0.038984 0.000000 0.018637
#
#
# Mechanical properties :
#
#
# Convention : Reuss Voigt Hill
#
# Bulk Modulus (GPa) = 22.86140 37.73889 30.30014
# Shear Modulus (GPa) = 43.47461 20.95271 32.21366
#
# Velocity S-wave (km/s) = 4.61327 3.20266 3.97110
# Velocity P-wave (km/s) = 6.29030 5.67014 5.98825
#
# Compressibility (1/GPa) = 0.04374186
#
# Stress axis : x y z
#
# Youngs Moduli (GPa) = 113.09299 44.46759 68.50704
#
# Poissons Ratio (x) = -0.01149 0.27408
# Poissons Ratio (y) = -0.02923 -0.18150
# Poissons Ratio (z) = 0.45246 -0.11781
#
# Static dielectric constant tensor:
#      x y z
#    x 1.709140 0.000000 -0.020110 
#    y 0.000000 1.779820 0.000000 
#    z -0.020110 0.000000 1.723260 
# 
# From -- ./inp_files/36915.got.cif
#   From: 2010.05.17/outbox.cif.g08.bks.cpg/sg10_19_cif.got.tgz:36915.got - 2010.06.03 11:33:40.
