data_PCOD9146124
_publ_section_title
;
Structure prediction by ZEFSAII (Michael W. Deem and Ramdas Pophale) SiO2 
 PCOD9146124
Probable space group: P 2/M
;
_chemical_formula_sum "Si O2"
_cell_formula_units_Z 32
_cell_length_a 11.878080
_cell_length_b 7.641355
_cell_length_c 19.306539
_cell_angle_alpha 90.000000
_cell_angle_beta 114.820541
_cell_angle_gamma 90.000000
_cell_volume 1590.480968
_symmetry_space_group_name_H-M "P 2/M"
_symmetry_group_IT_number 10
_symmetry_cell_setting 'monoclinic'
loop_
_space_group_symop_operation_xyz
x,y,z
-x,y,-z
-x,-y,-z
x,-y,z
loop_
_atom_site_type_symbol
_atom_site_label
_atom_site_fract_x
_atom_site_fract_y
_atom_site_fract_z
Si Si1 0.056374 0.214706 0.749429
Si Si2 0.288841 0.786211 0.718763
Si Si3 0.190434 0.214287 0.394043
Si Si4 0.431637 0.789376 0.203866
Si Si5 0.701986 0.213360 0.436696
Si Si6 0.580335 0.786750 0.640965
Si Si7 0.947964 0.198224 0.094902
Si Si8 0.179296 0.695248 0.075787
O O1 0.180744 0.270289 0.742084
O O2 0.052809 0.273199 0.828239
O O3 0.935259 0.271212 0.675562
O O4 0.053504 0.000000 0.749516
O O5 0.428090 0.730081 0.775057
O O6 0.266531 0.731165 0.633272
O O7 0.288630 0.000000 0.718706
O O8 0.209529 0.270348 0.478319
O O9 0.310279 0.271330 0.380858
O O10 0.189965 0.000000 0.393656
O O11 0.399371 0.732688 0.274079
O O12 0.322727 0.734018 0.124843
O O13 0.433889 0.000000 0.205031
O O14 0.559382 0.265772 0.415138
O O15 0.703152 0.000000 0.436341
O O16 0.581336 0.000000 0.639978
O O17 0.087222 0.193001 0.099849
O O18 0.900952 0.000000 0.087336
O O19 0.865016 0.287258 0.014604
O O20 0.153265 0.500000 0.092740
#
# Coordination Sequence:
#
# PCOD9146124 Si02
#       8
#     4   4   4   4   4   4   4   4
#     4   9  17  27  41  63  90 122 161 199 228 265
#     4   8  15  27  41  61  90 124 163 199 227 263
#     4   9  14  19  31  55  89 125 156 188 231 278
#     4   9  16  29  49  68  91 127 163 191 226 276
#     4   8  13  20  32  53  87 128 158 186 230 276
#     4   8  13  21  35  58  87 120 159 195 226 269
#     4  10  19  33  52  72  97 127 154 181 225 283
#     4  11  21  33  51  75  99 117 144 191 239 281
#
# _framework density 20.119700999999999
#
# number of rings (size 3 to 8) (size 9 to 14) (size 15 to 20)
#    0.000    3.000    0.000    4.875    0.000    4.000 
#    0.000    3.125    0.000    5.250    0.000    0.000 
#    0.000   36.000    0.000   14.625    0.000   16.250 
#
# Total GULP energy -178495.475530 kJ/mol
# GULP energy per Si atom -5577.983610 kJ/mol
# Density = 2.007391 g / cm^3
# Si number density = 20.119701 Si / 1000 Ang^3
#
#
#
# Elastic Constant Matrix: (Units=GPa)
#
#
# Indices 1 2 3 4 5 6 
#
# 1 126.2263 1.3479 111.0751 0.0000 -8.9722 0.0000
# 2 1.3479 39.7093 5.0435 0.0000 -0.5299 0.0000
# 3 111.0751 5.0435 176.3065 0.0000 7.7999 0.0000
# 4 0.0000 0.0000 0.0000 -54.3283 0.0000 -0.8542
# 5 -8.9722 -0.5299 7.7999 0.0000 12.7838 0.0000
# 6 0.0000 0.0000 0.0000 -0.8542 0.0000 -16.8642
#
#
#
# Elastic Compliance Matrix: (Units=1/GPa)
#
#
# Indices 1 2 3 4 5 6 
#
# 1 0.024652 0.001666 -0.016800 0.000000 0.027621 0.000000
# 2 0.001666 0.025417 -0.001927 0.000000 0.003398 0.000000
# 3 -0.016800 -0.001927 0.017304 0.000000 -0.022429 0.000000
# 4 0.000000 0.000000 0.000000 -0.018421 0.000000 0.000933
# 5 0.027621 0.003398 -0.022429 0.000000 0.111435 0.000000
# 6 0.000000 0.000000 0.000000 0.000933 0.000000 -0.059344
#
#
# Mechanical properties :
#
#
# Convention : Reuss Voigt Hill
#
# Bulk Modulus (GPa) = 30.07626 64.13057 47.10342
# Shear Modulus (GPa) = 34.18859 3.30331 18.74595
#
# Velocity S-wave (km/s) = 4.12668 1.28273 3.05572
# Velocity P-wave (km/s) = 6.13898 5.84274 5.99269
#
# Compressibility (1/GPa) = 0.03324882
#
# Stress axis : x y z
#
# Youngs Moduli (GPa) = 40.56518 39.34443 57.79075
#
# Poissons Ratio (x) = -0.06553 0.97091
# Poissons Ratio (y) = -0.06757 0.11135
# Poissons Ratio (z) = 0.68151 0.07581
#
# Static dielectric constant tensor:
#      x y z
#    x 1.680600 0.000000 0.004350 
#    y 0.000000 1.733150 0.000000 
#    z 0.004350 0.000000 1.698340 
# 
# From -- ./inp_files/83399.got.cif
#   From: 2010.05.17/outbox.cif.g08.bks.cpg/sg10_42_cif.got.tgz:83399.got - 2010.06.03 11:33:40.
