data_PCOD9146783
_publ_section_title
;
Structure prediction by ZEFSAII (Michael W. Deem and Ramdas Pophale) SiO2 
 PCOD9146783
Probable space group: P 2/M
;
_chemical_formula_sum "Si O2"
_cell_formula_units_Z 30
_cell_length_a 9.217707
_cell_length_b 19.250706
_cell_length_c 17.654694
_cell_angle_alpha 90.000000
_cell_angle_beta 142.263345
_cell_angle_gamma 90.000000
_cell_volume 1917.364429
_symmetry_space_group_name_H-M "P 2/M"
_symmetry_group_IT_number 10
_symmetry_cell_setting 'monoclinic'
loop_
_space_group_symop_operation_xyz
x,y,z
-x,y,-z
-x,-y,-z
x,-y,z
loop_
_atom_site_type_symbol
_atom_site_label
_atom_site_fract_x
_atom_site_fract_y
_atom_site_fract_z
Si Si1 0.916112 0.807924 0.883964
Si Si2 0.193118 0.080483 0.455976
Si Si3 0.639913 0.577608 0.793653
Si Si4 0.764240 0.079690 0.700869
Si Si5 0.447864 0.277230 0.737427
Si Si6 0.631941 0.720395 0.981564
Si Si7 0.000000 0.813115 0.500000
Si Si8 0.839182 0.577036 0.048556
O O1 0.862828 0.867629 0.802516
O O2 0.682687 0.761749 0.803131
O O3 0.000000 0.836220 0.000000
O O4 0.128511 0.760550 0.940845
O O5 0.477903 0.084125 0.583338
O O6 0.150274 0.094943 0.349385
O O7 0.073088 0.135892 0.461315
O O8 0.122558 0.000000 0.442585
O O9 0.542942 0.500000 0.739293
O O10 0.467033 0.643155 0.716497
O O11 0.877139 0.586842 0.841203
O O12 0.739943 0.578145 0.921226
O O13 0.827783 0.000000 0.744180
O O14 0.474096 0.278520 0.839883
O O15 0.219440 0.235357 0.615442
O O16 0.500000 0.750320 0.000000
O O17 0.714791 0.642043 0.035319
O O18 0.792529 0.500000 0.060710
#
# Coordination Sequence:
#
# PCOD9146783 Si02
#       8
#     4   4   4   4   4   4   2   4
#     4  10  19  34  52  71 105 137 163 201 247 306
#     4   9  19  34  54  76  99 128 164 213 255 288
#     4   8  13  26  47  67  94 130 169 203 239 294
#     4   9  18  35  55  75  98 129 170 204 247 303
#     4  10  20  33  47  76 100 134 172 204 246 297
#     4  10  20  31  48  73 105 131 159 207 256 299
#     4  12  21  32  53  76 106 130 166 216 245 294
#     4   8  13  24  46  71  94 125 162 204 250 293
#
# _framework density 15.646478
#
# number of rings (size 3 to 8) (size 9 to 14) (size 15 to 20)
#    0.000    2.667    2.667    1.800    1.867    0.533 
#    0.000    0.333    0.000    0.400    0.000    0.000 
#    0.000    3.200    0.000    0.000    0.000    0.000 
#
# Total GULP energy -167053.602526 kJ/mol
# GULP energy per Si atom -5568.453418 kJ/mol
# Density = 1.561087 g / cm^3
# Si number density = 15.646478 Si / 1000 Ang^3
#
#
#
# Elastic Constant Matrix: (Units=GPa)
#
#
# Indices 1 2 3 4 5 6 
#
# 1 85.4044 55.5650 39.6891 0.0000 -0.5194 0.0000
# 2 55.5650 124.9376 61.1649 0.0000 -9.7245 0.0000
# 3 39.6891 61.1649 70.2181 0.0000 -0.7474 0.0000
# 4 0.0000 0.0000 0.0000 24.6104 0.0000 3.5616
# 5 -0.5194 -9.7245 -0.7474 0.0000 14.6990 0.0000
# 6 0.0000 0.0000 0.0000 3.5616 0.0000 9.5402
#
#
#
# Elastic Compliance Matrix: (Units=1/GPa)
#
#
# Indices 1 2 3 4 5 6 
#
# 1 0.017750 -0.005625 -0.005169 0.000000 -0.003357 0.000000
# 2 -0.005625 0.016922 -0.011450 0.000000 0.010414 0.000000
# 3 -0.005169 -0.011450 0.027068 0.000000 -0.006381 0.000000
# 4 0.000000 0.000000 0.000000 0.042954 0.000000 -0.016036
# 5 -0.003357 0.010414 -0.006381 0.000000 0.074479 0.000000
# 6 0.000000 0.000000 0.000000 -0.016036 0.000000 0.110806
#
#
# Mechanical properties :
#
#
# Convention : Reuss Voigt Hill
#
# Bulk Modulus (GPa) = 57.96001 65.93313 61.94657
# Shear Modulus (GPa) = 14.69650 18.04600 16.37125
#
# Velocity S-wave (km/s) = 3.06810 3.39980 3.23820
# Velocity P-wave (km/s) = 7.04804 7.59225 7.32520
#
# Compressibility (1/GPa) = 0.01725327
#
# Stress axis : x y z
#
# Youngs Moduli (GPa) = 56.33662 59.09579 36.94345
#
# Poissons Ratio (x) = 0.33243 0.19095
# Poissons Ratio (y) = 0.31691 0.42299
# Poissons Ratio (z) = 0.29119 0.67662
#
# Static dielectric constant tensor:
#      x y z
#    x 1.523490 0.000000 0.001880 
#    y 0.000000 1.535330 0.000000 
#    z 0.001880 0.000000 1.493310 
# 
# From -- ./inp_files/75449.got.cif
#   From: 2010.05.17/outbox.cif.g08.bks.cpg/sg10_38_cif.got.tgz:75449.got - 2010.06.03 11:33:40.
