data_PCOD9146933
_publ_section_title
;
Structure prediction by ZEFSAII (Michael W. Deem and Ramdas Pophale) SiO2 
 PCOD9146933
Probable space group: P 2/M
;
_chemical_formula_sum "Si O2"
_cell_formula_units_Z 19
_cell_length_a 9.715869
_cell_length_b 10.060844
_cell_length_c 12.481828
_cell_angle_alpha 90.000000
_cell_angle_beta 54.568796
_cell_angle_gamma 90.000000
_cell_volume 994.149681
_symmetry_space_group_name_H-M "P 2/M"
_symmetry_group_IT_number 10
_symmetry_cell_setting 'monoclinic'
loop_
_space_group_symop_operation_xyz
x,y,z
-x,y,-z
-x,-y,-z
x,-y,z
loop_
_atom_site_type_symbol
_atom_site_label
_atom_site_fract_x
_atom_site_fract_y
_atom_site_fract_z
Si Si1 0.893226 0.000000 0.207368
Si Si2 0.173869 0.500000 0.653335
Si Si3 0.658601 0.500000 0.792126
Si Si4 0.846432 0.500000 0.935642
Si Si5 0.341638 0.768496 0.636168
Si Si6 0.000000 0.500000 0.500000
Si Si7 0.739868 0.000000 0.033872
Si Si8 0.619327 0.281514 0.130856
O O1 0.814568 0.130366 0.296028
O O2 0.818518 0.000000 0.119487
O O3 0.094347 0.000000 0.114669
O O4 0.286633 0.630332 0.609809
O O5 0.040797 0.500000 0.812757
O O6 0.070297 0.500000 0.591025
O O7 0.740227 0.500000 0.872858
O O8 0.802660 0.500000 0.637156
O O9 0.538472 0.371061 0.833434
O O10 0.785045 0.369492 0.027232
O O11 0.500000 0.824866 0.500000
O O12 0.388415 0.741655 0.738433
O O13 0.636654 0.136461 0.069981
#
# Coordination Sequence:
#
# PCOD9146933 Si02
#       8
#     2   2   2   2   4   1   2   4
#     4   9  19  34  50  75 113 139 165 207 264 325
#     4  11  21  34  55  79 104 136 179 218 257 308
#     4  10  20  37  56  76 106 142 177 212 258 311
#     4  10  21  35  53  76 104 142 176 216 266 305
#     4  11  21  33  53  80 107 139 174 213 262 312
#     4  10  22  38  56  76 108 144 174 212 256 308
#     4   9  18  32  53  79 104 138 169 212 269 306
#     4  10  19  34  55  79 107 133 173 222 261 307
#
# _framework density 19.111809000000001
#
# number of rings (size 3 to 8) (size 9 to 14) (size 15 to 20)
#    0.000    1.895    0.000    5.684    0.000    3.368 
#    0.000    2.105    0.000    5.053    0.000    0.000 
#    0.000    0.000    0.000    0.000    0.000    0.000 
#
# Total GULP energy -105871.073227 kJ/mol
# GULP energy per Si atom -5572.161749 kJ/mol
# Density = 1.906831 g / cm^3
# Si number density = 19.111809 Si / 1000 Ang^3
#
#
#
# Elastic Constant Matrix: (Units=GPa)
#
#
# Indices 1 2 3 4 5 6 
#
# 1 57.4319 28.8311 18.3638 0.0000 -12.8380 0.0000
# 2 28.8311 142.4295 27.4987 0.0000 -15.2665 0.0000
# 3 18.3638 27.4987 122.7665 0.0000 -18.7433 0.0000
# 4 0.0000 0.0000 0.0000 -5.4750 0.0000 -12.9943
# 5 -12.8380 -15.2665 -18.7433 0.0000 33.8732 0.0000
# 6 0.0000 0.0000 0.0000 -12.9943 0.0000 0.3731
#
#
#
# Elastic Compliance Matrix: (Units=1/GPa)
#
#
# Indices 1 2 3 4 5 6 
#
# 1 0.020806 -0.003324 -0.001521 0.000000 0.005546 0.000000
# 2 -0.003324 0.008088 -0.001038 0.000000 0.001811 0.000000
# 3 -0.001521 -0.001038 0.009226 0.000000 0.004060 0.000000
# 4 0.000000 0.000000 0.000000 -0.002183 0.000000 -0.076037
# 5 0.005546 0.001811 0.004060 0.000000 0.034687 0.000000
# 6 0.000000 0.000000 0.000000 -0.076037 0.000000 0.032038
#
#
# Mechanical properties :
#
#
# Convention : Reuss Voigt Hill
#
# Bulk Modulus (GPa) = 37.94356 52.44612 45.19484
# Shear Modulus (GPa) = 40.58045 22.28322 31.43183
#
# Velocity S-wave (km/s) = 4.61295 3.41829 4.05980
# Velocity P-wave (km/s) = 6.94758 6.56361 6.75832
#
# Compressibility (1/GPa) = 0.02635493
#
# Stress axis : x y z
#
# Youngs Moduli (GPa) = 48.06192 123.63449 108.39505
#
# Poissons Ratio (x) = 0.41091 0.16488
# Poissons Ratio (y) = 0.15974 0.11252
# Poissons Ratio (z) = 0.07311 0.12834
#
# Static dielectric constant tensor:
#      x y z
#    x 1.637320 0.000000 -0.010150 
#    y 0.000000 1.664420 0.000000 
#    z -0.010150 0.000000 1.677930 
# 
# From -- ./inp_files/44978.got.cif
#   From: 2010.05.17/outbox.cif.g08.bks.cpg/sg10_23_cif.got.tgz:44978.got - 2010.06.03 11:33:40.
