data_PCOD9146951
_publ_section_title
;
Structure prediction by ZEFSAII (Michael W. Deem and Ramdas Pophale) SiO2 
 PCOD9146951
Probable space group: P 2/M
;
_chemical_formula_sum "Si O2"
_cell_formula_units_Z 30
_cell_length_a 9.448313
_cell_length_b 15.106482
_cell_length_c 12.668307
_cell_angle_alpha 90.000000
_cell_angle_beta 64.989160
_cell_angle_gamma 90.000000
_cell_volume 1638.602361
_symmetry_space_group_name_H-M "P 2/M"
_symmetry_group_IT_number 10
_symmetry_cell_setting 'monoclinic'
loop_
_space_group_symop_operation_xyz
x,y,z
-x,y,-z
-x,-y,-z
x,-y,z
loop_
_atom_site_type_symbol
_atom_site_label
_atom_site_fract_x
_atom_site_fract_y
_atom_site_fract_z
Si Si1 0.714397 0.096052 0.786965
Si Si2 0.519236 0.690198 0.194329
Si Si3 0.485417 0.856428 0.336386
Si Si4 0.971398 0.234267 0.634072
Si Si5 0.173102 0.605804 0.976404
Si Si6 0.500000 0.181995 0.000000
Si Si7 0.202008 0.604456 0.216779
Si Si8 0.242316 0.101839 0.600377
O O1 0.568507 0.095626 0.752872
O O2 0.822876 0.172844 0.707526
O O3 0.790463 0.000000 0.762618
O O4 0.647673 0.122647 0.921537
O O5 0.493834 0.752388 0.304002
O O6 0.368646 0.629046 0.217875
O O7 0.685195 0.641515 0.139317
O O8 0.527556 0.756027 0.091453
O O9 0.648711 0.888349 0.331715
O O10 0.355551 0.878874 0.464991
O O11 0.928711 0.330431 0.693481
O O12 0.000000 0.239591 0.500000
O O13 0.112642 0.178058 0.639287
O O14 0.170876 0.500000 0.965512
O O15 0.209045 0.623801 0.088775
O O16 0.000000 0.639444 0.000000
O O17 0.169816 0.500000 0.240234
O O18 0.185266 0.000000 0.609253
#
# Coordination Sequence:
#
# PCOD9146951 Si02
#       8
#     4   4   4   4   4   2   4   4
#     4  11  20  35  57  83 115 149 192 238 284 341
#     4  11  18  37  58  85 113 155 194 239 286 347
#     4  10  21  35  57  82 115 149 194 235 283 348
#     4  12  23  38  58  89 117 150 198 246 295 345
#     4  10  21  35  57  88 115 147 194 246 297 345
#     4  10  19  34  55  80 112 144 193 228 285 334
#     4  11  22  39  61  84 117 156 195 239 293 353
#     4  11  22  38  58  84 118 156 194 240 294 346
#
# _framework density 18.308284
#
# number of rings (size 3 to 8) (size 9 to 14) (size 15 to 20)
#    0.000    1.200    5.333    2.600    1.867    1.867 
#    0.000    0.000    0.000    0.000    0.000    9.333 
#    0.000    0.000    0.000    0.000    0.000    0.000 
#
# Total GULP energy -167298.537781 kJ/mol
# GULP energy per Si atom -5576.617926 kJ/mol
# Density = 1.826661 g / cm^3
# Si number density = 18.308284 Si / 1000 Ang^3
#
#
#
# Elastic Constant Matrix: (Units=GPa)
#
#
# Indices 1 2 3 4 5 6 
#
# 1 88.8502 35.8694 9.2205 0.0000 -14.5012 0.0000
# 2 35.8694 121.1528 39.1129 0.0000 -13.5852 0.0000
# 3 9.2205 39.1129 54.5581 0.0000 -12.6373 0.0000
# 4 0.0000 0.0000 0.0000 18.5176 0.0000 3.1872
# 5 -14.5012 -13.5852 -12.6373 0.0000 21.9691 0.0000
# 6 0.0000 0.0000 0.0000 3.1872 0.0000 20.6841
#
#
#
# Elastic Compliance Matrix: (Units=1/GPa)
#
#
# Indices 1 2 3 4 5 6 
#
# 1 0.013940 -0.003987 0.002379 0.000000 0.008105 0.000000
# 2 -0.003987 0.012005 -0.007872 0.000000 0.000264 0.000000
# 3 0.002379 -0.007872 0.026312 0.000000 0.011839 0.000000
# 4 0.000000 0.000000 0.000000 0.055474 0.000000 -0.008548
# 5 0.008105 0.000264 0.011839 0.000000 0.057842 0.000000
# 6 0.000000 0.000000 0.000000 -0.008548 0.000000 0.049663
#
#
# Mechanical properties :
#
#
# Convention : Reuss Voigt Hill
#
# Bulk Modulus (GPa) = 30.02983 48.10739 39.06861
# Shear Modulus (GPa) = 20.38367 24.25806 22.32086
#
# Velocity S-wave (km/s) = 3.34032 3.64397 3.49545
# Velocity P-wave (km/s) = 5.59597 6.63612 6.13812
#
# Compressibility (1/GPa) = 0.03330022
#
# Stress axis : x y z
#
# Youngs Moduli (GPa) = 71.73492 83.29697 38.00506
#
# Poissons Ratio (x) = 0.33207 -0.09043
# Poissons Ratio (y) = 0.28598 0.29916
# Poissons Ratio (z) = -0.17069 0.65568
#
# Static dielectric constant tensor:
#      x y z
#    x 1.668530 0.000000 -0.012360 
#    y 0.000000 1.658500 0.000000 
#    z -0.012360 0.000000 1.633050 
# 
# From -- ./inp_files/42927.got.cif
#   From: 2010.05.17/outbox.cif.g08.bks.cpg/sg10_22_cif.got.tgz:42927.got - 2010.06.03 11:33:40.
