data_PCOD9146099
_publ_section_title
;
Structure prediction by ZEFSAII (Michael W. Deem and Ramdas Pophale) SiO2 
 PCOD9146099
Probable space group: P 2/M
;
_chemical_formula_sum "Si O2"
_cell_formula_units_Z 24
_cell_length_a 12.144877
_cell_length_b 8.569689
_cell_length_c 20.941794
_cell_angle_alpha 90.000000
_cell_angle_beta 39.149330
_cell_angle_gamma 90.000000
_cell_volume 1376.061788
_symmetry_space_group_name_H-M "P 2/M"
_symmetry_group_IT_number 10
_symmetry_cell_setting 'monoclinic'
loop_
_space_group_symop_operation_xyz
x,y,z
-x,y,-z
-x,-y,-z
x,-y,z
loop_
_atom_site_type_symbol
_atom_site_label
_atom_site_fract_x
_atom_site_fract_y
_atom_site_fract_z
Si Si1 0.037028 0.816481 0.716042
Si Si2 0.623131 0.685080 0.384477
Si Si3 0.578979 0.180469 0.643426
Si Si4 0.334046 0.314004 0.266363
Si Si5 0.336748 0.688390 0.117983
Si Si6 0.071278 0.682370 0.561441
O O1 0.192893 0.772883 0.693287
O O2 0.074715 0.716195 0.635359
O O3 0.842679 0.767540 0.823815
O O4 0.041256 0.000000 0.699089
O O5 0.500000 0.733602 0.500000
O O6 0.651148 0.500000 0.377693
O O7 0.527880 0.723085 0.361063
O O8 0.558862 0.232871 0.725756
O O9 0.781281 0.212765 0.535847
O O10 0.536977 0.000000 0.654428
O O11 0.359974 0.500000 0.259239
O O12 0.370134 0.265917 0.177000
O O13 0.126940 0.285315 0.369824
O O14 0.311807 0.500000 0.128758
O O15 0.500000 0.726529 0.000000
O O16 0.109631 0.500000 0.531408
#
# Coordination Sequence:
#
# PCOD9146099 Si02
#       6
#     4   4   4   4   4   4
#     4  11  21  33  53  82 113 140 175 224 273 317
#     4  11  22  36  55  74 103 149 191 221 256 313
#     4  12  23  32  48  75 109 144 178 219 267 316
#     4   9  19  34  52  75 105 139 178 219 262 316
#     4   9  19  38  63  85 106 138 180 223 267 319
#     4  10  19  33  51  72 103 145 185 218 256 311
#
# _framework density 17.441078000000001
#
# number of rings (size 3 to 8) (size 9 to 14) (size 15 to 20)
#    0.000    1.667    1.667    5.500    0.000    6.333 
#    0.000    0.000    0.000    1.000    0.000    7.000 
#    0.000    0.000    0.000    0.000    0.000    0.000 
#
# Total GULP energy -134002.114927 kJ/mol
# GULP energy per Si atom -5583.421455 kJ/mol
# Density = 1.740138 g / cm^3
# Si number density = 17.441078 Si / 1000 Ang^3
#
#
#
# Elastic Constant Matrix: (Units=GPa)
#
#
# Indices 1 2 3 4 5 6 
#
# 1 92.4467 21.8556 34.7080 0.0000 4.0862 0.0000
# 2 21.8556 29.3494 16.3252 0.0000 -7.1836 0.0000
# 3 34.7080 16.3252 79.2252 0.0000 -4.9859 0.0000
# 4 0.0000 0.0000 0.0000 7.0743 0.0000 -5.6339
# 5 4.0862 -7.1836 -4.9859 0.0000 8.0400 0.0000
# 6 0.0000 0.0000 0.0000 -5.6339 0.0000 2.6302
#
#
#
# Elastic Compliance Matrix: (Units=1/GPa)
#
#
# Indices 1 2 3 4 5 6 
#
# 1 0.018607 -0.017389 -0.006391 0.000000 -0.028957 0.000000
# 2 -0.017389 0.063688 -0.001424 0.000000 0.064859 0.000000
# 3 -0.006391 -0.001424 0.016483 0.000000 0.012198 0.000000
# 4 0.000000 0.000000 0.000000 -0.200253 0.000000 -0.428944
# 5 -0.028957 0.064859 0.012198 0.000000 0.204609 0.000000
# 6 0.000000 0.000000 0.000000 -0.428944 0.000000 -0.538604
#
#
# Mechanical properties :
#
#
# Convention : Reuss Voigt Hill
#
# Bulk Modulus (GPa) = 20.67346 38.53321 29.60333
# Shear Modulus (GPa) = -13.55237 12.09107 -0.73065
#
# Velocity S-wave (km/s) = -2.79056 2.63583 -0.64795
# Velocity P-wave (km/s) = 1.22313 5.60399 4.05591
#
# Compressibility (1/GPa) = 0.04837120
#
# Stress axis : x y z
#
# Youngs Moduli (GPa) = 53.74237 15.70153 60.66818
#
# Poissons Ratio (x) = 0.27303 0.38773
# Poissons Ratio (y) = 0.93452 0.08638
# Poissons Ratio (z) = 0.34346 0.02236
#
# Static dielectric constant tensor:
#      x y z
#    x 1.614080 0.000000 0.012760 
#    y 0.000000 1.579130 0.000000 
#    z 0.012760 0.000000 1.587400 
# 
# From -- ./inp_files/48890.got.cif
#   From: 2010.05.17/outbox.cif.g08.bks.cpg/sg10_25_cif.got.tgz:48890.got - 2010.06.03 11:33:40.
