data_PCOD9146812
_publ_section_title
;
Structure prediction by ZEFSAII (Michael W. Deem and Ramdas Pophale) SiO2 
 PCOD9146812
Probable space group: P 2/M
;
_chemical_formula_sum "Si O2"
_cell_formula_units_Z 16
_cell_length_a 7.279607
_cell_length_b 5.650800
_cell_length_c 18.290463
_cell_angle_alpha 90.000000
_cell_angle_beta 56.978610
_cell_angle_gamma 90.000000
_cell_volume 630.853676
_symmetry_space_group_name_H-M "P 2/M"
_symmetry_group_IT_number 10
_symmetry_cell_setting 'monoclinic'
loop_
_space_group_symop_operation_xyz
x,y,z
-x,y,-z
-x,-y,-z
x,-y,z
loop_
_atom_site_type_symbol
_atom_site_label
_atom_site_fract_x
_atom_site_fract_y
_atom_site_fract_z
Si Si1 0.038763 0.500000 0.078410
Si Si2 0.287729 0.500000 0.599355
Si Si3 0.568284 0.500000 0.184042
Si Si4 0.568443 0.000000 0.817527
Si Si5 0.825488 0.000000 0.612596
Si Si6 0.822749 0.500000 0.614893
Si Si7 0.712614 0.000000 0.401275
Si Si8 0.753984 0.000000 0.921807
O O1 0.150077 0.749773 0.073096
O O2 0.803942 0.500000 0.169354
O O3 0.000000 0.500000 0.000000
O O4 0.500000 0.500000 0.500000
O O5 0.290704 0.249287 0.639962
O O6 0.060185 0.500000 0.602490
O O7 0.553858 0.249779 0.144321
O O8 0.360036 0.500000 0.282385
O O9 0.654547 0.000000 0.716300
O O10 0.767047 0.000000 0.830947
O O11 0.794804 0.250987 0.579753
O O12 0.065382 0.000000 0.598177
O O13 0.500000 0.000000 0.500000
O O14 0.500000 0.000000 0.000000
#
# Coordination Sequence:
#
# PCOD9146812 Si02
#       8
#     2   2   2   2   2   2   2   2
#     4  12  24  39  57  78 102 131 168 210 252 302
#     4   8  12  18  29  49  79 115 146 179 224 277
#     4  10  19  34  53  74 100 132 165 202 251 301
#     4  10  19  34  53  74 100 132 165 202 251 301
#     4   8  14  23  38  59  85 120 152 185 232 286
#     4   8  14  23  38  59  85 120 152 185 232 286
#     4   8  12  18  29  49  79 115 146 179 224 277
#     4  12  24  39  57  78 102 131 168 210 252 302
#
# _framework density 25.362459999999999
#
# number of rings (size 3 to 8) (size 9 to 14) (size 15 to 20)
#    0.000    2.500    0.000    3.750    0.000    0.000 
#    0.000    0.000    0.000    0.000    0.000    0.000 
#    0.000    0.000    0.000  243.000    0.000    4.500 
#
# Total GULP energy -89348.816841 kJ/mol
# GULP energy per Si atom -5584.301053 kJ/mol
# Density = 2.530473 g / cm^3
# Si number density = 25.362460 Si / 1000 Ang^3
#
#
#
# Elastic Constant Matrix: (Units=GPa)
#
#
# Indices 1 2 3 4 5 6 
#
# 1 99.4785 63.3232 25.1029 0.0000 -32.3181 0.0000
# 2 63.3232 386.3009 21.4921 0.0000 0.9012 0.0000
# 3 25.1029 21.4921 60.3954 0.0000 -11.1882 0.0000
# 4 0.0000 0.0000 0.0000 27.6015 0.0000 -65.2189
# 5 -32.3181 0.9012 -11.1882 0.0000 45.2324 0.0000
# 6 0.0000 0.0000 0.0000 -65.2189 0.0000 158.7711
#
#
#
# Elastic Compliance Matrix: (Units=1/GPa)
#
#
# Indices 1 2 3 4 5 6 
#
# 1 0.015985 -0.002432 -0.003829 0.000000 0.010523 0.000000
# 2 -0.002432 0.003015 -0.000414 0.000000 -0.001900 0.000000
# 3 -0.003829 -0.000414 0.018646 0.000000 0.001884 0.000000
# 4 0.000000 0.000000 0.000000 1.232479 0.000000 0.506269
# 5 0.010523 -0.001900 0.001884 0.000000 0.030130 0.000000
# 6 0.000000 0.000000 0.000000 0.506269 0.000000 0.214260
#
#
# Mechanical properties :
#
#
# Convention : Reuss Voigt Hill
#
# Bulk Modulus (GPa) = 41.16076 85.11235 63.13655
# Shear Modulus (GPa) = 3.25528 75.40477 39.33003
#
# Velocity S-wave (km/s) = 1.13415 5.45852 3.94219
# Velocity P-wave (km/s) = 4.24020 8.56495 6.75787
#
# Compressibility (1/GPa) = 0.02429499
#
# Stress axis : x y z
#
# Youngs Moduli (GPa) = 62.55756 331.70217 53.63190
#
# Poissons Ratio (x) = 0.80664 0.20538
# Poissons Ratio (y) = 0.15213 0.02220
# Poissons Ratio (z) = 0.23956 0.13733
#
# Static dielectric constant tensor:
#      x y z
#    x 1.952630 0.000000 -0.027700 
#    y 0.000000 2.089380 0.000000 
#    z -0.027700 0.000000 1.970150 
# 
# From -- ./inp_files/11850.got.cif
#   From: 2010.05.17/outbox.cif.g08.bks.cpg/sg10_6_cif.got.tgz:11850.got - 2010.06.03 11:33:40.
