data_PCOD9146552
_publ_section_title
;
Structure prediction by ZEFSAII (Michael W. Deem and Ramdas Pophale) SiO2 
 PCOD9146552
Probable space group: P 2/M
;
_chemical_formula_sum "Si O2"
_cell_formula_units_Z 30
_cell_length_a 23.817574
_cell_length_b 11.230032
_cell_length_c 29.396773
_cell_angle_alpha 90.000000
_cell_angle_beta 168.168944
_cell_angle_gamma 90.000000
_cell_volume 1612.086639
_symmetry_space_group_name_H-M "P 2/M"
_symmetry_group_IT_number 10
_symmetry_cell_setting 'monoclinic'
loop_
_space_group_symop_operation_xyz
x,y,z
-x,y,-z
-x,-y,-z
x,-y,z
loop_
_atom_site_type_symbol
_atom_site_label
_atom_site_fract_x
_atom_site_fract_y
_atom_site_fract_z
Si Si1 0.216411 0.207258 0.415803
Si Si2 0.689918 0.365215 0.748695
Si Si3 0.960453 0.867066 0.823056
Si Si4 0.689444 0.638040 0.019760
Si Si5 0.342041 0.643402 0.829800
Si Si6 0.229534 0.360779 0.580656
Si Si7 0.500000 0.700700 0.500000
Si Si8 0.607814 0.134902 0.348227
O O1 0.474635 0.285804 0.604916
O O2 0.114901 0.140204 0.290103
O O3 0.307554 0.134364 0.531962
O O4 0.964082 0.289635 0.230877
O O5 0.684690 0.500000 0.762417
O O6 0.598725 0.365957 0.623593
O O7 0.000000 0.319672 0.000000
O O8 0.759756 0.778482 0.690026
O O9 0.907180 0.000000 0.797853
O O10 0.282010 0.842684 0.084777
O O11 0.756612 0.500000 0.082658
O O12 0.497551 0.686605 0.908306
O O13 0.507748 0.640574 0.830160
O O14 0.364618 0.500000 0.845701
O O15 0.022049 0.664977 0.584394
O O16 0.500000 0.685418 0.000000
O O17 0.191041 0.500000 0.533130
O O18 0.246542 0.250412 0.559217
O O19 0.663006 0.000000 0.373215
#
# Coordination Sequence:
#
# PCOD9146552 Si02
#       8
#     4   4   4   4   4   4   2   4
#     4  11  21  36  58  82 112 153 195 238 286 349
#     4  10  21  36  54  81 117 151 187 233 292 348
#     4  10  21  38  57  80 109 144 190 241 288 344
#     4  10  19  33  55  86 118 150 193 242 290 344
#     4   9  17  30  52  82 116 151 189 237 289 339
#     4  10  20  36  58  86 116 153 195 240 290 345
#     4  10  20  36  58  80 104 144 190 236 290 346
#     4  11  23  39  59  85 118 155 195 241 293 347
#
# _framework density 18.609421000000001
#
# number of rings (size 3 to 8) (size 9 to 14) (size 15 to 20)
#    0.000    1.867    1.333    3.200    0.000    3.733 
#    0.000    0.667    0.000   12.400    0.000    0.000 
#    0.000    0.000    0.000    0.000    0.000    0.000 
#
# Total GULP energy -167252.847777 kJ/mol
# GULP energy per Si atom -5575.094926 kJ/mol
# Density = 1.856707 g / cm^3
# Si number density = 18.609421 Si / 1000 Ang^3
#
#
#
# Elastic Constant Matrix: (Units=GPa)
#
#
# Indices 1 2 3 4 5 6 
#
# 1 71.5416 34.3529 17.1145 0.0000 7.1529 0.0000
# 2 34.3529 83.9466 34.5379 0.0000 19.1045 0.0000
# 3 17.1145 34.5379 107.6685 0.0000 9.9313 0.0000
# 4 0.0000 0.0000 0.0000 -46.2019 0.0000 -25.5471
# 5 7.1529 19.1045 9.9313 0.0000 25.5639 0.0000
# 6 0.0000 0.0000 0.0000 -25.5471 0.0000 -7.3368
#
#
#
# Elastic Compliance Matrix: (Units=1/GPa)
#
#
# Indices 1 2 3 4 5 6 
#
# 1 0.017433 -0.007037 -0.000569 0.000000 0.000602 0.000000
# 2 -0.007037 0.018818 -0.003944 0.000000 -0.010562 0.000000
# 3 -0.000569 -0.003944 0.010742 0.000000 -0.001067 0.000000
# 4 0.000000 0.000000 0.000000 0.023390 0.000000 -0.081443
# 5 0.000602 -0.010562 -0.001067 0.000000 0.047257 0.000000
# 6 0.000000 0.000000 0.000000 -0.081443 0.000000 0.147290
#
#
# Mechanical properties :
#
#
# Convention : Reuss Voigt Hill
#
# Bulk Modulus (GPa) = 41.85291 48.35194 45.10243
# Shear Modulus (GPa) = 16.89226 6.21515 11.55371
#
# Velocity S-wave (km/s) = 3.01612 1.82949 2.49439
# Velocity P-wave (km/s) = 5.88798 5.52283 5.70832
#
# Compressibility (1/GPa) = 0.02389320
#
# Stress axis : x y z
#
# Youngs Moduli (GPa) = 57.36328 53.13996 93.09503
#
# Poissons Ratio (x) = 0.37393 0.05300
# Poissons Ratio (y) = 0.40365 0.36714
# Poissons Ratio (z) = 0.03266 0.20957
#
# Static dielectric constant tensor:
#      x y z
#    x 1.650500 0.000000 -0.016480 
#    y 0.000000 1.647610 0.000000 
#    z -0.016480 0.000000 1.635470 
# 
# From -- ./inp_files/95834.got.cif
#   From: 2010.05.17/outbox.cif.g08.bks.cpg/sg10_48_cif.got.tgz:95834.got - 2010.06.03 11:33:40.
