data_PCOD9146109
_publ_section_title
;
Structure prediction by ZEFSAII (Michael W. Deem and Ramdas Pophale) SiO2 
 PCOD9146109
Probable space group: P 2/M
;
_chemical_formula_sum "Si O2"
_cell_formula_units_Z 32
_cell_length_a 14.371979
_cell_length_b 13.766497
_cell_length_c 9.400947
_cell_angle_alpha 90.000000
_cell_angle_beta 94.089688
_cell_angle_gamma 90.000000
_cell_volume 1855.258115
_symmetry_space_group_name_H-M "P 2/M"
_symmetry_group_IT_number 10
_symmetry_cell_setting 'monoclinic'
loop_
_space_group_symop_operation_xyz
x,y,z
-x,y,-z
-x,-y,-z
x,-y,z
loop_
_atom_site_type_symbol
_atom_site_label
_atom_site_fract_x
_atom_site_fract_y
_atom_site_fract_z
Si Si1 0.101006 0.889814 0.435472
Si Si2 0.792915 0.659463 0.997705
Si Si3 0.175002 0.698433 0.557958
Si Si4 0.660831 0.618689 0.226288
Si Si5 0.736868 0.607219 0.689786
Si Si6 0.073420 0.206255 0.125445
Si Si7 0.531676 0.386914 0.667359
Si Si8 0.958331 0.610889 0.227462
O O1 0.160847 0.812623 0.532765
O O2 0.090340 0.856134 0.269242
O O3 0.000000 0.887324 0.500000
O O4 0.136357 0.000000 0.444437
O O5 0.774014 0.603157 0.851946
O O6 0.833477 0.763189 0.950254
O O7 0.699599 0.655906 0.080557
O O8 0.872469 0.612912 0.105766
O O9 0.267403 0.664443 0.651856
O O10 0.189092 0.658237 0.402072
O O11 0.088131 0.651145 0.632285
O O12 0.666836 0.500000 0.233099
O O13 0.555424 0.649471 0.250335
O O14 0.723099 0.500000 0.625439
O O15 0.635033 0.657078 0.685653
O O16 0.028439 0.308577 0.174682
O O17 0.000000 0.165861 0.000000
O O18 0.500000 0.384709 0.500000
O O19 0.542846 0.500000 0.712550
O O20 0.992731 0.500000 0.244782
#
# Coordination Sequence:
#
# PCOD9146109 Si02
#       8
#     4   4   4   4   4   4   4   4
#     4  11  23  41  58  76 100 128 170 229 277 303
#     4  10  20  31  46  70 106 139 177 207 244 287
#     4  11  19  33  53  75  98 134 176 210 255 305
#     4  10  19  33  51  74 112 147 173 205 248 301
#     4  11  19  28  48  76 107 139 178 213 246 299
#     4  10  21  37  53  74 103 137 175 208 255 315
#     4   9  17  29  45  71 105 145 179 208 246 292
#     4  10  20  33  48  71 109 146 172 202 246 297
#
# _framework density 17.248273999999999
#
# number of rings (size 3 to 8) (size 9 to 14) (size 15 to 20)
#    0.000    1.750    3.750    3.000    0.000    4.000 
#    0.000    2.500    0.000    0.000    0.000    1.750 
#    0.000    1.000    0.000    0.000    0.000    0.000 
#
# Total GULP energy -178401.531466 kJ/mol
# GULP energy per Si atom -5575.047858 kJ/mol
# Density = 1.720902 g / cm^3
# Si number density = 17.248274 Si / 1000 Ang^3
#
#
#
# Elastic Constant Matrix: (Units=GPa)
#
#
# Indices 1 2 3 4 5 6 
#
# 1 62.0996 12.7167 25.5361 0.0000 -16.1773 0.0000
# 2 12.7167 68.7460 22.8074 0.0000 -5.3323 0.0000
# 3 25.5361 22.8074 93.5414 0.0000 -17.7101 0.0000
# 4 0.0000 0.0000 0.0000 13.4796 0.0000 -3.1797
# 5 -16.1773 -5.3323 -17.7101 0.0000 30.2089 0.0000
# 6 0.0000 0.0000 0.0000 -3.1797 0.0000 7.7429
#
#
#
# Elastic Compliance Matrix: (Units=1/GPa)
#
#
# Indices 1 2 3 4 5 6 
#
# 1 0.020098 -0.001929 -0.003423 0.000000 0.008416 0.000000
# 2 -0.001929 0.016021 -0.003419 0.000000 -0.000210 0.000000
# 3 -0.003423 -0.003419 0.013495 0.000000 0.005475 0.000000
# 4 0.000000 0.000000 0.000000 0.082143 0.000000 0.033733
# 5 0.008416 -0.000210 0.005475 0.000000 0.040782 0.000000
# 6 0.000000 0.000000 0.000000 0.033733 0.000000 0.143004
#
#
# Mechanical properties :
#
#
# Convention : Reuss Voigt Hill
#
# Bulk Modulus (GPa) = 31.18058 38.50085 34.84072
# Shear Modulus (GPa) = 14.54428 21.17473 17.85950
#
# Velocity S-wave (km/s) = 2.90699 3.50758 3.22131
# Velocity P-wave (km/s) = 5.42072 6.22689 5.83774
#
# Compressibility (1/GPa) = 0.03207125
#
# Stress axis : x y z
#
# Youngs Moduli (GPa) = 49.75599 62.41675 74.10061
#
# Poissons Ratio (x) = 0.12043 0.25364
# Poissons Ratio (y) = 0.09600 0.25338
# Poissons Ratio (z) = 0.17031 0.21343
#
# Static dielectric constant tensor:
#      x y z
#    x 1.632610 0.000000 -0.007060 
#    y 0.000000 1.574780 0.000000 
#    z -0.007060 0.000000 1.630110 
# 
# From -- ./inp_files/29156.got.cif
#   From: 2010.05.17/outbox.cif.g08.bks.cpg/sg10_15_cif.got.tgz:29156.got - 2010.06.03 11:33:40.
