data_PCOD9146988
_publ_section_title
;
Structure prediction by ZEFSAII (Michael W. Deem and Ramdas Pophale) SiO2 
 PCOD9146988
Probable space group: P 2/M
;
_chemical_formula_sum "Si O2"
_cell_formula_units_Z 32
_cell_length_a 34.976900
_cell_length_b 9.051383
_cell_length_c 14.161290
_cell_angle_alpha 90.000000
_cell_angle_beta 156.374813
_cell_angle_gamma 90.000000
_cell_volume 1796.695917
_symmetry_space_group_name_H-M "P 2/M"
_symmetry_group_IT_number 10
_symmetry_cell_setting 'monoclinic'
loop_
_space_group_symop_operation_xyz
x,y,z
-x,y,-z
-x,-y,-z
x,-y,z
loop_
_atom_site_type_symbol
_atom_site_label
_atom_site_fract_x
_atom_site_fract_y
_atom_site_fract_z
Si Si1 0.705615 0.824865 0.040903
Si Si2 0.642115 0.326143 0.706035
Si Si3 0.531201 0.176793 0.177843
Si Si4 0.723520 0.323545 0.687874
Si Si5 0.115804 0.331616 0.259305
Si Si6 0.560385 0.324058 0.852512
Si Si7 0.891375 0.175496 0.564197
Si Si8 0.886756 0.176612 0.941170
O O1 0.817468 0.795570 0.313135
O O2 0.689764 0.000000 0.011986
O O3 0.670460 0.766560 0.860871
O O4 0.647000 0.744061 0.990575
O O5 0.648570 0.500000 0.744340
O O6 0.708151 0.295914 0.764512
O O7 0.534771 0.298299 0.426242
O O8 0.633774 0.248797 0.432233
O O9 0.459265 0.246656 0.091788
O O10 0.536087 0.000000 0.202045
O O11 0.500000 0.206989 0.000000
O O12 0.720252 0.500000 0.666083
O O13 0.819774 0.254950 0.865256
O O14 0.149747 0.500000 0.326972
O O15 0.143521 0.259604 0.421147
O O16 0.142606 0.235806 0.228932
O O17 0.000000 0.333634 0.000000
O O18 0.570317 0.500000 0.887610
O O19 0.890532 0.000000 0.582898
O O20 0.001262 0.215042 0.792220
O O21 0.876667 0.000000 0.922554
#
# Coordination Sequence:
#
# PCOD9146988 Si02
#       8
#     4   4   4   4   4   4   4   4
#     4  11  22  35  55  81 107 137 176 222 269 317
#     4   9  20  38  56  76 104 136 172 217 269 321
#     4  10  21  37  57  83 114 144 176 216 260 310
#     4  10  21  37  57  80 107 140 179 221 263 314
#     4   9  17  30  50  75 101 132 172 215 258 307
#     4  10  21  37  57  80 108 142 178 216 261 317
#     4   9  20  36  51  75 110 142 176 220 267 313
#     4  10  19  34  56  77 104 144 182 218 262 313
#
# _framework density 17.810471
#
# number of rings (size 3 to 8) (size 9 to 14) (size 15 to 20)
#    0.000    2.250    0.000    3.375    0.000    9.500 
#    0.000    1.875    0.000    3.750    0.000    0.000 
#    0.000    0.000    0.000    0.000    0.000    0.000 
#
# Total GULP energy -178618.205471 kJ/mol
# GULP energy per Si atom -5581.818921 kJ/mol
# Density = 1.776993 g / cm^3
# Si number density = 17.810471 Si / 1000 Ang^3
#
#
#
# Elastic Constant Matrix: (Units=GPa)
#
#
# Indices 1 2 3 4 5 6 
#
# 1 103.9642 66.1523 64.0340 0.0000 4.7653 0.0000
# 2 66.1523 82.7196 55.6464 0.0000 -5.4196 0.0000
# 3 64.0340 55.6464 65.4019 0.0000 -8.7808 0.0000
# 4 0.0000 0.0000 0.0000 35.8768 0.0000 -1.6675
# 5 4.7653 -5.4196 -8.7808 0.0000 25.0477 0.0000
# 6 0.0000 0.0000 0.0000 -1.6675 0.0000 38.0293
#
#
#
# Elastic Compliance Matrix: (Units=1/GPa)
#
#
# Indices 1 2 3 4 5 6 
#
# 1 0.032633 -0.009755 -0.025991 0.000000 -0.017431 0.000000
# 2 -0.009755 0.031327 -0.016732 0.000000 0.002768 0.000000
# 3 -0.025991 -0.016732 0.057876 0.000000 0.021614 0.000000
# 4 0.000000 0.000000 0.000000 0.027930 0.000000 0.001225
# 5 -0.017431 0.002768 0.021614 0.000000 0.051416 0.000000
# 6 0.000000 0.000000 0.000000 0.001225 0.000000 0.026349
#
#
# Mechanical properties :
#
#
# Convention : Reuss Voigt Hill
#
# Bulk Modulus (GPa) = 59.24068 69.30568 64.27318
# Shear Modulus (GPa) = 14.78790 24.20760 19.49775
#
# Velocity S-wave (km/s) = 2.88461 3.69070 3.31227
# Velocity P-wave (km/s) = 6.66547 7.56036 7.12698
#
# Compressibility (1/GPa) = 0.01688029
#
# Stress axis : x y z
#
# Youngs Moduli (GPa) = 30.64367 31.92103 17.27839
#
# Poissons Ratio (x) = 0.31138 0.44909
# Poissons Ratio (y) = 0.29892 0.28910
# Poissons Ratio (z) = 0.79646 0.53410
#
# Static dielectric constant tensor:
#      x y z
#    x 1.587060 0.000000 0.011770 
#    y 0.000000 1.594330 0.000000 
#    z 0.011770 0.000000 1.610310 
# 
# From -- ./inp_files/58291.got.cif
#   From: 2010.05.17/outbox.cif.g08.bks.cpg/sg10_30_cif.got.tgz:58291.got - 2010.06.03 11:33:40.
