data_PCOD9146211
_publ_section_title
;
Structure prediction by ZEFSAII (Michael W. Deem and Ramdas Pophale) SiO2 
 PCOD9146211
Probable space group: P 2/M
;
_chemical_formula_sum "Si O2"
_cell_formula_units_Z 32
_cell_length_a 21.730379
_cell_length_b 9.349184
_cell_length_c 19.133614
_cell_angle_alpha 90.000000
_cell_angle_beta 159.108319
_cell_angle_gamma 90.000000
_cell_volume 1386.188281
_symmetry_space_group_name_H-M "P 2/M"
_symmetry_group_IT_number 10
_symmetry_cell_setting 'monoclinic'
loop_
_space_group_symop_operation_xyz
x,y,z
-x,y,-z
-x,-y,-z
x,-y,z
loop_
_atom_site_type_symbol
_atom_site_label
_atom_site_fract_x
_atom_site_fract_y
_atom_site_fract_z
Si Si1 0.590541 0.334280 0.295105
Si Si2 0.831761 0.664194 0.372900
Si Si3 0.380239 0.835353 0.960468
Si Si4 0.246256 0.659636 0.023266
Si Si5 0.041537 0.837640 0.702213
Si Si6 0.885391 0.335294 0.971108
Si Si7 0.676111 0.162074 0.643837
Si Si8 0.203098 0.167397 0.374615
O O1 0.636205 0.500000 0.332049
O O2 0.734262 0.247662 0.489900
O O3 0.520361 0.257344 0.151115
O O4 0.425592 0.331653 0.172805
O O5 0.776197 0.500000 0.321942
O O6 0.688909 0.760094 0.182887
O O7 0.000000 0.662798 0.500000
O O8 0.902159 0.735285 0.518238
O O9 0.209050 0.838225 0.828521
O O10 0.433981 0.000000 0.007993
O O11 0.173964 0.500000 0.931570
O O12 0.117869 0.775793 0.854609
O O13 0.256976 0.671821 0.117779
O O14 0.978593 0.000000 0.640861
O O15 0.938349 0.500000 0.019934
O O16 0.038139 0.240363 0.164366
O O17 0.806254 0.273332 0.816764
O O18 0.500000 0.172428 0.500000
O O19 0.658116 0.180588 0.541695
O O20 0.744872 0.000000 0.726989
O O21 0.177005 0.000000 0.360682
#
# Coordination Sequence:
#
# PCOD9146211 Si02
#       8
#     4   4   4   4   4   4   4   4
#     4  10  19  33  53  76 103 136 176 220 266 315
#     4   9  15  23  37  60  94 134 172 213 263 314
#     4   9  16  26  41  65  98 133 171 215 263 315
#     4   9  19  34  51  74 104 137 174 218 266 315
#     4   9  16  25  41  66  96 132 172 215 263 314
#     4  11  23  38  57  81 109 141 177 217 261 310
#     4  10  22  40  61  84 110 140 174 214 261 312
#     4  11  23  38  56  79 108 141 176 215 261 312
#
# _framework density 23.084886000000001
#
# number of rings (size 3 to 8) (size 9 to 14) (size 15 to 20)
#    0.000    2.250    0.000    3.375    0.000    8.750 
#    0.000    0.000    0.000    0.000    0.000    0.875 
#    0.000    7.000    0.000    0.000    0.000    0.000 
#
# Total GULP energy -179081.808049 kJ/mol
# GULP energy per Si atom -5596.306502 kJ/mol
# Density = 2.303234 g / cm^3
# Si number density = 23.084886 Si / 1000 Ang^3
#
#
#
# Elastic Constant Matrix: (Units=GPa)
#
#
# Indices 1 2 3 4 5 6 
#
# 1 94.0731 13.8097 9.2616 0.0000 -12.9020 0.0000
# 2 13.8097 197.4303 84.5772 0.0000 -26.2855 0.0000
# 3 9.2616 84.5772 100.8917 0.0000 -24.7276 0.0000
# 4 0.0000 0.0000 0.0000 44.6383 0.0000 -8.6030
# 5 -12.9020 -26.2855 -24.7276 0.0000 42.8400 0.0000
# 6 0.0000 0.0000 0.0000 -8.6030 0.0000 20.1328
#
#
#
# Elastic Compliance Matrix: (Units=1/GPa)
#
#
# Indices 1 2 3 4 5 6 
#
# 1 0.011112 -0.000392 0.000082 0.000000 0.003153 0.000000
# 2 -0.000392 0.007970 -0.006378 0.000000 0.001091 0.000000
# 3 0.000082 -0.006378 0.016654 0.000000 0.005724 0.000000
# 4 0.000000 0.000000 0.000000 0.024413 0.000000 0.010432
# 5 0.003153 0.001091 0.005724 0.000000 0.028265 0.000000
# 6 0.000000 0.000000 0.000000 0.010432 0.000000 0.054128
#
#
# Mechanical properties :
#
#
# Convention : Reuss Voigt Hill
#
# Bulk Modulus (GPa) = 44.72623 67.52135 56.12379
# Shear Modulus (GPa) = 30.60513 40.50533 35.55523
#
# Velocity S-wave (km/s) = 3.64506 4.19337 3.92879
# Velocity P-wave (km/s) = 6.09360 7.26350 6.70412
#
# Compressibility (1/GPa) = 0.02235824
#
# Stress axis : x y z
#
# Youngs Moduli (GPa) = 89.99267 125.47149 60.04734
#
# Poissons Ratio (x) = 0.04925 -0.00491
# Poissons Ratio (y) = 0.03532 0.38297
# Poissons Ratio (z) = -0.00735 0.80024
#
# Static dielectric constant tensor:
#      x y z
#    x 1.941720 0.000000 0.055600 
#    y 0.000000 1.797400 0.000000 
#    z 0.055600 0.000000 1.784340 
# 
# From -- ./inp_files/87045.got.cif
#   From: 2010.05.17/outbox.cif.g08.bks.cpg/sg10_44_cif.got.tgz:87045.got - 2010.06.03 11:33:40.
