data_PCOD9146762
_publ_section_title
;
Structure prediction by ZEFSAII (Michael W. Deem and Ramdas Pophale) SiO2 
 PCOD9146762
Probable space group: P 2/M
;
_chemical_formula_sum "Si O2"
_cell_formula_units_Z 20
_cell_length_a 24.587056
_cell_length_b 7.677831
_cell_length_c 10.278786
_cell_angle_alpha 90.000000
_cell_angle_beta 147.547312
_cell_angle_gamma 90.000000
_cell_volume 1041.213991
_symmetry_space_group_name_H-M "P 2/M"
_symmetry_group_IT_number 10
_symmetry_cell_setting 'monoclinic'
loop_
_space_group_symop_operation_xyz
x,y,z
-x,y,-z
-x,-y,-z
x,-y,z
loop_
_atom_site_type_symbol
_atom_site_label
_atom_site_fract_x
_atom_site_fract_y
_atom_site_fract_z
Si Si1 0.921463 0.207404 0.724601
Si Si2 0.570964 0.000000 0.516632
Si Si3 0.050851 0.788589 0.738351
Si Si4 0.719143 0.702686 0.724369
Si Si5 0.572096 0.000000 0.021635
Si Si6 0.293262 0.304431 0.608382
O O1 0.818330 0.298987 0.555886
O O2 0.976874 0.266835 0.705790
O O3 0.899946 0.000000 0.669532
O O4 0.000000 0.230472 0.000000
O O5 0.500000 0.000000 0.500000
O O6 0.644660 0.832448 0.650380
O O7 0.494721 0.000000 0.241129
O O8 0.000000 0.735606 0.500000
O O9 0.056144 0.000000 0.751771
O O10 0.164927 0.724451 0.993822
O O11 0.690197 0.500000 0.679671
O O12 0.714185 0.747900 0.559506
O O13 0.640470 0.829675 0.176503
O O14 0.500000 0.000000 0.000000
O O15 0.334705 0.500000 0.696782
#
# Coordination Sequence:
#
# PCOD9146762 Si02
#       6
#     4   2   4   4   2   4
#     4  10  19  33  61  92 126 167 207 250 303 372
#     4  12  28  48  70  92 128 167 212 275 332 380
#     4  10  21  37  62  94 133 176 211 249 308 385
#     4  11  23  42  69  96 127 170 216 262 323 387
#     4  12  24  44  70  91 122 165 215 275 323 371
#     4  11  23  39  67 101 130 164 216 268 318 379
#
# _framework density 19.208347
#
# number of rings (size 3 to 8) (size 9 to 14) (size 15 to 20)
#    0.000    1.200    6.000    0.000    0.000    4.800 
#    0.000    2.000    0.000    0.000    0.000    0.000 
#    0.000    0.000    0.000    0.000    0.000    0.000 
#
# Total GULP energy -111781.378090 kJ/mol
# GULP energy per Si atom -5589.068905 kJ/mol
# Density = 1.916463 g / cm^3
# Si number density = 19.208347 Si / 1000 Ang^3
#
#
#
# Elastic Constant Matrix: (Units=GPa)
#
#
# Indices 1 2 3 4 5 6 
#
# 1 161.9083 46.4179 42.9653 0.0000 0.6089 0.0000
# 2 46.4179 80.9720 38.5341 0.0000 9.1012 0.0000
# 3 42.9653 38.5341 76.3509 0.0000 1.0036 0.0000
# 4 0.0000 0.0000 0.0000 99.8483 0.0000 30.3270
# 5 0.6089 9.1012 1.0036 0.0000 35.9774 0.0000
# 6 0.0000 0.0000 0.0000 30.3270 0.0000 20.7915
#
#
#
# Elastic Compliance Matrix: (Units=1/GPa)
#
#
# Indices 1 2 3 4 5 6 
#
# 1 0.007846 -0.003262 -0.002779 0.000000 0.000770 0.000000
# 2 -0.003262 0.018171 -0.007278 0.000000 -0.004339 0.000000
# 3 -0.002779 -0.007278 0.018317 0.000000 0.001377 0.000000
# 4 0.000000 0.000000 0.000000 0.017982 0.000000 -0.026228
# 5 0.000770 -0.004339 0.001377 0.000000 0.028841 0.000000
# 6 0.000000 0.000000 0.000000 -0.026228 0.000000 0.086354
#
#
# Mechanical properties :
#
#
# Convention : Reuss Voigt Hill
#
# Bulk Modulus (GPa) = 56.51248 63.89619 60.20434
# Shear Modulus (GPa) = 23.80410 44.07770 33.94090
#
# Velocity S-wave (km/s) = 3.52413 4.79552 4.20811
# Velocity P-wave (km/s) = 6.78557 7.99998 7.41767
#
# Compressibility (1/GPa) = 0.01769521
#
# Stress axis : x y z
#
# Youngs Moduli (GPa) = 127.45239 55.03219 54.59516
#
# Poissons Ratio (x) = 0.17950 0.15173
# Poissons Ratio (y) = 0.41572 0.39737
# Poissons Ratio (z) = 0.35421 0.40055
#
# Static dielectric constant tensor:
#      x y z
#    x 1.648550 0.000000 -0.001790 
#    y 0.000000 1.829920 0.000000 
#    z -0.001790 0.000000 1.625950 
# 
# From -- ./inp_files/34090.got.cif
#   From: 2010.05.17/outbox.cif.g08.bks.cpg/sg10_18_cif.got.tgz:34090.got - 2010.06.03 11:33:40.
