data_PCOD9146464
_publ_section_title
;
Structure prediction by ZEFSAII (Michael W. Deem and Ramdas Pophale) SiO2 
 PCOD9146464
Probable space group: P 2/M
;
_chemical_formula_sum "Si O2"
_cell_formula_units_Z 32
_cell_length_a 14.405750
_cell_length_b 7.649144
_cell_length_c 20.697081
_cell_angle_alpha 90.000000
_cell_angle_beta 140.613892
_cell_angle_gamma 90.000000
_cell_volume 1447.168034
_symmetry_space_group_name_H-M "P 2/M"
_symmetry_group_IT_number 10
_symmetry_cell_setting 'monoclinic'
loop_
_space_group_symop_operation_xyz
x,y,z
-x,y,-z
-x,-y,-z
x,-y,z
loop_
_atom_site_type_symbol
_atom_site_label
_atom_site_fract_x
_atom_site_fract_y
_atom_site_fract_z
Si Si1 0.819852 0.711093 0.230565
Si Si2 0.135959 0.795683 0.363901
Si Si3 0.843344 0.801540 0.896451
Si Si4 0.540111 0.300244 0.450852
Si Si5 0.275046 0.286907 0.963937
Si Si6 0.039008 0.294280 0.167696
Si Si7 0.473634 0.298588 0.276146
Si Si8 0.427890 0.285214 0.805513
O O1 0.817881 0.500000 0.227970
O O2 0.752632 0.769570 0.125107
O O3 0.714933 0.769313 0.231813
O O4 0.988875 0.765375 0.325860
O O5 0.284643 0.699500 0.461915
O O6 0.091492 0.734859 0.268450
O O7 0.169639 0.000000 0.381511
O O8 0.857718 0.800659 0.826842
O O9 0.696176 0.705517 0.836066
O O10 0.836257 0.000000 0.916739
O O11 0.000000 0.722332 0.000000
O O12 0.500000 0.223232 0.500000
O O13 0.480139 0.500000 0.420789
O O14 0.485630 0.217935 0.354084
O O15 0.275466 0.500000 0.963488
O O16 0.130053 0.233968 0.925519
O O17 0.426610 0.230159 0.076972
O O18 0.045208 0.500000 0.157003
O O19 0.520727 0.500000 0.308772
O O20 0.561658 0.223301 0.262832
O O21 0.430447 0.500000 0.805633
#
# Coordination Sequence:
#
# PCOD9146464 Si02
#       8
#     4   4   4   4   4   4   4   4
#     4   9  17  31  53  79 108 142 179 220 265 316
#     4  11  22  36  56  81 109 139 175 220 272 332
#     4  11  23  36  51  77 116 155 184 215 262 322
#     4  10  21  38  59  81 105 135 176 227 279 328
#     4   8  14  25  47  79 108 135 171 216 265 315
#     4  10  19  33  55  80 107 141 182 229 275 320
#     4  10  21  36  56  81 106 138 185 235 277 321
#     4   9  16  29  51  79 107 136 178 229 272 313
#
# _framework density 22.112151000000001
#
# number of rings (size 3 to 8) (size 9 to 14) (size 15 to 20)
#    0.000    2.250    0.000    4.500    0.000    5.250 
#    0.000    1.250    0.000   10.500    0.000    0.000 
#    0.000    0.000    0.000    0.000    0.000    0.000 
#
# Total GULP energy -178688.388519 kJ/mol
# GULP energy per Si atom -5584.012141 kJ/mol
# Density = 2.206182 g / cm^3
# Si number density = 22.112151 Si / 1000 Ang^3
#
#
#
# Elastic Constant Matrix: (Units=GPa)
#
#
# Indices 1 2 3 4 5 6 
#
# 1 152.4462 5.5522 43.4492 0.0000 -5.9882 0.0000
# 2 5.5522 62.4696 -3.5747 0.0000 -5.3039 0.0000
# 3 43.4492 -3.5747 86.7126 0.0000 4.0989 0.0000
# 4 0.0000 0.0000 0.0000 -9.0358 0.0000 -20.8225
# 5 -5.9882 -5.3039 4.0989 0.0000 30.1425 0.0000
# 6 0.0000 0.0000 0.0000 -20.8225 0.0000 -41.6452
#
#
#
# Elastic Compliance Matrix: (Units=1/GPa)
#
#
# Indices 1 2 3 4 5 6 
#
# 1 0.007816 -0.000759 -0.004041 0.000000 0.001969 0.000000
# 2 -0.000759 0.016349 0.000931 0.000000 0.002599 0.000000
# 3 -0.004041 0.000931 0.013714 0.000000 -0.002504 0.000000
# 4 0.000000 0.000000 0.000000 0.727056 0.000000 -0.363527
# 5 0.001969 0.002599 -0.002504 0.000000 0.034365 0.000000
# 6 0.000000 0.000000 0.000000 -0.363527 0.000000 0.157750
#
#
# Mechanical properties :
#
#
# Convention : Reuss Voigt Hill
#
# Bulk Modulus (GPa) = 33.17551 43.60911 38.39231
# Shear Modulus (GPa) = 5.12907 12.97242 9.05075
#
# Velocity S-wave (km/s) = 1.52467 2.42474 2.02534
# Velocity P-wave (km/s) = 4.25856 5.25393 4.78221
#
# Compressibility (1/GPa) = 0.03014271
#
# Stress axis : x y z
#
# Youngs Moduli (GPa) = 127.93646 61.16500 72.91884
#
# Poissons Ratio (x) = 0.04641 0.29466
# Poissons Ratio (y) = 0.09708 -0.06791
# Poissons Ratio (z) = 0.51698 -0.05696
#
# Static dielectric constant tensor:
#      x y z
#    x 1.819400 0.000000 -0.030060 
#    y 0.000000 1.825220 0.000000 
#    z -0.030060 0.000000 1.835340 
# 
# From -- ./inp_files/84768.got.cif
#   From: 2010.05.17/outbox.cif.g08.bks.cpg/sg10_43_cif.got.tgz:84768.got - 2010.06.03 11:33:40.
