data_PCOD9146584
_publ_section_title
;
Structure prediction by ZEFSAII (Michael W. Deem and Ramdas Pophale) SiO2 
 PCOD9146584
Probable space group: P 2/M
;
_chemical_formula_sum "Si O2"
_cell_formula_units_Z 28
_cell_length_a 28.573594
_cell_length_b 8.906649
_cell_length_c 9.891647
_cell_angle_alpha 90.000000
_cell_angle_beta 37.730687
_cell_angle_gamma 90.000000
_cell_volume 1540.509103
_symmetry_space_group_name_H-M "P 2/M"
_symmetry_group_IT_number 10
_symmetry_cell_setting 'monoclinic'
loop_
_space_group_symop_operation_xyz
x,y,z
-x,y,-z
-x,-y,-z
x,-y,z
loop_
_atom_site_type_symbol
_atom_site_label
_atom_site_fract_x
_atom_site_fract_y
_atom_site_fract_z
Si Si1 0.131435 0.320247 0.857476
Si Si2 0.554741 0.324706 0.745161
Si Si3 0.295353 0.176482 0.486770
Si Si4 0.999671 0.819621 0.341793
Si Si5 0.551597 0.325576 0.250009
Si Si6 0.704353 0.823823 0.834292
Si Si7 0.132036 0.320310 0.540250
O O1 0.126136 0.500000 0.879508
O O2 0.217228 0.265373 0.692654
O O3 0.115278 0.279253 0.736361
O O4 0.072392 0.244614 0.094636
O O5 0.572952 0.500000 0.675202
O O6 0.632659 0.237930 0.595574
O O7 0.502803 0.263161 0.743269
O O8 0.500000 0.319664 0.000000
O O9 0.312088 0.196803 0.288465
O O10 0.283499 0.000000 0.538256
O O11 0.926553 0.755672 0.428764
O O12 0.000000 0.776640 0.500000
O O13 0.999750 0.000000 0.334462
O O14 0.500000 0.323421 0.500000
O O15 0.570182 0.500000 0.173630
O O16 0.630619 0.237572 0.080044
O O17 0.781960 0.734266 0.686138
O O18 0.716499 0.000000 0.831332
O O19 0.126576 0.500000 0.542615
#
# Coordination Sequence:
#
# PCOD9146584 Si02
#       7
#     4   4   4   4   4   4   4
#     4  10  21  38  62  89 116 148 192 237 279 335
#     4  10  19  33  56  81 108 145 189 234 280 332
#     4  10  20  34  56  86 115 145 186 236 286 331
#     4  11  24  41  60  86 121 154 186 228 282 340
#     4  10  21  37  55  78 110 148 190 234 282 337
#     4  10  20  35  57  84 114 147 187 234 283 334
#     4  10  21  38  63  90 114 147 192 237 281 335
#
# _framework density 18.175809999999998
#
# number of rings (size 3 to 8) (size 9 to 14) (size 15 to 20)
#    0.000    1.857    1.429    2.571    0.000    6.857 
#    2.571    0.000    0.000    0.000    0.000    0.000 
#    0.000    0.000    0.000    0.000    0.000    0.000 
#
# Total GULP energy -156348.570411 kJ/mol
# GULP energy per Si atom -5583.877515 kJ/mol
# Density = 1.813444 g / cm^3
# Si number density = 18.175810 Si / 1000 Ang^3
#
#
#
# Elastic Constant Matrix: (Units=GPa)
#
#
# Indices 1 2 3 4 5 6 
#
# 1 98.7342 38.0249 62.2916 0.0000 -12.7770 0.0000
# 2 38.0249 62.8652 46.7782 0.0000 -5.0338 0.0000
# 3 62.2916 46.7782 106.0462 0.0000 -12.8261 0.0000
# 4 0.0000 0.0000 0.0000 -90.8218 0.0000 13.7394
# 5 -12.7770 -5.0338 -12.8261 0.0000 19.1414 0.0000
# 6 0.0000 0.0000 0.0000 13.7394 0.0000 31.2213
#
#
#
# Elastic Compliance Matrix: (Units=1/GPa)
#
#
# Indices 1 2 3 4 5 6 
#
# 1 0.017285 -0.004396 -0.007573 0.000000 0.005308 0.000000
# 2 -0.004396 0.024810 -0.008627 0.000000 -0.002190 0.000000
# 3 -0.007573 -0.008627 0.018279 0.000000 0.004925 0.000000
# 4 0.000000 0.000000 0.000000 -0.010323 0.000000 0.004543
# 5 0.005308 -0.002190 0.004925 0.000000 0.058510 0.000000
# 6 0.000000 0.000000 0.000000 0.004543 0.000000 0.030030
#
#
# Mechanical properties :
#
#
# Convention : Reuss Voigt Hill
#
# Bulk Modulus (GPa) = 52.12586 62.42609 57.27597
# Shear Modulus (GPa) = 26.85638 -0.05510 13.40064
#
# Velocity S-wave (km/s) = 3.84811 -0.17430 2.71823
# Velocity P-wave (km/s) = 6.96311 5.86343 6.43680
#
# Compressibility (1/GPa) = 0.01918434
#
# Stress axis : x y z
#
# Youngs Moduli (GPa) = 57.85196 40.30702 54.70759
#
# Poissons Ratio (x) = 0.17717 0.41428
# Poissons Ratio (y) = 0.25429 0.47195
# Poissons Ratio (z) = 0.43809 0.34772
#
# Static dielectric constant tensor:
#      x y z
#    x 1.612300 0.000000 0.020100 
#    y 0.000000 1.615980 0.000000 
#    z 0.020100 0.000000 1.656700 
# 
# From -- ./inp_files/36932.got.cif
#   From: 2010.05.17/outbox.cif.g08.bks.cpg/sg10_19_cif.got.tgz:36932.got - 2010.06.03 11:33:40.
