data_PCOD9146841
_publ_section_title
;
Structure prediction by ZEFSAII (Michael W. Deem and Ramdas Pophale) SiO2 
 PCOD9146841
Probable space group: P 2/M
;
_chemical_formula_sum "Si O2"
_cell_formula_units_Z 32
_cell_length_a 22.699345
_cell_length_b 8.596385
_cell_length_c 11.915942
_cell_angle_alpha 90.000000
_cell_angle_beta 55.109483
_cell_angle_gamma 90.000000
_cell_volume 1907.225224
_symmetry_space_group_name_H-M "P 2/M"
_symmetry_group_IT_number 10
_symmetry_cell_setting 'monoclinic'
loop_
_space_group_symop_operation_xyz
x,y,z
-x,y,-z
-x,-y,-z
x,-y,z
loop_
_atom_site_type_symbol
_atom_site_label
_atom_site_fract_x
_atom_site_fract_y
_atom_site_fract_z
Si Si1 0.624265 0.811496 0.132333
Si Si2 0.216867 0.313572 0.444185
Si Si3 0.583977 0.313677 0.413403
Si Si4 0.940661 0.315227 0.416431
Si Si5 0.650889 0.186623 0.568910
Si Si6 0.757999 0.186828 0.833780
Si Si7 0.514740 0.189345 0.858258
Si Si8 0.083500 0.815101 0.307845
O O1 0.622493 0.742010 0.258084
O O2 0.550330 0.764809 0.151701
O O3 0.625859 0.000000 0.138104
O O4 0.690868 0.761779 0.981787
O O5 0.218079 0.500000 0.441884
O O6 0.134197 0.263986 0.558347
O O7 0.273075 0.250107 0.472643
O O8 0.238619 0.255897 0.295359
O O9 0.500000 0.262025 0.500000
O O10 0.584587 0.500000 0.419457
O O11 0.623397 0.245012 0.478901
O O12 0.947888 0.500000 0.397989
O O13 0.927039 0.270398 0.561499
O O14 0.016975 0.238098 0.303718
O O15 0.590556 0.238911 0.724860
O O16 0.652846 0.000000 0.566347
O O17 0.834056 0.219671 0.812572
O O18 0.752428 0.000000 0.826173
O O19 0.515305 0.000000 0.860578
O O20 0.500000 0.244664 0.000000
O O21 0.077529 0.000000 0.332346
#
# Coordination Sequence:
#
# PCOD9146841 Si02
#       8
#     4   4   4   4   4   4   4   4
#     4  10  19  34  54  73  97 128 169 208 242 290
#     4  10  20  32  47  71 105 137 165 202 248 297
#     4  11  23  38  54  72  98 126 161 210 257 295
#     4   9  16  26  41  63  94 134 169 194 232 289
#     4  11  21  34  54  74  95 127 169 208 247 292
#     4   9  18  31  49  74 103 134 166 204 246 292
#     4   9  17  29  48  73  97 123 157 196 236 283
#     4   9  15  24  41  67  97 128 163 201 240 280
#
# _framework density 16.778300999999999
#
# number of rings (size 3 to 8) (size 9 to 14) (size 15 to 20)
#    0.000    2.250    1.250    3.375    0.000    5.000 
#    0.000    0.000    0.000    1.875    0.000    0.875 
#    0.000    7.000    0.000    0.000    0.000    0.000 
#
# Total GULP energy -178370.991810 kJ/mol
# GULP energy per Si atom -5574.093494 kJ/mol
# Density = 1.674011 g / cm^3
# Si number density = 16.778301 Si / 1000 Ang^3
#
#
#
# Elastic Constant Matrix: (Units=GPa)
#
#
# Indices 1 2 3 4 5 6 
#
# 1 142.6635 20.3622 32.8014 0.0000 -5.9150 0.0000
# 2 20.3622 16.0730 7.2842 0.0000 0.2834 0.0000
# 3 32.8014 7.2842 21.2350 0.0000 11.2372 0.0000
# 4 0.0000 0.0000 0.0000 20.4119 0.0000 -1.5665
# 5 -5.9150 0.2834 11.2372 0.0000 26.7737 0.0000
# 6 0.0000 0.0000 0.0000 -1.5665 0.0000 24.8136
#
#
#
# Elastic Compliance Matrix: (Units=1/GPa)
#
#
# Indices 1 2 3 4 5 6 
#
# 1 0.015633 -0.006175 -0.030714 0.000000 0.016410 0.000000
# 2 -0.006175 0.079588 -0.021333 0.000000 0.006747 0.000000
# 3 -0.030714 -0.021333 0.135396 0.000000 -0.063387 0.000000
# 4 0.000000 0.000000 0.000000 0.049230 0.000000 0.003108
# 5 0.016410 0.006747 -0.063387 0.000000 0.067509 0.000000
# 6 0.000000 0.000000 0.000000 0.003108 0.000000 0.040497
#
#
# Mechanical properties :
#
#
# Convention : Reuss Voigt Hill
#
# Bulk Modulus (GPa) = 8.75860 33.42968 21.09414
# Shear Modulus (GPa) = 9.21907 22.36808 15.79358
#
# Velocity S-wave (km/s) = 2.34661 3.65520 3.07141
# Velocity P-wave (km/s) = 3.54593 6.14667 5.01773
#
# Compressibility (1/GPa) = 0.11417355
#
# Stress axis : x y z
#
# Youngs Moduli (GPa) = 63.96752 12.56468 7.38573
#
# Poissons Ratio (x) = 0.07758 0.22684
# Poissons Ratio (y) = 0.39499 0.15756
# Poissons Ratio (z) = 1.96468 0.26805
#
# Static dielectric constant tensor:
#      x y z
#    x 1.599130 0.000000 -0.035530 
#    y 0.000000 1.568650 0.000000 
#    z -0.035530 0.000000 1.543510 
# 
# From -- ./inp_files/54847.got.cif
#   From: 2010.05.17/outbox.cif.g08.bks.cpg/sg10_28_cif.got.tgz:54847.got - 2010.06.03 11:33:40.
