data_PCOD9146772
_publ_section_title
;
Structure prediction by ZEFSAII (Michael W. Deem and Ramdas Pophale) SiO2 
 PCOD9146772
Probable space group: P 2/M
;
_chemical_formula_sum "Si O2"
_cell_formula_units_Z 32
_cell_length_a 15.497159
_cell_length_b 7.819998
_cell_length_c 14.568753
_cell_angle_alpha 90.000000
_cell_angle_beta 88.330923
_cell_angle_gamma 90.000000
_cell_volume 1764.805352
_symmetry_space_group_name_H-M "P 2/M"
_symmetry_group_IT_number 10
_symmetry_cell_setting 'monoclinic'
loop_
_space_group_symop_operation_xyz
x,y,z
-x,y,-z
-x,-y,-z
x,-y,z
loop_
_atom_site_type_symbol
_atom_site_label
_atom_site_fract_x
_atom_site_fract_y
_atom_site_fract_z
Si Si1 0.250522 0.798457 0.882104
Si Si2 0.903777 0.208475 0.983619
Si Si3 0.622797 0.695089 0.967418
Si Si4 0.345293 0.199353 0.709255
Si Si5 0.401742 0.298108 0.507749
Si Si6 0.481018 0.292682 0.195331
Si Si7 0.223024 0.799511 0.163943
Si Si8 0.317449 0.705551 0.328165
O O1 0.273689 0.726123 0.781317
O O2 0.235764 0.000000 0.870378
O O3 0.167883 0.730210 0.940364
O O4 0.334006 0.780475 0.945928
O O5 0.865524 0.249281 0.883986
O O6 0.905775 0.000000 0.989372
O O7 0.000000 0.270879 0.000000
O O8 0.603399 0.500000 0.993666
O O9 0.544696 0.764132 0.906884
O O10 0.701646 0.698086 0.891171
O O11 0.362311 0.279317 0.609769
O O12 0.433599 0.217339 0.763938
O O13 0.327133 0.000000 0.694125
O O14 0.500000 0.226544 0.500000
O O15 0.410666 0.500000 0.487320
O O16 0.338928 0.230600 0.429610
O O17 0.487939 0.500000 0.193695
O O18 0.402623 0.249005 0.266237
O O19 0.237043 0.773128 0.271373
O O20 0.238269 0.000000 0.142842
O O21 0.309008 0.500000 0.329022
#
# Coordination Sequence:
#
# PCOD9146772 Si02
#       8
#     4   4   4   4   4   4   4   4
#     4   9  19  33  45  64  94 119 144 186 232 272
#     4   8  14  28  51  73  92 119 150 176 214 274
#     4   9  17  29  45  62  84 119 159 189 216 259
#     4  11  22  31  42  64  92 119 149 191 240 274
#     4  10  19  34  50  63  84 119 164 203 227 259
#     4   9  17  30  44  60  84 119 160 193 220 259
#     4   9  16  26  44  71  98 118 142 184 231 272
#     4   9  17  30  47  64  87 120 156 194 229 260
#
# _framework density 18.132311000000001
#
# number of rings (size 3 to 8) (size 9 to 14) (size 15 to 20)
#    0.000    2.750    1.250    2.625    0.000    4.750 
#    0.000    2.500    0.000    9.375    0.000    0.875 
#    0.000    7.000    0.000    0.000    0.000    0.000 
#
# Total GULP energy -178280.657257 kJ/mol
# GULP energy per Si atom -5571.270539 kJ/mol
# Density = 1.809104 g / cm^3
# Si number density = 18.132311 Si / 1000 Ang^3
#
#
#
# Elastic Constant Matrix: (Units=GPa)
#
#
# Indices 1 2 3 4 5 6 
#
# 1 85.9166 7.6827 56.4949 0.0000 18.9676 0.0000
# 2 7.6827 22.8031 1.7940 0.0000 1.8997 0.0000
# 3 56.4949 1.7940 140.0262 0.0000 15.7904 0.0000
# 4 0.0000 0.0000 0.0000 18.1244 0.0000 6.7734
# 5 18.9676 1.8997 15.7904 0.0000 20.4661 0.0000
# 6 0.0000 0.0000 0.0000 6.7734 0.0000 10.3113
#
#
#
# Elastic Compliance Matrix: (Units=1/GPa)
#
#
# Indices 1 2 3 4 5 6 
#
# 1 0.018819 -0.004836 -0.006150 0.000000 -0.012248 0.000000
# 2 -0.004836 0.045440 0.001467 0.000000 -0.000867 0.000000
# 3 -0.006150 0.001467 0.009832 0.000000 -0.002022 0.000000
# 4 0.000000 0.000000 0.000000 0.073126 0.000000 -0.048036
# 5 -0.012248 -0.000867 -0.002022 0.000000 0.061853 0.000000
# 6 0.000000 0.000000 0.000000 -0.048036 0.000000 0.128535
#
#
# Mechanical properties :
#
#
# Convention : Reuss Voigt Hill
#
# Bulk Modulus (GPa) = 18.16436 42.29879 30.23158
# Shear Modulus (GPa) = 13.33351 21.96530 17.64941
#
# Velocity S-wave (km/s) = 2.71467 3.48428 3.12327
# Velocity P-wave (km/s) = 4.45705 6.29011 5.45118
#
# Compressibility (1/GPa) = 0.05505286
#
# Stress axis : x y z
#
# Youngs Moduli (GPa) = 53.13676 22.00706 101.70918
#
# Poissons Ratio (x) = 0.10643 0.62548
# Poissons Ratio (y) = 0.25699 -0.14920
# Poissons Ratio (z) = 0.32678 -0.03228
#
# Static dielectric constant tensor:
#      x y z
#    x 1.630350 0.000000 0.003300 
#    y 0.000000 1.669060 0.000000 
#    z 0.003300 0.000000 1.669100 
# 
# From -- ./inp_files/66135.got.cif
#   From: 2010.05.17/outbox.cif.g08.bks.cpg/sg10_34_cif.got.tgz:66135.got - 2010.06.03 11:33:40.
