data_PCOD9146064
_publ_section_title
;
Structure prediction by ZEFSAII (Michael W. Deem and Ramdas Pophale) SiO2 
 PCOD9146064
Probable space group: P 2/M
;
_chemical_formula_sum "Si O2"
_cell_formula_units_Z 30
_cell_length_a 11.643247
_cell_length_b 19.453932
_cell_length_c 14.478383
_cell_angle_alpha 90.000000
_cell_angle_beta 31.159069
_cell_angle_gamma 90.000000
_cell_volume 1696.841470
_symmetry_space_group_name_H-M "P 2/M"
_symmetry_group_IT_number 10
_symmetry_cell_setting 'monoclinic'
loop_
_space_group_symop_operation_xyz
x,y,z
-x,y,-z
-x,-y,-z
x,-y,z
loop_
_atom_site_type_symbol
_atom_site_label
_atom_site_fract_x
_atom_site_fract_y
_atom_site_fract_z
Si Si1 0.194425 0.834065 0.441775
Si Si2 0.831995 0.713918 0.958393
Si Si3 0.029090 0.422073 0.871073
Si Si4 0.387787 0.839150 0.978501
Si Si5 0.832702 0.173857 0.196203
Si Si6 0.465859 0.737638 0.363649
Si Si7 0.938563 0.918947 0.290126
Si Si8 0.500000 0.629526 0.500000
O O1 0.423792 0.847343 0.229033
O O2 0.245413 0.765401 0.466220
O O3 0.000000 0.827510 0.500000
O O4 0.136375 0.891014 0.558146
O O5 0.908137 0.636054 0.893252
O O6 0.042128 0.757249 0.852914
O O7 0.728681 0.764197 0.952448
O O8 0.640590 0.711626 0.167573
O O9 0.951620 0.500000 0.909169
O O10 0.288976 0.415000 0.672202
O O11 0.000000 0.404991 0.000000
O O12 0.500000 0.845112 0.000000
O O13 0.194050 0.894840 0.102039
O O14 0.597607 0.197991 0.318509
O O15 0.817062 0.120494 0.290057
O O16 0.000000 0.148391 0.000000
O O17 0.433522 0.679789 0.461743
O O18 0.912871 0.000000 0.301671
#
# Coordination Sequence:
#
# PCOD9146064 Si02
#       8
#     4   4   4   4   4   4   4   2
#     4  11  23  39  56  83 114 143 188 236 282 330
#     4   9  17  35  56  80 108 143 180 227 278 315
#     4  11  21  33  48  79 122 150 177 219 272 332
#     4  10  21  39  61  83 105 140 195 238 270 327
#     4   9  17  36  60  81 109 143 188 235 281 330
#     4  10  19  32  59  82 105 143 187 233 274 319
#     4  11  24  39  58  84 113 148 181 228 294 343
#     4  12  19  30  54  84 111 150 190 216 273 330
#
# _framework density 17.679908000000001
#
# number of rings (size 3 to 8) (size 9 to 14) (size 15 to 20)
#    0.000    1.733    4.000    2.200    1.867    1.333 
#    0.000    1.333    0.000    0.400    0.000    0.000 
#    0.000    5.333    0.000    0.000    0.000    0.000 
#
# Total GULP energy -167443.596455 kJ/mol
# GULP energy per Si atom -5581.453215 kJ/mol
# Density = 1.763967 g / cm^3
# Si number density = 17.679908 Si / 1000 Ang^3
#
#
#
# Elastic Constant Matrix: (Units=GPa)
#
#
# Indices 1 2 3 4 5 6 
#
# 1 68.1799 21.2517 7.0806 0.0000 -2.4685 0.0000
# 2 21.2517 96.6548 17.6900 0.0000 -2.2782 0.0000
# 3 7.0806 17.6900 71.1353 0.0000 -5.6224 0.0000
# 4 0.0000 0.0000 0.0000 12.5761 0.0000 3.5558
# 5 -2.4685 -2.2782 -5.6224 0.0000 19.6617 0.0000
# 6 0.0000 0.0000 0.0000 3.5558 0.0000 6.7448
#
#
#
# Elastic Compliance Matrix: (Units=1/GPa)
#
#
# Indices 1 2 3 4 5 6 
#
# 1 0.015822 -0.003329 -0.000635 0.000000 0.001419 0.000000
# 2 -0.003329 0.011545 -0.002524 0.000000 0.000198 0.000000
# 3 -0.000635 -0.002524 0.015060 0.000000 0.003934 0.000000
# 4 0.000000 0.000000 0.000000 0.093445 0.000000 -0.049264
# 5 0.001419 0.000198 0.003934 0.000000 0.052187 0.000000
# 6 0.000000 0.000000 0.000000 -0.049264 0.000000 0.174234
#
#
# Mechanical properties :
#
#
# Convention : Reuss Voigt Hill
#
# Bulk Modulus (GPa) = 33.95534 36.44605 35.20069
# Shear Modulus (GPa) = 12.98414 20.45969 16.72192
#
# Velocity S-wave (km/s) = 2.71292 3.40550 3.07875
# Velocity P-wave (km/s) = 5.39079 6.01019 5.70889
#
# Compressibility (1/GPa) = 0.02945045
#
# Stress axis : x y z
#
# Youngs Moduli (GPa) = 63.20269 86.61987 66.40323
#
# Poissons Ratio (x) = 0.28838 0.04215
# Poissons Ratio (y) = 0.21041 0.16760
# Poissons Ratio (z) = 0.04012 0.21862
#
# Static dielectric constant tensor:
#      x y z
#    x 1.612390 0.000000 0.007530 
#    y 0.000000 1.584220 0.000000 
#    z 0.007530 0.000000 1.648550 
# 
# From -- ./inp_files/65338.got.cif
#   From: 2010.05.17/outbox.cif.g08.bks.cpg/sg10_33_cif.got.tgz:65338.got - 2010.06.03 11:33:40.
