data_PCOD9146873
_publ_section_title
;
Structure prediction by ZEFSAII (Michael W. Deem and Ramdas Pophale) SiO2 
 PCOD9146873
Probable space group: P 2/M
;
_chemical_formula_sum "Si O2"
_cell_formula_units_Z 32
_cell_length_a 14.918724
_cell_length_b 7.807079
_cell_length_c 14.768665
_cell_angle_alpha 90.000000
_cell_angle_beta 58.815451
_cell_angle_gamma 90.000000
_cell_volume 1471.578722
_symmetry_space_group_name_H-M "P 2/M"
_symmetry_group_IT_number 10
_symmetry_cell_setting 'monoclinic'
loop_
_space_group_symop_operation_xyz
x,y,z
-x,y,-z
-x,-y,-z
x,-y,z
loop_
_atom_site_type_symbol
_atom_site_label
_atom_site_fract_x
_atom_site_fract_y
_atom_site_fract_z
Si Si1 0.331816 0.299320 0.847820
Si Si2 0.874238 0.698389 0.312007
Si Si3 0.474633 0.793937 0.615282
Si Si4 0.111755 0.289523 0.900543
Si Si5 0.295782 0.204872 0.468093
Si Si6 0.491632 0.703996 0.106072
Si Si7 0.963949 0.204118 0.617521
Si Si8 0.259229 0.206216 0.288458
O O1 0.321926 0.500000 0.874353
O O2 0.380802 0.282923 0.721551
O O3 0.213788 0.228907 0.903358
O O4 0.418855 0.225882 0.872036
O O5 0.900714 0.500000 0.290455
O O6 0.879901 0.770970 0.208034
O O7 0.759502 0.717433 0.416038
O O8 0.953233 0.770595 0.345942
O O9 0.500000 0.738331 0.500000
O O10 0.583195 0.750516 0.608162
O O11 0.460040 0.000000 0.621293
O O12 0.115798 0.500000 0.898275
O O13 0.000000 0.239622 0.000000
O O14 0.240546 0.251248 0.403655
O O15 0.290214 0.000000 0.482866
O O16 0.509382 0.500000 0.092619
O O17 0.371999 0.727992 0.199840
O O18 0.500000 0.775084 0.000000
O O19 0.846943 0.266793 0.704452
O O20 0.000000 0.273066 0.500000
O O21 0.953385 0.000000 0.610814
O O22 0.267611 0.000000 0.278378
#
# Coordination Sequence:
#
# PCOD9146873 Si02
#       8
#     4   4   4   4   4   4   4   4
#     4  10  20  36  59  83 110 148 187 227 278 332
#     4  11  22  34  56  88 113 143 193 244 280 324
#     4  10  20  33  53  82 113 147 184 225 278 332
#     4   9  20  39  59  80 111 152 192 229 278 338
#     4  10  19  34  54  77 113 153 182 220 282 344
#     4  10  22  38  57  85 118 149 185 235 288 329
#     4  10  20  37  57  78 113 157 189 223 283 350
#     4  10  20  36  58  80 107 151 194 225 272 339
#
# _framework density 21.745355
#
# number of rings (size 3 to 8) (size 9 to 14) (size 15 to 20)
#    0.000    2.000    2.500    1.125    0.000    3.250 
#    0.000    3.125    0.000    3.375    0.000    0.000 
#    0.000    0.000    0.000    0.000    0.000    0.000 
#
# Total GULP energy -178555.010513 kJ/mol
# GULP energy per Si atom -5579.844079 kJ/mol
# Density = 2.169586 g / cm^3
# Si number density = 21.745355 Si / 1000 Ang^3
#
#
#
# Elastic Constant Matrix: (Units=GPa)
#
#
# Indices 1 2 3 4 5 6 
#
# 1 141.6503 9.9576 65.4755 0.0000 -21.5841 0.0000
# 2 9.9576 18.3167 -1.5822 0.0000 0.7122 0.0000
# 3 65.4755 -1.5822 119.0884 0.0000 -12.2267 0.0000
# 4 0.0000 0.0000 0.0000 19.8262 0.0000 -0.9251
# 5 -21.5841 0.7122 -12.2267 0.0000 30.0166 0.0000
# 6 0.0000 0.0000 0.0000 -0.9251 0.0000 14.8382
#
#
#
# Elastic Compliance Matrix: (Units=1/GPa)
#
#
# Indices 1 2 3 4 5 6 
#
# 1 0.010963 -0.006662 -0.005521 0.000000 0.005792 0.000000
# 2 -0.006662 0.058737 0.003974 0.000000 -0.004565 0.000000
# 3 -0.005521 0.003974 0.011551 0.000000 0.000641 0.000000
# 4 0.000000 0.000000 0.000000 0.050585 0.000000 0.003154
# 5 0.005792 -0.004565 0.000641 0.000000 0.037849 0.000000
# 6 0.000000 0.000000 0.000000 0.003154 0.000000 0.067590
#
#
# Mechanical properties :
#
#
# Convention : Reuss Voigt Hill
#
# Bulk Modulus (GPa) = 15.42398 47.41744 31.42071
# Shear Modulus (GPa) = 18.16174 26.61652 22.38913
#
# Velocity S-wave (km/s) = 2.89312 3.50238 3.21223
# Velocity P-wave (km/s) = 4.27418 6.18132 5.31400
#
# Compressibility (1/GPa) = 0.06483411
#
# Stress axis : x y z
#
# Youngs Moduli (GPa) = 91.21972 17.02497 86.57067
#
# Poissons Ratio (x) = 0.11342 0.47797
# Poissons Ratio (y) = 0.60768 -0.34406
# Poissons Ratio (z) = 0.50363 -0.06766
#
# Static dielectric constant tensor:
#      x y z
#    x 1.844970 0.000000 0.015530 
#    y 0.000000 1.804980 0.000000 
#    z 0.015530 0.000000 1.779260 
# 
# From -- ./inp_files/66503.got.cif
#   From: 2010.05.17/outbox.cif.g08.bks.cpg/sg10_34_cif.got.tgz:66503.got - 2010.06.03 11:33:40.
