data_PCOD9146994
_publ_section_title
;
Structure prediction by ZEFSAII (Michael W. Deem and Ramdas Pophale) SiO2 
 PCOD9146994
Probable space group: P 2/M
;
_chemical_formula_sum "Si O2"
_cell_formula_units_Z 32
_cell_length_a 22.847109
_cell_length_b 8.740378
_cell_length_c 14.309711
_cell_angle_alpha 90.000000
_cell_angle_beta 141.954712
_cell_angle_gamma 90.000000
_cell_volume 1761.056653
_symmetry_space_group_name_H-M "P 2/M"
_symmetry_group_IT_number 10
_symmetry_cell_setting 'monoclinic'
loop_
_space_group_symop_operation_xyz
x,y,z
-x,y,-z
-x,-y,-z
x,-y,z
loop_
_atom_site_type_symbol
_atom_site_label
_atom_site_fract_x
_atom_site_fract_y
_atom_site_fract_z
Si Si1 0.606375 0.183171 0.326592
Si Si2 0.208384 0.183875 0.340865
Si Si3 0.778048 0.317819 0.028986
Si Si4 0.384764 0.674369 0.858185
Si Si5 0.612966 0.817599 0.942784
Si Si6 0.946369 0.317766 0.719042
Si Si7 0.968724 0.183620 0.355621
Si Si8 0.137425 0.183931 0.045963
O O1 0.681267 0.219624 0.501607
O O2 0.643021 0.256225 0.276143
O O3 0.497523 0.230203 0.207967
O O4 0.604190 0.000000 0.310670
O O5 0.145884 0.262945 0.341800
O O6 0.196727 0.000000 0.334744
O O7 0.171771 0.227700 0.192346
O O8 0.784014 0.500000 0.028670
O O9 0.790938 0.241635 0.943712
O O10 0.867396 0.256780 0.201803
O O11 0.682031 0.266029 0.958214
O O12 0.351696 0.500000 0.827036
O O13 0.500000 0.673925 0.000000
O O14 0.357919 0.772129 0.914937
O O15 0.619918 0.000000 0.939827
O O16 0.949941 0.500000 0.716079
O O17 0.958938 0.244712 0.632244
O O18 0.036700 0.257850 0.892312
O O19 0.000000 0.221975 0.500000
O O20 0.961455 0.000000 0.338397
O O21 0.128649 0.000000 0.030346
#
# Coordination Sequence:
#
# PCOD9146994 Si02
#       8
#     4   4   4   4   4   4   4   4
#     4   9  19  35  54  78 107 139 179 224 265 309
#     4  10  21  37  57  80 106 138 177 222 269 314
#     4  11  22  36  56  80 108 141 177 219 265 317
#     4   9  17  30  49  74 104 136 170 211 260 310
#     4  10  19  34  56  78 104 142 184 221 259 311
#     4  11  22  35  55  82 111 142 175 214 262 319
#     4  10  21  38  59  82 110 143 178 218 261 309
#     4  10  20  37  59  79 103 137 177 221 266 315
#
# _framework density 18.170908000000001
#
# number of rings (size 3 to 8) (size 9 to 14) (size 15 to 20)
#    0.000    2.000    0.000    5.625    0.000    7.000 
#    0.000    1.875    0.000    3.750    0.000    0.000 
#    0.000    0.000    0.000    0.000    0.000    0.000 
#
# Total GULP energy -178666.923006 kJ/mol
# GULP energy per Si atom -5583.341344 kJ/mol
# Density = 1.812955 g / cm^3
# Si number density = 18.170908 Si / 1000 Ang^3
#
#
#
# Elastic Constant Matrix: (Units=GPa)
#
#
# Indices 1 2 3 4 5 6 
#
# 1 103.7363 31.8455 55.2117 0.0000 -0.6417 0.0000
# 2 31.8455 57.3074 28.9344 0.0000 -4.0014 0.0000
# 3 55.2117 28.9344 73.9589 0.0000 -18.7211 0.0000
# 4 0.0000 0.0000 0.0000 -2.6771 0.0000 18.0498
# 5 -0.6417 -4.0014 -18.7211 0.0000 23.9294 0.0000
# 6 0.0000 0.0000 0.0000 18.0498 0.0000 -4.2207
#
#
#
# Elastic Compliance Matrix: (Units=1/GPa)
#
#
# Indices 1 2 3 4 5 6 
#
# 1 0.019280 -0.003370 -0.016318 0.000000 -0.012812 0.000000
# 2 -0.003370 0.022609 -0.006728 0.000000 -0.001573 0.000000
# 3 -0.016318 -0.006728 0.034838 0.000000 0.025693 0.000000
# 4 0.000000 0.000000 0.000000 0.013421 0.000000 0.057393
# 5 -0.012812 -0.001573 0.025693 0.000000 0.061284 0.000000
# 6 0.000000 0.000000 0.000000 0.057393 0.000000 0.008512
#
#
# Mechanical properties :
#
#
# Convention : Reuss Voigt Hill
#
# Bulk Modulus (GPa) = 41.84681 51.88729 46.86705
# Shear Modulus (GPa) = 22.65107 11.34039 16.99573
#
# Velocity S-wave (km/s) = 3.53449 2.50090 3.06163
# Velocity P-wave (km/s) = 6.30368 6.07918 6.19245
#
# Compressibility (1/GPa) = 0.02389668
#
# Stress axis : x y z
#
# Youngs Moduli (GPa) = 51.86797 44.22949 28.70408
#
# Poissons Ratio (x) = 0.14903 0.46838
# Poissons Ratio (y) = 0.17477 0.19313
# Poissons Ratio (z) = 0.84636 0.29758
#
# Static dielectric constant tensor:
#      x y z
#    x 1.608010 0.000000 0.008280 
#    y 0.000000 1.609620 0.000000 
#    z 0.008280 0.000000 1.628130 
# 
# From -- ./inp_files/70018.got.cif
#   From: 2010.05.17/outbox.cif.g08.bks.cpg/sg10_36_cif.got.tgz:70018.got - 2010.06.03 11:33:40.
