data_PCOD9146242
_publ_section_title
;
Structure prediction by ZEFSAII (Michael W. Deem and Ramdas Pophale) SiO2 
 PCOD9146242
Probable space group: P 2/M
;
_chemical_formula_sum "Si O2"
_cell_formula_units_Z 32
_cell_length_a 20.554725
_cell_length_b 7.657653
_cell_length_c 26.681844
_cell_angle_alpha 90.000000
_cell_angle_beta 21.837788
_cell_angle_gamma 90.000000
_cell_volume 1562.222606
_symmetry_space_group_name_H-M "P 2/M"
_symmetry_group_IT_number 10
_symmetry_cell_setting 'monoclinic'
loop_
_space_group_symop_operation_xyz
x,y,z
-x,y,-z
-x,-y,-z
x,-y,z
loop_
_atom_site_type_symbol
_atom_site_label
_atom_site_fract_x
_atom_site_fract_y
_atom_site_fract_z
Si Si1 0.994974 0.789267 0.584141
Si Si2 0.487510 0.704467 0.716966
Si Si3 0.982884 0.714541 0.219742
Si Si4 0.859054 0.706758 0.416062
Si Si5 0.281187 0.789239 0.298828
Si Si6 0.805513 0.206556 0.152365
Si Si7 0.358325 0.706676 0.915177
Si Si8 0.306245 0.288929 0.654467
O O1 0.824137 0.731797 0.675317
O O2 0.014724 0.730096 0.626761
O O3 0.163343 0.731485 0.430787
O O4 0.995873 0.000000 0.583208
O O5 0.523054 0.500000 0.701793
O O6 0.670125 0.781826 0.566972
O O7 0.340216 0.715566 0.780015
O O8 0.417526 0.781929 0.819103
O O9 0.984749 0.500000 0.218822
O O10 0.931314 0.776141 0.312063
O O11 0.837488 0.768029 0.283296
O O12 0.174814 0.776532 0.066309
O O13 0.834676 0.500000 0.425256
O O14 0.478730 0.729728 0.164179
O O15 0.280428 0.000000 0.299624
O O16 0.752155 0.236809 0.248060
O O17 0.806223 0.000000 0.142289
O O18 0.000000 0.274157 0.000000
O O19 0.329895 0.500000 0.928319
O O20 0.500000 0.227608 0.500000
O O21 0.310507 0.500000 0.650717
#
# Coordination Sequence:
#
# PCOD9146242 Si02
#       8
#     4   4   4   4   4   4   4   4
#     4   9  18  33  53  78 107 139 174 215 264 311
#     4  10  20  34  55  80 104 135 180 226 266 314
#     4   9  19  34  53  78 110 139 168 215 273 320
#     4  10  19  34  55  81 107 134 173 221 262 308
#     4   9  18  33  53  77 107 140 174 215 262 313
#     4  11  24  38  53  79 113 145 179 223 274 326
#     4  10  19  33  53  79 107 138 176 218 263 313
#     4  10  20  38  63  83 103 142 188 228 274 327
#
# _framework density 20.483637000000002
#
# number of rings (size 3 to 8) (size 9 to 14) (size 15 to 20)
#    0.000    2.250    1.250    2.625    0.000    5.750 
#    0.000    3.750    0.000    3.750    0.000    0.000 
#    0.000    0.000    0.000    0.000    0.000    0.000 
#
# Total GULP energy -178697.194827 kJ/mol
# GULP energy per Si atom -5584.287338 kJ/mol
# Density = 2.043702 g / cm^3
# Si number density = 20.483637 Si / 1000 Ang^3
#
#
#
# Elastic Constant Matrix: (Units=GPa)
#
#
# Indices 1 2 3 4 5 6 
#
# 1 130.3442 -14.3394 101.4198 0.0000 -3.5011 0.0000
# 2 -14.3394 34.7232 5.1340 0.0000 6.2197 0.0000
# 3 101.4198 5.1340 189.5880 0.0000 3.1614 0.0000
# 4 0.0000 0.0000 0.0000 11.9685 0.0000 -9.4605
# 5 -3.5011 6.2197 3.1614 0.0000 28.1039 0.0000
# 6 0.0000 0.0000 0.0000 -9.4605 0.0000 39.2433
#
#
#
# Elastic Compliance Matrix: (Units=1/GPa)
#
#
# Indices 1 2 3 4 5 6 
#
# 1 0.014820 0.007111 -0.008140 0.000000 0.001188 0.000000
# 2 0.007111 0.033494 -0.004611 0.000000 -0.006008 0.000000
# 3 -0.008140 -0.004611 0.009772 0.000000 -0.001093 0.000000
# 4 0.000000 0.000000 0.000000 0.103222 0.000000 0.024884
# 5 0.001188 -0.006008 -0.001093 0.000000 0.037183 0.000000
# 6 0.000000 0.000000 0.000000 0.024884 0.000000 0.031481
#
#
# Mechanical properties :
#
#
# Convention : Reuss Voigt Hill
#
# Bulk Modulus (GPa) = 21.36493 59.89825 40.63159
# Shear Modulus (GPa) = 19.46626 33.35919 26.41273
#
# Velocity S-wave (km/s) = 3.08609 4.03994 3.59479
# Velocity P-wave (km/s) = 4.81160 7.14612 6.09174
#
# Compressibility (1/GPa) = 0.04680567
#
# Stress axis : x y z
#
# Youngs Moduli (GPa) = 67.47553 29.85641 102.32919
#
# Poissons Ratio (x) = -0.21231 0.83300
# Poissons Ratio (y) = -0.47982 0.47182
# Poissons Ratio (z) = 0.54928 0.13766
#
# Static dielectric constant tensor:
#      x y z
#    x 1.697540 0.000000 0.004640 
#    y 0.000000 1.756310 0.000000 
#    z 0.004640 0.000000 1.729740 
# 
# From -- ./inp_files/93664.got.cif
#   From: 2010.05.17/outbox.cif.g08.bks.cpg/sg10_47_cif.got.tgz:93664.got - 2010.06.03 11:33:40.
