data_PCOD9146998
_publ_section_title
;
Structure prediction by ZEFSAII (Michael W. Deem and Ramdas Pophale) SiO2 
 PCOD9146998
Probable space group: P 2/M
;
_chemical_formula_sum "Si O2"
_cell_formula_units_Z 20
_cell_length_a 7.123593
_cell_length_b 11.973373
_cell_length_c 10.337301
_cell_angle_alpha 90.000000
_cell_angle_beta 99.733323
_cell_angle_gamma 90.000000
_cell_volume 869.012067
_symmetry_space_group_name_H-M "P 2/M"
_symmetry_group_IT_number 10
_symmetry_cell_setting 'monoclinic'
loop_
_space_group_symop_operation_xyz
x,y,z
-x,y,-z
-x,-y,-z
x,-y,z
loop_
_atom_site_type_symbol
_atom_site_label
_atom_site_fract_x
_atom_site_fract_y
_atom_site_fract_z
Si Si1 0.712172 0.628042 0.965553
Si Si2 0.251098 0.765464 0.292933
Si Si3 0.223218 0.000000 0.883048
Si Si4 0.233147 0.371366 0.539936
Si Si5 0.809755 0.765005 0.218904
Si Si6 0.245262 0.000000 0.187018
O O1 0.774007 0.500000 0.958783
O O2 0.718754 0.691184 0.830992
O O3 0.500000 0.628348 0.000000
O O4 0.825535 0.695502 0.087999
O O5 0.308956 0.696531 0.425643
O O6 0.318966 0.889957 0.268243
O O7 0.025243 0.784281 0.287567
O O8 0.282311 0.884216 0.823376
O O9 0.989292 0.000000 0.848098
O O10 0.290842 0.000000 0.039530
O O11 0.296066 0.500000 0.551109
O O12 0.283412 0.307776 0.678737
O O13 0.000000 0.375078 0.500000
#
# Coordination Sequence:
#
# PCOD9146998 Si02
#       6
#     4   4   2   4   4   2
#     4  11  23  36  51  76 106 137 180 223 260 311
#     4  10  19  34  56  78 106 140 173 216 264 310
#     4   9  16  29  51  81 108 132 173 218 257 309
#     4   9  18  31  50  80 109 135 176 219 256 308
#     4  10  19  34  56  78 106 140 173 216 264 310
#     4   9  16  29  51  81 108 132 173 218 257 309
#
# _framework density 23.014641999999998
#
# number of rings (size 3 to 8) (size 9 to 14) (size 15 to 20)
#    0.000    2.200    2.000    1.800    0.000    4.000 
#    0.000    7.000    0.000    3.600    0.000    2.800 
#    0.000    0.000    0.000    0.000    0.000    0.000 
#
# Total GULP energy -111851.943178 kJ/mol
# GULP energy per Si atom -5592.597159 kJ/mol
# Density = 2.296226 g / cm^3
# Si number density = 23.014642 Si / 1000 Ang^3
#
#
#
# Elastic Constant Matrix: (Units=GPa)
#
#
# Indices 1 2 3 4 5 6 
#
# 1 59.1929 8.8024 9.0528 0.0000 -11.7317 0.0000
# 2 8.8024 279.9295 138.2095 0.0000 -12.0804 0.0000
# 3 9.0528 138.2095 208.2117 0.0000 -22.4502 0.0000
# 4 0.0000 0.0000 0.0000 43.9094 0.0000 -20.6375
# 5 -11.7317 -12.0804 -22.4502 0.0000 27.3462 0.0000
# 6 0.0000 0.0000 0.0000 -20.6375 0.0000 -163.0235
#
#
#
# Elastic Compliance Matrix: (Units=1/GPa)
#
#
# Indices 1 2 3 4 5 6 
#
# 1 0.018494 -0.000395 0.000323 0.000000 0.008025 0.000000
# 2 -0.000395 0.005331 -0.003605 0.000000 -0.000774 0.000000
# 3 0.000323 -0.003605 0.007707 0.000000 0.004873 0.000000
# 4 0.000000 0.000000 0.000000 0.021495 0.000000 -0.002721
# 5 0.008025 -0.000774 0.004873 0.000000 0.043670 0.000000
# 6 0.000000 0.000000 0.000000 -0.002721 0.000000 -0.005790
#
#
# Mechanical properties :
#
#
# Convention : Reuss Voigt Hill
#
# Bulk Modulus (GPa) = 41.35845 95.49595 68.42720
# Shear Modulus (GPa) = 47.02743 7.73105 27.37924
#
# Velocity S-wave (km/s) = 4.52527 1.83480 3.45286
# Velocity P-wave (km/s) = 6.73154 6.78766 6.75965
#
# Compressibility (1/GPa) = 0.02417886
#
# Stress axis : x y z
#
# Youngs Moduli (GPa) = 54.07252 187.57055 129.74678
#
# Poissons Ratio (x) = 0.07406 -0.04194
# Poissons Ratio (y) = 0.02135 0.46776
# Poissons Ratio (z) = -0.01748 0.67623
#
# Static dielectric constant tensor:
#      x y z
#    x 1.949580 0.000000 0.006920 
#    y 0.000000 1.815310 0.000000 
#    z 0.006920 0.000000 1.787830 
# 
# From -- ./inp_files/17880.got.cif
#   From: 2010.05.17/outbox.cif.g08.bks.cpg/sg10_9_cif.got.tgz:17880.got - 2010.06.03 11:33:40.
