data_PCOD9146391
_publ_section_title
;
Structure prediction by ZEFSAII (Michael W. Deem and Ramdas Pophale) SiO2 
 PCOD9146391
Probable space group: P 2/M
;
_chemical_formula_sum "Si O2"
_cell_formula_units_Z 28
_cell_length_a 10.841392
_cell_length_b 15.119588
_cell_length_c 7.399205
_cell_angle_alpha 90.000000
_cell_angle_beta 100.934374
_cell_angle_gamma 90.000000
_cell_volume 1190.838967
_symmetry_space_group_name_H-M "P 2/M"
_symmetry_group_IT_number 10
_symmetry_cell_setting 'monoclinic'
loop_
_space_group_symop_operation_xyz
x,y,z
-x,y,-z
-x,-y,-z
x,-y,z
loop_
_atom_site_type_symbol
_atom_site_label
_atom_site_fract_x
_atom_site_fract_y
_atom_site_fract_z
Si Si1 0.892827 0.145561 0.247435
Si Si2 0.698886 0.402360 0.012949
Si Si3 0.959216 0.340547 0.196504
Si Si4 0.165311 0.096967 0.354970
Si Si5 0.360994 0.197645 0.915888
Si Si6 0.355532 0.767246 0.506652
Si Si7 0.223911 0.595449 0.385765
O O1 0.922393 0.249667 0.281864
O O2 0.863771 0.103779 0.435849
O O3 0.771951 0.147693 0.078811
O O4 0.028668 0.108842 0.226181
O O5 0.642257 0.500000 0.042262
O O6 0.721306 0.402435 0.803058
O O7 0.835680 0.398893 0.143709
O O8 0.643945 0.303395 0.036222
O O9 0.076632 0.385750 0.324010
O O10 0.000000 0.319660 0.000000
O O11 0.267130 0.174516 0.350974
O O12 0.216664 0.000000 0.328994
O O13 0.355593 0.189141 0.700028
O O14 0.500000 0.163512 0.000000
O O15 0.500000 0.757771 0.500000
O O16 0.292634 0.672418 0.508126
O O17 0.247403 0.500000 0.472406
#
# Coordination Sequence:
#
# PCOD9146391 Si02
#       7
#     4   4   4   4   4   4   4
#     4   9  17  33  58  86 112 137 183 231 277 337
#     4   9  18  32  52  79 112 156 199 233 276 338
#     4   9  16  29  52  83 116 154 187 227 283 343
#     4  10  20  37  64  88 110 144 185 234 292 348
#     4  10  21  36  55  80 111 156 191 227 285 343
#     4  11  23  38  59  86 116 150 192 241 287 335
#     4  10  19  33  54  83 120 154 192 238 281 329
#
# _framework density 23.512836
#
# number of rings (size 3 to 8) (size 9 to 14) (size 15 to 20)
#    0.000    2.286    1.429    2.143    0.000    3.143 
#    0.000    0.000    0.000   15.857    0.000    0.000 
#    0.000    0.000    0.000    0.000    0.000    0.000 
#
# Total GULP energy -156252.130548 kJ/mol
# GULP energy per Si atom -5580.433234 kJ/mol
# Density = 2.345932 g / cm^3
# Si number density = 23.512836 Si / 1000 Ang^3
#
#
#
# Elastic Constant Matrix: (Units=GPa)
#
#
# Indices 1 2 3 4 5 6 
#
# 1 108.9047 17.5513 36.2990 0.0000 45.5478 0.0000
# 2 17.5513 87.6800 9.7686 0.0000 23.0531 0.0000
# 3 36.2990 9.7686 75.9025 0.0000 23.5638 0.0000
# 4 0.0000 0.0000 0.0000 9.5181 0.0000 -11.4734
# 5 45.5478 23.0531 23.5638 0.0000 40.1885 0.0000
# 6 0.0000 0.0000 0.0000 -11.4734 0.0000 -40.0696
#
#
#
# Elastic Compliance Matrix: (Units=1/GPa)
#
#
# Indices 1 2 3 4 5 6 
#
# 1 0.018202 0.001961 -0.002694 0.000000 -0.020174 0.000000
# 2 0.001961 0.013683 0.000523 0.000000 -0.010378 0.000000
# 3 -0.002694 0.000523 0.016554 0.000000 -0.006953 0.000000
# 4 0.000000 0.000000 0.000000 0.078104 0.000000 -0.022364
# 5 -0.020174 -0.010378 -0.006953 0.000000 0.057778 0.000000
# 6 0.000000 0.000000 0.000000 -0.022364 0.000000 -0.018553
#
#
# Mechanical properties :
#
#
# Convention : Reuss Voigt Hill
#
# Bulk Modulus (GPa) = 20.82495 44.41388 32.61942
# Shear Modulus (GPa) = 27.44319 15.85195 21.64757
#
# Velocity S-wave (km/s) = 3.42008 2.59932 3.03755
# Velocity P-wave (km/s) = 4.94691 5.28572 5.11912
#
# Compressibility (1/GPa) = 0.04801932
#
# Stress axis : x y z
#
# Youngs Moduli (GPa) = 54.93931 73.08387 60.40680
#
# Poissons Ratio (x) = -0.14331 0.16273
# Poissons Ratio (y) = -0.10773 -0.03160
# Poissons Ratio (z) = 0.14800 -0.03823
#
# Static dielectric constant tensor:
#      x y z
#    x 2.056340 0.000000 -0.018740 
#    y 0.000000 1.881620 0.000000 
#    z -0.018740 0.000000 1.905480 
# 
# From -- ./inp_files/25428.got.cif
#   From: 2010.05.17/outbox.cif.g08.bks.cpg/sg10_13_cif.got.tgz:25428.got - 2010.06.03 11:33:40.
