data_PCOD9146696
_publ_section_title
;
Structure prediction by ZEFSAII (Michael W. Deem and Ramdas Pophale) SiO2 
 PCOD9146696
Probable space group: P 2/M
;
_chemical_formula_sum "Si O2"
_cell_formula_units_Z 28
_cell_length_a 12.923027
_cell_length_b 7.800313
_cell_length_c 15.037261
_cell_angle_alpha 90.000000
_cell_angle_beta 59.482478
_cell_angle_gamma 90.000000
_cell_volume 1305.831518
_symmetry_space_group_name_H-M "P 2/M"
_symmetry_group_IT_number 10
_symmetry_cell_setting 'monoclinic'
loop_
_space_group_symop_operation_xyz
x,y,z
-x,y,-z
-x,-y,-z
x,-y,z
loop_
_atom_site_type_symbol
_atom_site_label
_atom_site_fract_x
_atom_site_fract_y
_atom_site_fract_z
Si Si1 0.052924 0.707485 0.072849
Si Si2 0.411244 0.703640 0.614428
Si Si3 0.284052 0.299670 0.224316
Si Si4 0.982093 0.290547 0.608644
Si Si5 0.680843 0.800939 0.991027
Si Si6 0.484357 0.198204 0.779035
Si Si7 0.143462 0.709625 0.696639
O O1 0.066735 0.500000 0.072109
O O2 0.182681 0.784929 0.034954
O O3 0.955531 0.761525 0.188051
O O4 0.000000 0.750351 0.000000
O O5 0.500000 0.774715 0.500000
O O6 0.402359 0.500000 0.602443
O O7 0.459817 0.725630 0.693003
O O8 0.276114 0.772463 0.662006
O O9 0.284568 0.500000 0.247026
O O10 0.147399 0.236190 0.296265
O O11 0.324208 0.280007 0.104487
O O12 0.378990 0.212525 0.248092
O O13 0.981801 0.500000 0.609662
O O14 0.000000 0.234111 0.500000
O O15 0.090976 0.236569 0.624509
O O16 0.647630 0.000000 0.993188
O O17 0.595792 0.725660 0.105333
O O18 0.449164 0.000000 0.786911
O O19 0.145650 0.500000 0.697556
#
# Coordination Sequence:
#
# PCOD9146696 Si02
#       7
#     4   4   4   4   4   4   4
#     4  10  19  33  57  85 115 152 194 242 291 341
#     4  10  22  39  64  93 118 152 203 251 290 341
#     4  11  22  38  64  92 116 151 202 249 295 351
#     4   9  18  32  57  89 119 148 183 237 299 347
#     4  11  23  39  58  84 121 159 195 240 299 362
#     4  11  25  42  59  83 122 164 197 237 300 360
#     4   9  17  33  55  85 120 148 184 240 296 340
#
# _framework density 21.442277000000001
#
# number of rings (size 3 to 8) (size 9 to 14) (size 15 to 20)
#    0.000    1.857    1.429    2.571    2.000    5.714 
#    0.000    0.714    0.000    1.714    0.000    0.000 
#    0.000    0.000    0.000    0.000    0.000    0.000 
#
# Total GULP energy -156476.604767 kJ/mol
# GULP energy per Si atom -5588.450170 kJ/mol
# Density = 2.139347 g / cm^3
# Si number density = 21.442277 Si / 1000 Ang^3
#
#
#
# Elastic Constant Matrix: (Units=GPa)
#
#
# Indices 1 2 3 4 5 6 
#
# 1 137.7040 -6.6863 41.4716 0.0000 10.4515 0.0000
# 2 -6.6863 22.3577 2.1935 0.0000 -3.6310 0.0000
# 3 41.4716 2.1935 97.9097 0.0000 16.2660 0.0000
# 4 0.0000 0.0000 0.0000 111.9188 0.0000 44.8371
# 5 10.4515 -3.6310 16.2660 0.0000 35.8027 0.0000
# 6 0.0000 0.0000 0.0000 44.8371 0.0000 -9.5700
#
#
#
# Elastic Compliance Matrix: (Units=1/GPa)
#
#
# Indices 1 2 3 4 5 6 
#
# 1 0.008519 0.002804 -0.003575 0.000000 -0.000578 0.000000
# 2 0.002804 0.046740 -0.003122 0.000000 0.005340 0.000000
# 3 -0.003575 -0.003122 0.012630 0.000000 -0.005011 0.000000
# 4 0.000000 0.000000 0.000000 0.003106 0.000000 0.014551
# 5 -0.000578 0.005340 -0.005011 0.000000 0.030918 0.000000
# 6 0.000000 0.000000 0.000000 0.014551 0.000000 -0.036321
#
#
# Mechanical properties :
#
#
# Convention : Reuss Voigt Hill
#
# Bulk Modulus (GPa) = 16.63813 36.88101 26.75957
# Shear Modulus (GPa) = 53.52666 42.36314 47.94490
#
# Velocity S-wave (km/s) = 5.00173 4.44969 4.73376
# Velocity P-wave (km/s) = 6.41348 6.60584 6.51037
#
# Compressibility (1/GPa) = 0.06010290
#
# Stress axis : x y z
#
# Youngs Moduli (GPa) = 117.38911 21.39518 79.17502
#
# Poissons Ratio (x) = -0.06000 0.28305
# Poissons Ratio (y) = -0.32921 0.24720
# Poissons Ratio (z) = 0.41967 0.06680
#
# Static dielectric constant tensor:
#      x y z
#    x 1.733380 0.000000 -0.011620 
#    y 0.000000 1.798250 0.000000 
#    z -0.011620 0.000000 1.766990 
# 
# From -- ./inp_files/63614.got.cif
#   From: 2010.05.17/outbox.cif.g08.bks.cpg/sg10_32_cif.got.tgz:63614.got - 2010.06.03 11:33:40.
