data_PCOD9146475
_publ_section_title
;
Structure prediction by ZEFSAII (Michael W. Deem and Ramdas Pophale) SiO2 
 PCOD9146475
Probable space group: P 2/M
;
_chemical_formula_sum "Si O2"
_cell_formula_units_Z 32
_cell_length_a 14.704186
_cell_length_b 7.435610
_cell_length_c 14.679913
_cell_angle_alpha 90.000000
_cell_angle_beta 122.833628
_cell_angle_gamma 90.000000
_cell_volume 1348.617616
_symmetry_space_group_name_H-M "P 2/M"
_symmetry_group_IT_number 10
_symmetry_cell_setting 'monoclinic'
loop_
_space_group_symop_operation_xyz
x,y,z
-x,y,-z
-x,-y,-z
x,-y,z
loop_
_atom_site_type_symbol
_atom_site_label
_atom_site_fract_x
_atom_site_fract_y
_atom_site_fract_z
Si Si1 0.902567 0.281205 0.879782
Si Si2 0.593825 0.216820 0.119034
Si Si3 0.248937 0.217896 0.948773
Si Si4 0.314528 0.707873 0.646861
Si Si5 0.338130 0.792172 0.182750
Si Si6 0.098024 0.284617 0.622644
Si Si7 0.469934 0.292565 0.581375
Si Si8 0.980606 0.704483 0.227689
O O1 0.902687 0.500000 0.879653
O O2 0.784377 0.220115 0.846312
O O3 0.930898 0.218079 0.792635
O O4 0.000000 0.223137 0.000000
O O5 0.702014 0.266727 0.122314
O O6 0.599204 0.287739 0.223590
O O7 0.587144 0.000000 0.121550
O O8 0.500000 0.276332 0.000000
O O9 0.129749 0.296061 0.891359
O O10 0.242440 0.000000 0.950103
O O11 0.326008 0.277790 0.072878
O O12 0.288663 0.500000 0.611862
O O13 0.206438 0.788774 0.633300
O O14 0.372154 0.786701 0.589028
O O15 0.424139 0.706345 0.296981
O O16 0.371401 0.000000 0.194191
O O17 0.116778 0.500000 0.646815
O O18 0.057095 0.210649 0.697647
O O19 0.000000 0.262847 0.500000
O O20 0.500000 0.210602 0.500000
O O21 0.438718 0.500000 0.546371
O O22 0.014884 0.500000 0.267143
#
# Coordination Sequence:
#
# PCOD9146475 Si02
#       8
#     4   4   4   4   4   4   4   4
#     4  10  20  34  55  84 117 154 193 237 292 346
#     4  10  20  34  53  79 114 153 188 227 284 346
#     4  10  20  33  52  79 113 150 185 231 289 341
#     4  10  20  36  60  87 112 145 190 238 284 334
#     4  11  23  38  59  86 116 155 198 241 289 347
#     4   9  18  33  55  84 114 144 184 232 281 335
#     4  10  23  42  62  85 115 152 194 245 295 340
#     4  10  19  33  55  80 109 148 189 233 284 337
#
# _framework density 23.728000999999999
#
# number of rings (size 3 to 8) (size 9 to 14) (size 15 to 20)
#    0.000    2.000    2.500    1.125    0.000    4.250 
#    0.000    3.750    0.000    1.500    0.000    0.000 
#    0.000    0.000    0.000    0.000    0.000    0.000 
#
# Total GULP energy -178751.243938 kJ/mol
# GULP energy per Si atom -5585.976373 kJ/mol
# Density = 2.367399 g / cm^3
# Si number density = 23.728001 Si / 1000 Ang^3
#
#
#
# Elastic Constant Matrix: (Units=GPa)
#
#
# Indices 1 2 3 4 5 6 
#
# 1 142.8116 -0.4434 45.8148 0.0000 -43.3840 0.0000
# 2 -0.4434 76.6137 2.7777 0.0000 -6.5713 0.0000
# 3 45.8148 2.7777 86.5195 0.0000 -32.8354 0.0000
# 4 0.0000 0.0000 0.0000 23.0934 0.0000 8.0259
# 5 -43.3840 -6.5713 -32.8354 0.0000 47.3666 0.0000
# 6 0.0000 0.0000 0.0000 8.0259 0.0000 0.9940
#
#
#
# Elastic Compliance Matrix: (Units=1/GPa)
#
#
# Indices 1 2 3 4 5 6 
#
# 1 0.010131 0.000807 -0.002479 0.000000 0.007673 0.000000
# 2 0.000807 0.013283 0.000171 0.000000 0.002700 0.000000
# 3 -0.002479 0.000171 0.016301 0.000000 0.009054 0.000000
# 4 0.000000 0.000000 0.000000 -0.023975 0.000000 0.193581
# 5 0.007673 0.002700 0.009054 0.000000 0.034790 0.000000
# 6 0.000000 0.000000 0.000000 0.193581 0.000000 -0.557007
#
#
# Mechanical properties :
#
#
# Convention : Reuss Voigt Hill
#
# Bulk Modulus (GPa) = 27.23837 44.69366 35.96602
# Shear Modulus (GPa) = -10.17837 31.47717 10.64940
#
# Velocity S-wave (km/s) = -2.07338 3.64618 2.12082
# Velocity P-wave (km/s) = 2.40259 6.05003 4.60301
#
# Compressibility (1/GPa) = 0.03671292
#
# Stress axis : x y z
#
# Youngs Moduli (GPa) = 98.70994 75.28669 61.34539
#
# Poissons Ratio (x) = -0.06072 0.15205
# Poissons Ratio (y) = -0.07962 -0.01050
# Poissons Ratio (z) = 0.24466 -0.01289
#
# Static dielectric constant tensor:
#      x y z
#    x 1.938330 0.000000 -0.022810 
#    y 0.000000 1.884810 0.000000 
#    z -0.022810 0.000000 1.879150 
# 
# From -- ./inp_files/66598.got.cif
#   From: 2010.05.17/outbox.cif.g08.bks.cpg/sg10_34_cif.got.tgz:66598.got - 2010.06.03 11:33:40.
