data_PCOD9146454
_publ_section_title
;
Structure prediction by ZEFSAII (Michael W. Deem and Ramdas Pophale) SiO2 
 PCOD9146454
Probable space group: P 2/M
;
_chemical_formula_sum "Si O2"
_cell_formula_units_Z 32
_cell_length_a 8.654839
_cell_length_b 25.582453
_cell_length_c 14.954648
_cell_angle_alpha 90.000000
_cell_angle_beta 150.000789
_cell_angle_gamma 90.000000
_cell_volume 1655.529863
_symmetry_space_group_name_H-M "P 2/M"
_symmetry_group_IT_number 10
_symmetry_cell_setting 'monoclinic'
loop_
_space_group_symop_operation_xyz
x,y,z
-x,y,-z
-x,-y,-z
x,-y,z
loop_
_atom_site_type_symbol
_atom_site_label
_atom_site_fract_x
_atom_site_fract_y
_atom_site_fract_z
Si Si1 0.263735 0.859748 0.964046
Si Si2 0.364680 0.140257 0.664370
Si Si3 0.132955 0.751168 0.834895
Si Si4 0.189106 0.059669 0.189097
Si Si5 0.865079 0.364633 0.164314
Si Si6 0.814173 0.560345 0.814168
Si Si7 0.238793 0.751163 0.536851
Si Si8 0.762784 0.364637 0.463548
O O1 0.088603 0.804208 0.867226
O O2 0.023864 0.907195 0.850534
O O3 0.500000 0.865352 0.000000
O O4 0.461551 0.858402 0.153846
O O5 0.503866 0.092810 0.677205
O O6 0.424506 0.195798 0.645880
O O7 0.000000 0.134657 0.500000
O O8 0.066418 0.693673 0.840034
O O9 0.947636 0.755797 0.649207
O O10 0.500000 0.750156 0.000000
O O11 0.243805 0.000000 0.243785
O O12 0.000000 0.058685 0.000000
O O13 0.989664 0.408819 0.161511
O O14 0.043705 0.367699 0.347902
O O15 0.500000 0.369334 0.000000
O O16 0.763247 0.500000 0.763232
O O17 0.494790 0.591175 0.666638
O O18 0.000000 0.561602 0.000000
O O19 0.387281 0.693668 0.613662
O O20 0.000000 0.750149 0.500000
O O21 0.000000 0.369339 0.500000
#
# Coordination Sequence:
#
# PCOD9146454 Si02
#       8
#     4   4   4   4   4   4   4   4
#     4  10  19  33  55  80 106 139 176 217 268 320
#     4  10  19  33  55  80 106 139 176 217 268 320
#     4   9  17  31  53  82 113 141 173 215 267 326
#     4   9  20  37  53  72 102 141 184 223 262 317
#     4  10  21  38  61  87 115 149 185 227 280 333
#     4  11  25  42  59  82 112 149 194 237 276 325
#     4   9  17  31  53  82 113 141 173 215 267 326
#     4  10  21  38  61  87 115 149 185 227 280 333
#
# _framework density 19.329159000000001
#
# number of rings (size 3 to 8) (size 9 to 14) (size 15 to 20)
#    0.000    2.250    0.000    4.125    0.000    6.000 
#    0.000    5.000    0.000    5.250    0.000    0.000 
#    0.000    0.000    0.000    0.000    0.000    0.000 
#
# Total GULP energy -178587.990299 kJ/mol
# GULP energy per Si atom -5580.874697 kJ/mol
# Density = 1.928517 g / cm^3
# Si number density = 19.329159 Si / 1000 Ang^3
#
#
#
# Elastic Constant Matrix: (Units=GPa)
#
#
# Indices 1 2 3 4 5 6 
#
# 1 88.3627 84.9440 42.1101 0.0000 19.2733 0.0000
# 2 84.9440 229.8128 64.5238 0.0000 15.2045 0.0000
# 3 42.1101 64.5238 58.8109 0.0000 2.7406 0.0000
# 4 0.0000 0.0000 0.0000 29.4472 0.0000 3.0849
# 5 19.2733 15.2045 2.7406 0.0000 22.5337 0.0000
# 6 0.0000 0.0000 0.0000 3.0849 0.0000 33.5814
#
#
#
# Elastic Compliance Matrix: (Units=1/GPa)
#
#
# Indices 1 2 3 4 5 6 
#
# 1 0.025513 -0.004909 -0.012088 0.000000 -0.017039 0.000000
# 2 -0.004909 0.007507 -0.004708 0.000000 -0.000294 0.000000
# 3 -0.012088 -0.004708 0.030366 0.000000 0.009823 0.000000
# 4 0.000000 0.000000 0.000000 0.034289 0.000000 -0.003150
# 5 -0.017039 -0.000294 0.009823 0.000000 0.057956 0.000000
# 6 0.000000 0.000000 0.000000 -0.003150 0.000000 0.030068
#
#
# Mechanical properties :
#
#
# Convention : Reuss Voigt Hill
#
# Bulk Modulus (GPa) = 50.05770 84.46025 67.25898
# Shear Modulus (GPa) = 21.20725 29.47302 25.34013
#
# Velocity S-wave (km/s) = 3.31594 3.90910 3.62467
# Velocity P-wave (km/s) = 6.37294 8.01033 7.23808
#
# Compressibility (1/GPa) = 0.01997694
#
# Stress axis : x y z
#
# Youngs Moduli (GPa) = 39.19503 133.20821 32.93117
#
# Poissons Ratio (x) = 0.65392 0.39808
# Poissons Ratio (y) = 0.19241 0.15503
# Poissons Ratio (z) = 0.47380 0.62709
#
# Static dielectric constant tensor:
#      x y z
#    x 1.665690 0.000000 0.007420 
#    y 0.000000 1.696180 0.000000 
#    z 0.007420 0.000000 1.655720 
# 
# From -- ./inp_files/62705.got.cif
#   From: 2010.05.17/outbox.cif.g08.bks.cpg/sg10_32_cif.got.tgz:62705.got - 2010.06.03 11:33:40.
