data_PCOD9146185
_publ_section_title
;
Structure prediction by ZEFSAII (Michael W. Deem and Ramdas Pophale) SiO2 
 PCOD9146185
Probable space group: P 2/M
;
_chemical_formula_sum "Si O2"
_cell_formula_units_Z 24
_cell_length_a 18.825194
_cell_length_b 9.123292
_cell_length_c 24.859617
_cell_angle_alpha 90.000000
_cell_angle_beta 160.781079
_cell_angle_gamma 90.000000
_cell_volume 1405.454928
_symmetry_space_group_name_H-M "P 2/M"
_symmetry_group_IT_number 10
_symmetry_cell_setting 'monoclinic'
loop_
_space_group_symop_operation_xyz
x,y,z
-x,y,-z
-x,-y,-z
x,-y,z
loop_
_atom_site_type_symbol
_atom_site_label
_atom_site_fract_x
_atom_site_fract_y
_atom_site_fract_z
Si Si1 0.498548 0.826345 0.167298
Si Si2 0.083597 0.332015 0.497823
Si Si3 0.745809 0.167033 0.834219
Si Si4 0.693734 0.824106 0.679007
Si Si5 0.663800 0.174533 0.164444
Si Si6 0.848300 0.325855 0.012982
O O1 0.699383 0.762838 0.345065
O O2 0.554407 0.800588 0.144528
O O3 0.477657 0.000000 0.160697
O O4 0.284888 0.743939 0.033491
O O5 0.126165 0.500000 0.512611
O O6 0.000000 0.332566 0.500000
O O7 0.889603 0.260479 0.325520
O O8 0.634573 0.211510 0.698749
O O9 0.684881 0.000000 0.805299
O O10 0.729220 0.272193 0.873102
O O11 0.000000 0.164716 0.000000
O O12 0.500000 0.792434 0.500000
O O13 0.911044 0.740095 0.818338
O O14 0.737052 0.000000 0.709023
O O15 0.706672 0.000000 0.190856
O O16 0.500000 0.216792 0.000000
O O17 0.853779 0.500000 0.019744
#
# Coordination Sequence:
#
# PCOD9146185 Si02
#       6
#     4   4   4   4   4   4
#     4  10  19  33  53  73  97 130 168 208 248 293
#     4   9  17  30  49  73  99 126 159 199 243 291
#     4   8  15  30  51  72  94 124 162 198 235 286
#     4   9  18  34  55  76  99 130 167 203 243 296
#     4   9  18  33  53  76 100 130 168 205 244 296
#     4  11  21  32  49  74 103 131 164 207 251 293
#
# _framework density 17.076322000000001
#
# number of rings (size 3 to 8) (size 9 to 14) (size 15 to 20)
#    0.000    2.667    0.000    3.500    0.000    6.333 
#    0.000    1.667    0.000    4.000    0.000    0.000 
#    0.000    0.000    0.000    0.000    0.000    0.000 
#
# Total GULP energy -133779.042183 kJ/mol
# GULP energy per Si atom -5574.126758 kJ/mol
# Density = 1.703746 g / cm^3
# Si number density = 17.076322 Si / 1000 Ang^3
#
#
#
# Elastic Constant Matrix: (Units=GPa)
#
#
# Indices 1 2 3 4 5 6 
#
# 1 49.0011 46.0979 43.7989 0.0000 -6.8731 0.0000
# 2 46.0979 98.3180 57.6851 0.0000 0.2944 0.0000
# 3 43.7989 57.6851 105.1946 0.0000 -22.9025 0.0000
# 4 0.0000 0.0000 0.0000 11.2460 0.0000 0.8105
# 5 -6.8731 0.2944 -22.9025 0.0000 30.4419 0.0000
# 6 0.0000 0.0000 0.0000 0.8105 0.0000 16.5643
#
#
#
# Elastic Compliance Matrix: (Units=1/GPa)
#
#
# Indices 1 2 3 4 5 6 
#
# 1 0.042838 -0.014757 -0.009098 0.000000 0.002970 0.000000
# 2 -0.014757 0.021696 -0.007802 0.000000 -0.009411 0.000000
# 3 -0.009098 -0.007802 0.020499 0.000000 0.013444 0.000000
# 4 0.000000 0.000000 0.000000 0.089235 0.000000 -0.004366
# 5 0.002970 -0.009411 0.013444 0.000000 0.043725 0.000000
# 6 0.000000 0.000000 0.000000 -0.004366 0.000000 0.060584
#
#
# Mechanical properties :
#
#
# Convention : Reuss Voigt Hill
#
# Bulk Modulus (GPa) = 46.03845 60.85305 53.44575
# Shear Modulus (GPa) = 14.32127 18.64589 16.48358
#
# Velocity S-wave (km/s) = 2.89911 3.30800 3.11028
# Velocity P-wave (km/s) = 6.18267 7.09251 6.65316
#
# Compressibility (1/GPa) = 0.02172097
#
# Stress axis : x y z
#
# Youngs Moduli (GPa) = 23.34362 46.09193 48.78196
#
# Poissons Ratio (x) = 0.68016 0.44379
# Poissons Ratio (y) = 0.34447 0.38060
# Poissons Ratio (z) = 0.21237 0.35962
#
# Static dielectric constant tensor:
#      x y z
#    x 1.592590 0.000000 -0.012070 
#    y 0.000000 1.569530 0.000000 
#    z -0.012070 0.000000 1.572580 
# 
# From -- ./inp_files/31203.got.cif
#   From: 2010.05.17/outbox.cif.g08.bks.cpg/sg10_16_cif.got.tgz:31203.got - 2010.06.03 11:33:40.
