data_PCOD9146433
_publ_section_title
;
Structure prediction by ZEFSAII (Michael W. Deem and Ramdas Pophale) SiO2 
 PCOD9146433
Probable space group: P 2/M
;
_chemical_formula_sum "Si O2"
_cell_formula_units_Z 32
_cell_length_a 21.068501
_cell_length_b 7.622254
_cell_length_c 12.562348
_cell_angle_alpha 90.000000
_cell_angle_beta 126.876250
_cell_angle_gamma 90.000000
_cell_volume 1613.770396
_symmetry_space_group_name_H-M "P 2/M"
_symmetry_group_IT_number 10
_symmetry_cell_setting 'monoclinic'
loop_
_space_group_symop_operation_xyz
x,y,z
-x,y,-z
-x,-y,-z
x,-y,z
loop_
_atom_site_type_symbol
_atom_site_label
_atom_site_fract_x
_atom_site_fract_y
_atom_site_fract_z
Si Si1 0.297660 0.705904 0.148418
Si Si2 0.212427 0.206740 0.846376
Si Si3 0.632233 0.711583 0.400765
Si Si4 0.228366 0.285430 0.295723
Si Si5 0.890862 0.702162 0.655310
Si Si6 0.475699 0.714572 0.355468
Si Si7 0.245145 0.793979 0.644915
Si Si8 0.027878 0.287469 0.645176
O O1 0.306761 0.500000 0.182142
O O2 0.243939 0.775751 0.191533
O O3 0.387216 0.777829 0.240576
O O4 0.256353 0.720745 0.993469
O O5 0.242149 0.275722 0.761838
O O6 0.118426 0.238753 0.756343
O O7 0.227597 0.000000 0.862715
O O8 0.631620 0.500000 0.397601
O O9 0.694457 0.762649 0.556336
O O10 0.544856 0.773137 0.344818
O O11 0.671127 0.773022 0.330046
O O12 0.223467 0.500000 0.292872
O O13 0.151009 0.220401 0.281914
O O14 0.910441 0.500000 0.699965
O O15 0.821418 0.705166 0.496062
O O16 0.967969 0.779887 0.675834
O O17 0.500000 0.763358 0.500000
O O18 0.476047 0.500000 0.352501
O O19 0.224501 0.000000 0.626479
O O20 0.022315 0.500000 0.638618
O O21 0.000000 0.226546 0.500000
#
# Coordination Sequence:
#
# PCOD9146433 Si02
#       8
#     4   4   4   4   4   4   4   4
#     4  10  19  33  55  79 105 138 175 213 258 312
#     4  11  24  38  51  71 106 147 180 212 257 311
#     4   9  16  29  53  81 107 131 165 216 266 309
#     4   8  14  27  50  79 105 132 163 203 258 310
#     4   9  17  31  54  82 107 128 162 215 267 310
#     4   9  15  28  54  86 109 129 168 220 266 307
#     4  10  20  33  49  72 103 139 177 212 254 307
#     4  10  19  33  56  84 106 128 170 222 264 308
#
# _framework density 19.829339000000001
#
# number of rings (size 3 to 8) (size 9 to 14) (size 15 to 20)
#    0.000    2.500    2.500    1.500    0.000    2.250 
#    0.000    4.375    0.000    8.250    0.000    0.000 
#    0.000    0.000    0.000    0.000    0.000    0.000 
#
# Total GULP energy -178482.278489 kJ/mol
# GULP energy per Si atom -5577.571203 kJ/mol
# Density = 1.978421 g / cm^3
# Si number density = 19.829339 Si / 1000 Ang^3
#
#
#
# Elastic Constant Matrix: (Units=GPa)
#
#
# Indices 1 2 3 4 5 6 
#
# 1 187.2113 -7.2203 65.4575 0.0000 -19.6371 0.0000
# 2 -7.2203 36.4667 -14.7541 0.0000 -1.0593 0.0000
# 3 65.4575 -14.7541 85.6754 0.0000 -5.5258 0.0000
# 4 0.0000 0.0000 0.0000 289.5149 0.0000 38.2799
# 5 -19.6371 -1.0593 -5.5258 0.0000 23.8992 0.0000
# 6 0.0000 0.0000 0.0000 38.2799 0.0000 30.6963
#
#
#
# Elastic Compliance Matrix: (Units=1/GPa)
#
#
# Indices 1 2 3 4 5 6 
#
# 1 0.007881 -0.000639 -0.005802 0.000000 0.005106 0.000000
# 2 -0.000639 0.029678 0.005735 0.000000 0.002117 0.000000
# 3 -0.005802 0.005735 0.017056 0.000000 -0.000570 0.000000
# 4 0.000000 0.000000 0.000000 0.004136 0.000000 -0.005158
# 5 0.005106 0.002117 -0.000570 0.000000 0.046000 0.000000
# 6 0.000000 0.000000 0.000000 -0.005158 0.000000 0.039009
#
#
# Mechanical properties :
#
#
# Convention : Reuss Voigt Hill
#
# Bulk Modulus (GPa) = 18.79568 44.03552 31.41560
# Shear Modulus (GPa) = 30.69271 86.54677 58.61974
#
# Velocity S-wave (km/s) = 3.93853 6.61367 5.44300
# Velocity P-wave (km/s) = 5.49382 8.97643 7.44171
#
# Compressibility (1/GPa) = 0.05320370
#
# Stress axis : x y z
#
# Youngs Moduli (GPa) = 126.88540 33.69533 58.63139
#
# Poissons Ratio (x) = 0.02152 0.34018
# Poissons Ratio (y) = 0.08104 -0.33627
# Poissons Ratio (z) = 0.73619 -0.19325
#
# Static dielectric constant tensor:
#      x y z
#    x 1.740110 0.000000 -0.019910 
#    y 0.000000 1.745030 0.000000 
#    z -0.019910 0.000000 1.646770 
# 
# From -- ./inp_files/55365.got.cif
#   From: 2010.05.17/outbox.cif.g08.bks.cpg/sg10_28_cif.got.tgz:55365.got - 2010.06.03 11:33:40.
