data_PCOD9146670
_publ_section_title
;
Structure prediction by ZEFSAII (Michael W. Deem and Ramdas Pophale) SiO2 
 PCOD9146670
Probable space group: P 2/M
;
_chemical_formula_sum "Si O2"
_cell_formula_units_Z 32
_cell_length_a 9.382344
_cell_length_b 22.745645
_cell_length_c 16.071770
_cell_angle_alpha 90.000000
_cell_angle_beta 28.709930
_cell_angle_gamma 90.000000
_cell_volume 1647.609076
_symmetry_space_group_name_H-M "P 2/M"
_symmetry_group_IT_number 10
_symmetry_cell_setting 'monoclinic'
loop_
_space_group_symop_operation_xyz
x,y,z
-x,y,-z
-x,-y,-z
x,-y,z
loop_
_atom_site_type_symbol
_atom_site_label
_atom_site_fract_x
_atom_site_fract_y
_atom_site_fract_z
Si Si1 0.839553 0.932591 0.290840
Si Si2 0.645631 0.657312 0.674465
Si Si3 0.934021 0.244957 0.229689
Si Si4 0.021141 0.159164 0.647090
Si Si5 0.310105 0.373076 0.673085
Si Si6 0.347520 0.151852 0.747503
Si Si7 0.790301 0.566036 0.025449
Si Si8 0.527687 0.216968 0.159606
O O1 0.500000 0.930120 0.500000
O O2 0.022388 0.892370 0.262021
O O3 0.820641 0.902569 0.209746
O O4 0.934813 0.000000 0.239681
O O5 0.510529 0.640560 0.652702
O O6 0.568750 0.724591 0.740060
O O7 0.000000 0.649805 0.500000
O O8 0.467582 0.613454 0.827378
O O9 0.906535 0.215892 0.333411
O O10 0.824989 0.310766 0.284843
O O11 0.736836 0.206379 0.268311
O O12 0.262177 0.237810 0.023105
O O13 0.300059 0.142399 0.447298
O O14 0.742946 0.179319 0.736722
O O15 0.500000 0.397360 0.500000
O O16 0.028154 0.413767 0.835908
O O17 0.304714 0.173283 0.863034
O O18 0.676861 0.500000 0.070801
O O19 0.000000 0.566252 0.000000
#
# Coordination Sequence:
#
# PCOD9146670 Si02
#       8
#     4   4   4   4   4   4   4   4
#     4   8  16  34  58  81 110 152 198 240 284 351
#     4  11  23  38  58  89 122 158 195 249 304 355
#     4  11  21  35  53  79 113 153 186 232 292 361
#     4  10  21  35  53  84 112 147 190 237 298 349
#     4  11  22  38  61  88 118 156 201 246 293 357
#     4  10  19  33  57  80 110 144 193 236 288 350
#     4   9  20  41  65  88 118 161 207 245 292 354
#     4  12  22  34  52  84 120 148 184 246 306 350
#
# _framework density 19.422084000000002
#
# number of rings (size 3 to 8) (size 9 to 14) (size 15 to 20)
#    0.000    1.750    2.500    3.750    1.750    0.500 
#    0.000    1.250    0.000   15.750    0.000    0.000 
#    0.000    0.000    0.000    0.000    0.000    0.125 
#
# Total GULP energy -178583.595000 kJ/mol
# GULP energy per Si atom -5580.737344 kJ/mol
# Density = 1.937788 g / cm^3
# Si number density = 19.422084 Si / 1000 Ang^3
#
#
#
# Elastic Constant Matrix: (Units=GPa)
#
#
# Indices 1 2 3 4 5 6 
#
# 1 61.2369 35.5827 14.5922 0.0000 -2.8653 0.0000
# 2 35.5827 110.2871 28.8733 0.0000 -6.9799 0.0000
# 3 14.5922 28.8733 95.4941 0.0000 -0.0392 0.0000
# 4 0.0000 0.0000 0.0000 24.9277 0.0000 1.5620
# 5 -2.8653 -6.9799 -0.0392 0.0000 26.5132 0.0000
# 6 0.0000 0.0000 0.0000 1.5620 0.0000 14.1913
#
#
#
# Elastic Compliance Matrix: (Units=1/GPa)
#
#
# Indices 1 2 3 4 5 6 
#
# 1 0.020235 -0.006172 -0.001226 0.000000 0.000560 0.000000
# 2 -0.006172 0.011910 -0.002657 0.000000 0.002465 0.000000
# 3 -0.001226 -0.002657 0.011462 0.000000 -0.000815 0.000000
# 4 0.000000 0.000000 0.000000 0.040395 0.000000 -0.004446
# 5 0.000560 0.002465 -0.000815 0.000000 0.038425 0.000000
# 6 0.000000 0.000000 0.000000 -0.004446 0.000000 0.070955
#
#
# Mechanical properties :
#
#
# Convention : Reuss Voigt Hill
#
# Bulk Modulus (GPa) = 42.55752 47.23497 44.89624
# Shear Modulus (GPa) = 22.59131 25.65776 24.12453
#
# Velocity S-wave (km/s) = 3.41424 3.63858 3.52819
# Velocity P-wave (km/s) = 6.12390 6.48270 6.30585
#
# Compressibility (1/GPa) = 0.02349761
#
# Stress axis : x y z
#
# Youngs Moduli (GPa) = 49.41998 83.96176 87.24373
#
# Poissons Ratio (x) = 0.51823 0.10693
# Poissons Ratio (y) = 0.30503 0.23180
# Poissons Ratio (z) = 0.06057 0.22308
#
# Static dielectric constant tensor:
#      x y z
#    x 1.711770 0.000000 0.002860 
#    y 0.000000 1.657260 0.000000 
#    z 0.002860 0.000000 1.742770 
# 
# From -- ./inp_files/30638.got.cif
#   From: 2010.05.17/outbox.cif.g08.bks.cpg/sg10_16_cif.got.tgz:30638.got - 2010.06.03 11:33:40.
