data_PCOD9146981
_publ_section_title
;
Structure prediction by ZEFSAII (Michael W. Deem and Ramdas Pophale) SiO2 
 PCOD9146981
Probable space group: P 2/M
;
_chemical_formula_sum "Si O2"
_cell_formula_units_Z 18
_cell_length_a 7.841382
_cell_length_b 9.947344
_cell_length_c 12.660458
_cell_angle_alpha 90.000000
_cell_angle_beta 61.741420
_cell_angle_gamma 90.000000
_cell_volume 869.833757
_symmetry_space_group_name_H-M "P 2/M"
_symmetry_group_IT_number 10
_symmetry_cell_setting 'monoclinic'
loop_
_space_group_symop_operation_xyz
x,y,z
-x,y,-z
-x,-y,-z
x,-y,z
loop_
_atom_site_type_symbol
_atom_site_label
_atom_site_fract_x
_atom_site_fract_y
_atom_site_fract_z
Si Si1 0.896271 0.356842 0.264959
Si Si2 0.850142 0.151334 0.447984
Si Si3 0.000000 0.291542 0.000000
Si Si4 0.437121 0.650970 0.355220
Si Si5 0.411623 0.339072 0.910643
O O1 0.951147 0.500000 0.298766
O O2 0.944965 0.230639 0.322590
O O3 0.663873 0.352215 0.318681
O O4 0.983351 0.354272 0.122160
O O5 0.674811 0.240651 0.543831
O O6 0.000000 0.145543 0.500000
O O7 0.792698 0.000000 0.435348
O O8 0.224539 0.244409 0.944669
O O9 0.359642 0.500000 0.396520
O O10 0.438701 0.680501 0.229256
O O11 0.353632 0.500000 0.919235
O O12 0.500000 0.319054 0.000000
#
# Coordination Sequence:
#
# PCOD9146981 Si02
#       5
#     4   4   2   4   4
#     4  10  20  36  61  88 115 145 184 235 287 342
#     4  11  25  40  54  78 114 154 196 238 281 336
#     4  10  19  34  55  88 123 146 179 234 289 344
#     4   9  19  36  57  86 113 140 188 238 283 341
#     4   9  17  29  51  83 117 148 180 225 282 342
#
# _framework density 20.693608999999999
#
# number of rings (size 3 to 8) (size 9 to 14) (size 15 to 20)
#    0.000    2.222    0.000    4.667    3.111    5.333 
#    0.000    0.556    0.000    2.000    0.000    0.000 
#    0.000    0.000    0.000    0.000    0.000    0.000 
#
# Total GULP energy -100243.841439 kJ/mol
# GULP energy per Si atom -5569.102302 kJ/mol
# Density = 2.064651 g / cm^3
# Si number density = 20.693609 Si / 1000 Ang^3
#
#
#
# Elastic Constant Matrix: (Units=GPa)
#
#
# Indices 1 2 3 4 5 6 
#
# 1 33.1847 12.6864 15.6120 0.0000 7.4611 0.0000
# 2 12.6864 119.5204 68.4015 0.0000 3.3678 0.0000
# 3 15.6120 68.4015 135.9694 0.0000 11.8840 0.0000
# 4 0.0000 0.0000 0.0000 5.5724 0.0000 -1.4256
# 5 7.4611 3.3678 11.8840 0.0000 41.1473 0.0000
# 6 0.0000 0.0000 0.0000 -1.4256 0.0000 23.9755
#
#
#
# Elastic Compliance Matrix: (Units=1/GPa)
#
#
# Indices 1 2 3 4 5 6 
#
# 1 0.033175 -0.002042 -0.002329 0.000000 -0.005176 0.000000
# 2 -0.002042 0.011899 -0.005846 0.000000 0.001085 0.000000
# 3 -0.002329 -0.005846 0.010756 0.000000 -0.002206 0.000000
# 4 0.000000 0.000000 0.000000 0.182229 0.000000 0.010836
# 5 -0.005176 0.001085 -0.002206 0.000000 0.025790 0.000000
# 6 0.000000 0.000000 0.000000 0.010836 0.000000 0.042353
#
#
# Mechanical properties :
#
#
# Convention : Reuss Voigt Hill
#
# Bulk Modulus (GPa) = 28.25379 53.56381 40.90880
# Shear Modulus (GPa) = 14.77390 26.93735 20.85562
#
# Velocity S-wave (km/s) = 2.67486 3.61185 3.17808
# Velocity P-wave (km/s) = 4.81901 6.58289 5.76876
#
# Compressibility (1/GPa) = 0.03539349
#
# Stress axis : x y z
#
# Youngs Moduli (GPa) = 30.14351 84.04242 92.97288
#
# Poissons Ratio (x) = 0.17165 0.21656
# Poissons Ratio (y) = 0.06156 0.54354
# Poissons Ratio (z) = 0.07021 0.49133
#
# Static dielectric constant tensor:
#      x y z
#    x 1.786640 0.000000 0.004270 
#    y 0.000000 1.738670 0.000000 
#    z 0.004270 0.000000 1.754030 
# 
# From -- ./inp_files/22025.got.cif
#   From: 2010.05.17/outbox.cif.g08.bks.cpg/sg10_12_cif.got.tgz:22025.got - 2010.06.03 11:33:40.
