data_PCOD9146808
_publ_section_title
;
Structure prediction by ZEFSAII (Michael W. Deem and Ramdas Pophale) SiO2 
 PCOD9146808
Probable space group: P 2/M
;
_chemical_formula_sum "Si O2"
_cell_formula_units_Z 18
_cell_length_a 9.452356
_cell_length_b 24.263622
_cell_length_c 5.222233
_cell_angle_alpha 90.000000
_cell_angle_beta 56.462701
_cell_angle_gamma 90.000000
_cell_volume 998.323455
_symmetry_space_group_name_H-M "P 2/M"
_symmetry_group_IT_number 10
_symmetry_cell_setting 'monoclinic'
loop_
_space_group_symop_operation_xyz
x,y,z
-x,y,-z
-x,-y,-z
x,-y,z
loop_
_atom_site_type_symbol
_atom_site_label
_atom_site_fract_x
_atom_site_fract_y
_atom_site_fract_z
Si Si1 0.383790 0.660713 0.866210
Si Si2 0.119794 0.118435 0.130205
Si Si3 0.121163 0.000000 0.128837
Si Si4 0.114943 0.564398 0.135057
Si Si5 0.880292 0.239561 0.869708
O O1 0.500000 0.662632 0.500000
O O2 0.500000 0.662633 0.000000
O O3 0.272473 0.605243 0.977527
O O4 0.255537 0.712138 0.994462
O O5 0.205330 0.178472 0.044670
O O6 0.000000 0.118253 0.500000
O O7 0.214874 0.059311 0.035126
O O8 0.000000 0.118253 0.000000
O O9 0.000000 0.000000 0.500000
O O10 0.000000 0.000000 0.000000
O O11 0.165941 0.500000 0.084058
O O12 0.000000 0.574380 0.500000
O O13 0.000000 0.574381 0.000000
O O14 0.000000 0.243896 0.500000
O O15 0.000000 0.243896 0.000000
#
# Coordination Sequence:
#
# PCOD9146808 Si02
#       5
#     4   4   2   4   4
#     4  12  24  36  53  79 108 136 167 209 255 293
#     4   8  14  23  40  64  90 120 155 200 248 290
#     4   8  12  20  34  60  92 114 144 198 254 288
#     4  10  21  39  61  81 103 135 171 205 246 300
#     4  10  19  34  53  72  98 135 174 207 246 300
#
# _framework density 18.030228000000001
#
# number of rings (size 3 to 8) (size 9 to 14) (size 15 to 20)
#    0.000    2.222    0.000    4.000    0.000    0.889 
#    0.000    0.000    0.000    0.000    0.000    1.556 
#    0.000    0.000    0.000    0.000    0.000    0.000 
#
# Total GULP energy -100312.390757 kJ/mol
# GULP energy per Si atom -5572.910598 kJ/mol
# Density = 1.798919 g / cm^3
# Si number density = 18.030228 Si / 1000 Ang^3
#
#
#
# Elastic Constant Matrix: (Units=GPa)
#
#
# Indices 1 2 3 4 5 6 
#
# 1 92.0479 75.4380 61.1107 0.0000 21.0186 0.0000
# 2 75.4380 168.8459 70.3783 0.0000 -17.0139 0.0000
# 3 61.1107 70.3783 106.1698 0.0000 26.4853 0.0000
# 4 0.0000 0.0000 0.0000 21.6916 0.0000 24.6764
# 5 21.0186 -17.0139 26.4853 0.0000 36.9800 0.0000
# 6 0.0000 0.0000 0.0000 24.6764 0.0000 14.3548
#
#
#
# Elastic Compliance Matrix: (Units=1/GPa)
#
#
# Indices 1 2 3 4 5 6 
#
# 1 0.028583 -0.014318 -0.001540 0.000000 -0.021731 0.000000
# 2 -0.014318 0.019243 -0.010658 0.000000 0.024625 0.000000
# 3 -0.001540 -0.010658 0.022372 0.000000 -0.020051 0.000000
# 4 0.000000 0.000000 0.000000 -0.048244 0.000000 0.082933
# 5 -0.021731 0.024625 -0.020051 0.000000 0.065083 0.000000
# 6 0.000000 0.000000 0.000000 0.082933 0.000000 -0.072901
#
#
# Mechanical properties :
#
#
# Convention : Reuss Voigt Hill
#
# Bulk Modulus (GPa) = 58.25181 86.76862 72.51022
# Shear Modulus (GPa) = 68.59690 25.28104 46.93897
#
# Velocity S-wave (km/s) = 6.17479 3.74859 5.10784
# Velocity P-wave (km/s) = 9.12225 8.18317 8.66544
#
# Compressibility (1/GPa) = 0.01716685
#
# Stress axis : x y z
#
# Youngs Moduli (GPa) = 34.98596 51.96581 44.69909
#
# Poissons Ratio (x) = 0.74407 0.06882
# Poissons Ratio (y) = 0.50094 0.47638
# Poissons Ratio (z) = 0.05387 0.55383
#
# Static dielectric constant tensor:
#      x y z
#    x 1.570970 0.000000 0.026330 
#    y 0.000000 1.690630 0.000000 
#    z 0.026330 0.000000 1.578790 
# 
# From -- ./inp_files/1706.got.cif
#   From: 2010.05.17/outbox.cif.g08.bks.cpg/sg10_1_cif.got.tgz:1706.got - 2010.06.03 11:33:40.
