data_PCOD9146515
_publ_section_title
;
Structure prediction by ZEFSAII (Michael W. Deem and Ramdas Pophale) SiO2 
 PCOD9146515
Probable space group: P 2/M
;
_chemical_formula_sum "Si O2"
_cell_formula_units_Z 28
_cell_length_a 11.503279
_cell_length_b 18.210321
_cell_length_c 14.093043
_cell_angle_alpha 90.000000
_cell_angle_beta 147.664682
_cell_angle_gamma 90.000000
_cell_volume 1579.046556
_symmetry_space_group_name_H-M "P 2/M"
_symmetry_group_IT_number 10
_symmetry_cell_setting 'monoclinic'
loop_
_space_group_symop_operation_xyz
x,y,z
-x,y,-z
-x,-y,-z
x,-y,z
loop_
_atom_site_type_symbol
_atom_site_label
_atom_site_fract_x
_atom_site_fract_y
_atom_site_fract_z
Si Si1 0.091728 0.706684 0.718054
Si Si2 0.445432 0.839421 0.221363
Si Si3 0.357720 0.417587 0.997943
Si Si4 0.727081 0.913341 0.714377
Si Si5 0.895090 0.083145 0.519939
Si Si6 0.350906 0.693280 0.703034
Si Si7 0.892601 0.861365 0.162255
O O1 0.172098 0.640180 0.840067
O O2 0.260418 0.716167 0.745713
O O3 0.085712 0.780441 0.776488
O O4 0.860463 0.688853 0.509763
O O5 0.301993 0.865071 0.211183
O O6 0.680838 0.874223 0.400936
O O7 0.490029 0.754063 0.232132
O O8 0.331747 0.869081 0.047967
O O9 0.285516 0.500000 0.972952
O O10 0.500000 0.422991 0.000000
O O11 0.513801 0.380630 0.184090
O O12 0.500000 0.910362 0.500000
O O13 0.916720 0.880414 0.780309
O O14 0.767855 0.000000 0.763870
O O15 0.000000 0.119163 0.500000
O O16 0.068720 0.085366 0.723022
O O17 0.831783 0.000000 0.453992
#
# Coordination Sequence:
#
# PCOD9146515 Si02
#       7
#     4   4   4   4   4   4   4
#     4  10  19  33  55  82 114 152 189 229 280 337
#     4  12  23  37  59  83 110 148 195 239 288 340
#     4   9  18  32  52  83 119 150 184 227 280 342
#     4  11  23  41  61  80 109 148 190 246 303 342
#     4  11  24  39  55  79 112 149 189 236 289 344
#     4  10  19  33  55  82 114 152 189 229 280 337
#     4  12  23  37  59  83 110 148 195 239 288 340
#
# _framework density 17.732219000000001
#
# number of rings (size 3 to 8) (size 9 to 14) (size 15 to 20)
#    0.000    1.286    4.286    2.143    0.000    5.143 
#    0.000    4.286    0.000    0.000    0.000    2.000 
#    0.000    3.429    0.000    0.000    0.000    0.000 
#
# Total GULP energy -156225.676648 kJ/mol
# GULP energy per Si atom -5579.488452 kJ/mol
# Density = 1.769186 g / cm^3
# Si number density = 17.732219 Si / 1000 Ang^3
#
#
#
# Elastic Constant Matrix: (Units=GPa)
#
#
# Indices 1 2 3 4 5 6 
#
# 1 72.1872 30.2527 8.6118 0.0000 -10.0470 0.0000
# 2 30.2527 116.6420 19.8985 0.0000 -0.8864 0.0000
# 3 8.6118 19.8985 76.4695 0.0000 -19.5212 0.0000
# 4 0.0000 0.0000 0.0000 23.8168 0.0000 -0.8121
# 5 -10.0470 -0.8864 -19.5212 0.0000 20.2034 0.0000
# 6 0.0000 0.0000 0.0000 -0.8121 0.0000 37.8541
#
#
#
# Elastic Compliance Matrix: (Units=1/GPa)
#
#
# Indices 1 2 3 4 5 6 
#
# 1 0.016973 -0.004643 0.001858 0.000000 0.010032 0.000000
# 2 -0.004643 0.010336 -0.003505 0.000000 -0.005242 0.000000
# 3 0.001858 -0.003505 0.018553 0.000000 0.018696 0.000000
# 4 0.000000 0.000000 0.000000 0.042018 0.000000 0.000901
# 5 0.010032 -0.005242 0.018696 0.000000 0.072320 0.000000
# 6 0.000000 0.000000 0.000000 0.000901 0.000000 0.026437
#
#
# Mechanical properties :
#
#
# Convention : Reuss Voigt Hill
#
# Bulk Modulus (GPa) = 30.04674 42.53607 36.29141
# Shear Modulus (GPa) = 23.77440 30.14391 26.95916
#
# Velocity S-wave (km/s) = 3.66559 4.12752 3.90340
# Velocity P-wave (km/s) = 5.90736 6.83779 6.38953
#
# Compressibility (1/GPa) = 0.03328148
#
# Stress axis : x y z
#
# Youngs Moduli (GPa) = 58.91607 96.75386 53.90046
#
# Poissons Ratio (x) = 0.44922 -0.10013
# Poissons Ratio (y) = 0.27354 0.18891
# Poissons Ratio (z) = -0.10944 0.33910
#
# Static dielectric constant tensor:
#      x y z
#    x 1.614700 0.000000 -0.007040 
#    y 0.000000 1.607670 0.000000 
#    z -0.007040 0.000000 1.618990 
# 
# From -- ./inp_files/65285.got.cif
#   From: 2010.05.17/outbox.cif.g08.bks.cpg/sg10_33_cif.got.tgz:65285.got - 2010.06.03 11:33:40.
