data_PCOD9146076
_publ_section_title
;
Structure prediction by ZEFSAII (Michael W. Deem and Ramdas Pophale) SiO2 
 PCOD9146076
Probable space group: P 2/M
;
_chemical_formula_sum "Si O2"
_cell_formula_units_Z 28
_cell_length_a 5.353027
_cell_length_b 33.728610
_cell_length_c 7.877567
_cell_angle_alpha 90.000000
_cell_angle_beta 121.286778
_cell_angle_gamma 90.000000
_cell_volume 1215.463845
_symmetry_space_group_name_H-M "P 2/M"
_symmetry_group_IT_number 10
_symmetry_cell_setting 'monoclinic'
loop_
_space_group_symop_operation_xyz
x,y,z
-x,y,-z
-x,-y,-z
x,-y,z
loop_
_atom_site_type_symbol
_atom_site_label
_atom_site_fract_x
_atom_site_fract_y
_atom_site_fract_z
Si Si1 0.354461 0.585363 0.636571
Si Si2 0.144848 0.208617 0.238875
Si Si3 0.353255 0.328711 0.634165
Si Si4 0.438369 0.914359 0.724058
Si Si5 0.353722 0.000000 0.133676
Si Si6 0.645193 0.500000 0.362841
Si Si7 0.357727 0.756140 0.771305
Si Si8 0.932776 0.118932 0.724382
O O1 0.500000 0.585402 0.500000
O O2 0.438008 0.628253 0.741743
O O3 0.439097 0.542707 0.746079
O O4 0.000000 0.585361 0.500000
O O5 0.484449 0.216670 0.314640
O O6 0.057110 0.166038 0.283296
O O7 0.985876 0.239630 0.308084
O O8 0.000000 0.211409 0.000000
O O9 0.500000 0.326678 0.500000
O O10 0.442294 0.289084 0.763052
O O11 0.000000 0.328053 0.500000
O O12 0.250612 0.898948 0.498121
O O13 0.734588 0.889763 0.816736
O O14 0.234776 0.904194 0.810987
O O15 0.526456 0.960043 0.738957
O O16 0.500000 0.000000 0.000000
O O17 0.000000 0.000000 0.000000
O O18 0.500000 0.500000 0.500000
O O19 0.000000 0.500000 0.500000
O O20 0.500000 0.768424 0.000000
#
# Coordination Sequence:
#
# PCOD9146076 Si02
#       8
#     4   4   4   4   2   2   4   4
#     4   8  14  23  39  59  95 123 168 215 273 322
#     4  10  21  38  59  82 111 144 183 226 268 324
#     4  10  19  33  48  77 103 139 179 234 273 327
#     4  10  23  41  62  91 121 152 181 226 272 316
#     4  12  26  44  66  94 123 158 194 222 263 323
#     4   8  12  20  34  58  83 128 159 208 270 332
#     4  10  21  38  55  77 110 147 183 226 280 334
#     4  10  21  40  62  89 118 147 183 229 278 320
#
# _framework density 23.036474999999999
#
# number of rings (size 3 to 8) (size 9 to 14) (size 15 to 20)
#    0.000    2.286    0.000    2.571    0.000    4.000 
#   15.429    0.000    0.000    0.000    0.000    0.500 
#    0.000    0.000    0.000   38.429    0.000    1.429 
#
# Total GULP energy -156196.909096 kJ/mol
# GULP energy per Si atom -5578.461039 kJ/mol
# Density = 2.298404 g / cm^3
# Si number density = 23.036475 Si / 1000 Ang^3
#
#
#
# Elastic Constant Matrix: (Units=GPa)
#
#
# Indices 1 2 3 4 5 6 
#
# 1 196.5286 31.6447 26.3674 0.0000 3.9396 0.0000
# 2 31.6447 172.8322 -7.0923 0.0000 -12.0139 0.0000
# 3 26.3674 -7.0923 53.3596 0.0000 -6.2896 0.0000
# 4 0.0000 0.0000 0.0000 4.9549 0.0000 -1.8866
# 5 3.9396 -12.0139 -6.2896 0.0000 28.8950 0.0000
# 6 0.0000 0.0000 0.0000 -1.8866 0.0000 36.4216
#
#
#
# Elastic Compliance Matrix: (Units=1/GPa)
#
#
# Indices 1 2 3 4 5 6 
#
# 1 0.005785 -0.001337 -0.003279 0.000000 -0.002058 0.000000
# 2 -0.001337 0.006332 0.001882 0.000000 0.003225 0.000000
# 3 -0.003279 0.001882 0.021303 0.000000 0.005867 0.000000
# 4 0.000000 0.000000 0.000000 0.205880 0.000000 0.010665
# 5 -0.002058 0.003225 0.005867 0.000000 0.037506 0.000000
# 6 0.000000 0.000000 0.000000 0.010665 0.000000 0.028009
#
#
# Mechanical properties :
#
#
# Convention : Reuss Voigt Hill
#
# Bulk Modulus (GPa) = 35.77434 58.28443 47.02938
# Shear Modulus (GPa) = 15.64461 38.84102 27.24282
#
# Velocity S-wave (km/s) = 2.60883 4.11063 3.44262
# Velocity P-wave (km/s) = 4.96365 6.91994 6.02177
#
# Compressibility (1/GPa) = 0.02795300
#
# Stress axis : x y z
#
# Youngs Moduli (GPa) = 172.86928 157.92523 46.94253
#
# Poissons Ratio (x) = 0.21111 0.15391
# Poissons Ratio (y) = 0.23109 -0.08836
# Poissons Ratio (z) = 0.56680 -0.29726
#
# Static dielectric constant tensor:
#      x y z
#    x 1.556330 0.000000 0.012800 
#    y 0.000000 1.892300 0.000000 
#    z 0.012800 0.000000 1.835870 
# 
# From -- ./inp_files/15931.got.cif
#   From: 2010.05.17/outbox.cif.g08.bks.cpg/sg10_8_cif.got.tgz:15931.got - 2010.06.03 11:33:40.
