data_PCOD9146291
_publ_section_title
;
Structure prediction by ZEFSAII (Michael W. Deem and Ramdas Pophale) SiO2 
 PCOD9146291
Probable space group: P 2/M
;
_chemical_formula_sum "Si O2"
_cell_formula_units_Z 32
_cell_length_a 13.165382
_cell_length_b 18.570350
_cell_length_c 15.277010
_cell_angle_alpha 90.000000
_cell_angle_beta 149.510373
_cell_angle_gamma 90.000000
_cell_volume 1895.078844
_symmetry_space_group_name_H-M "P 2/M"
_symmetry_group_IT_number 10
_symmetry_cell_setting 'monoclinic'
loop_
_space_group_symop_operation_xyz
x,y,z
-x,y,-z
-x,-y,-z
x,-y,z
loop_
_atom_site_type_symbol
_atom_site_label
_atom_site_fract_x
_atom_site_fract_y
_atom_site_fract_z
Si Si1 0.563168 0.779900 0.305118
Si Si2 0.591671 0.918022 0.208869
Si Si3 0.120451 0.727031 0.000052
Si Si4 0.953054 0.220093 0.694967
Si Si5 0.240055 0.420102 0.000049
Si Si6 0.082454 0.635467 0.701512
Si Si7 0.173964 0.918023 0.791115
Si Si8 0.320527 0.364535 0.701445
O O1 0.589986 0.857198 0.280475
O O2 0.720115 0.771906 0.500061
O O3 0.622222 0.718289 0.278157
O O4 0.337621 0.764325 0.166171
O O5 0.760559 0.904603 0.260587
O O6 0.616159 0.000000 0.259401
O O7 0.379389 0.914557 0.999992
O O8 0.158428 0.644094 0.000038
O O9 0.005497 0.764347 0.833991
O O10 0.000000 0.732083 0.000000
O O11 0.065997 0.281708 0.721900
O O12 0.029073 0.142798 0.719508
O O13 0.196112 0.500000 0.000038
O O14 0.144734 0.408847 0.832976
O O15 0.478862 0.408852 0.167137
O O16 0.241527 0.628559 0.741514
O O17 0.865890 0.615791 0.500039
O O18 0.097390 0.000000 0.740573
#
# Coordination Sequence:
#
# PCOD9146291 Si02
#       8
#     4   4   4   4   4   4   4   4
#     4  10  19  33  54  77 102 135 175 216 255 298
#     4   9  17  29  48  78 115 149 175 201 240 292
#     4  10  22  40  58  75  95 124 165 219 275 312
#     4  10  19  33  54  77 102 135 175 216 255 298
#     4  10  21  35  52  76 101 128 164 204 249 306
#     4   9  18  31  48  74 107 140 170 199 236 289
#     4   9  17  29  48  78 115 149 175 201 240 292
#     4   9  18  31  48  74 107 140 170 199 236 289
#
# _framework density 16.885840999999999
#
# number of rings (size 3 to 8) (size 9 to 14) (size 15 to 20)
#    0.000    2.500    1.250    1.875    0.000    4.250 
#    0.000    2.500    0.000    1.500    0.000    8.750 
#    0.000    0.000    0.000    0.000    0.000    0.000 
#
# Total GULP energy -178530.137656 kJ/mol
# GULP energy per Si atom -5579.066802 kJ/mol
# Density = 1.684741 g / cm^3
# Si number density = 16.885841 Si / 1000 Ang^3
#
#
#
# Elastic Constant Matrix: (Units=GPa)
#
#
# Indices 1 2 3 4 5 6 
#
# 1 83.8124 41.9523 41.0807 0.0000 2.4086 0.0000
# 2 41.9523 105.4002 38.0794 0.0000 0.3105 0.0000
# 3 41.0807 38.0794 73.6997 0.0000 -1.6046 0.0000
# 4 0.0000 0.0000 0.0000 12.5405 0.0000 -0.4505
# 5 2.4086 0.3105 -1.6046 0.0000 4.4301 0.0000
# 6 0.0000 0.0000 0.0000 -0.4505 0.0000 5.8790
#
#
#
# Elastic Compliance Matrix: (Units=1/GPa)
#
#
# Indices 1 2 3 4 5 6 
#
# 1 0.018584 -0.004322 -0.008405 0.000000 -0.012845 0.000000
# 2 -0.004322 0.012711 -0.004159 0.000000 -0.000047 0.000000
# 3 -0.008405 -0.004159 0.020671 0.000000 0.012348 0.000000
# 4 0.000000 0.000000 0.000000 0.079962 0.000000 0.006128
# 5 -0.012845 -0.000047 0.012348 0.000000 0.237191 0.000000
# 6 0.000000 0.000000 0.000000 0.006128 0.000000 0.170566
#
#
# Mechanical properties :
#
#
# Convention : Reuss Voigt Hill
#
# Bulk Modulus (GPa) = 54.96685 56.12635 55.54660
# Shear Modulus (GPa) = 8.62779 14.02325 11.32552
#
# Velocity S-wave (km/s) = 2.26287 2.88492 2.59262
# Velocity P-wave (km/s) = 6.28093 6.66392 6.47526
#
# Compressibility (1/GPa) = 0.01819278
#
# Stress axis : x y z
#
# Youngs Moduli (GPa) = 53.80995 78.67269 48.37587
#
# Poissons Ratio (x) = 0.34006 0.40660
# Poissons Ratio (y) = 0.23259 0.20120
# Poissons Ratio (z) = 0.45228 0.32721
#
# Static dielectric constant tensor:
#      x y z
#    x 1.514120 0.000000 -0.005560 
#    y 0.000000 1.573880 0.000000 
#    z -0.005560 0.000000 1.595590 
# 
# From -- ./inp_files/51994.got.cif
#   From: 2010.05.17/outbox.cif.g08.bks.cpg/sg10_26_cif.got.tgz:51994.got - 2010.06.03 11:33:40.
