data_PCOD9146634
_publ_section_title
;
Structure prediction by ZEFSAII (Michael W. Deem and Ramdas Pophale) SiO2 
 PCOD9146634
Probable space group: P 2/M
;
_chemical_formula_sum "Si O2"
_cell_formula_units_Z 28
_cell_length_a 14.791719
_cell_length_b 13.154804
_cell_length_c 9.032289
_cell_angle_alpha 90.000000
_cell_angle_beta 60.468816
_cell_angle_gamma 90.000000
_cell_volume 1529.198324
_symmetry_space_group_name_H-M "P 2/M"
_symmetry_group_IT_number 10
_symmetry_cell_setting 'monoclinic'
loop_
_space_group_symop_operation_xyz
x,y,z
-x,y,-z
-x,-y,-z
x,-y,z
loop_
_atom_site_type_symbol
_atom_site_label
_atom_site_fract_x
_atom_site_fract_y
_atom_site_fract_z
Si Si1 0.155543 0.382907 0.493288
Si Si2 0.646931 0.309863 0.487829
Si Si3 0.957295 0.824844 0.377064
Si Si4 0.768566 0.115811 0.341419
Si Si5 0.765181 0.620015 0.905129
Si Si6 0.902062 0.229511 0.985531
Si Si7 0.564994 0.379509 0.234188
O O1 0.118999 0.500000 0.532237
O O2 0.250917 0.364248 0.529094
O O3 0.070054 0.296515 0.593727
O O4 0.200323 0.363976 0.291952
O O5 0.674650 0.191533 0.451234
O O6 0.618596 0.353125 0.348702
O O7 0.547325 0.327868 0.671460
O O8 0.851396 0.876429 0.408857
O O9 0.000000 0.857397 0.500000
O O10 0.044610 0.839686 0.182638
O O11 0.739769 0.000000 0.337706
O O12 0.829688 0.165523 0.153558
O O13 0.775303 0.500000 0.928039
O O14 0.837197 0.684293 0.956088
O O15 0.646004 0.648186 0.039884
O O16 0.000000 0.271301 0.000000
O O17 0.546746 0.500000 0.243229
#
# Coordination Sequence:
#
# PCOD9146634 Si02
#       7
#     4   4   4   4   4   4   4
#     4  10  20  33  52  80 115 148 176 212 262 321
#     4  10  19  35  56  78 107 141 175 225 271 315
#     4  10  20  34  56  80 109 141 178 221 267 319
#     4  10  22  39  58  78 102 136 182 234 278 318
#     4  10  20  33  52  80 113 147 180 211 255 321
#     4  10  20  36  53  75 109 143 179 223 269 314
#     4  10  19  33  56  84 113 143 178 211 257 324
#
# _framework density 18.310247
#
# number of rings (size 3 to 8) (size 9 to 14) (size 15 to 20)
#    0.000    2.000    2.857    1.714    0.000    4.571 
#    0.000    3.571    0.000    0.000    0.000    4.000 
#    0.000    0.000    0.000    0.000    0.000    0.000 
#
# Total GULP energy -156293.798543 kJ/mol
# GULP energy per Si atom -5581.921377 kJ/mol
# Density = 1.826857 g / cm^3
# Si number density = 18.310247 Si / 1000 Ang^3
#
#
#
# Elastic Constant Matrix: (Units=GPa)
#
#
# Indices 1 2 3 4 5 6 
#
# 1 50.0194 11.6551 18.1400 0.0000 -3.8993 0.0000
# 2 11.6551 85.5766 23.0364 0.0000 -13.7420 0.0000
# 3 18.1400 23.0364 55.0279 0.0000 -3.5184 0.0000
# 4 0.0000 0.0000 0.0000 -0.2584 0.0000 5.2080
# 5 -3.8993 -13.7420 -3.5184 0.0000 28.5315 0.0000
# 6 0.0000 0.0000 0.0000 5.2080 0.0000 2.7539
#
#
#
# Elastic Compliance Matrix: (Units=1/GPa)
#
#
# Indices 1 2 3 4 5 6 
#
# 1 0.022906 -0.000932 -0.007045 0.000000 0.001813 0.000000
# 2 -0.000932 0.014199 -0.005249 0.000000 0.006064 0.000000
# 3 -0.007045 -0.005249 0.022648 0.000000 -0.000698 0.000000
# 4 0.000000 0.000000 0.000000 -0.098937 0.000000 0.187102
# 5 0.001813 0.006064 -0.000698 0.000000 0.038131 0.000000
# 6 0.000000 0.000000 0.000000 0.187102 0.000000 0.009282
#
#
# Mechanical properties :
#
#
# Convention : Reuss Voigt Hill
#
# Bulk Modulus (GPa) = 30.02970 32.92077 31.47523
# Shear Modulus (GPa) = 109.21353 15.39158 62.30255
#
# Velocity S-wave (km/s) = 7.73147 2.90245 5.83951
# Velocity P-wave (km/s) = 9.80494 5.40840 7.91794
#
# Compressibility (1/GPa) = 0.03330037
#
# Stress axis : x y z
#
# Youngs Moduli (GPa) = 43.65744 70.42629 44.15450
#
# Poissons Ratio (x) = 0.06565 0.31106
# Poissons Ratio (y) = 0.04070 0.23178
# Poissons Ratio (z) = 0.30756 0.36968
#
# Static dielectric constant tensor:
#      x y z
#    x 1.632170 0.000000 -0.000930 
#    y 0.000000 1.611690 0.000000 
#    z -0.000930 0.000000 1.652460 
# 
# From -- ./inp_files/28494.got.cif
#   From: 2010.05.17/outbox.cif.g08.bks.cpg/sg10_15_cif.got.tgz:28494.got - 2010.06.03 11:33:40.
