data_PCOD9146977
_publ_section_title
;
Structure prediction by ZEFSAII (Michael W. Deem and Ramdas Pophale) SiO2 
 PCOD9146977
Probable space group: P 2/M
;
_chemical_formula_sum "Si O2"
_cell_formula_units_Z 24
_cell_length_a 12.598332
_cell_length_b 13.184753
_cell_length_c 17.863979
_cell_angle_alpha 90.000000
_cell_angle_beta 155.419523
_cell_angle_gamma 90.000000
_cell_volume 1234.315701
_symmetry_space_group_name_H-M "P 2/M"
_symmetry_group_IT_number 10
_symmetry_cell_setting 'monoclinic'
loop_
_space_group_symop_operation_xyz
x,y,z
-x,y,-z
-x,-y,-z
x,-y,z
loop_
_atom_site_type_symbol
_atom_site_label
_atom_site_fract_x
_atom_site_fract_y
_atom_site_fract_z
Si Si1 0.992659 0.609834 0.303477
Si Si2 0.429935 0.619473 0.306276
Si Si3 0.725166 0.611762 0.286227
Si Si4 0.953340 0.881608 0.812451
Si Si5 0.500000 0.259539 0.500000
Si Si6 0.000000 0.232853 0.000000
Si Si7 0.363604 0.769655 0.993813
O O1 0.022229 0.500000 0.284856
O O2 0.268235 0.633312 0.516166
O O3 0.791737 0.601416 0.241406
O O4 0.866717 0.690769 0.169448
O O5 0.370111 0.500000 0.263052
O O6 0.412315 0.665284 0.378348
O O7 0.238472 0.691267 0.138675
O O8 0.624328 0.500000 0.247319
O O9 0.000000 0.627141 0.500000
O O10 0.546136 0.709642 0.169116
O O11 0.221465 0.862629 0.942001
O O12 0.730461 0.816811 0.629096
O O13 0.963949 0.836023 0.903431
O O14 0.892314 0.000000 0.774834
O O15 0.500000 0.790824 0.000000
#
# Coordination Sequence:
#
# PCOD9146977 Si02
#       7
#     4   4   4   4   2   2   4
#     4   9  17  31  52  79 114 150 183 220 272 345
#     4  10  19  34  55  85 120 148 181 225 285 352
#     4   9  18  31  51  81 114 151 188 219 271 348
#     4  11  23  41  62  83 109 150 201 248 287 328
#     4  10  20  38  60  84 112 150 194 236 286 336
#     4  10  24  38  56  82 118 154 192 230 286 340
#     4  10  20  36  58  84 113 145 183 239 290 337
#
# _framework density 19.443973
#
# number of rings (size 3 to 8) (size 9 to 14) (size 15 to 20)
#    0.000    2.167    1.667    1.500    2.333    2.333 
#    0.000    1.667    0.000    0.500    0.000    0.000 
#    0.000    0.000    0.000    0.000    0.000    0.000 
#
# Total GULP energy -133658.356487 kJ/mol
# GULP energy per Si atom -5569.098187 kJ/mol
# Density = 1.939972 g / cm^3
# Si number density = 19.443973 Si / 1000 Ang^3
#
#
#
# Elastic Constant Matrix: (Units=GPa)
#
#
# Indices 1 2 3 4 5 6 
#
# 1 42.4699 22.4054 1.0884 0.0000 9.9034 0.0000
# 2 22.4054 75.2619 15.6321 0.0000 6.2681 0.0000
# 3 1.0884 15.6321 47.6230 0.0000 6.0973 0.0000
# 4 0.0000 0.0000 0.0000 10.4341 0.0000 8.2568
# 5 9.9034 6.2681 6.0973 0.0000 28.1377 0.0000
# 6 0.0000 0.0000 0.0000 8.2568 0.0000 21.5969
#
#
#
# Elastic Compliance Matrix: (Units=1/GPa)
#
#
# Indices 1 2 3 4 5 6 
#
# 1 0.030399 -0.008982 0.003463 0.000000 -0.009449 0.000000
# 2 -0.008982 0.017050 -0.005461 0.000000 0.000547 0.000000
# 3 0.003463 -0.005461 0.023360 0.000000 -0.005064 0.000000
# 4 0.000000 0.000000 0.000000 0.137413 0.000000 -0.052535
# 5 -0.009449 0.000547 -0.005064 0.000000 0.039841 0.000000
# 6 0.000000 0.000000 0.000000 -0.052535 0.000000 0.066388
#
#
# Mechanical properties :
#
#
# Convention : Reuss Voigt Hill
#
# Bulk Modulus (GPa) = 20.47118 27.06739 23.76929
# Shear Modulus (GPa) = 14.17658 20.44899 17.31278
#
# Velocity S-wave (km/s) = 2.70311 3.24649 2.98718
# Velocity P-wave (km/s) = 4.50484 5.29187 4.91413
#
# Compressibility (1/GPa) = 0.04884916
#
# Stress axis : x y z
#
# Youngs Moduli (GPa) = 32.89537 58.65188 42.80787
#
# Poissons Ratio (x) = 0.52683 -0.14826
# Poissons Ratio (y) = 0.29548 0.23378
# Poissons Ratio (z) = -0.11393 0.32031
#
# Static dielectric constant tensor:
#      x y z
#    x 1.743960 0.000000 0.014700 
#    y 0.000000 1.683410 0.000000 
#    z 0.014700 0.000000 1.710960 
# 
# From -- ./inp_files/42045.got.cif
#   From: 2010.05.17/outbox.cif.g08.bks.cpg/sg10_22_cif.got.tgz:42045.got - 2010.06.03 11:33:40.
