data_PCOD9146192
_publ_section_title
;
Structure prediction by ZEFSAII (Michael W. Deem and Ramdas Pophale) SiO2 
 PCOD9146192
Probable space group: P 2/M
;
_chemical_formula_sum "Si O2"
_cell_formula_units_Z 32
_cell_length_a 33.097070
_cell_length_b 7.406025
_cell_length_c 13.318376
_cell_angle_alpha 90.000000
_cell_angle_beta 26.300584
_cell_angle_gamma 90.000000
_cell_volume 1446.466776
_symmetry_space_group_name_H-M "P 2/M"
_symmetry_group_IT_number 10
_symmetry_cell_setting 'monoclinic'
loop_
_space_group_symop_operation_xyz
x,y,z
-x,y,-z
-x,-y,-z
x,-y,z
loop_
_atom_site_type_symbol
_atom_site_label
_atom_site_fract_x
_atom_site_fract_y
_atom_site_fract_z
Si Si1 0.125116 0.220364 0.568723
Si Si2 0.407871 0.716716 0.654769
Si Si3 0.669562 0.719576 0.379082
Si Si4 0.401340 0.715021 0.249573
Si Si5 0.203816 0.214768 0.182431
Si Si6 0.073230 0.220572 0.057836
Si Si7 0.870595 0.205746 0.858037
Si Si8 0.786529 0.216019 0.420940
O O1 0.175095 0.282096 0.355637
O O2 0.170140 0.283361 0.571859
O O3 0.019378 0.269409 0.792540
O O4 0.129152 0.000000 0.561203
O O5 0.500000 0.787292 0.500000
O O6 0.413409 0.500000 0.643234
O O7 0.396979 0.772283 0.563348
O O8 0.311385 0.760706 0.922063
O O9 0.677758 0.500000 0.361370
O O10 0.634054 0.784268 0.564747
O O11 0.768390 0.794726 0.131416
O O12 0.411243 0.500000 0.239911
O O13 0.320203 0.745130 0.351879
O O14 0.500000 0.787428 0.000000
O O15 0.145416 0.287119 0.217080
O O16 0.187011 0.000000 0.219379
O O17 0.073587 0.285575 0.172687
O O18 0.076690 0.000000 0.055878
O O19 0.158425 0.282272 0.800146
O O20 0.902889 0.000000 0.772217
O O21 0.797600 0.000000 0.395828
#
# Coordination Sequence:
#
# PCOD9146192 Si02
#       8
#     4   4   4   4   4   4   4   4
#     4   9  18  31  48  74 106 136 162 198 250 299
#     4   9  18  32  51  72  93 125 167 202 239 293
#     4   9  17  31  49  68  94 126 157 196 244 291
#     4  10  21  35  51  73 100 130 163 202 254 301
#     4   9  18  31  47  71 103 130 158 200 249 290
#     4   9  16  28  50  76  99 129 169 204 240 290
#     4   9  16  28  49  74  96 123 161 202 236 278
#     4  10  19  33  53  74  99 131 170 208 241 286
#
# _framework density 22.122872999999998
#
# number of rings (size 3 to 8) (size 9 to 14) (size 15 to 20)
#    0.000    2.750    1.250    0.375    0.000    3.500 
#    0.000    4.375    0.000    3.750    0.000    3.500 
#    0.000    0.000    0.000    0.000    0.000    0.000 
#
# Total GULP energy -178624.868029 kJ/mol
# GULP energy per Si atom -5582.027126 kJ/mol
# Density = 2.207252 g / cm^3
# Si number density = 22.122873 Si / 1000 Ang^3
#
#
#
# Elastic Constant Matrix: (Units=GPa)
#
#
# Indices 1 2 3 4 5 6 
#
# 1 140.1004 -0.1538 60.0827 0.0000 -12.1936 0.0000
# 2 -0.1538 75.1775 -2.5226 0.0000 3.4108 0.0000
# 3 60.0827 -2.5226 95.9471 0.0000 -4.9808 0.0000
# 4 0.0000 0.0000 0.0000 11.1141 0.0000 -4.8734
# 5 -12.1936 3.4108 -4.9808 0.0000 30.6433 0.0000
# 6 0.0000 0.0000 0.0000 -4.8734 0.0000 2.6664
#
#
#
# Elastic Compliance Matrix: (Units=1/GPa)
#
#
# Indices 1 2 3 4 5 6 
#
# 1 0.010031 -0.000323 -0.006133 0.000000 0.003031 0.000000
# 2 -0.000323 0.013387 0.000474 0.000000 -0.001541 0.000000
# 3 -0.006133 0.000474 0.014266 0.000000 -0.000174 0.000000
# 4 0.000000 0.000000 0.000000 0.453128 0.000000 0.828193
# 5 0.003031 -0.001541 -0.000174 0.000000 0.033983 0.000000
# 6 0.000000 0.000000 0.000000 0.828193 0.000000 1.888747
#
#
# Mechanical properties :
#
#
# Convention : Reuss Voigt Hill
#
# Bulk Modulus (GPa) = 38.87794 47.33752 43.10773
# Shear Modulus (GPa) = 2.05416 25.80599 13.93008
#
# Velocity S-wave (km/s) = 0.96465 3.41909 2.51204
# Velocity P-wave (km/s) = 4.34195 6.08530 5.28599
#
# Compressibility (1/GPa) = 0.02572153
#
# Stress axis : x y z
#
# Youngs Moduli (GPa) = 99.68862 74.69909 70.09565
#
# Poissons Ratio (x) = 0.02411 0.42988
# Poissons Ratio (y) = 0.03218 -0.03323
# Poissons Ratio (z) = 0.61137 -0.03541
#
# Static dielectric constant tensor:
#      x y z
#    x 1.824730 0.000000 0.009210 
#    y 0.000000 1.844550 0.000000 
#    z 0.009210 0.000000 1.776650 
# 
# From -- ./inp_files/58158.got.cif
#   From: 2010.05.17/outbox.cif.g08.bks.cpg/sg10_30_cif.got.tgz:58158.got - 2010.06.03 11:33:40.
