data_PCOD9146176
_publ_section_title
;
Structure prediction by ZEFSAII (Michael W. Deem and Ramdas Pophale) SiO2 
 PCOD9146176
Probable space group: P 2/M
;
_chemical_formula_sum "Si O2"
_cell_formula_units_Z 32
_cell_length_a 12.573649
_cell_length_b 15.172190
_cell_length_c 14.741305
_cell_angle_alpha 90.000000
_cell_angle_beta 41.919015
_cell_angle_gamma 90.000000
_cell_volume 1878.770389
_symmetry_space_group_name_H-M "P 2/M"
_symmetry_group_IT_number 10
_symmetry_cell_setting 'monoclinic'
loop_
_space_group_symop_operation_xyz
x,y,z
-x,y,-z
-x,-y,-z
x,-y,z
loop_
_atom_site_type_symbol
_atom_site_label
_atom_site_fract_x
_atom_site_fract_y
_atom_site_fract_z
Si Si1 0.181662 0.399786 0.916280
Si Si2 0.082307 0.828789 0.359381
Si Si3 0.302547 0.322829 0.310211
Si Si4 0.684815 0.603826 0.365498
Si Si5 0.756648 0.596371 0.832805
Si Si6 0.327815 0.899993 0.062206
Si Si7 0.344139 0.724048 0.951336
Si Si8 0.895092 0.324098 0.387616
O O1 0.214430 0.500000 0.928511
O O2 0.281804 0.384195 0.761758
O O3 0.220714 0.326831 0.965704
O O4 0.000000 0.396678 0.000000
O O5 0.194141 0.754143 0.334689
O O6 0.192876 0.886405 0.224492
O O7 0.000000 0.872273 0.500000
O O8 0.958850 0.773554 0.374634
O O9 0.295063 0.397545 0.238714
O O10 0.482214 0.288809 0.202292
O O11 0.221702 0.350080 0.455489
O O12 0.500000 0.621697 0.500000
O O13 0.716872 0.500000 0.366402
O O14 0.798686 0.662541 0.356313
O O15 0.722002 0.500000 0.891902
O O16 0.945253 0.617145 0.717337
O O17 0.668219 0.671619 0.945736
O O18 0.323098 0.000000 0.030757
O O19 0.500000 0.885401 0.000000
O O20 0.308947 0.824922 0.998159
#
# Coordination Sequence:
#
# PCOD9146176 Si02
#       8
#     4   4   4   4   4   4   4   4
#     4  10  22  36  52  76 104 139 186 230 269 310
#     4   9  18  34  53  80 109 136 175 217 262 329
#     4  10  20  32  49  75 109 140 179 212 259 323
#     4  10  20  34  49  72 102 136 187 233 265 306
#     4  11  21  31  48  74 107 146 180 210 258 322
#     4  11  21  36  59  85 113 143 174 217 274 332
#     4  12  20  36  54  75 108 143 178 223 268 319
#     4  10  19  33  53  72 103 145 177 222 267 315
#
# _framework density 17.032416000000001
#
# number of rings (size 3 to 8) (size 9 to 14) (size 15 to 20)
#    0.000    1.625    3.750    3.750    0.000    4.250 
#    0.000    0.000    0.000    0.375    0.000    0.000 
#    0.000    2.000    0.000    0.000    0.000    0.000 
#
# Total GULP energy -178546.372879 kJ/mol
# GULP energy per Si atom -5579.574152 kJ/mol
# Density = 1.699365 g / cm^3
# Si number density = 17.032416 Si / 1000 Ang^3
#
#
#
# Elastic Constant Matrix: (Units=GPa)
#
#
# Indices 1 2 3 4 5 6 
#
# 1 65.8657 40.6356 14.2603 0.0000 5.5801 0.0000
# 2 40.6356 94.2513 24.9395 0.0000 6.1879 0.0000
# 3 14.2603 24.9395 86.3994 0.0000 -4.7819 0.0000
# 4 0.0000 0.0000 0.0000 10.0706 0.0000 5.2720
# 5 5.5801 6.1879 -4.7819 0.0000 15.6357 0.0000
# 6 0.0000 0.0000 0.0000 5.2720 0.0000 14.0432
#
#
#
# Elastic Compliance Matrix: (Units=1/GPa)
#
#
# Indices 1 2 3 4 5 6 
#
# 1 0.021053 -0.008435 -0.001293 0.000000 -0.004571 0.000000
# 2 -0.008435 0.015380 -0.003273 0.000000 -0.004078 0.000000
# 3 -0.001293 -0.003273 0.013051 0.000000 0.005748 0.000000
# 4 0.000000 0.000000 0.000000 0.123588 0.000000 -0.046397
# 5 -0.004571 -0.004078 0.005748 0.000000 0.068959 0.000000
# 6 0.000000 0.000000 0.000000 -0.046397 0.000000 0.088627
#
#
# Mechanical properties :
#
#
# Convention : Reuss Voigt Hill
#
# Bulk Modulus (GPa) = 42.58533 45.13191 43.85862
# Shear Modulus (GPa) = 13.71789 19.06198 16.38993
#
# Velocity S-wave (km/s) = 2.84103 3.34901 3.10543
# Velocity P-wave (km/s) = 5.98488 6.44280 6.21806
#
# Compressibility (1/GPa) = 0.02348227
#
# Stress axis : x y z
#
# Youngs Moduli (GPa) = 47.49829 65.01842 76.62538
#
# Poissons Ratio (x) = 0.54841 0.09909
# Poissons Ratio (y) = 0.40063 0.25080
# Poissons Ratio (z) = 0.06142 0.21281
#
# Static dielectric constant tensor:
#      x y z
#    x 1.565780 0.000000 -0.015350 
#    y 0.000000 1.567110 0.000000 
#    z -0.015350 0.000000 1.569530 
# 
# From -- ./inp_files/51638.got.cif
#   From: 2010.05.17/outbox.cif.g08.bks.cpg/sg10_26_cif.got.tgz:51638.got - 2010.06.03 11:33:40.
