data_PCOD9146235
_publ_section_title
;
Structure prediction by ZEFSAII (Michael W. Deem and Ramdas Pophale) SiO2 
 PCOD9146235
Probable space group: P 2/M
;
_chemical_formula_sum "Si O2"
_cell_formula_units_Z 24
_cell_length_a 13.905986
_cell_length_b 9.064780
_cell_length_c 15.458312
_cell_angle_alpha 90.000000
_cell_angle_beta 132.210751
_cell_angle_gamma 90.000000
_cell_volume 1443.280976
_symmetry_space_group_name_H-M "P 2/M"
_symmetry_group_IT_number 10
_symmetry_cell_setting 'monoclinic'
loop_
_space_group_symop_operation_xyz
x,y,z
-x,y,-z
-x,-y,-z
x,-y,z
loop_
_atom_site_type_symbol
_atom_site_label
_atom_site_fract_x
_atom_site_fract_y
_atom_site_fract_z
Si Si1 0.873004 0.673925 0.229007
Si Si2 0.190323 0.332367 0.609227
Si Si3 0.865990 0.174458 0.597637
Si Si4 0.570086 0.177220 0.452757
Si Si5 0.385716 0.823019 0.999436
Si Si6 0.503374 0.671122 0.235502
O O1 0.866614 0.500000 0.206767
O O2 0.858951 0.693220 0.324260
O O3 0.012160 0.741027 0.288202
O O4 0.750804 0.755836 0.113225
O O5 0.154201 0.500000 0.560296
O O6 0.141520 0.219381 0.508029
O O7 0.346247 0.324150 0.704068
O O8 0.723440 0.216126 0.547481
O O9 0.883687 0.000000 0.617639
O O10 0.500000 0.214219 0.500000
O O11 0.505370 0.256889 0.331642
O O12 0.562683 0.000000 0.435334
O O13 0.423089 0.759711 0.115693
O O14 0.379047 0.000000 0.997322
O O15 0.500000 0.781394 0.000000
O O16 0.463495 0.500000 0.214595
#
# Coordination Sequence:
#
# PCOD9146235 Si02
#       6
#     4   4   4   4   4   4
#     4  11  21  33  49  70 104 145 177 208 253 307
#     4   9  18  31  47  69 101 140 174 206 250 306
#     4  10  20  32  49  75 103 132 172 217 260 308
#     4   9  19  37  59  80 104 135 171 217 271 318
#     4  11  22  34  51  75 106 143 182 217 250 299
#     4  10  19  33  53  78 107 138 176 217 258 306
#
# _framework density 16.628778000000001
#
# number of rings (size 3 to 8) (size 9 to 14) (size 15 to 20)
#    0.000    2.000    1.667    2.500    0.000    5.667 
#    0.000    0.000    0.000    1.000    0.000    7.000 
#    0.000    0.000    0.000    0.000    0.000    0.000 
#
# Total GULP energy -133945.367151 kJ/mol
# GULP energy per Si atom -5581.056965 kJ/mol
# Density = 1.659093 g / cm^3
# Si number density = 16.628778 Si / 1000 Ang^3
#
#
#
# Elastic Constant Matrix: (Units=GPa)
#
#
# Indices 1 2 3 4 5 6 
#
# 1 89.5604 53.6803 65.8643 0.0000 -5.2083 0.0000
# 2 53.6803 77.5972 64.6257 0.0000 5.7519 0.0000
# 3 65.8643 64.6257 109.4686 0.0000 15.3222 0.0000
# 4 0.0000 0.0000 0.0000 73.1594 0.0000 20.0153
# 5 -5.2083 5.7519 15.3222 0.0000 19.7849 0.0000
# 6 0.0000 0.0000 0.0000 20.0153 0.0000 27.3369
#
#
#
# Elastic Compliance Matrix: (Units=1/GPa)
#
#
# Indices 1 2 3 4 5 6 
#
# 1 0.029104 -0.009072 -0.015250 0.000000 0.022109 0.000000
# 2 -0.009072 0.028581 -0.011123 0.000000 -0.002083 0.000000
# 3 -0.015250 -0.011123 0.028024 0.000000 -0.022484 0.000000
# 4 0.000000 0.000000 0.000000 0.017093 0.000000 -0.012515
# 5 0.022109 -0.002083 -0.022484 0.000000 0.074382 0.000000
# 6 0.000000 0.000000 0.000000 -0.012515 0.000000 0.045744
#
#
# Mechanical properties :
#
#
# Convention : Reuss Voigt Hill
#
# Bulk Modulus (GPa) = 67.48008 71.66296 69.57152
# Shear Modulus (GPa) = 16.73603 30.21995 23.47799
#
# Velocity S-wave (km/s) = 3.17590 4.26764 3.76159
# Velocity P-wave (km/s) = 7.35642 8.21419 7.79711
#
# Compressibility (1/GPa) = 0.01481919
#
# Stress axis : x y z
#
# Youngs Moduli (GPa) = 34.35977 34.98841 35.68320
#
# Poissons Ratio (x) = 0.31740 0.54417
# Poissons Ratio (y) = 0.31170 0.39692
# Poissons Ratio (z) = 0.52399 0.38919
#
# Static dielectric constant tensor:
#      x y z
#    x 1.552700 0.000000 0.022190 
#    y 0.000000 1.559100 0.000000 
#    z 0.022190 0.000000 1.545470 
# 
# From -- ./inp_files/48661.got.cif
#   From: 2010.05.17/outbox.cif.g08.bks.cpg/sg10_25_cif.got.tgz:48661.got - 2010.06.03 11:33:40.
