data_PCOD9146248
_publ_section_title
;
Structure prediction by ZEFSAII (Michael W. Deem and Ramdas Pophale) SiO2 
 PCOD9146248
Probable space group: P 2/M
;
_chemical_formula_sum "Si O2"
_cell_formula_units_Z 32
_cell_length_a 14.857339
_cell_length_b 8.071378
_cell_length_c 18.025936
_cell_angle_alpha 90.000000
_cell_angle_beta 139.576115
_cell_angle_gamma 90.000000
_cell_volume 1401.698275
_symmetry_space_group_name_H-M "P 2/M"
_symmetry_group_IT_number 10
_symmetry_cell_setting 'monoclinic'
loop_
_space_group_symop_operation_xyz
x,y,z
-x,y,-z
-x,-y,-z
x,-y,z
loop_
_atom_site_type_symbol
_atom_site_label
_atom_site_fract_x
_atom_site_fract_y
_atom_site_fract_z
Si Si1 0.417959 0.692120 0.547523
Si Si2 0.949513 0.802395 0.283051
Si Si3 0.650546 0.203573 0.062211
Si Si4 0.680078 0.187092 0.915010
Si Si5 0.151735 0.696448 0.289929
Si Si6 0.275442 0.803921 0.221228
Si Si7 0.397411 0.316419 0.707703
Si Si8 0.127608 0.185717 0.525830
O O1 0.439832 0.500000 0.539995
O O2 0.293614 0.761503 0.419198
O O3 0.570291 0.772089 0.648058
O O4 0.370441 0.694697 0.602846
O O5 0.016961 0.771561 0.244804
O O6 0.061045 0.732117 0.411143
O O7 0.947539 0.000000 0.295033
O O8 0.790857 0.746464 0.193090
O O9 0.687166 0.262643 0.001380
O O10 0.645177 0.000000 0.056674
O O11 0.500000 0.256892 0.000000
O O12 0.729995 0.262720 0.867390
O O13 0.513482 0.185855 0.800106
O O14 0.736250 0.000000 0.954539
O O15 0.148120 0.500000 0.299996
O O16 0.168410 0.731494 0.213317
O O17 0.255781 0.000000 0.204193
O O18 0.449732 0.500000 0.758104
O O19 0.247220 0.281102 0.644137
O O20 0.000000 0.168908 0.500000
O O21 0.182747 0.000000 0.542646
#
# Coordination Sequence:
#
# PCOD9146248 Si02
#       8
#     4   4   4   4   4   4   4   4
#     4   9  18  32  49  73 109 150 187 221 267 329
#     4  10  21  37  58  86 114 146 190 237 282 336
#     4   9  19  37  64  89 109 141 188 238 286 337
#     4   9  19  36  58  83 114 146 186 237 285 328
#     4  11  21  35  54  77 111 155 190 227 281 338
#     4  10  20  32  51  82 113 146 187 233 280 329
#     4  10  19  33  53  79 112 150 186 223 274 334
#     4  10  21  34  53  82 115 146 182 228 283 340
#
# _framework density 22.829449
#
# number of rings (size 3 to 8) (size 9 to 14) (size 15 to 20)
#    0.000    2.250    1.250    1.500    1.750    3.750 
#    0.000    1.250    0.000    4.500    0.000    0.000 
#    0.000    0.000    0.000    0.000    0.000    0.000 
#
# Total GULP energy -178372.974727 kJ/mol
# GULP energy per Si atom -5574.155460 kJ/mol
# Density = 2.277749 g / cm^3
# Si number density = 22.829449 Si / 1000 Ang^3
#
#
#
# Elastic Constant Matrix: (Units=GPa)
#
#
# Indices 1 2 3 4 5 6 
#
# 1 83.9702 -5.8516 29.5717 0.0000 -0.5316 0.0000
# 2 -5.8516 28.5136 0.3132 0.0000 -2.1178 0.0000
# 3 29.5717 0.3132 49.5308 0.0000 -7.9927 0.0000
# 4 0.0000 0.0000 0.0000 10.9306 0.0000 9.5416
# 5 -0.5316 -2.1178 -7.9927 0.0000 20.5154 0.0000
# 6 0.0000 0.0000 0.0000 9.5416 0.0000 9.0528
#
#
#
# Elastic Compliance Matrix: (Units=1/GPa)
#
#
# Indices 1 2 3 4 5 6 
#
# 1 0.015557 0.003070 -0.009808 0.000000 -0.003101 0.000000
# 2 0.003070 0.035955 -0.001546 0.000000 0.003189 0.000000
# 3 -0.009808 -0.001546 0.027732 0.000000 0.010390 0.000000
# 4 0.000000 0.000000 0.000000 1.144534 0.000000 -1.206335
# 5 -0.003101 0.003189 0.010390 0.000000 0.053041 0.000000
# 6 0.000000 0.000000 0.000000 -1.206335 0.000000 1.381936
#
#
# Mechanical properties :
#
#
# Convention : Reuss Voigt Hill
#
# Bulk Modulus (GPa) = 15.95497 23.34235 19.64866
# Shear Modulus (GPa) = 1.85445 17.29852 9.57649
#
# Velocity S-wave (km/s) = 0.90226 2.75567 2.05034
# Velocity P-wave (km/s) = 2.84418 4.51352 3.77235
#
# Compressibility (1/GPa) = 0.06267641
#
# Stress axis : x y z
#
# Youngs Moduli (GPa) = 64.27803 27.81270 36.05980
#
# Poissons Ratio (x) = -0.08539 0.35368
# Poissons Ratio (y) = -0.19734 0.05574
# Poissons Ratio (z) = 0.63045 0.04299
#
# Static dielectric constant tensor:
#      x y z
#    x 1.942940 0.000000 -0.007860 
#    y 0.000000 1.856060 0.000000 
#    z -0.007860 0.000000 1.906900 
# 
# From -- ./inp_files/84751.got.cif
#   From: 2010.05.17/outbox.cif.g08.bks.cpg/sg10_43_cif.got.tgz:84751.got - 2010.06.03 11:33:40.
