data_PCOD9146435
_publ_section_title
;
Structure prediction by ZEFSAII (Michael W. Deem and Ramdas Pophale) SiO2 
 PCOD9146435
Probable space group: P 2/M
;
_chemical_formula_sum "Si O2"
_cell_formula_units_Z 28
_cell_length_a 15.805241
_cell_length_b 7.562600
_cell_length_c 10.178424
_cell_angle_alpha 90.000000
_cell_angle_beta 111.435179
_cell_angle_gamma 90.000000
_cell_volume 1132.462719
_symmetry_space_group_name_H-M "P 2/M"
_symmetry_group_IT_number 10
_symmetry_cell_setting 'monoclinic'
loop_
_space_group_symop_operation_xyz
x,y,z
-x,y,-z
-x,-y,-z
x,-y,z
loop_
_atom_site_type_symbol
_atom_site_label
_atom_site_fract_x
_atom_site_fract_y
_atom_site_fract_z
Si Si1 0.087202 0.710816 0.479302
Si Si2 0.365395 0.695974 0.517879
Si Si3 0.203593 0.213160 0.791950
Si Si4 0.448235 0.796435 0.299492
Si Si5 0.599461 0.215272 0.012277
Si Si6 0.816744 0.284788 0.711348
Si Si7 0.089958 0.205590 0.977096
O O1 0.075927 0.500000 0.461318
O O2 0.168262 0.741689 0.627525
O O3 0.102027 0.772032 0.339313
O O4 0.000000 0.789999 0.500000
O O5 0.348501 0.500000 0.560556
O O6 0.413842 0.688350 0.403060
O O7 0.442115 0.784166 0.651475
O O8 0.270596 0.779312 0.420706
O O9 0.205595 0.000000 0.806300
O O10 0.307061 0.277115 0.870034
O O11 0.133772 0.279083 0.866785
O O12 0.397973 0.741832 0.140259
O O13 0.427551 0.000000 0.317748
O O14 0.597250 0.000000 0.022758
O O15 0.500000 0.279559 0.000000
O O16 0.810947 0.500000 0.714821
O O17 0.832498 0.217166 0.866046
O O18 0.068980 0.000000 0.939591
O O19 0.000000 0.283902 0.000000
#
# Coordination Sequence:
#
# PCOD9146435 Si02
#       7
#     4   4   4   4   4   4   4
#     4  10  22  40  59  82 115 151 189 235 284 339
#     4  10  20  34  52  76 110 142 174 226 279 321
#     4  10  21  37  59  85 114 149 188 233 286 341
#     4  10  19  33  55  79 105 140 185 223 266 327
#     4   9  19  34  52  77 110 143 180 226 271 320
#     4  10  22  37  56  82 111 147 190 230 278 340
#     4  10  21  37  58  86 116 144 183 238 292 341
#
# _framework density 24.724878
#
# number of rings (size 3 to 8) (size 9 to 14) (size 15 to 20)
#    0.000    2.143    0.000    3.429    2.000    4.000 
#    0.000    1.429    0.000    2.143    0.000    0.000 
#    0.000    0.000    0.000    0.000    0.000    0.000 
#
# Total GULP energy -156388.150754 kJ/mol
# GULP energy per Si atom -5585.291098 kJ/mol
# Density = 2.466860 g / cm^3
# Si number density = 24.724878 Si / 1000 Ang^3
#
#
#
# Elastic Constant Matrix: (Units=GPa)
#
#
# Indices 1 2 3 4 5 6 
#
# 1 76.5863 -5.5712 -2.7593 0.0000 -3.7653 0.0000
# 2 -5.5712 61.4251 -13.5164 0.0000 -7.1830 0.0000
# 3 -2.7593 -13.5164 78.6120 0.0000 -2.2400 0.0000
# 4 0.0000 0.0000 0.0000 150.6120 0.0000 -73.8229
# 5 -3.7653 -7.1830 -2.2400 0.0000 37.7489 0.0000
# 6 0.0000 0.0000 0.0000 -73.8229 0.0000 56.3508
#
#
#
# Elastic Compliance Matrix: (Units=1/GPa)
#
#
# Indices 1 2 3 4 5 6 
#
# 1 0.013282 0.001573 0.000784 0.000000 0.001671 0.000000
# 2 0.001573 0.017553 0.003178 0.000000 0.003685 0.000000
# 3 0.000784 0.003178 0.013337 0.000000 0.001474 0.000000
# 4 0.000000 0.000000 0.000000 0.018553 0.000000 0.024306
# 5 0.001671 0.003685 0.001474 0.000000 0.027446 0.000000
# 6 0.000000 0.000000 0.000000 0.024306 0.000000 0.049588
#
#
# Mechanical properties :
#
#
# Convention : Reuss Voigt Hill
#
# Bulk Modulus (GPa) = 18.10230 19.21440 18.65835
# Shear Modulus (GPa) = 33.98991 64.84035 49.41513
#
# Velocity S-wave (km/s) = 3.71175 5.12657 4.47542
# Velocity P-wave (km/s) = 5.07019 6.54449 5.85394
#
# Compressibility (1/GPa) = 0.05524161
#
# Stress axis : x y z
#
# Youngs Moduli (GPa) = 75.29018 56.97045 74.98105
#
# Poissons Ratio (x) = -0.08959 -0.05880
# Poissons Ratio (y) = -0.11840 -0.23831
# Poissons Ratio (z) = -0.05904 -0.18107
#
# Static dielectric constant tensor:
#      x y z
#    x 2.090580 0.000000 0.047360 
#    y 0.000000 1.896260 0.000000 
#    z 0.047360 0.000000 1.902910 
# 
# From -- ./inp_files/49310.got.cif
#   From: 2010.05.17/outbox.cif.g08.bks.cpg/sg10_25_cif.got.tgz:49310.got - 2010.06.03 11:33:40.
