data_PCOD9146532
_publ_section_title
;
Structure prediction by ZEFSAII (Michael W. Deem and Ramdas Pophale) SiO2 
 PCOD9146532
Probable space group: P 2/M
;
_chemical_formula_sum "Si O2"
_cell_formula_units_Z 32
_cell_length_a 24.069183
_cell_length_b 7.574534
_cell_length_c 13.716178
_cell_angle_alpha 90.000000
_cell_angle_beta 34.275280
_cell_angle_gamma 90.000000
_cell_volume 1408.281807
_symmetry_space_group_name_H-M "P 2/M"
_symmetry_group_IT_number 10
_symmetry_cell_setting 'monoclinic'
loop_
_space_group_symop_operation_xyz
x,y,z
-x,y,-z
-x,-y,-z
x,-y,z
loop_
_atom_site_type_symbol
_atom_site_label
_atom_site_fract_x
_atom_site_fract_y
_atom_site_fract_z
Si Si1 0.275390 0.286123 0.720048
Si Si2 0.822270 0.706969 0.499515
Si Si3 0.806272 0.715198 0.954216
Si Si4 0.018938 0.715278 0.582337
Si Si5 0.393344 0.799155 0.130250
Si Si6 0.108438 0.283601 0.810346
Si Si7 0.495428 0.794621 0.396100
Si Si8 0.658481 0.298899 0.008693
O O1 0.278543 0.500000 0.716874
O O2 0.189699 0.230063 0.771319
O O3 0.381674 0.220958 0.531984
O O4 0.249448 0.225997 0.867467
O O5 0.846302 0.500000 0.462184
O O6 0.882898 0.777992 0.504733
O O7 0.705159 0.721652 0.679770
O O8 0.861659 0.779960 0.340317
O O9 0.800774 0.500000 0.960859
O O10 0.921167 0.761584 0.785697
O O11 0.750363 0.774595 0.937351
O O12 0.023223 0.500000 0.569960
O O13 0.000000 0.778233 0.500000
O O14 0.397614 0.000000 0.159688
O O15 0.500000 0.716635 0.000000
O O16 0.374406 0.794803 0.041869
O O17 0.108700 0.500000 0.809161
O O18 0.000000 0.227797 0.000000
O O19 0.500000 0.723092 0.500000
O O20 0.568634 0.701855 0.215627
O O21 0.525084 0.000000 0.355680
O O22 0.683252 0.500000 0.943591
#
# Coordination Sequence:
#
# PCOD9146532 Si02
#       8
#     4   4   4   4   4   4   4   4
#     4  10  19  33  55  83 115 152 197 240 287 343
#     4  10  20  36  60  89 118 153 201 249 290 345
#     4   9  17  30  53  86 117 146 182 235 292 345
#     4   9  16  28  51  82 114 144 183 237 297 346
#     4  11  26  45  61  81 115 160 202 245 300 358
#     4   9  18  33  57  91 125 154 190 245 302 345
#     4  11  23  38  56  83 122 162 195 235 293 354
#     4  11  22  38  63  89 115 147 196 251 295 344
#
# _framework density 22.722725000000001
#
# number of rings (size 3 to 8) (size 9 to 14) (size 15 to 20)
#    0.000    2.000    1.250    2.625    1.750    6.500 
#    0.000    0.000    0.000    7.875    0.000    0.000 
#    0.000    0.000    0.000    0.000    0.000    0.000 
#
# Total GULP energy -178879.598984 kJ/mol
# GULP energy per Si atom -5589.987468 kJ/mol
# Density = 2.267101 g / cm^3
# Si number density = 22.722725 Si / 1000 Ang^3
#
#
#
# Elastic Constant Matrix: (Units=GPa)
#
#
# Indices 1 2 3 4 5 6 
#
# 1 135.2148 2.0632 54.2990 0.0000 -18.1789 0.0000
# 2 2.0632 50.9576 -9.2476 0.0000 1.2734 0.0000
# 3 54.2990 -9.2476 112.3805 0.0000 -13.0384 0.0000
# 4 0.0000 0.0000 0.0000 227.7505 0.0000 -33.0128
# 5 -18.1789 1.2734 -13.0384 0.0000 45.2581 0.0000
# 6 0.0000 0.0000 0.0000 -33.0128 0.0000 1.5473
#
#
#
# Elastic Compliance Matrix: (Units=1/GPa)
#
#
# Indices 1 2 3 4 5 6 
#
# 1 0.009534 -0.001251 -0.004408 0.000000 0.002595 0.000000
# 2 -0.001251 0.020086 0.002207 0.000000 -0.000432 0.000000
# 3 -0.004408 0.002207 0.011378 0.000000 0.001445 0.000000
# 4 0.000000 0.000000 0.000000 -0.002098 0.000000 -0.044767
# 5 0.002595 -0.000432 0.001445 0.000000 0.023566 0.000000
# 6 0.000000 0.000000 0.000000 -0.044767 0.000000 -0.308838
#
#
# Mechanical properties :
#
#
# Convention : Reuss Voigt Hill
#
# Bulk Modulus (GPa) = 29.33118 43.64246 36.48682
# Shear Modulus (GPa) = -21.91981 71.67373 24.87696
#
# Velocity S-wave (km/s) = -3.10927 5.62239 3.31237
# Velocity P-wave (km/s) = 0.21496 7.83559 5.54269
#
# Compressibility (1/GPa) = 0.03409341
#
# Stress axis : x y z
#
# Youngs Moduli (GPa) = 104.88931 49.78556 87.89191
#
# Poissons Ratio (x) = 0.06228 0.38746
# Poissons Ratio (y) = 0.13120 -0.19399
# Poissons Ratio (z) = 0.46239 -0.10988
#
# Static dielectric constant tensor:
#      x y z
#    x 1.830640 0.000000 -0.009320 
#    y 0.000000 1.874050 0.000000 
#    z -0.009320 0.000000 1.808810 
# 
# From -- ./inp_files/71494.got.cif
#   From: 2010.05.17/outbox.cif.g08.bks.cpg/sg10_36_cif.got.tgz:71494.got - 2010.06.03 11:33:40.
