data_PCOD9146347
_publ_section_title
;
Structure prediction by ZEFSAII (Michael W. Deem and Ramdas Pophale) SiO2 
 PCOD9146347
Probable space group: P 2/M
;
_chemical_formula_sum "Si O2"
_cell_formula_units_Z 28
_cell_length_a 10.595836
_cell_length_b 7.463103
_cell_length_c 31.896776
_cell_angle_alpha 90.000000
_cell_angle_beta 36.404185
_cell_angle_gamma 90.000000
_cell_volume 1496.944983
_symmetry_space_group_name_H-M "P 2/M"
_symmetry_group_IT_number 10
_symmetry_cell_setting 'monoclinic'
loop_
_space_group_symop_operation_xyz
x,y,z
-x,y,-z
-x,-y,-z
x,-y,z
loop_
_atom_site_type_symbol
_atom_site_label
_atom_site_fract_x
_atom_site_fract_y
_atom_site_fract_z
Si Si1 0.849407 0.500000 0.920662
Si Si2 0.799344 0.218368 0.190733
Si Si3 0.912641 0.716261 0.589016
Si Si4 0.210795 0.787354 0.709489
Si Si5 0.626102 0.790428 0.742594
Si Si6 0.250782 0.218527 0.197689
Si Si7 0.680091 0.286520 0.567297
Si Si8 0.440143 0.500000 0.085277
O O1 0.718769 0.500000 0.911979
O O2 0.999338 0.324828 0.880941
O O3 0.677186 0.500000 0.003605
O O4 0.777208 0.274672 0.245462
O O5 0.587278 0.277556 0.222782
O O6 0.820991 0.000000 0.183095
O O7 0.909973 0.500000 0.589807
O O8 0.819092 0.772235 0.658318
O O9 0.759279 0.779315 0.591896
O O10 0.149310 0.777391 0.512689
O O11 0.432750 0.749052 0.627387
O O12 0.994390 0.726732 0.745448
O O13 0.194067 0.000000 0.716356
O O14 0.681215 0.722511 0.773922
O O15 0.586786 0.000000 0.758985
O O16 0.389500 0.324938 0.126659
O O17 0.267569 0.000000 0.189321
O O18 0.704788 0.500000 0.562047
#
# Coordination Sequence:
#
# PCOD9146347 Si02
#       8
#     2   4   4   4   4   4   4   2
#     4  11  24  39  65  95 116 146 191 236 283 350
#     4  10  21  37  59  91 118 146 194 241 283 334
#     4   9  18  31  48  79 114 148 190 240 293 332
#     4  10  19  33  54  80 110 149 192 234 284 331
#     4  10  21  37  58  83 115 156 195 236 289 340
#     4  10  23  41  59  86 121 153 192 238 282 345
#     4   9  18  30  49  78 114 149 188 243 292 332
#     4  11  24  41  63  93 116 153 192 220 297 355
#
# _framework density 18.704763
#
# number of rings (size 3 to 8) (size 9 to 14) (size 15 to 20)
#    0.000    2.143    2.857    0.857    4.000    1.143 
#    0.000    5.000    0.000    6.857    0.000    0.000 
#    0.000    0.000    0.000    0.000    0.000    0.000 
#
# Total GULP energy -156164.553595 kJ/mol
# GULP energy per Si atom -5577.305486 kJ/mol
# Density = 1.866219 g / cm^3
# Si number density = 18.704763 Si / 1000 Ang^3
#
#
#
# Elastic Constant Matrix: (Units=GPa)
#
#
# Indices 1 2 3 4 5 6 
#
# 1 125.2141 26.4065 73.2626 0.0000 0.2785 0.0000
# 2 26.4065 64.7349 21.4187 0.0000 -1.6484 0.0000
# 3 73.2626 21.4187 150.6422 0.0000 -8.1730 0.0000
# 4 0.0000 0.0000 0.0000 31.1585 0.0000 9.9840
# 5 0.2785 -1.6484 -8.1730 0.0000 25.5268 0.0000
# 6 0.0000 0.0000 0.0000 9.9840 0.0000 -0.0008
#
#
#
# Elastic Compliance Matrix: (Units=1/GPa)
#
#
# Indices 1 2 3 4 5 6 
#
# 1 0.011810 -0.003077 -0.005418 0.000000 -0.002062 0.000000
# 2 -0.003077 0.017015 -0.000876 0.000000 0.000852 0.000000
# 3 -0.005418 -0.000876 0.009564 0.000000 0.003065 0.000000
# 4 0.000000 0.000000 0.000000 0.000008 0.000000 0.100134
# 5 -0.002062 0.000852 0.003065 0.000000 0.040233 0.000000
# 6 0.000000 0.000000 0.000000 0.100134 0.000000 -0.312503
#
#
# Mechanical properties :
#
#
# Convention : Reuss Voigt Hill
#
# Bulk Modulus (GPa) = 50.90276 64.75184 57.82730
# Shear Modulus (GPa) = -23.97144 25.97046 0.99951
#
# Velocity S-wave (km/s) = -3.58378 3.73022 0.73179
# Velocity P-wave (km/s) = 3.18562 7.29697 5.63001
#
# Compressibility (1/GPa) = 0.01964530
#
# Stress axis : x y z
#
# Youngs Moduli (GPa) = 84.67471 58.77313 104.55840
#
# Poissons Ratio (x) = 0.18087 0.56649
# Poissons Ratio (y) = 0.26058 0.09163
# Poissons Ratio (z) = 0.45876 0.05150
#
# Static dielectric constant tensor:
#      x y z
#    x 1.654660 0.000000 -0.014600 
#    y 0.000000 1.684120 0.000000 
#    z -0.014600 0.000000 1.637300 
# 
# From -- ./inp_files/92022.got.cif
#   From: 2010.05.17/outbox.cif.g08.bks.cpg/sg10_47_cif.got.tgz:92022.got - 2010.06.03 11:33:40.
