data_PCOD9146549
_publ_section_title
;
Structure prediction by ZEFSAII (Michael W. Deem and Ramdas Pophale) SiO2 
 PCOD9146549
Probable space group: P 2/M
;
_chemical_formula_sum "Si O2"
_cell_formula_units_Z 20
_cell_length_a 9.404133
_cell_length_b 10.470841
_cell_length_c 16.404366
_cell_angle_alpha 90.000000
_cell_angle_beta 139.772049
_cell_angle_gamma 90.000000
_cell_volume 1043.225370
_symmetry_space_group_name_H-M "P 2/M"
_symmetry_group_IT_number 10
_symmetry_cell_setting 'monoclinic'
loop_
_space_group_symop_operation_xyz
x,y,z
-x,y,-z
-x,-y,-z
x,-y,z
loop_
_atom_site_type_symbol
_atom_site_label
_atom_site_fract_x
_atom_site_fract_y
_atom_site_fract_z
Si Si1 0.260654 0.644459 0.931925
Si Si2 0.965458 0.650292 0.658706
Si Si3 0.500000 0.761543 0.500000
Si Si4 0.263593 0.351763 0.111689
Si Si5 0.000000 0.782606 0.500000
Si Si6 0.494132 0.140077 0.677030
O O1 0.170687 0.500000 0.909348
O O2 0.107290 0.705557 0.796210
O O3 0.500000 0.632117 0.000000
O O4 0.299294 0.703326 0.036856
O O5 0.010934 0.500000 0.675263
O O6 0.713753 0.677073 0.572745
O O7 0.023351 0.704963 0.595150
O O8 0.474414 0.843266 0.406410
O O9 0.343651 0.500000 0.154667
O O10 0.379842 0.258616 0.226295
O O11 0.000000 0.354263 0.000000
O O12 0.234278 0.852061 0.587245
O O13 0.577124 0.000000 0.738444
#
# Coordination Sequence:
#
# PCOD9146549 Si02
#       6
#     4   4   2   4   2   4
#     4   9  17  30  50  76 108 143 177 219 275 332
#     4  10  19  33  55  85 117 147 184 233 287 341
#     4  10  22  36  54  80 111 150 191 232 283 340
#     4  10  21  37  58  84 113 146 187 236 286 336
#     4  10  22  36  56  84 115 152 195 238 283 336
#     4  11  23  40  60  82 114 155 195 236 285 341
#
# _framework density 19.171313000000001
#
# number of rings (size 3 to 8) (size 9 to 14) (size 15 to 20)
#    0.000    2.000    0.000    3.600    0.000    8.400 
#    0.000    0.000    0.000    6.600    0.000    0.000 
#    0.000    0.000    0.000    0.000    0.000    0.000 
#
# Total GULP energy -111400.703831 kJ/mol
# GULP energy per Si atom -5570.035192 kJ/mol
# Density = 1.912768 g / cm^3
# Si number density = 19.171313 Si / 1000 Ang^3
#
#
#
# Elastic Constant Matrix: (Units=GPa)
#
#
# Indices 1 2 3 4 5 6 
#
# 1 113.5417 17.4638 35.3878 0.0000 -28.4856 0.0000
# 2 17.4638 84.6075 50.7907 0.0000 -14.2630 0.0000
# 3 35.3878 50.7907 116.8955 0.0000 -23.5540 0.0000
# 4 0.0000 0.0000 0.0000 -1.3440 0.0000 9.2381
# 5 -28.4856 -14.2630 -23.5540 0.0000 33.9780 0.0000
# 6 0.0000 0.0000 0.0000 9.2381 0.0000 -3.9450
#
#
#
# Elastic Compliance Matrix: (Units=1/GPa)
#
#
# Indices 1 2 3 4 5 6 
#
# 1 0.011466 0.000158 -0.001848 0.000000 0.008398 0.000000
# 2 0.000158 0.016135 -0.006587 0.000000 0.002339 0.000000
# 3 -0.001848 -0.006587 0.012910 0.000000 0.004635 0.000000
# 4 0.000000 0.000000 0.000000 0.049288 0.000000 0.115418
# 5 0.008398 0.002339 0.004635 0.000000 0.040667 0.000000
# 6 0.000000 0.000000 0.000000 0.115418 0.000000 0.016792
#
#
# Mechanical properties :
#
#
# Convention : Reuss Voigt Hill
#
# Bulk Modulus (GPa) = 41.73980 58.03658 49.88819
# Shear Modulus (GPa) = 29.10412 19.83129 24.46770
#
# Velocity S-wave (km/s) = 3.90052 3.21974 3.57636
# Velocity P-wave (km/s) = 6.48881 6.64535 6.56754
#
# Compressibility (1/GPa) = 0.02395795
#
# Stress axis : x y z
#
# Youngs Moduli (GPa) = 87.21622 61.97550 77.45851
#
# Poissons Ratio (x) = -0.00981 0.14311
# Poissons Ratio (y) = -0.01380 0.51024
# Poissons Ratio (z) = 0.16114 0.40825
#
# Static dielectric constant tensor:
#      x y z
#    x 1.639330 0.000000 -0.000970 
#    y 0.000000 1.662020 0.000000 
#    z -0.000970 0.000000 1.716330 
# 
# From -- ./inp_files/60575.got.cif
#   From: 2010.05.17/outbox.cif.g08.bks.cpg/sg10_31_cif.got.tgz:60575.got - 2010.06.03 11:33:40.
