data_PCOD9146945
_publ_section_title
;
Structure prediction by ZEFSAII (Michael W. Deem and Ramdas Pophale) SiO2 
 PCOD9146945
Probable space group: P 2/M
;
_chemical_formula_sum "Si O2"
_cell_formula_units_Z 28
_cell_length_a 15.175584
_cell_length_b 21.981576
_cell_length_c 8.947793
_cell_angle_alpha 90.000000
_cell_angle_beta 30.938187
_cell_angle_gamma 90.000000
_cell_volume 1534.541995
_symmetry_space_group_name_H-M "P 2/M"
_symmetry_group_IT_number 10
_symmetry_cell_setting 'monoclinic'
loop_
_space_group_symop_operation_xyz
x,y,z
-x,y,-z
-x,-y,-z
x,-y,z
loop_
_atom_site_type_symbol
_atom_site_label
_atom_site_fract_x
_atom_site_fract_y
_atom_site_fract_z
Si Si1 0.345521 0.371501 0.333112
Si Si2 0.978978 0.626401 0.701134
Si Si3 0.422611 0.500000 0.373446
Si Si4 0.471743 0.068565 0.359981
Si Si5 0.845083 0.071462 0.837840
Si Si6 0.826015 0.847384 0.159428
Si Si7 0.782056 0.500000 0.017722
Si Si8 0.183436 0.292285 0.819120
O O1 0.165538 0.373731 0.506671
O O2 0.387034 0.438964 0.332864
O O3 0.315110 0.326969 0.518626
O O4 0.500000 0.352017 0.000000
O O5 0.000000 0.646073 0.500000
O O6 0.896449 0.559481 0.826980
O O7 0.853042 0.669815 0.978345
O O8 0.618463 0.500000 0.145860
O O9 0.297614 0.500000 0.699573
O O10 0.500000 0.069988 0.500000
O O11 0.326131 0.116584 0.536429
O O12 0.419839 0.000000 0.395028
O O13 0.661749 0.081517 0.024526
O O14 0.000000 0.080373 0.500000
O O15 0.844800 0.000000 0.887285
O O16 0.856835 0.116326 0.960763
O O17 0.772178 0.777558 0.213578
O O18 0.000000 0.848534 0.000000
O O19 0.000000 0.292089 0.000000
#
# Coordination Sequence:
#
# PCOD9146945 Si02
#       8
#     4   4   2   4   4   4   2   4
#     4  11  22  40  61  82 110 148 185 225 288 339
#     4  11  22  39  60  82 110 146 187 228 276 335
#     4  11  22  37  60  88 114 140 180 233 285 335
#     4   8  15  30  51  76 106 140 177 215 264 323
#     4   9  18  34  55  80 111 145 182 226 277 329
#     4  10  19  34  55  80 108 143 186 228 271 325
#     4  11  22  37  58  88 114 138 182 233 275 331
#     4   9  21  39  56  77 112 150 186 226 279 335
#
# _framework density 18.246486999999998
#
# number of rings (size 3 to 8) (size 9 to 14) (size 15 to 20)
#    0.000    2.143    1.429    3.000    0.000    2.286 
#    0.000   13.571    0.000    2.571    0.000    0.000 
#    0.000    0.000    0.000    0.000    0.000    0.000 
#
# Total GULP energy -156250.528094 kJ/mol
# GULP energy per Si atom -5580.376003 kJ/mol
# Density = 1.820496 g / cm^3
# Si number density = 18.246487 Si / 1000 Ang^3
#
#
#
# Elastic Constant Matrix: (Units=GPa)
#
#
# Indices 1 2 3 4 5 6 
#
# 1 65.4259 50.2569 44.2359 0.0000 7.5463 0.0000
# 2 50.2569 152.8816 77.6309 0.0000 5.8878 0.0000
# 3 44.2359 77.6309 158.4930 0.0000 5.1372 0.0000
# 4 0.0000 0.0000 0.0000 136.1826 0.0000 -223.7816
# 5 7.5463 5.8878 5.1372 0.0000 26.3642 0.0000
# 6 0.0000 0.0000 0.0000 -223.7816 0.0000 389.5191
#
#
#
# Elastic Compliance Matrix: (Units=1/GPa)
#
#
# Indices 1 2 3 4 5 6 
#
# 1 0.022273 -0.005412 -0.003420 0.000000 -0.004500 0.000000
# 2 -0.005412 0.010054 -0.003413 0.000000 -0.000031 0.000000
# 3 -0.003420 -0.003413 0.008936 0.000000 0.000000 0.000000
# 4 0.000000 0.000000 0.000000 0.131260 0.000000 0.075410
# 5 -0.004500 -0.000031 0.000000 0.000000 0.039225 0.000000
# 6 0.000000 0.000000 0.000000 0.075410 0.000000 0.045891
#
#
# Mechanical properties :
#
#
# Convention : Reuss Voigt Hill
#
# Bulk Modulus (GPa) = 59.61903 80.11643 69.86773
# Shear Modulus (GPa) = 17.37797 124.05832 70.71815
#
# Velocity S-wave (km/s) = 3.08945 8.25457 6.23228
# Velocity P-wave (km/s) = 6.74325 11.61265 9.49540
#
# Compressibility (1/GPa) = 0.01677317
#
# Stress axis : x y z
#
# Youngs Moduli (GPa) = 44.89761 99.45810 111.91044
#
# Poissons Ratio (x) = 0.53827 0.38271
# Poissons Ratio (y) = 0.24298 0.38198
# Poissons Ratio (z) = 0.15354 0.33947
#
# Static dielectric constant tensor:
#      x y z
#    x 1.621170 0.000000 0.001800 
#    y 0.000000 1.608400 0.000000 
#    z 0.001800 0.000000 1.647130 
# 
# From -- ./inp_files/30449.got.cif
#   From: 2010.05.17/outbox.cif.g08.bks.cpg/sg10_16_cif.got.tgz:30449.got - 2010.06.03 11:33:40.
