data_PCOD9146527
_publ_section_title
;
Structure prediction by ZEFSAII (Michael W. Deem and Ramdas Pophale) SiO2 
 PCOD9146527
Probable space group: P 2/M
;
_chemical_formula_sum "Si O2"
_cell_formula_units_Z 24
_cell_length_a 14.381726
_cell_length_b 13.040734
_cell_length_c 9.154289
_cell_angle_alpha 90.000000
_cell_angle_beta 37.644505
_cell_angle_gamma 90.000000
_cell_volume 1048.596817
_symmetry_space_group_name_H-M "P 2/M"
_symmetry_group_IT_number 10
_symmetry_cell_setting 'monoclinic'
loop_
_space_group_symop_operation_xyz
x,y,z
-x,y,-z
-x,-y,-z
x,-y,z
loop_
_atom_site_type_symbol
_atom_site_label
_atom_site_fract_x
_atom_site_fract_y
_atom_site_fract_z
Si Si1 0.173040 0.883436 0.294187
Si Si2 0.537680 0.780260 0.213780
Si Si3 0.341608 0.388817 0.389295
Si Si4 0.708674 0.619822 0.194543
Si Si5 0.035650 0.319930 0.798992
Si Si6 0.775226 0.114940 0.424985
O O1 0.224391 0.887525 0.399125
O O2 0.000000 0.838437 0.500000
O O3 0.157348 0.000000 0.256859
O O4 0.313260 0.833861 0.034404
O O5 0.453930 0.700988 0.209638
O O6 0.597945 0.703103 0.262154
O O7 0.393363 0.855236 0.425643
O O8 0.401321 0.500000 0.281385
O O9 0.310555 0.380559 0.604733
O O10 0.171974 0.371453 0.540731
O O11 0.685214 0.500000 0.180293
O O12 0.871383 0.663027 0.936227
O O13 0.104223 0.207036 0.751371
O O14 0.000000 0.372058 0.000000
O O15 0.816902 0.000000 0.322088
#
# Coordination Sequence:
#
# PCOD9146527 Si02
#       6
#     4   4   4   4   4   4
#     4  10  21  38  59  78  98 134 183 228 271 320
#     4  11  20  31  53  79 107 138 177 220 263 312
#     4   9  18  33  54  80 109 143 181 219 264 318
#     4  10  19  33  55  83 113 144 180 220 262 315
#     4   9  18  33  57  84 110 141 179 222 267 313
#     4  10  21  37  56  79 109 143 178 219 268 322
#
# _framework density 22.887730000000001
#
# number of rings (size 3 to 8) (size 9 to 14) (size 15 to 20)
#    0.000    2.167    0.000    3.500    0.000    5.000 
#    0.000    0.833    0.000   56.000    0.000    0.000 
#    0.000    0.000    0.000    0.000    0.000    0.000 
#
# Total GULP energy -133636.559765 kJ/mol
# GULP energy per Si atom -5568.189990 kJ/mol
# Density = 2.283564 g / cm^3
# Si number density = 22.887730 Si / 1000 Ang^3
#
#
#
# Elastic Constant Matrix: (Units=GPa)
#
#
# Indices 1 2 3 4 5 6 
#
# 1 59.4717 9.8906 35.6107 0.0000 -26.2086 0.0000
# 2 9.8906 131.9502 58.6024 0.0000 -18.9483 0.0000
# 3 35.6107 58.6024 128.3986 0.0000 -31.3478 0.0000
# 4 0.0000 0.0000 0.0000 -127.4241 0.0000 -23.7376
# 5 -26.2086 -18.9483 -31.3478 0.0000 37.8129 0.0000
# 6 0.0000 0.0000 0.0000 -23.7376 0.0000 32.0708
#
#
#
# Elastic Compliance Matrix: (Units=1/GPa)
#
#
# Indices 1 2 3 4 5 6 
#
# 1 0.025881 0.002243 -0.004448 0.000000 0.015375 0.000000
# 2 0.002243 0.009765 -0.004394 0.000000 0.002805 0.000000
# 3 -0.004448 -0.004394 0.012208 0.000000 0.004836 0.000000
# 4 0.000000 0.000000 0.000000 -0.006897 0.000000 -0.005105
# 5 0.015375 0.002805 0.004836 0.000000 0.042517 0.000000
# 6 0.000000 0.000000 0.000000 -0.005105 0.000000 0.027403
#
#
# Mechanical properties :
#
#
# Convention : Reuss Voigt Hill
#
# Bulk Modulus (GPa) = 28.85505 58.66977 43.76241
# Shear Modulus (GPa) = 36.86612 2.87305 19.86959
#
# Velocity S-wave (km/s) = 4.01775 1.12161 2.94961
# Velocity P-wave (km/s) = 5.84446 5.23132 5.54637
#
# Compressibility (1/GPa) = 0.03465597
#
# Stress axis : x y z
#
# Youngs Moduli (GPa) = 38.63901 102.40841 81.91331
#
# Poissons Ratio (x) = -0.22975 0.36436
# Poissons Ratio (y) = -0.08668 0.35993
# Poissons Ratio (z) = 0.17187 0.44999
#
# Static dielectric constant tensor:
#      x y z
#    x 2.117500 0.000000 -0.189400 
#    y 0.000000 1.911430 0.000000 
#    z -0.189400 0.000000 1.979690 
# 
# From -- ./inp_files/36190.got.cif
#   From: 2010.05.17/outbox.cif.g08.bks.cpg/sg10_19_cif.got.tgz:36190.got - 2010.06.03 11:33:40.
