data_PCOD9146289
_publ_section_title
;
Structure prediction by ZEFSAII (Michael W. Deem and Ramdas Pophale) SiO2 
 PCOD9146289
Probable space group: P 2/M
;
_chemical_formula_sum "Si O2"
_cell_formula_units_Z 24
_cell_length_a 12.974017
_cell_length_b 7.580625
_cell_length_c 11.955168
_cell_angle_alpha 90.000000
_cell_angle_beta 86.135303
_cell_angle_gamma 90.000000
_cell_volume 1173.130830
_symmetry_space_group_name_H-M "P 2/M"
_symmetry_group_IT_number 10
_symmetry_cell_setting 'monoclinic'
loop_
_space_group_symop_operation_xyz
x,y,z
-x,y,-z
-x,-y,-z
x,-y,z
loop_
_atom_site_type_symbol
_atom_site_label
_atom_site_fract_x
_atom_site_fract_y
_atom_site_fract_z
Si Si1 0.726355 0.206879 0.720572
Si Si2 0.907286 0.215824 0.857204
Si Si3 0.525960 0.285916 0.872135
Si Si4 0.863141 0.787015 0.112523
Si Si5 0.662156 0.705830 0.268786
Si Si6 0.386214 0.795815 0.487385
O O1 0.831259 0.280685 0.766053
O O2 0.636060 0.223110 0.819316
O O3 0.679279 0.283863 0.609522
O O4 0.747283 0.000000 0.698280
O O5 0.027007 0.269482 0.843172
O O6 0.906210 0.000000 0.856643
O O7 0.864707 0.269268 0.982554
O O8 0.526677 0.500000 0.871582
O O9 0.436334 0.225084 0.793638
O O10 0.500000 0.228785 0.000000
O O11 0.764078 0.725228 0.187150
O O12 0.861538 0.000000 0.113188
O O13 0.643545 0.500000 0.290461
O O14 0.670642 0.791020 0.389814
O O15 0.500000 0.716364 0.500000
O O16 0.404561 0.000000 0.453152
#
# Coordination Sequence:
#
# PCOD9146289 Si02
#       6
#     4   4   4   4   4   4
#     4  10  19  33  54  77 100 128 170 213 250 298
#     4   8  16  32  55  81 103 130 166 209 258 302
#     4  10  21  34  48  72 106 136 162 201 254 307
#     4   9  17  33  56  78 104 133 166 208 255 303
#     4  11  22  34  51  75 104 137 173 207 249 304
#     4  10  20  35  53  74 100 134 174 213 252 295
#
# _framework density 20.458075999999998
#
# number of rings (size 3 to 8) (size 9 to 14) (size 15 to 20)
#    0.000    2.333    1.667    2.500    0.000    2.000 
#    0.000    3.333    0.000    5.000    0.000    0.000 
#    0.000    0.000    0.000    0.000    0.000    0.000 
#
# Total GULP energy -133988.082739 kJ/mol
# GULP energy per Si atom -5582.836781 kJ/mol
# Density = 2.041151 g / cm^3
# Si number density = 20.458076 Si / 1000 Ang^3
#
#
#
# Elastic Constant Matrix: (Units=GPa)
#
#
# Indices 1 2 3 4 5 6 
#
# 1 90.5230 2.0212 16.0872 0.0000 29.9170 0.0000
# 2 2.0212 46.6338 5.3394 0.0000 9.1520 0.0000
# 3 16.0872 5.3394 61.1199 0.0000 33.0697 0.0000
# 4 0.0000 0.0000 0.0000 19.9055 0.0000 -27.3872
# 5 29.9170 9.1520 33.0697 0.0000 44.2202 0.0000
# 6 0.0000 0.0000 0.0000 -27.3872 0.0000 29.8251
#
#
#
# Elastic Compliance Matrix: (Units=1/GPa)
#
#
# Indices 1 2 3 4 5 6 
#
# 1 0.014544 0.001442 0.002572 0.000000 -0.012062 0.000000
# 2 0.001442 0.022526 0.001181 0.000000 -0.006521 0.000000
# 3 0.002572 0.001181 0.027974 0.000000 -0.022905 0.000000
# 4 0.000000 0.000000 0.000000 -0.190726 0.000000 -0.175137
# 5 -0.012062 -0.006521 -0.022905 0.000000 0.049253 0.000000
# 6 0.000000 0.000000 0.000000 -0.175137 0.000000 -0.127293
#
#
# Mechanical properties :
#
#
# Convention : Reuss Voigt Hill
#
# Bulk Modulus (GPa) = 13.25673 27.24137 20.24905
# Shear Modulus (GPa) = -26.45951 30.44543 1.99296
#
# Velocity S-wave (km/s) = -3.60022 3.86189 0.98807
# Velocity P-wave (km/s) = 3.28453 5.76456 3.34978
#
# Compressibility (1/GPa) = 0.07543336
#
# Stress axis : x y z
#
# Youngs Moduli (GPa) = 68.75753 44.39378 35.74757
#
# Poissons Ratio (x) = -0.06403 -0.09194
# Poissons Ratio (y) = -0.09917 -0.04221
# Poissons Ratio (z) = -0.17685 -0.05241
#
# Static dielectric constant tensor:
#      x y z
#    x 1.711010 0.000000 0.040890 
#    y 0.000000 1.760370 0.000000 
#    z 0.040890 0.000000 1.721590 
# 
# From -- ./inp_files/45125.got.cif
#   From: 2010.05.17/outbox.cif.g08.bks.cpg/sg10_23_cif.got.tgz:45125.got - 2010.06.03 11:33:40.
