data_PCOD9146355
_publ_section_title
;
Structure prediction by ZEFSAII (Michael W. Deem and Ramdas Pophale) SiO2 
 PCOD9146355
Probable space group: P 2/M
;
_chemical_formula_sum "Si O2"
_cell_formula_units_Z 32
_cell_length_a 15.299108
_cell_length_b 7.584216
_cell_length_c 23.018473
_cell_angle_alpha 90.000000
_cell_angle_beta 31.576836
_cell_angle_gamma 90.000000
_cell_volume 1398.580242
_symmetry_space_group_name_H-M "P 2/M"
_symmetry_group_IT_number 10
_symmetry_cell_setting 'monoclinic'
loop_
_space_group_symop_operation_xyz
x,y,z
-x,y,-z
-x,-y,-z
x,-y,z
loop_
_atom_site_type_symbol
_atom_site_label
_atom_site_fract_x
_atom_site_fract_y
_atom_site_fract_z
Si Si1 0.112636 0.286794 0.295568
Si Si2 0.860228 0.207180 0.122189
Si Si3 0.051363 0.785777 0.800405
Si Si4 0.543885 0.283749 0.848258
Si Si5 0.731701 0.205900 0.534374
Si Si6 0.735495 0.295477 0.911387
Si Si7 0.546012 0.701034 0.225903
Si Si8 0.342822 0.784572 0.550916
O O1 0.101198 0.500000 0.300059
O O2 0.263086 0.236356 0.253180
O O3 0.174192 0.221551 0.197069
O O4 0.930825 0.223060 0.417172
O O5 0.879102 0.276300 0.176887
O O6 0.680299 0.220321 0.194204
O O7 0.897606 0.000000 0.107059
O O8 0.000000 0.283655 0.000000
O O9 0.176581 0.729039 0.678559
O O10 0.869052 0.717645 0.887809
O O11 0.046544 0.000000 0.802089
O O12 0.537240 0.500000 0.851682
O O13 0.467469 0.219703 0.830794
O O14 0.435489 0.222775 0.965003
O O15 0.636183 0.293550 0.641628
O O16 0.659678 0.275986 0.513909
O O17 0.689612 0.000000 0.562374
O O18 0.702066 0.500000 0.916107
O O19 0.600118 0.500000 0.188084
O O20 0.500000 0.728606 0.500000
O O21 0.344240 0.000000 0.548585
#
# Coordination Sequence:
#
# PCOD9146355 Si02
#       8
#     4   4   4   4   4   4   4   4
#     4  10  20  37  61  86 114 147 190 237 286 342
#     4  10  21  37  58  85 117 154 193 232 280 340
#     4  10  19  33  54  80 113 150 185 221 280 346
#     4   9  20  38  59  83 112 153 192 230 287 349
#     4  11  22  38  59  82 116 151 190 239 287 340
#     4  10  19  34  59  88 116 144 186 239 286 336
#     4  11  23  39  59  83 115 154 198 239 281 335
#     4   9  17  31  52  75 101 141 183 218 267 332
#
# _framework density 22.880344999999998
#
# number of rings (size 3 to 8) (size 9 to 14) (size 15 to 20)
#    0.000    2.000    1.250    2.625    0.000    4.750 
#    0.000    5.000    0.000    3.375    0.000    0.000 
#    0.000    0.000    0.000    0.000    0.000    0.000 
#
# Total GULP energy -178816.284071 kJ/mol
# GULP energy per Si atom -5588.008877 kJ/mol
# Density = 2.282827 g / cm^3
# Si number density = 22.880345 Si / 1000 Ang^3
#
#
#
# Elastic Constant Matrix: (Units=GPa)
#
#
# Indices 1 2 3 4 5 6 
#
# 1 70.4787 -6.3094 2.6994 0.0000 0.3841 0.0000
# 2 -6.3094 50.8995 -10.4045 0.0000 6.2722 0.0000
# 3 2.6994 -10.4045 95.4296 0.0000 -2.5285 0.0000
# 4 0.0000 0.0000 0.0000 13.9638 0.0000 -10.2845
# 5 0.3841 6.2722 -2.5285 0.0000 41.8657 0.0000
# 6 0.0000 0.0000 0.0000 -10.2845 0.0000 7.5599
#
#
#
# Elastic Compliance Matrix: (Units=1/GPa)
#
#
# Indices 1 2 3 4 5 6 
#
# 1 0.014359 0.001785 -0.000222 0.000000 -0.000413 0.000000
# 2 0.001785 0.020670 0.002124 0.000000 -0.002985 0.000000
# 3 -0.000222 0.002124 0.010726 0.000000 0.000332 0.000000
# 4 0.000000 0.000000 0.000000-36.571448 0.000000-49.751865
# 5 -0.000413 -0.002985 0.000332 0.000000 0.024357 0.000000
# 6 0.000000 0.000000 0.000000-49.751865 0.000000-67.550250
#
#
# Mechanical properties :
#
#
# Convention : Reuss Voigt Hill
#
# Bulk Modulus (GPa) = 18.82231 20.97543 19.89887
# Shear Modulus (GPa) = -0.04806 28.06603 14.00899
#
# Velocity S-wave (km/s) = -0.14508 3.50615 2.47710
# Velocity P-wave (km/s) = 2.86639 5.05748 4.11061
#
# Compressibility (1/GPa) = 0.05312844
#
# Stress axis : x y z
#
# Youngs Moduli (GPa) = 69.64140 48.37968 93.23498
#
# Poissons Ratio (x) = -0.08637 0.02074
# Poissons Ratio (y) = -0.12433 -0.19803
# Poissons Ratio (z) = 0.01549 -0.10276
#
# Static dielectric constant tensor:
#      x y z
#    x 1.849660 0.000000 0.013290 
#    y 0.000000 1.887430 0.000000 
#    z 0.013290 0.000000 1.835670 
# 
# From -- ./inp_files/89523.got.cif
#   From: 2010.05.17/outbox.cif.g08.bks.cpg/sg10_45_cif.got.tgz:89523.got - 2010.06.03 11:33:40.
