data_PCOD9146087
_publ_section_title
;
Structure prediction by ZEFSAII (Michael W. Deem and Ramdas Pophale) SiO2 
 PCOD9146087
Probable space group: P 2/M
;
_chemical_formula_sum "Si O2"
_cell_formula_units_Z 32
_cell_length_a 8.513445
_cell_length_b 18.863986
_cell_length_c 22.130522
_cell_angle_alpha 90.000000
_cell_angle_beta 148.462418
_cell_angle_gamma 90.000000
_cell_volume 1859.002946
_symmetry_space_group_name_H-M "P 2/M"
_symmetry_group_IT_number 10
_symmetry_cell_setting 'monoclinic'
loop_
_space_group_symop_operation_xyz
x,y,z
-x,y,-z
-x,-y,-z
x,-y,z
loop_
_atom_site_type_symbol
_atom_site_label
_atom_site_fract_x
_atom_site_fract_y
_atom_site_fract_z
Si Si1 0.274552 0.315653 0.045075
Si Si2 0.266143 0.195302 0.812389
Si Si3 0.221394 0.141046 0.443086
Si Si4 0.689852 0.921979 0.336282
Si Si5 0.658647 0.779181 0.402312
Si Si6 0.675453 0.918921 0.908525
Si Si7 0.702182 0.579645 0.126925
Si Si8 0.966443 0.289758 0.814597
O O1 0.504981 0.253763 0.139372
O O2 0.479960 0.385062 0.102880
O O3 0.000000 0.325469 0.000000
O O4 0.133045 0.294555 0.933555
O O5 0.474197 0.126259 0.887991
O O6 0.007503 0.174654 0.680291
O O7 0.121942 0.228597 0.824969
O O8 0.500000 0.106772 0.500000
O O9 0.348389 0.201522 0.529202
O O10 0.027246 0.089725 0.422047
O O11 0.617166 0.853867 0.352995
O O12 0.491832 0.919802 0.210747
O O13 0.654090 0.000000 0.352406
O O14 0.385008 0.728169 0.295426
O O15 0.000000 0.754644 0.500000
O O16 0.714212 0.000000 0.942083
O O17 0.000000 0.887053 0.000000
O O18 0.800811 0.500000 0.174126
O O19 0.961148 0.636577 0.196450
O O20 0.500000 0.576188 0.000000
#
# Coordination Sequence:
#
# PCOD9146087 Si02
#       8
#     4   4   4   4   4   4   4   4
#     4  10  21  31  53  85 107 137 172 211 259 303
#     4  10  19  33  52  73 105 134 175 218 261 312
#     4  10  19  33  50  72  95 135 173 224 268 306
#     4   9  20  35  49  70 100 136 179 223 270 319
#     4  10  21  33  52  74 104 135 177 218 261 311
#     4   9  18  32  51  74 101 139 176 216 272 318
#     4   8  16  34  55  79 112 141 165 203 254 309
#     4  10  20  35  53  81 106 136 175 208 261 311
#
# _framework density 17.213528
#
# number of rings (size 3 to 8) (size 9 to 14) (size 15 to 20)
#    0.000    2.500    1.250    1.500    7.000    2.750 
#    0.000    0.625    0.000    1.875    0.000    7.000 
#    0.000    0.000    0.000    0.000    0.000    0.000 
#
# Total GULP energy -178292.044648 kJ/mol
# GULP energy per Si atom -5571.626395 kJ/mol
# Density = 1.717435 g / cm^3
# Si number density = 17.213528 Si / 1000 Ang^3
#
#
#
# Elastic Constant Matrix: (Units=GPa)
#
#
# Indices 1 2 3 4 5 6 
#
# 1 70.7925 41.0041 13.0375 0.0000 15.8376 0.0000
# 2 41.0041 96.9118 35.6047 0.0000 16.3208 0.0000
# 3 13.0375 35.6047 63.6762 0.0000 21.0031 0.0000
# 4 0.0000 0.0000 0.0000 12.4514 0.0000 0.2581
# 5 15.8376 16.3208 21.0031 0.0000 28.4161 0.0000
# 6 0.0000 0.0000 0.0000 0.2581 0.0000 10.7639
#
#
#
# Elastic Compliance Matrix: (Units=1/GPa)
#
#
# Indices 1 2 3 4 5 6 
#
# 1 0.020376 -0.008377 0.003532 0.000000 -0.009156 0.000000
# 2 -0.008377 0.016597 -0.007883 0.000000 0.000963 0.000000
# 3 0.003532 -0.007883 0.024524 0.000000 -0.015567 0.000000
# 4 0.000000 0.000000 0.000000 0.080352 0.000000 -0.001927
# 5 -0.009156 0.000963 -0.015567 0.000000 0.051247 0.000000
# 6 0.000000 0.000000 0.000000 -0.001927 0.000000 0.092950
#
#
# Mechanical properties :
#
#
# Convention : Reuss Voigt Hill
#
# Bulk Modulus (GPa) = 27.74596 45.63034 36.68815
# Shear Modulus (GPa) = 15.45530 19.77522 17.61526
#
# Velocity S-wave (km/s) = 2.99968 3.39310 3.20244
# Velocity P-wave (km/s) = 5.30576 6.47432 5.91895
#
# Compressibility (1/GPa) = 0.03604128
#
# Stress axis : x y z
#
# Youngs Moduli (GPa) = 49.07838 60.25251 40.77711
#
# Poissons Ratio (x) = 0.50472 -0.14402
# Poissons Ratio (y) = 0.41112 0.32143
# Poissons Ratio (z) = -0.17334 0.47494
#
# Static dielectric constant tensor:
#      x y z
#    x 1.605550 0.000000 0.005970 
#    y 0.000000 1.598440 0.000000 
#    z 0.005970 0.000000 1.597290 
# 
# From -- ./inp_files/25979.got.cif
#   From: 2010.05.17/outbox.cif.g08.bks.cpg/sg10_13_cif.got.tgz:25979.got - 2010.06.03 11:33:40.
