data_PCOD9146750
_publ_section_title
;
Structure prediction by ZEFSAII (Michael W. Deem and Ramdas Pophale) SiO2 
 PCOD9146750
Probable space group: P 2/M
;
_chemical_formula_sum "Si O2"
_cell_formula_units_Z 32
_cell_length_a 28.174847
_cell_length_b 9.064914
_cell_length_c 10.768992
_cell_angle_alpha 90.000000
_cell_angle_beta 144.611056
_cell_angle_gamma 90.000000
_cell_volume 1592.838616
_symmetry_space_group_name_H-M "P 2/M"
_symmetry_group_IT_number 10
_symmetry_cell_setting 'monoclinic'
loop_
_space_group_symop_operation_xyz
x,y,z
-x,y,-z
-x,-y,-z
x,-y,z
loop_
_atom_site_type_symbol
_atom_site_label
_atom_site_fract_x
_atom_site_fract_y
_atom_site_fract_z
Si Si1 0.819408 0.327270 0.547246
Si Si2 0.269426 0.672508 0.377979
Si Si3 0.731784 0.823521 0.133966
Si Si4 0.446432 0.821798 0.763703
Si Si5 0.873654 0.329493 0.295979
Si Si6 0.541835 0.820718 0.716952
Si Si7 0.983493 0.330587 0.780548
Si Si8 0.877478 0.174133 0.056999
O O1 0.813202 0.500000 0.493639
O O2 0.778836 0.315491 0.594397
O O3 0.769554 0.225543 0.346139
O O4 0.916242 0.291942 0.741662
O O5 0.276521 0.500000 0.361774
O O6 0.358143 0.745781 0.578958
O O7 0.211525 0.756601 0.157987
O O8 0.787343 0.741343 0.151582
O O9 0.738215 0.000000 0.132390
O O10 0.637043 0.778665 0.924984
O O11 0.493998 0.776149 0.739561
O O12 0.436289 0.000000 0.740219
O O13 0.500000 0.785334 0.000000
O O14 0.865954 0.500000 0.242939
O O15 0.929793 0.324194 0.538611
O O16 0.907047 0.238995 0.251171
O O17 0.500000 0.769334 0.500000
O O18 0.539944 0.000000 0.711801
O O19 0.011578 0.500000 0.858658
O O20 0.060120 0.228029 0.916259
O O21 0.873261 0.000000 0.051388
#
# Coordination Sequence:
#
# PCOD9146750 Si02
#       8
#     4   4   4   4   4   4   4   4
#     4   9  20  39  61  83 113 154 195 238 292 355
#     4  11  24  41  61  86 117 156 200 245 297 357
#     4  10  19  33  59  89 115 150 195 243 291 346
#     4  10  21  39  63  89 119 158 203 250 302 362
#     4  10  21  38  60  85 119 159 197 239 290 354
#     4   9  19  34  54  83 120 157 192 238 300 362
#     4   9  19  38  61  84 113 154 196 237 291 354
#     4  12  25  38  56  85 120 155 194 247 301 349
#
# _framework density 20.089918000000001
#
# number of rings (size 3 to 8) (size 9 to 14) (size 15 to 20)
#    0.000    2.000    0.000    4.125    1.750    6.750 
#    0.000    3.750    0.000    1.875    0.000    0.000 
#    0.000    0.000    0.000    0.000    0.000    0.000 
#
# Total GULP energy -178836.635191 kJ/mol
# GULP energy per Si atom -5588.644850 kJ/mol
# Density = 2.004419 g / cm^3
# Si number density = 20.089918 Si / 1000 Ang^3
#
#
#
# Elastic Constant Matrix: (Units=GPa)
#
#
# Indices 1 2 3 4 5 6 
#
# 1 108.4664 39.2867 42.9473 0.0000 8.7052 0.0000
# 2 39.2867 86.4437 52.2624 0.0000 8.9224 0.0000
# 3 42.9473 52.2624 104.2061 0.0000 18.2301 0.0000
# 4 0.0000 0.0000 0.0000 32.6058 0.0000 -0.3306
# 5 8.7052 8.9224 18.2301 0.0000 35.3414 0.0000
# 6 0.0000 0.0000 0.0000 -0.3306 0.0000 37.4290
#
#
#
# Elastic Compliance Matrix: (Units=1/GPa)
#
#
# Indices 1 2 3 4 5 6 
#
# 1 0.011698 -0.003448 -0.003012 0.000000 -0.000457 0.000000
# 2 -0.003448 0.017619 -0.007459 0.000000 0.000249 0.000000
# 3 -0.003012 -0.007459 0.015520 0.000000 -0.005381 0.000000
# 4 0.000000 0.000000 0.000000 0.030672 0.000000 0.000271
# 5 -0.000457 0.000249 -0.005381 0.000000 0.031121 0.000000
# 6 0.000000 0.000000 0.000000 0.000271 0.000000 0.026720
#
#
# Mechanical properties :
#
#
# Convention : Reuss Voigt Hill
#
# Bulk Modulus (GPa) = 58.82721 63.12321 60.97521
# Shear Modulus (GPa) = 29.96651 32.04989 31.00820
#
# Velocity S-wave (km/s) = 3.86634 3.99848 3.93297
# Velocity P-wave (km/s) = 7.01975 7.26675 7.14432
#
# Compressibility (1/GPa) = 0.01699894
#
# Stress axis : x y z
#
# Youngs Moduli (GPa) = 85.48777 56.75608 64.43429
#
# Poissons Ratio (x) = 0.19571 0.19405
# Poissons Ratio (y) = 0.29479 0.48061
# Poissons Ratio (z) = 0.25745 0.42334
#
# Static dielectric constant tensor:
#      x y z
#    x 1.731840 0.000000 -0.020500 
#    y 0.000000 1.665690 0.000000 
#    z -0.020500 0.000000 1.707580 
# 
# From -- ./inp_files/58307.got.cif
#   From: 2010.05.17/outbox.cif.g08.bks.cpg/sg10_30_cif.got.tgz:58307.got - 2010.06.03 11:33:40.
