data_PCOD9146354
_publ_section_title
;
Structure prediction by ZEFSAII (Michael W. Deem and Ramdas Pophale) SiO2 
 PCOD9146354
Probable space group: P 2/M
;
_chemical_formula_sum "Si O2"
_cell_formula_units_Z 28
_cell_length_a 25.813731
_cell_length_b 9.045247
_cell_length_c 9.961441
_cell_angle_alpha 90.000000
_cell_angle_beta 41.071540
_cell_angle_gamma 90.000000
_cell_volume 1528.126517
_symmetry_space_group_name_H-M "P 2/M"
_symmetry_group_IT_number 10
_symmetry_cell_setting 'monoclinic'
loop_
_space_group_symop_operation_xyz
x,y,z
-x,y,-z
-x,-y,-z
x,-y,z
loop_
_atom_site_type_symbol
_atom_site_label
_atom_site_fract_x
_atom_site_fract_y
_atom_site_fract_z
Si Si1 0.666907 0.675725 0.313486
Si Si2 0.086278 0.175095 0.778926
Si Si3 0.914601 0.673565 0.722583
Si Si4 0.491539 0.830119 0.353813
Si Si5 0.333931 0.822673 0.979903
Si Si6 0.817764 0.826283 0.138849
Si Si7 0.181226 0.327416 0.363253
O O1 0.671004 0.500000 0.292817
O O2 0.582206 0.727693 0.535491
O O3 0.738663 0.736469 0.261674
O O4 0.673920 0.748493 0.151651
O O5 0.147974 0.194756 0.779695
O O6 0.117468 0.264400 0.591115
O O7 0.081939 0.000000 0.754637
O O8 0.000000 0.220823 0.000000
O O9 0.918503 0.500000 0.754405
O O10 0.854045 0.686728 0.717511
O O11 0.000000 0.717388 0.500000
O O12 0.883563 0.769787 0.905688
O O13 0.500000 0.828648 0.500000
O O14 0.474895 0.000000 0.347339
O O15 0.578745 0.786124 0.134971
O O16 0.262314 0.763521 0.208591
O O17 0.330343 0.000000 0.971635
O O18 0.802958 0.000000 0.146126
O O19 0.195753 0.500000 0.360646
#
# Coordination Sequence:
#
# PCOD9146354 Si02
#       7
#     4   4   4   4   4   4   4
#     4  11  20  31  51  81 115 147 182 228 279 328
#     4  10  23  42  60  80 108 146 193 237 279 334
#     4  10  21  36  54  80 112 142 177 228 284 335
#     4   8  16  30  49  76 110 147 183 220 270 328
#     4  10  19  33  54  80 113 149 184 227 273 326
#     4  11  22  36  57  81 108 147 189 231 279 332
#     4  11  22  35  56  84 113 148 185 228 281 335
#
# _framework density 18.323090000000001
#
# number of rings (size 3 to 8) (size 9 to 14) (size 15 to 20)
#    0.000    1.857    1.429    4.286    0.000    5.429 
#    0.000    0.000    0.000    0.857    0.000    6.000 
#    0.000    0.000    0.000    0.000    0.000    0.000 
#
# Total GULP energy -156346.381710 kJ/mol
# GULP energy per Si atom -5583.799347 kJ/mol
# Density = 1.828139 g / cm^3
# Si number density = 18.323090 Si / 1000 Ang^3
#
#
#
# Elastic Constant Matrix: (Units=GPa)
#
#
# Indices 1 2 3 4 5 6 
#
# 1 29.3017 19.2258 -1.5446 0.0000 -20.8803 0.0000
# 2 19.2258 66.6124 13.5301 0.0000 -7.7663 0.0000
# 3 -1.5446 13.5301 48.8710 0.0000 -20.7812 0.0000
# 4 0.0000 0.0000 0.0000 2.1968 0.0000 -12.7468
# 5 -20.8803 -7.7663 -20.7812 0.0000 35.8708 0.0000
# 6 0.0000 0.0000 0.0000 -12.7468 0.0000 15.9171
#
#
#
# Elastic Compliance Matrix: (Units=1/GPa)
#
#
# Indices 1 2 3 4 5 6 
#
# 1 0.144919 -0.041708 0.063900 0.000000 0.112347 0.000000
# 2 -0.041708 0.027948 -0.022300 0.000000 -0.031146 0.000000
# 3 0.063900 -0.022300 0.056285 0.000000 0.064976 0.000000
# 4 0.000000 0.000000 0.000000 -0.124827 0.000000 -0.099964
# 5 0.112347 -0.031146 0.064976 0.000000 0.124174 0.000000
# 6 0.000000 0.000000 0.000000 -0.099964 0.000000 -0.017228
#
#
# Mechanical properties :
#
#
# Convention : Reuss Voigt Hill
#
# Bulk Modulus (GPa) = 4.36801 23.02308 13.69555
# Shear Modulus (GPa) = 17.37329 18.36854 17.87091
#
# Velocity S-wave (km/s) = 3.08257 3.16963 3.12640
# Velocity P-wave (km/s) = 3.88055 5.09782 4.53026
#
# Compressibility (1/GPa) = 0.22893704
#
# Stress axis : x y z
#
# Youngs Moduli (GPa) = 6.90039 35.78058 17.76683
#
# Poissons Ratio (x) = 1.49232 -1.13530
# Poissons Ratio (y) = 0.28780 0.39620
# Poissons Ratio (z) = -0.44093 0.79790
#
# Static dielectric constant tensor:
#      x y z
#    x 1.628460 0.000000 -0.029640 
#    y 0.000000 1.612310 0.000000 
#    z -0.029640 0.000000 1.636220 
# 
# From -- ./inp_files/37022.got.cif
#   From: 2010.05.17/outbox.cif.g08.bks.cpg/sg10_19_cif.got.tgz:37022.got - 2010.06.03 11:33:40.
