data_PCOD9146688
_publ_section_title
;
Structure prediction by ZEFSAII (Michael W. Deem and Ramdas Pophale) SiO2 
 PCOD9146688
Probable space group: P 2/M
;
_chemical_formula_sum "Si O2"
_cell_formula_units_Z 32
_cell_length_a 19.519468
_cell_length_b 13.445819
_cell_length_c 18.573693
_cell_angle_alpha 90.000000
_cell_angle_beta 22.014346
_cell_angle_gamma 90.000000
_cell_volume 1827.249971
_symmetry_space_group_name_H-M "P 2/M"
_symmetry_group_IT_number 10
_symmetry_cell_setting 'monoclinic'
loop_
_space_group_symop_operation_xyz
x,y,z
-x,y,-z
-x,-y,-z
x,-y,z
loop_
_atom_site_type_symbol
_atom_site_label
_atom_site_fract_x
_atom_site_fract_y
_atom_site_fract_z
Si Si1 0.784933 0.116391 0.191026
Si Si2 0.353107 0.207825 0.819897
Si Si3 0.262407 0.382431 0.110404
Si Si4 0.289243 0.882240 0.581150
Si Si5 0.024571 0.119096 0.221966
Si Si6 0.785367 0.385932 0.687245
Si Si7 0.126790 0.287126 0.543006
Si Si8 0.463845 0.382603 0.286703
O O1 0.739077 0.182246 0.166739
O O2 0.693208 0.154983 0.354178
O O3 0.732434 0.000000 0.226813
O O4 0.000000 0.115292 0.000000
O O5 0.542697 0.148022 0.631871
O O6 0.418308 0.320242 0.770477
O O7 0.219919 0.166857 0.011916
O O8 0.232453 0.500000 0.146653
O O9 0.306254 0.349624 0.149350
O O10 0.072233 0.338482 0.267089
O O11 0.422797 0.367200 0.897629
O O12 0.101886 0.856465 0.724088
O O13 0.285792 0.000000 0.592727
O O14 0.922633 0.174640 0.386773
O O15 0.036554 0.000000 0.218372
O O16 0.726071 0.500000 0.725602
O O17 0.782071 0.312512 0.622794
O O18 0.000000 0.392384 0.500000
O O19 0.263429 0.336087 0.468222
O O20 0.452331 0.500000 0.312660
#
# Coordination Sequence:
#
# PCOD9146688 Si02
#       8
#     4   4   4   4   4   4   4   4
#     4  10  19  33  57  85 110 137 176 229 281 326
#     4  12  21  36  55  80 112 146 176 220 278 322
#     4   9  18  34  55  82 112 139 179 233 277 322
#     4  10  20  35  56  84 110 137 179 226 273 323
#     4  11  22  35  54  82 111 143 185 222 266 329
#     4   8  15  29  54  82 107 138 177 226 282 323
#     4  11  19  35  54  79 111 147 177 220 277 321
#     4  11  23  35  54  84 111 145 187 217 265 333
#
# _framework density 17.512654999999999
#
# number of rings (size 3 to 8) (size 9 to 14) (size 15 to 20)
#    0.000    1.750    3.750    3.375    0.000    1.500 
#    0.000    1.875    0.000    5.250    0.000    0.875 
#    0.000    0.000    0.000    0.000    0.000    0.000 
#
# Total GULP energy -178338.505037 kJ/mol
# GULP energy per Si atom -5573.078282 kJ/mol
# Density = 1.747280 g / cm^3
# Si number density = 17.512655 Si / 1000 Ang^3
#
#
#
# Elastic Constant Matrix: (Units=GPa)
#
#
# Indices 1 2 3 4 5 6 
#
# 1 72.5433 54.4504 24.0652 0.0000 1.0773 0.0000
# 2 54.4504 74.1701 28.7406 0.0000 -1.6968 0.0000
# 3 24.0652 28.7406 66.5643 0.0000 -7.2998 0.0000
# 4 0.0000 0.0000 0.0000 20.0217 0.0000 1.2378
# 5 1.0773 -1.6968 -7.2998 0.0000 30.1266 0.0000
# 6 0.0000 0.0000 0.0000 1.2378 0.0000 27.3271
#
#
#
# Elastic Compliance Matrix: (Units=1/GPa)
#
#
# Indices 1 2 3 4 5 6 
#
# 1 0.031089 -0.022111 -0.002004 0.000000 -0.002843 0.000000
# 2 -0.022111 0.031937 -0.005662 0.000000 0.001218 0.000000
# 3 -0.002004 -0.005662 0.018661 0.000000 0.004274 0.000000
# 4 0.000000 0.000000 0.000000 0.050086 0.000000 -0.002269
# 5 -0.002843 0.001218 0.004274 0.000000 0.034399 0.000000
# 6 0.000000 0.000000 0.000000 -0.002269 0.000000 0.036696
#
#
# Mechanical properties :
#
#
# Convention : Reuss Voigt Hill
#
# Bulk Modulus (GPa) = 45.18452 47.53223 46.35838
# Shear Modulus (GPa) = 18.53219 22.56318 20.54769
#
# Velocity S-wave (km/s) = 3.25655 3.59331 3.42907
# Velocity P-wave (km/s) = 6.32434 6.66457 6.49668
#
# Compressibility (1/GPa) = 0.02213147
#
# Stress axis : x y z
#
# Youngs Moduli (GPa) = 32.16615 31.31168 53.58744
#
# Poissons Ratio (x) = 0.69235 0.10740
# Poissons Ratio (y) = 0.71124 0.30341
# Poissons Ratio (z) = 0.06447 0.17729
#
# Static dielectric constant tensor:
#      x y z
#    x 1.656280 0.000000 0.014950 
#    y 0.000000 1.574380 0.000000 
#    z 0.014950 0.000000 1.661250 
# 
# From -- ./inp_files/86274.got.cif
#   From: 2010.05.17/outbox.cif.g08.bks.cpg/sg10_44_cif.got.tgz:86274.got - 2010.06.03 11:33:40.
