data_PCOD9146152
_publ_section_title
;
Structure prediction by ZEFSAII (Michael W. Deem and Ramdas Pophale) SiO2 
 PCOD9146152
Probable space group: P 2/M
;
_chemical_formula_sum "Si O2"
_cell_formula_units_Z 22
_cell_length_a 8.917068
_cell_length_b 26.327115
_cell_length_c 7.651898
_cell_angle_alpha 90.000000
_cell_angle_beta 35.018017
_cell_angle_gamma 90.000000
_cell_volume 1030.815154
_symmetry_space_group_name_H-M "P 2/M"
_symmetry_group_IT_number 10
_symmetry_cell_setting 'monoclinic'
loop_
_space_group_symop_operation_xyz
x,y,z
-x,y,-z
-x,-y,-z
x,-y,z
loop_
_atom_site_type_symbol
_atom_site_label
_atom_site_fract_x
_atom_site_fract_y
_atom_site_fract_z
Si Si1 0.238420 0.000000 0.634747
Si Si2 0.389839 0.383799 0.909942
Si Si3 0.763589 0.890032 0.361860
Si Si4 0.045403 0.787014 0.663871
Si Si5 0.884826 0.558308 0.306134
Si Si6 0.457104 0.730752 0.828464
O O1 0.500000 0.000000 0.500000
O O2 0.239947 0.054791 0.539477
O O3 0.000000 0.000000 0.000000
O O4 0.603104 0.415737 0.597008
O O5 0.372999 0.325945 0.860130
O O6 0.500000 0.381815 0.000000
O O7 0.108144 0.409722 0.189032
O O8 0.500000 0.883743 0.500000
O O9 0.833158 0.841767 0.411963
O O10 0.000000 0.892409 0.000000
O O11 0.263028 0.746376 0.513093
O O12 0.000000 0.783534 0.500000
O O13 0.765328 0.771546 0.009217
O O14 0.867331 0.500000 0.383672
O O15 0.000000 0.557867 0.000000
O O16 0.500000 0.731965 0.000000
#
# Coordination Sequence:
#
# PCOD9146152 Si02
#       6
#     2   4   4   4   4   4
#     4   8  16  30  49  70  99 138 172 210 264 316
#     4  11  22  39  63  86 108 143 193 234 262 317
#     4  10  19  33  52  76 104 136 177 220 262 310
#     4  10  19  34  54  76 105 141 175 213 268 324
#     4  11  24  41  59  83 118 151 176 218 286 341
#     4   9  19  35  55  78 107 141 175 216 270 321
#
# _framework density 21.342331999999999
#
# number of rings (size 3 to 8) (size 9 to 14) (size 15 to 20)
#    0.000    2.000    0.000    3.818    0.000    6.545 
#    0.000    9.545    0.000    0.000    0.000   11.455 
#    0.000    0.000    0.000    0.000    0.000    0.000 
#
# Total GULP energy -122795.731897 kJ/mol
# GULP energy per Si atom -5581.624177 kJ/mol
# Density = 2.129376 g / cm^3
# Si number density = 21.342332 Si / 1000 Ang^3
#
#
#
# Elastic Constant Matrix: (Units=GPa)
#
#
# Indices 1 2 3 4 5 6 
#
# 1 37.6378 25.7248 20.2381 0.0000 -19.4879 0.0000
# 2 25.7248 159.7000 24.3117 0.0000 -26.1116 0.0000
# 3 20.2381 24.3117 107.0115 0.0000 -33.0080 0.0000
# 4 0.0000 0.0000 0.0000 35.0770 0.0000 -7.7942
# 5 -19.4879 -26.1116 -33.0080 0.0000 33.8379 0.0000
# 6 0.0000 0.0000 0.0000 -7.7942 0.0000 37.6516
#
#
#
# Elastic Compliance Matrix: (Units=1/GPa)
#
#
# Indices 1 2 3 4 5 6 
#
# 1 0.039104 -0.003000 -0.000688 0.000000 0.019534 0.000000
# 2 -0.003000 0.007397 0.000164 0.000000 0.004140 0.000000
# 3 -0.000688 0.000164 0.013380 0.000000 0.012782 0.000000
# 4 0.000000 0.000000 0.000000 0.029883 0.000000 0.006186
# 5 0.019534 0.004140 0.012782 0.000000 0.056466 0.000000
# 6 0.000000 0.000000 0.000000 0.006186 0.000000 0.027840
#
#
# Mechanical properties :
#
#
# Convention : Reuss Voigt Hill
#
# Bulk Modulus (GPa) = 18.92801 49.43316 34.18058
# Shear Modulus (GPa) = 25.15965 36.91828 31.03897
#
# Velocity S-wave (km/s) = 3.43718 4.16362 3.81772
# Velocity P-wave (km/s) = 4.96390 6.80636 5.95680
#
# Compressibility (1/GPa) = 0.05283177
#
# Stress axis : x y z
#
# Youngs Moduli (GPa) = 25.57283 135.19021 74.73580
#
# Poissons Ratio (x) = 0.40561 0.05145
# Poissons Ratio (y) = 0.07673 -0.01225
# Poissons Ratio (z) = 0.01761 -0.02216
#
# Static dielectric constant tensor:
#      x y z
#    x 1.780930 0.000000 0.015520 
#    y 0.000000 1.822090 0.000000 
#    z 0.015520 0.000000 1.736720 
# 
# From -- ./inp_files/20885.got.cif
#   From: 2010.05.17/outbox.cif.g08.bks.cpg/sg10_11_cif.got.tgz:20885.got - 2010.06.03 11:33:40.
