data_PCOD9146234
_publ_section_title
;
Structure prediction by ZEFSAII (Michael W. Deem and Ramdas Pophale) SiO2 
 PCOD9146234
Probable space group: P 2/M
;
_chemical_formula_sum "Si O2"
_cell_formula_units_Z 28
_cell_length_a 9.884021
_cell_length_b 8.717464
_cell_length_c 32.565085
_cell_angle_alpha 90.000000
_cell_angle_beta 34.106962
_cell_angle_gamma 90.000000
_cell_volume 1573.393210
_symmetry_space_group_name_H-M "P 2/M"
_symmetry_group_IT_number 10
_symmetry_cell_setting 'monoclinic'
loop_
_space_group_symop_operation_xyz
x,y,z
-x,y,-z
-x,-y,-z
x,-y,z
loop_
_atom_site_type_symbol
_atom_site_label
_atom_site_fract_x
_atom_site_fract_y
_atom_site_fract_z
Si Si1 0.867667 0.683342 0.402694
Si Si2 0.746885 0.184071 0.209752
Si Si3 0.352857 0.816536 0.243710
Si Si4 0.774838 0.683181 0.810441
Si Si5 0.700249 0.185066 0.916850
Si Si6 0.338967 0.682814 0.681678
Si Si7 0.555299 0.182863 0.548747
O O1 0.851752 0.500000 0.405022
O O2 0.674857 0.753460 0.418962
O O3 0.784011 0.744253 0.468109
O O4 0.129323 0.740086 0.323662
O O5 0.595933 0.222407 0.207241
O O6 0.634674 0.262904 0.278185
O O7 0.028836 0.227041 0.136872
O O8 0.735203 0.000000 0.218574
O O9 0.344587 0.757665 0.199313
O O10 0.321998 0.000000 0.251849
O O11 0.757406 0.500000 0.812524
O O12 0.667505 0.743267 0.880149
O O13 0.061366 0.723017 0.739233
O O14 0.689961 0.000000 0.915808
O O15 0.500000 0.233607 0.000000
O O16 0.365203 0.500000 0.671886
O O17 0.515404 0.764259 0.605311
O O18 0.562945 0.000000 0.543598
#
# Coordination Sequence:
#
# PCOD9146234 Si02
#       7
#     4   4   4   4   4   4   4
#     4  11  21  33  50  75 108 141 179 228 274 319
#     4   9  20  36  55  80 109 141 179 222 270 323
#     4  11  21  35  54  78 109 144 181 223 270 323
#     4  10  20  33  54  81 109 141 179 221 264 319
#     4   9  18  36  61  85 109 139 177 220 265 318
#     4  10  19  33  53  78 106 140 182 228 271 318
#     4  11  20  32  52  77 105 140 183 228 272 317
#
# _framework density 17.795931
#
# number of rings (size 3 to 8) (size 9 to 14) (size 15 to 20)
#    0.000    1.857    1.429    4.714    0.000    2.571 
#    0.000    1.429    0.000    8.571    0.000    0.000 
#    0.000    0.000    0.000    0.000    0.000    0.000 
#
# Total GULP energy -156358.499001 kJ/mol
# GULP energy per Si atom -5584.232107 kJ/mol
# Density = 1.775543 g / cm^3
# Si number density = 17.795931 Si / 1000 Ang^3
#
#
#
# Elastic Constant Matrix: (Units=GPa)
#
#
# Indices 1 2 3 4 5 6 
#
# 1 117.0588 47.0101 55.8247 0.0000 17.5339 0.0000
# 2 47.0101 72.1785 43.2709 0.0000 9.5428 0.0000
# 3 55.8247 43.2709 128.4427 0.0000 24.1526 0.0000
# 4 0.0000 0.0000 0.0000 55.9297 0.0000 55.7493
# 5 17.5339 9.5428 24.1526 0.0000 20.4201 0.0000
# 6 0.0000 0.0000 0.0000 55.7493 0.0000 90.1046
#
#
#
# Elastic Compliance Matrix: (Units=1/GPa)
#
#
# Indices 1 2 3 4 5 6 
#
# 1 0.013082 -0.006277 -0.002585 0.000000 -0.005241 0.000000
# 2 -0.006277 0.020411 -0.004331 0.000000 0.000974 0.000000
# 3 -0.002585 -0.004331 0.012308 0.000000 -0.010313 0.000000
# 4 0.000000 0.000000 0.000000 0.046649 0.000000 -0.028863
# 5 -0.005241 0.000974 -0.010313 0.000000 0.065215 0.000000
# 6 0.000000 0.000000 0.000000 -0.028863 0.000000 0.028956
#
#
# Mechanical properties :
#
#
# Convention : Reuss Voigt Hill
#
# Bulk Modulus (GPa) = 51.51287 67.76570 59.63929
# Shear Modulus (GPa) = 22.78128 44.72916 33.75522
#
# Velocity S-wave (km/s) = 3.58179 5.01887 4.35995
# Velocity P-wave (km/s) = 6.79079 8.47038 7.67666
#
# Compressibility (1/GPa) = 0.01941262
#
# Stress axis : x y z
#
# Youngs Moduli (GPa) = 76.44310 48.99420 81.25015
#
# Poissons Ratio (x) = 0.30755 0.21006
# Poissons Ratio (y) = 0.47985 0.35190
# Poissons Ratio (z) = 0.19763 0.21220
#
# Static dielectric constant tensor:
#      x y z
#    x 1.602870 0.000000 0.000680 
#    y 0.000000 1.592700 0.000000 
#    z 0.000680 0.000000 1.597700 
# 
# From -- ./inp_files/79248.got.cif
#   From: 2010.05.17/outbox.cif.g08.bks.cpg/sg10_40_cif.got.tgz:79248.got - 2010.06.03 11:33:40.
