data_PCOD9146417
_publ_section_title
;
Structure prediction by ZEFSAII (Michael W. Deem and Ramdas Pophale) SiO2 
 PCOD9146417
Probable space group: P 2/M
;
_chemical_formula_sum "Si O2"
_cell_formula_units_Z 32
_cell_length_a 14.634406
_cell_length_b 7.636838
_cell_length_c 20.727012
_cell_angle_alpha 90.000000
_cell_angle_beta 45.575857
_cell_angle_gamma 90.000000
_cell_volume 1654.366472
_symmetry_space_group_name_H-M "P 2/M"
_symmetry_group_IT_number 10
_symmetry_cell_setting 'monoclinic'
loop_
_space_group_symop_operation_xyz
x,y,z
-x,y,-z
-x,-y,-z
x,-y,z
loop_
_atom_site_type_symbol
_atom_site_label
_atom_site_fract_x
_atom_site_fract_y
_atom_site_fract_z
Si Si1 0.460975 0.285598 0.694839
Si Si2 0.436693 0.298990 0.846689
Si Si3 0.269745 0.206632 0.291261
Si Si4 0.844617 0.207588 0.786668
Si Si5 0.133661 0.710538 0.633642
Si Si6 0.241177 0.710988 0.446659
Si Si7 0.371496 0.285985 0.601365
Si Si8 0.612020 0.705451 0.990334
O O1 0.460715 0.500000 0.696339
O O2 0.409607 0.221612 0.789374
O O3 0.610631 0.234555 0.615606
O O4 0.385456 0.229960 0.668621
O O5 0.390979 0.500000 0.866611
O O6 0.591433 0.296615 0.775215
O O7 0.387081 0.217960 0.937922
O O8 0.192552 0.270493 0.267103
O O9 0.203598 0.233471 0.393184
O O10 0.293706 0.000000 0.272080
O O11 0.745034 0.282300 0.887277
O O12 0.992112 0.246027 0.726476
O O13 0.826455 0.000000 0.796693
O O14 0.144589 0.500000 0.626200
O O15 0.158958 0.774691 0.547953
O O16 0.246121 0.774117 0.625207
O O17 0.239149 0.500000 0.447902
O O18 0.500000 0.233916 0.500000
O O19 0.369921 0.500000 0.602002
O O20 0.579339 0.500000 0.015371
O O21 0.500000 0.781135 0.000000
#
# Coordination Sequence:
#
# PCOD9146417 Si02
#       8
#     4   4   4   4   4   4   4   4
#     4   8  13  24  46  76 106 127 152 197 252 300
#     4   9  17  30  51  78 103 127 158 204 255 297
#     4  10  20  32  47  69  99 136 171 202 240 294
#     4  11  24  37  49  69 102 140 172 206 250 300
#     4  10  20  33  52  76 101 133 172 211 251 295
#     4   9  17  30  49  73 100 132 167 205 247 292
#     4   9  14  25  49  80 105 126 160 207 254 295
#     4  10  19  33  55  79 100 126 165 213 256 296
#
# _framework density 19.342752000000001
#
# number of rings (size 3 to 8) (size 9 to 14) (size 15 to 20)
#    0.000    2.500    2.500    1.500    0.000    3.250 
#    0.000    2.500    0.000    4.125    0.000    5.250 
#    0.000    0.000    0.000    0.000    0.000    0.000 
#
# Total GULP energy -178491.231433 kJ/mol
# GULP energy per Si atom -5577.850982 kJ/mol
# Density = 1.929873 g / cm^3
# Si number density = 19.342752 Si / 1000 Ang^3
#
#
#
# Elastic Constant Matrix: (Units=GPa)
#
#
# Indices 1 2 3 4 5 6 
#
# 1 107.5963 -5.4046 72.0920 0.0000 25.4942 0.0000
# 2 -5.4046 38.7623 -5.1841 0.0000 6.9447 0.0000
# 3 72.0920 -5.1841 135.8859 0.0000 24.9002 0.0000
# 4 0.0000 0.0000 0.0000 105.5058 0.0000 -87.5074
# 5 25.4942 6.9447 24.9002 0.0000 31.2583 0.0000
# 6 0.0000 0.0000 0.0000 -87.5074 0.0000 170.7093
#
#
#
# Elastic Compliance Matrix: (Units=1/GPa)
#
#
# Indices 1 2 3 4 5 6 
#
# 1 0.015973 0.002772 -0.006871 0.000000 -0.008170 0.000000
# 2 0.002772 0.028083 0.001356 0.000000 -0.009580 0.000000
# 3 -0.006871 0.001356 0.011808 0.000000 -0.004103 0.000000
# 4 0.000000 0.000000 0.000000 0.016488 0.000000 0.008452
# 5 -0.008170 -0.009580 -0.004103 0.000000 0.044052 0.000000
# 6 0.000000 0.000000 0.000000 0.008452 0.000000 0.010191
#
#
# Mechanical properties :
#
#
# Convention : Reuss Voigt Hill
#
# Bulk Modulus (GPa) = 19.85020 45.02789 32.43904
# Shear Modulus (GPa) = 33.58551 76.21075 54.89813
#
# Velocity S-wave (km/s) = 4.17146 6.28376 5.33323
# Velocity P-wave (km/s) = 5.78671 8.71648 7.39808
#
# Compressibility (1/GPa) = 0.05037734
#
# Stress axis : x y z
#
# Youngs Moduli (GPa) = 62.60578 35.60927 84.68617
#
# Poissons Ratio (x) = -0.09870 0.58191
# Poissons Ratio (y) = -0.17353 -0.11487
# Poissons Ratio (z) = 0.43019 -0.04830
#
# Static dielectric constant tensor:
#      x y z
#    x 1.681120 0.000000 0.046410 
#    y 0.000000 1.723000 0.000000 
#    z 0.046410 0.000000 1.672170 
# 
# From -- ./inp_files/66107.got.cif
#   From: 2010.05.17/outbox.cif.g08.bks.cpg/sg10_34_cif.got.tgz:66107.got - 2010.06.03 11:33:40.
