data_PCOD9146374
_publ_section_title
;
Structure prediction by ZEFSAII (Michael W. Deem and Ramdas Pophale) SiO2 
 PCOD9146374
Probable space group: P 2/M
;
_chemical_formula_sum "Si O2"
_cell_formula_units_Z 32
_cell_length_a 18.230319
_cell_length_b 12.745627
_cell_length_c 10.708916
_cell_angle_alpha 90.000000
_cell_angle_beta 41.732651
_cell_angle_gamma 90.000000
_cell_volume 1656.344464
_symmetry_space_group_name_H-M "P 2/M"
_symmetry_group_IT_number 10
_symmetry_cell_setting 'monoclinic'
loop_
_space_group_symop_operation_xyz
x,y,z
-x,y,-z
-x,-y,-z
x,-y,z
loop_
_atom_site_type_symbol
_atom_site_label
_atom_site_fract_x
_atom_site_fract_y
_atom_site_fract_z
Si Si1 0.286499 0.618362 0.794961
Si Si2 0.456503 0.874115 0.191669
Si Si3 0.313534 0.881806 0.996100
Si Si4 0.069060 0.382424 0.573838
Si Si5 0.118438 0.676992 0.787445
Si Si6 0.240661 0.118531 0.578083
Si Si7 0.839982 0.691216 0.794709
Si Si8 0.374829 0.157303 0.654137
O O1 0.330737 0.500000 0.737148
O O2 0.203073 0.632227 0.783103
O O3 0.368139 0.716209 0.672341
O O4 0.226642 0.638087 0.005423
O O5 0.560613 0.840595 0.143449
O O6 0.331560 0.835480 0.366000
O O7 0.446897 0.000000 0.220893
O O8 0.500000 0.851459 0.000000
O O9 0.305039 0.884968 0.858206
O O10 0.305453 0.000000 0.059653
O O11 0.221416 0.800678 0.156086
O O12 0.021429 0.500000 0.625999
O O13 0.120701 0.371017 0.645391
O O14 0.148433 0.366348 0.353829
O O15 0.965677 0.303845 0.686458
O O16 0.145587 0.799429 0.728270
O O17 0.000000 0.662152 0.000000
O O18 0.317455 0.118315 0.602737
O O19 0.205443 0.000000 0.591468
O O20 0.500000 0.121769 0.500000
#
# Coordination Sequence:
#
# PCOD9146374 Si02
#       8
#     4   4   4   4   4   4   4   4
#     4  10  20  36  57  80 109 141 182 233 279 322
#     4   9  18  32  53  78 104 144 189 221 262 316
#     4  10  20  34  55  82 114 145 177 222 272 326
#     4  11  22  39  61  81 107 141 186 236 277 323
#     4  11  23  37  56  84 111 143 189 231 276 332
#     4  10  21  36  55  79 112 149 184 225 272 327
#     4  10  21  36  57  85 109 140 186 224 275 332
#     4  10  19  33  54  82 109 142 184 222 268 325
#
# _framework density 19.319654
#
# number of rings (size 3 to 8) (size 9 to 14) (size 15 to 20)
#    0.000    1.875    2.500    2.250    1.750    1.500 
#    0.000    1.875    0.000    0.000    0.000    0.875 
#    0.000    0.000    0.000    0.000    0.000    0.000 
#
# Total GULP energy -178242.701473 kJ/mol
# GULP energy per Si atom -5570.084421 kJ/mol
# Density = 1.927568 g / cm^3
# Si number density = 19.319654 Si / 1000 Ang^3
#
#
#
# Elastic Constant Matrix: (Units=GPa)
#
#
# Indices 1 2 3 4 5 6 
#
# 1 51.5017 2.1922 13.6222 0.0000 18.5719 0.0000
# 2 2.1922 97.4099 4.9496 0.0000 -4.2838 0.0000
# 3 13.6222 4.9496 57.9835 0.0000 22.5958 0.0000
# 4 0.0000 0.0000 0.0000 -10.6363 0.0000 19.9540
# 5 18.5719 -4.2838 22.5958 0.0000 27.2539 0.0000
# 6 0.0000 0.0000 0.0000 19.9540 0.0000 -3.1633
#
#
#
# Elastic Compliance Matrix: (Units=1/GPa)
#
#
# Indices 1 2 3 4 5 6 
#
# 1 0.026009 -0.001506 0.001503 0.000000 -0.019207 0.000000
# 2 -0.001506 0.010625 -0.002369 0.000000 0.004661 0.000000
# 3 0.001503 -0.002369 0.026059 0.000000 -0.023002 0.000000
# 4 0.000000 0.000000 0.000000 0.008678 0.000000 0.054741
# 5 -0.019207 0.004661 -0.023002 0.000000 0.069583 0.000000
# 6 0.000000 0.000000 0.000000 0.054741 0.000000 0.029180
#
#
# Mechanical properties :
#
#
# Convention : Reuss Voigt Hill
#
# Bulk Modulus (GPa) = 17.25692 27.60254 22.42973
# Shear Modulus (GPa) = 25.74715 15.09960 20.42337
#
# Velocity S-wave (km/s) = 3.65457 2.79868 3.25488
# Velocity P-wave (km/s) = 5.17296 4.97612 5.07550
#
# Compressibility (1/GPa) = 0.05794777
#
# Stress axis : x y z
#
# Youngs Moduli (GPa) = 38.44751 94.11616 38.37435
#
# Poissons Ratio (x) = 0.14177 -0.05767
# Poissons Ratio (y) = 0.05791 0.09093
# Poissons Ratio (z) = -0.05778 0.22300
#
# Static dielectric constant tensor:
#      x y z
#    x 1.706190 0.000000 0.035850 
#    y 0.000000 1.703050 0.000000 
#    z 0.035850 0.000000 1.709330 
# 
# From -- ./inp_files/55692.got.cif
#   From: 2010.05.17/outbox.cif.g08.bks.cpg/sg10_28_cif.got.tgz:55692.got - 2010.06.03 11:33:40.
