data_PCOD9146948
_publ_section_title
;
Structure prediction by ZEFSAII (Michael W. Deem and Ramdas Pophale) SiO2 
 PCOD9146948
Probable space group: P 2/M
;
_chemical_formula_sum "Si O2"
_cell_formula_units_Z 28
_cell_length_a 19.108191
_cell_length_b 7.771985
_cell_length_c 13.482084
_cell_angle_alpha 90.000000
_cell_angle_beta 37.723676
_cell_angle_gamma 90.000000
_cell_volume 1225.057060
_symmetry_space_group_name_H-M "P 2/M"
_symmetry_group_IT_number 10
_symmetry_cell_setting 'monoclinic'
loop_
_space_group_symop_operation_xyz
x,y,z
-x,y,-z
-x,-y,-z
x,-y,z
loop_
_atom_site_type_symbol
_atom_site_label
_atom_site_fract_x
_atom_site_fract_y
_atom_site_fract_z
Si Si1 0.382579 0.208244 0.886066
Si Si2 0.565875 0.791849 0.827497
Si Si3 0.369092 0.789245 0.676590
Si Si4 0.025577 0.304331 0.207046
Si Si5 0.154174 0.200338 0.250575
Si Si6 0.828615 0.296647 0.546015
Si Si7 0.122261 0.804051 0.903156
O O1 0.500175 0.268260 0.802968
O O2 0.357218 0.270359 0.804236
O O3 0.387129 0.000000 0.873696
O O4 0.283955 0.247596 0.076049
O O5 0.696048 0.739187 0.683328
O O6 0.561660 0.000000 0.833913
O O7 0.500000 0.731647 0.000000
O O8 0.500000 0.741352 0.500000
O O9 0.252931 0.732010 0.747871
O O10 0.365303 0.000000 0.676916
O O11 0.021359 0.500000 0.174361
O O12 0.900277 0.230846 0.371319
O O13 0.079936 0.303081 0.255364
O O14 0.099203 0.198078 0.047259
O O15 0.133932 0.225047 0.389146
O O16 0.136985 0.000000 0.246550
O O17 0.847830 0.500000 0.527212
O O18 0.126043 0.000000 0.860559
O O19 0.000000 0.728751 0.000000
#
# Coordination Sequence:
#
# PCOD9146948 Si02
#       7
#     4   4   4   4   4   4   4
#     4   9  17  31  54  82 111 144 183 232 285 342
#     4  10  19  34  55  80 110 148 195 240 285 340
#     4   9  17  32  56  86 117 145 179 237 306 355
#     4  11  24  40  57  82 119 160 197 237 293 357
#     4  11  20  36  61  86 113 149 197 247 291 339
#     4  11  24  38  53  82 122 159 197 239 289 354
#     4  10  21  38  63  93 117 146 199 254 296 352
#
# _framework density 22.856078
#
# number of rings (size 3 to 8) (size 9 to 14) (size 15 to 20)
#    0.000    1.857    2.857    1.714    0.000    5.714 
#    0.000    2.857    0.000    0.429    0.000    0.000 
#    0.000    0.000    0.000    0.000    0.000    0.000 
#
# Total GULP energy -156228.076463 kJ/mol
# GULP energy per Si atom -5579.574159 kJ/mol
# Density = 2.280406 g / cm^3
# Si number density = 22.856078 Si / 1000 Ang^3
#
#
#
# Elastic Constant Matrix: (Units=GPa)
#
#
# Indices 1 2 3 4 5 6 
#
# 1 102.7952 7.2659 28.1024 0.0000 -35.9982 0.0000
# 2 7.2659 38.5171 6.0098 0.0000 -0.1674 0.0000
# 3 28.1024 6.0098 104.8663 0.0000 -27.5212 0.0000
# 4 0.0000 0.0000 0.0000 15.3647 0.0000 -5.1639
# 5 -35.9982 -0.1674 -27.5212 0.0000 39.1582 0.0000
# 6 0.0000 0.0000 0.0000 -5.1639 0.0000 15.8715
#
#
#
# Elastic Compliance Matrix: (Units=1/GPa)
#
#
# Indices 1 2 3 4 5 6 
#
# 1 0.014630 -0.002656 -0.000296 0.000000 0.013230 0.000000
# 2 -0.002656 0.026722 -0.001754 0.000000 -0.003560 0.000000
# 3 -0.000296 -0.001754 0.011823 0.000000 0.008030 0.000000
# 4 0.000000 0.000000 0.000000 0.073075 0.000000 0.023775
# 5 0.013230 -0.003560 0.008030 0.000000 0.043328 0.000000
# 6 0.000000 0.000000 0.000000 0.023775 0.000000 0.070741
#
#
# Mechanical properties :
#
#
# Convention : Reuss Voigt Hill
#
# Bulk Modulus (GPa) = 22.85093 36.54833 29.69963
# Shear Modulus (GPa) = 18.91661 27.73227 23.32444
#
# Velocity S-wave (km/s) = 2.87999 3.48709 3.19798
# Velocity P-wave (km/s) = 4.59114 5.67789 5.16319
#
# Compressibility (1/GPa) = 0.04376190
#
# Stress axis : x y z
#
# Youngs Moduli (GPa) = 68.35397 37.42276 84.57951
#
# Poissons Ratio (x) = 0.09940 0.02506
# Poissons Ratio (y) = 0.18155 0.14835
# Poissons Ratio (z) = 0.02026 0.06564
#
# Static dielectric constant tensor:
#      x y z
#    x 1.868950 0.000000 -0.049420 
#    y 0.000000 1.862220 0.000000 
#    z -0.049420 0.000000 1.899050 
# 
# From -- ./inp_files/70204.got.cif
#   From: 2010.05.17/outbox.cif.g08.bks.cpg/sg10_36_cif.got.tgz:70204.got - 2010.06.03 11:33:40.
