data_PCOD9146581
_publ_section_title
;
Structure prediction by ZEFSAII (Michael W. Deem and Ramdas Pophale) SiO2 
 PCOD9146581
Probable space group: P 2/M
;
_chemical_formula_sum "Si O2"
_cell_formula_units_Z 32
_cell_length_a 9.153033
_cell_length_b 22.955731
_cell_length_c 15.909486
_cell_angle_alpha 90.000000
_cell_angle_beta 148.641758
_cell_angle_gamma 90.000000
_cell_volume 1739.558697
_symmetry_space_group_name_H-M "P 2/M"
_symmetry_group_IT_number 10
_symmetry_cell_setting 'monoclinic'
loop_
_space_group_symop_operation_xyz
x,y,z
-x,y,-z
-x,-y,-z
x,-y,z
loop_
_atom_site_type_symbol
_atom_site_label
_atom_site_fract_x
_atom_site_fract_y
_atom_site_fract_z
Si Si1 0.324851 0.931432 0.992747
Si Si2 0.540214 0.265190 0.213045
Si Si3 0.878443 0.342480 0.262314
Si Si4 0.481284 0.568389 0.804284
Si Si5 0.338196 0.859561 0.165672
Si Si6 0.430418 0.354198 0.627320
Si Si7 0.658002 0.068861 0.664448
Si Si8 0.084054 0.346575 0.915269
O O1 0.992124 0.924680 0.814512
O O2 0.385220 0.000000 0.029084
O O3 0.500000 0.907457 0.000000
O O4 0.394241 0.902241 0.115214
O O5 0.749680 0.283649 0.240556
O O6 0.498257 0.199774 0.221931
O O7 0.639309 0.303129 0.340902
O O8 0.239915 0.292695 0.037165
O O9 0.723148 0.395282 0.234545
O O10 0.831314 0.345102 0.140428
O O11 0.205877 0.349969 0.443764
O O12 0.468505 0.500000 0.810132
O O13 0.408706 0.587595 0.673467
O O14 0.783470 0.596381 0.975658
O O15 0.414960 0.890459 0.291659
O O16 0.000000 0.848914 0.000000
O O17 0.751323 0.345905 0.758736
O O18 0.500000 0.083127 0.500000
O O19 0.605290 0.000000 0.657897
#
# Coordination Sequence:
#
# PCOD9146581 Si02
#       8
#     4   4   4   4   4   4   4   4
#     4   9  18  33  53  79 109 142 181 223 268 321
#     4  10  19  36  54  73 102 138 176 213 258 320
#     4  10  21  36  55  78 105 137 173 217 269 316
#     4  10  20  36  56  77 105 142 177 210 258 321
#     4  10  19  33  56  81 106 142 186 225 267 322
#     4  10  20  36  55  76 104 136 173 216 264 314
#     4   9  18  35  57  80 110 145 182 226 275 325
#     4  10  20  35  56  78 102 135 176 220 263 311
#
# _framework density 18.39547
#
# number of rings (size 3 to 8) (size 9 to 14) (size 15 to 20)
#    0.000    2.500    0.000    6.000    0.000    5.500 
#    0.000    6.875    0.000    5.250    0.000    0.000 
#    0.000    0.000    0.000    0.000    0.000    0.000 
#
# Total GULP energy -178472.397916 kJ/mol
# GULP energy per Si atom -5577.262435 kJ/mol
# Density = 1.835360 g / cm^3
# Si number density = 18.395470 Si / 1000 Ang^3
#
#
#
# Elastic Constant Matrix: (Units=GPa)
#
#
# Indices 1 2 3 4 5 6 
#
# 1 89.2345 41.9807 20.2991 0.0000 -13.9130 0.0000
# 2 41.9807 106.5392 39.5973 0.0000 -16.2536 0.0000
# 3 20.2991 39.5973 88.9602 0.0000 -13.6544 0.0000
# 4 0.0000 0.0000 0.0000 -1.8044 0.0000 -2.8146
# 5 -13.9130 -16.2536 -13.6544 0.0000 34.3068 0.0000
# 6 0.0000 0.0000 0.0000 -2.8146 0.0000 11.5727
#
#
#
# Elastic Compliance Matrix: (Units=1/GPa)
#
#
# Indices 1 2 3 4 5 6 
#
# 1 0.014123 -0.004867 -0.000566 0.000000 0.003197 0.000000
# 2 -0.004867 0.013346 -0.004433 0.000000 0.002585 0.000000
# 3 -0.000566 -0.004433 0.013831 0.000000 0.003175 0.000000
# 4 0.000000 0.000000 0.000000 -0.401776 0.000000 -0.097715
# 5 0.003197 0.002585 0.003175 0.000000 0.032933 0.000000
# 6 0.000000 0.000000 0.000000 -0.097715 0.000000 0.062645
#
#
# Mechanical properties :
#
#
# Convention : Reuss Voigt Hill
#
# Bulk Modulus (GPa) = 46.36500 54.27648 50.32074
# Shear Modulus (GPa) = -21.01051 21.00548 -0.00252
#
# Velocity S-wave (km/s) = -3.38325 3.38284 -0.03702
# Velocity P-wave (km/s) = 3.16188 6.69534 5.23570
#
# Compressibility (1/GPa) = 0.02156800
#
# Stress axis : x y z
#
# Youngs Moduli (GPa) = 70.80491 74.92826 72.30338
#
# Poissons Ratio (x) = 0.36470 0.04089
# Poissons Ratio (y) = 0.34463 0.32053
# Poissons Ratio (z) = 0.04004 0.33217
#
# Static dielectric constant tensor:
#      x y z
#    x 1.648010 0.000000 0.020590 
#    y 0.000000 1.616370 0.000000 
#    z 0.020590 0.000000 1.641430 
# 
# From -- ./inp_files/62717.got.cif
#   From: 2010.05.17/outbox.cif.g08.bks.cpg/sg10_32_cif.got.tgz:62717.got - 2010.06.03 11:33:40.
