data_PCOD9146550
_publ_section_title
;
Structure prediction by ZEFSAII (Michael W. Deem and Ramdas Pophale) SiO2 
 PCOD9146550
Probable space group: P 2/M
;
_chemical_formula_sum "Si O2"
_cell_formula_units_Z 30
_cell_length_a 26.105584
_cell_length_b 8.321625
_cell_length_c 17.546663
_cell_angle_alpha 90.000000
_cell_angle_beta 18.169074
_cell_angle_gamma 90.000000
_cell_volume 1188.619917
_symmetry_space_group_name_H-M "P 2/M"
_symmetry_group_IT_number 10
_symmetry_cell_setting 'monoclinic'
loop_
_space_group_symop_operation_xyz
x,y,z
-x,y,-z
-x,-y,-z
x,-y,z
loop_
_atom_site_type_symbol
_atom_site_label
_atom_site_fract_x
_atom_site_fract_y
_atom_site_fract_z
Si Si1 0.828405 0.814645 0.773109
Si Si2 0.780530 0.310145 0.003313
Si Si3 0.309283 0.815681 0.710669
Si Si4 0.158905 0.685720 0.502808
Si Si5 0.545093 0.500000 0.781316
Si Si6 0.409690 0.818498 0.035640
Si Si7 0.919816 0.818696 0.233429
Si Si8 0.296485 0.328546 0.579847
O O1 0.753297 0.734582 0.954233
O O2 0.708438 0.812402 0.871245
O O3 0.000000 0.740313 0.500000
O O4 0.862333 0.000000 0.746722
O O5 0.767259 0.500000 0.032261
O O6 0.973139 0.263520 0.743201
O O7 0.680917 0.234524 0.215094
O O8 0.384399 0.719497 0.533710
O O9 0.355415 0.000000 0.638145
O O10 0.115261 0.796845 0.962365
O O11 0.179578 0.500000 0.450051
O O12 0.288192 0.799949 0.279570
O O13 0.156207 0.695190 0.598420
O O14 0.579883 0.364654 0.663503
O O15 0.504113 0.648276 0.898197
O O16 0.484596 0.000000 0.929024
O O17 0.833504 0.791843 0.274568
O O18 0.886478 0.000000 0.306298
O O19 0.209303 0.500000 0.717550
#
# Coordination Sequence:
#
# PCOD9146550 Si02
#       8
#     4   4   4   4   2   4   4   4
#     4  10  20  33  56  89 124 152 185 230 286 355
#     4  10  20  31  53  91 126 157 181 224 290 365
#     4  10  20  35  59  87 122 151 184 237 298 363
#     4  10  19  33  55  85 126 157 188 231 290 359
#     4  10  26  44  59  83 112 156 210 261 281 337
#     4  11  22  39  62  85 118 161 197 240 293 348
#     4  10  20  34  57  91 120 149 188 235 300 365
#     4  10  22  39  57  79 107 150 197 251 292 332
#
# _framework density 25.239356999999998
#
# number of rings (size 3 to 8) (size 9 to 14) (size 15 to 20)
#    0.400    1.467    2.000    2.400    0.933    5.600 
#    0.000    1.333    0.000    3.200    0.000    2.800 
#    0.000    0.000    0.000    0.000    0.000    0.000 
#
# Total GULP energy -167228.131211 kJ/mol
# GULP energy per Si atom -5574.271040 kJ/mol
# Density = 2.518191 g / cm^3
# Si number density = 25.239357 Si / 1000 Ang^3
#
#
#
# Elastic Constant Matrix: (Units=GPa)
#
#
# Indices 1 2 3 4 5 6 
#
# 1 154.5065 11.4065 25.3236 0.0000 27.1916 0.0000
# 2 11.4065 106.1025 25.3886 0.0000 7.6536 0.0000
# 3 25.3236 25.3886 79.9467 0.0000 24.6214 0.0000
# 4 0.0000 0.0000 0.0000 57.3273 0.0000 -4.9482
# 5 27.1916 7.6536 24.6214 0.0000 46.0169 0.0000
# 6 0.0000 0.0000 0.0000 -4.9482 0.0000 46.3168
#
#
#
# Elastic Compliance Matrix: (Units=1/GPa)
#
#
# Indices 1 2 3 4 5 6 
#
# 1 0.007322 -0.000257 -0.001099 0.000000 -0.003695 0.000000
# 2 -0.000257 0.010209 -0.003214 0.000000 0.000174 0.000000
# 3 -0.001099 -0.003214 0.016178 0.000000 -0.007472 0.000000
# 4 0.000000 0.000000 0.000000 0.017606 0.000000 0.001881
# 5 -0.003695 0.000174 -0.007472 0.000000 0.027884 0.000000
# 6 0.000000 0.000000 0.000000 0.001881 0.000000 0.021791
#
#
# Mechanical properties :
#
#
# Convention : Reuss Voigt Hill
#
# Bulk Modulus (GPa) = 40.70423 51.64367 46.17395
# Shear Modulus (GPa) = 42.25774 48.49466 45.37620
#
# Velocity S-wave (km/s) = 4.09624 4.38812 4.24469
# Velocity P-wave (km/s) = 6.20762 6.79560 6.50825
#
# Compressibility (1/GPa) = 0.02456747
#
# Stress axis : x y z
#
# Youngs Moduli (GPa) = 136.57891 97.95223 61.81069
#
# Poissons Ratio (x) = 0.02522 0.06795
# Poissons Ratio (y) = 0.03517 0.19866
# Poissons Ratio (z) = 0.15015 0.31482
#
# Static dielectric constant tensor:
#      x y z
#    x 2.000490 0.000000 -0.059580 
#    y 0.000000 1.943690 0.000000 
#    z -0.059580 0.000000 2.061830 
# 
# From -- ./inp_files/80722.got.cif
#   From: 2010.05.17/outbox.cif.g08.bks.cpg/sg10_41_cif.got.tgz:80722.got - 2010.06.03 11:33:40.
