data_PCOD9147761
_publ_section_title
;
Structure prediction by ZEFSAII (Michael W. Deem and Ramdas Pophale) SiO2 
 PCOD9147761
Probable space group: P 2/M
;
_chemical_formula_sum "Si O2"
_cell_formula_units_Z 20
_cell_length_a 20.094918
_cell_length_b 8.508445
_cell_length_c 14.820195
_cell_angle_alpha 90.000000
_cell_angle_beta 20.434582
_cell_angle_gamma 90.000000
_cell_volume 884.681809
_symmetry_space_group_name_H-M "P 2/M"
_symmetry_group_IT_number 10
_symmetry_cell_setting 'monoclinic'
loop_
_space_group_symop_operation_xyz
x,y,z
-x,y,-z
-x,-y,-z
x,-y,z
loop_
_atom_site_type_symbol
_atom_site_label
_atom_site_fract_x
_atom_site_fract_y
_atom_site_fract_z
Si Si1 0.081173 0.311244 0.656485
Si Si2 0.790652 0.309834 0.877850
Si Si3 0.509535 0.680064 0.388273
Si Si4 0.498764 0.187943 0.896403
Si Si5 0.157783 0.175931 0.873157
O O1 0.078939 0.500000 0.664237
O O2 0.296632 0.252158 0.398718
O O3 0.991538 0.266730 0.671051
O O4 0.935425 0.244249 0.916995
O O5 0.790349 0.500000 0.870606
O O6 0.637514 0.253043 0.147694
O O7 0.692219 0.247536 0.911841
O O8 0.500000 0.753822 0.500000
O O9 0.571950 0.500000 0.318806
O O10 0.289058 0.699689 0.651822
O O11 0.501866 0.000000 0.885300
O O12 0.500000 0.234181 0.000000
O O13 0.238831 0.000000 0.786737
O O14 0.000000 0.152205 0.000000
#
# Coordination Sequence:
#
# PCOD9147761 Si02
#       5
#     4   4   4   4   4
#     4  11  23  42  67  94 124 163 213 263 314 373
#     4  10  22  41  67  96 126 166 213 262 312 367
#     4  10  19  36  58  85 123 161 202 248 297 357
#     4  11  26  46  66  92 127 164 205 261 327 385
#     4  11  23  36  54  87 127 167 209 251 303 367
#
# _framework density 22.606999999999999
#
# number of rings (size 3 to 8) (size 9 to 14) (size 15 to 20)
#    0.000    1.400    2.000    3.000    0.000   10.000 
#    0.000    4.000    0.000    0.000    0.000    0.000 
#    0.000    0.000    0.000    0.000    0.000    0.000 
#
# Total GULP energy -111378.424243 kJ/mol
# GULP energy per Si atom -5568.921212 kJ/mol
# Density = 2.255555 g / cm^3
# Si number density = 22.607000 Si / 1000 Ang^3
#
#
#
# Elastic Constant Matrix: (Units=GPa)
#
#
# Indices 1 2 3 4 5 6 
#
# 1 123.9430 28.7161 -7.5808 0.0000 -8.7025 0.0000
# 2 28.7161 40.8977 -3.0133 0.0000 -2.9164 0.0000
# 3 -7.5808 -3.0133 35.1326 0.0000 5.8426 0.0000
# 4 0.0000 0.0000 0.0000 7.0113 0.0000 4.6501
# 5 -8.7025 -2.9164 5.8426 0.0000 35.0119 0.0000
# 6 0.0000 0.0000 0.0000 4.6501 0.0000 17.5232
#
#
#
# Elastic Compliance Matrix: (Units=1/GPa)
#
#
# Indices 1 2 3 4 5 6 
#
# 1 0.009810 -0.006675 0.001266 0.000000 0.001671 0.000000
# 2 -0.006675 0.029253 0.000966 0.000000 0.000616 0.000000
# 3 0.001266 0.000966 0.029575 0.000000 -0.004540 0.000000
# 4 0.000000 0.000000 0.000000 0.173092 0.000000 -0.045933
# 5 0.001671 0.000616 -0.004540 0.000000 0.029786 0.000000
# 6 0.000000 0.000000 0.000000 -0.045933 0.000000 0.069257
#
#
# Mechanical properties :
#
#
# Convention : Reuss Voigt Hill
#
# Bulk Modulus (GPa) = 16.73586 26.24636 21.49111
# Shear Modulus (GPa) = 13.52906 24.03271 18.78089
#
# Velocity S-wave (km/s) = 2.44897 3.26401 2.88541
# Velocity P-wave (km/s) = 3.92627 5.08331 4.54179
#
# Compressibility (1/GPa) = 0.05975194
#
# Stress axis : x y z
#
# Youngs Moduli (GPa) = 101.94110 34.18405 33.81273
#
# Poissons Ratio (x) = 0.22819 -0.04282
# Poissons Ratio (y) = 0.68049 -0.03267
# Poissons Ratio (z) = -0.12909 -0.03303
#
# Static dielectric constant tensor:
#      x y z
#    x 1.966360 0.000000 -0.061460 
#    y 0.000000 1.830820 0.000000 
#    z -0.061460 0.000000 1.889410 
# 
# From -- ./inp_files/31430.got.cif
#   From: 2010.05.17/outbox.cif.g08.bks.cpg/sg10_16_cif.got.tgz:31430.got - 2010.06.03 11:33:40.
