data_PCOD9147989
_publ_section_title
;
Structure prediction by ZEFSAII (Michael W. Deem and Ramdas Pophale) SiO2 
 PCOD9147989
Probable space group: P 2/M
;
_chemical_formula_sum "Si O2"
_cell_formula_units_Z 29
_cell_length_a 12.282974
_cell_length_b 8.864712
_cell_length_c 17.910712
_cell_angle_alpha 90.000000
_cell_angle_beta 52.486465
_cell_angle_gamma 90.000000
_cell_volume 1546.923818
_symmetry_space_group_name_H-M "P 2/M"
_symmetry_group_IT_number 10
_symmetry_cell_setting 'monoclinic'
loop_
_space_group_symop_operation_xyz
x,y,z
-x,y,-z
-x,-y,-z
x,-y,z
loop_
_atom_site_type_symbol
_atom_site_label
_atom_site_fract_x
_atom_site_fract_y
_atom_site_fract_z
Si Si1 0.842569 0.679598 0.092064
Si Si2 0.128205 0.683518 0.749858
Si Si3 0.639478 0.320199 0.781201
Si Si4 0.646447 0.179239 0.051204
Si Si5 0.817823 0.318278 0.845382
Si Si6 0.282191 0.165933 0.405056
Si Si7 0.651527 0.317790 0.465552
Si Si8 0.000000 0.000000 0.500000
O O1 0.811333 0.500000 0.099517
O O2 0.832499 0.727898 0.182482
O O3 0.742387 0.769060 0.079804
O O4 0.000000 0.698481 0.000000
O O5 0.127018 0.500000 0.750389
O O6 0.236302 0.732290 0.642442
O O7 0.973522 0.732335 0.795261
O O8 0.623595 0.500000 0.785716
O O9 0.503050 0.248336 0.872842
O O10 0.765111 0.282982 0.784464
O O11 0.666822 0.257475 0.687712
O O12 0.638383 0.000000 0.049979
O O13 0.716777 0.244994 0.947605
O O14 0.812733 0.500000 0.857357
O O15 0.315428 0.247959 0.468207
O O16 0.350829 0.000000 0.375866
O O17 0.120531 0.129028 0.464027
O O18 0.500000 0.277406 0.500000
O O19 0.657655 0.500000 0.468560
#
# Coordination Sequence:
#
# PCOD9147989 Si02
#       8
#     4   4   4   4   4   4   4   1
#     4  10  19  37  64  87 118 164 213 263 314 367
#     4   9  19  36  61  91 121 159 206 265 318 359
#     4  11  24  41  67  94 123 164 213 262 308 371
#     4  12  25  39  58  90 132 168 203 255 316 383
#     4  10  21  40  63  89 119 161 217 262 308 369
#     4  10  23  43  65  91 128 168 208 255 326 384
#     4  10  22  40  64  96 130 164 218 276 320 375
#     4   8  24  44  64  88 134 172 202 262 320 390
#
# _framework density 18.746881999999999
#
# number of rings (size 3 to 8) (size 9 to 14) (size 15 to 20)
#    0.414    1.379    1.379    2.483    3.862    3.310 
#    0.000    2.069    0.000    0.000    0.000    0.000 
#    0.000    0.000    0.000    0.000    0.000    0.000 
#
# Total GULP energy -161676.343497 kJ/mol
# GULP energy per Si atom -5575.046327 kJ/mol
# Density = 1.870421 g / cm^3
# Si number density = 18.746882 Si / 1000 Ang^3
#
#
#
# Elastic Constant Matrix: (Units=GPa)
#
#
# Indices 1 2 3 4 5 6 
#
# 1 71.0038 31.0448 54.3032 0.0000 6.6252 0.0000
# 2 31.0448 42.5439 38.6470 0.0000 6.9506 0.0000
# 3 54.3032 38.6470 147.0732 0.0000 21.7536 0.0000
# 4 0.0000 0.0000 0.0000 -6.8744 0.0000 -7.6846
# 5 6.6252 6.9506 21.7536 0.0000 32.0215 0.0000
# 6 0.0000 0.0000 0.0000 -7.6846 0.0000 4.5800
#
#
#
# Elastic Compliance Matrix: (Units=1/GPa)
#
#
# Indices 1 2 3 4 5 6 
#
# 1 0.023742 -0.012361 -0.005768 0.000000 0.001689 0.000000
# 2 -0.012361 0.037362 -0.004927 0.000000 -0.002205 0.000000
# 3 -0.005768 -0.004927 0.010994 0.000000 -0.005206 0.000000
# 4 0.000000 0.000000 0.000000 -0.050586 0.000000 -0.084877
# 5 0.001689 -0.002205 -0.005206 0.000000 0.034894 0.000000
# 6 0.000000 0.000000 0.000000 -0.084877 0.000000 0.075928
#
#
# Mechanical properties :
#
#
# Convention : Reuss Voigt Hill
#
# Bulk Modulus (GPa) = 38.48483 56.51231 47.49857
# Shear Modulus (GPa) = 26.72237 15.05379 20.88808
#
# Velocity S-wave (km/s) = 3.77958 2.83680 3.34161
# Velocity P-wave (km/s) = 6.29446 6.39846 6.34667
#
# Compressibility (1/GPa) = 0.02598426
#
# Stress axis : x y z
#
# Youngs Moduli (GPa) = 42.11946 26.76538 90.96098
#
# Poissons Ratio (x) = 0.33086 0.52464
# Poissons Ratio (y) = 0.52065 0.44821
# Poissons Ratio (z) = 0.24294 0.13189
#
# Static dielectric constant tensor:
#      x y z
#    x 1.636960 0.000000 0.003400 
#    y 0.000000 1.636880 0.000000 
#    z 0.003400 0.000000 1.626970 
# 
# From -- ./inp_files/63708.got.cif
#   From: 2010.05.17/outbox.cif.g08.bks.cpg/sg10_32_cif.got.tgz:63708.got - 2010.06.03 11:33:40.
