data_PCOD9147115
_publ_section_title
;
Structure prediction by ZEFSAII (Michael W. Deem and Ramdas Pophale) SiO2 
 PCOD9147115
Probable space group: P 2/M
;
_chemical_formula_sum "Si O2"
_cell_formula_units_Z 28
_cell_length_a 17.970428
_cell_length_b 14.805512
_cell_length_c 9.483062
_cell_angle_alpha 90.000000
_cell_angle_beta 143.012564
_cell_angle_gamma 90.000000
_cell_volume 1517.983526
_symmetry_space_group_name_H-M "P 2/M"
_symmetry_group_IT_number 10
_symmetry_cell_setting 'monoclinic'
loop_
_space_group_symop_operation_xyz
x,y,z
-x,y,-z
-x,-y,-z
x,-y,z
loop_
_atom_site_type_symbol
_atom_site_label
_atom_site_fract_x
_atom_site_fract_y
_atom_site_fract_z
Si Si1 0.401449 0.336718 0.142421
Si Si2 0.630965 0.403698 0.356486
Si Si3 0.586756 0.176859 0.511886
Si Si4 0.991089 0.393286 0.657257
Si Si5 0.366631 0.894626 0.726479
Si Si6 0.756364 0.727958 0.341378
Si Si7 0.255292 0.658720 0.182160
O O1 0.487711 0.401404 0.182660
O O2 0.495225 0.257020 0.324616
O O3 0.346384 0.379237 0.199431
O O4 0.291528 0.292175 0.887801
O O5 0.664311 0.500000 0.343813
O O6 0.660245 0.323042 0.297296
O O7 0.711203 0.386102 0.618610
O O8 0.500000 0.129632 0.500000
O O9 0.621842 0.122795 0.424423
O O10 0.705455 0.234526 0.747502
O O11 0.966457 0.500000 0.650146
O O12 0.000000 0.385494 0.500000
O O13 0.885012 0.324865 0.549983
O O14 0.118288 0.363044 0.923705
O O15 0.262106 0.831008 0.638724
O O16 0.343083 0.000000 0.716752
O O17 0.500000 0.871802 0.000000
#
# Coordination Sequence:
#
# PCOD9147115 Si02
#       7
#     4   4   4   4   4   4   4
#     4  10  19  34  57  81 116 155 186 234 290 354
#     4  11  22  33  53  85 116 151 190 238 294 345
#     4   9  18  35  60  87 119 153 190 234 298 352
#     4  11  24  39  58  83 113 161 211 243 276 336
#     4  11  21  37  64  94 121 150 187 239 302 361
#     4  12  21  39  57  81 122 152 188 243 291 345
#     4  10  20  38  57  80 114 158 197 239 282 333
#
# _framework density 18.445523000000001
#
# number of rings (size 3 to 8) (size 9 to 14) (size 15 to 20)
#    0.000    1.429    5.714    2.571    0.000    4.286 
#    0.000    1.429    0.000    2.143    0.000    0.000 
#    0.000    0.000    0.000    0.000    0.000    0.000 
#
# Total GULP energy -156114.093315 kJ/mol
# GULP energy per Si atom -5575.503333 kJ/mol
# Density = 1.840354 g / cm^3
# Si number density = 18.445523 Si / 1000 Ang^3
#
#
#
# Elastic Constant Matrix: (Units=GPa)
#
#
# Indices 1 2 3 4 5 6 
#
# 1 52.5807 32.3289 20.6569 0.0000 1.9417 0.0000
# 2 32.3289 95.6909 28.3771 0.0000 10.0608 0.0000
# 3 20.6569 28.3771 98.1478 0.0000 10.9177 0.0000
# 4 0.0000 0.0000 0.0000 14.5500 0.0000 2.4699
# 5 1.9417 10.0608 10.9177 0.0000 31.5371 0.0000
# 6 0.0000 0.0000 0.0000 2.4699 0.0000 17.3538
#
#
#
# Elastic Compliance Matrix: (Units=1/GPa)
#
#
# Indices 1 2 3 4 5 6 
#
# 1 0.024942 -0.007675 -0.003257 0.000000 0.002040 0.000000
# 2 -0.007675 0.014001 -0.002068 0.000000 -0.003278 0.000000
# 3 -0.003257 -0.002068 0.011832 0.000000 -0.003236 0.000000
# 4 0.000000 0.000000 0.000000 0.070430 0.000000 -0.010024
# 5 0.002040 -0.003278 -0.003236 0.000000 0.033749 0.000000
# 6 0.000000 0.000000 0.000000 -0.010024 0.000000 0.059051
#
#
# Mechanical properties :
#
#
# Convention : Reuss Voigt Hill
#
# Bulk Modulus (GPa) = 40.36478 45.46059 42.91269
# Shear Modulus (GPa) = 20.13983 23.69194 21.91589
#
# Velocity S-wave (km/s) = 3.30791 3.58778 3.45068
# Velocity P-wave (km/s) = 6.04321 6.47010 6.26030
#
# Compressibility (1/GPa) = 0.02477407
#
# Stress axis : x y z
#
# Youngs Moduli (GPa) = 40.09353 71.42203 84.51535
#
# Poissons Ratio (x) = 0.54817 0.27529
# Poissons Ratio (y) = 0.30772 0.17479
# Poissons Ratio (z) = 0.13060 0.14771
#
# Static dielectric constant tensor:
#      x y z
#    x 1.689890 0.000000 -0.025450 
#    y 0.000000 1.634690 0.000000 
#    z -0.025450 0.000000 1.659990 
# 
# From -- ./inp_files/32838.got.cif
#   From: 2010.05.17/outbox.cif.g08.bks.cpg/sg10_17_cif.got.tgz:32838.got - 2010.06.03 11:33:40.
