data_PCOD9147047
_publ_section_title
;
Structure prediction by ZEFSAII (Michael W. Deem and Ramdas Pophale) SiO2 
 PCOD9147047
Probable space group: P 2/M
;
_chemical_formula_sum "Si O2"
_cell_formula_units_Z 32
_cell_length_a 30.443206
_cell_length_b 9.635638
_cell_length_c 10.737100
_cell_angle_alpha 90.000000
_cell_angle_beta 147.601708
_cell_angle_gamma 90.000000
_cell_volume 1687.570351
_symmetry_space_group_name_H-M "P 2/M"
_symmetry_group_IT_number 10
_symmetry_cell_setting 'monoclinic'
loop_
_space_group_symop_operation_xyz
x,y,z
-x,y,-z
-x,-y,-z
x,-y,z
loop_
_atom_site_type_symbol
_atom_site_label
_atom_site_fract_x
_atom_site_fract_y
_atom_site_fract_z
Si Si1 0.645580 0.154392 0.401285
Si Si2 0.523092 0.335656 0.245790
Si Si3 0.225608 0.841267 0.062516
Si Si4 0.646585 0.337367 0.049451
Si Si5 0.069223 0.664057 0.770650
Si Si6 0.350508 0.659668 0.229065
Si Si7 0.771960 0.836191 0.479384
Si Si8 0.069610 0.663664 0.061651
O O1 0.574319 0.261701 0.260880
O O2 0.708283 0.156233 0.667633
O O3 0.704823 0.180373 0.427796
O O4 0.610102 0.000000 0.305195
O O5 0.520857 0.500000 0.218129
O O6 0.576545 0.311267 0.499426
O O7 0.430814 0.288832 0.053587
O O8 0.273833 0.759431 0.070665
O O9 0.205195 0.000000 0.980972
O O10 0.146933 0.757574 0.921470
O O11 0.663069 0.500000 0.118232
O O12 0.727600 0.246486 0.262568
O O13 0.620743 0.329863 0.843648
O O14 0.090445 0.500000 0.814386
O O15 0.000000 0.689444 0.500000
O O16 0.044529 0.690706 0.856684
O O17 0.324413 0.500000 0.189348
O O18 0.854349 0.761010 0.720630
O O19 0.784235 0.000000 0.485648
O O20 0.093008 0.500000 0.123591
O O21 0.000000 0.685167 0.000000
#
# Coordination Sequence:
#
# PCOD9147047 Si02
#       8
#     4   4   4   4   4   4   4   4
#     4   9  19  35  54  77 109 148 188 232 280 332
#     4   9  18  33  56  83 109 145 193 242 288 334
#     4  10  19  34  56  82 111 144 187 231 276 333
#     4  10  21  36  54  81 116 151 192 241 287 339
#     4  10  21  37  59  87 116 147 187 236 290 347
#     4   9  18  34  56  80 110 149 190 235 288 339
#     4  11  23  39  58  81 113 153 193 232 282 344
#     4  10  22  41  64  88 116 152 193 238 291 350
#
# _framework density 18.962171999999999
#
# number of rings (size 3 to 8) (size 9 to 14) (size 15 to 20)
#    0.000    2.250    1.250    1.125    0.000    6.000 
#    0.000    5.000    0.000    3.750    0.000    0.000 
#    0.000    0.000    0.000    0.000    0.000    0.000 
#
# Total GULP energy -178495.708564 kJ/mol
# GULP energy per Si atom -5577.990893 kJ/mol
# Density = 1.891901 g / cm^3
# Si number density = 18.962172 Si / 1000 Ang^3
#
#
#
# Elastic Constant Matrix: (Units=GPa)
#
#
# Indices 1 2 3 4 5 6 
#
# 1 69.2749 48.3221 41.7674 0.0000 10.5248 0.0000
# 2 48.3221 80.5471 68.7437 0.0000 15.4296 0.0000
# 3 41.7674 68.7437 96.0333 0.0000 5.8078 0.0000
# 4 0.0000 0.0000 0.0000 -33.7359 0.0000 -16.7369
# 5 10.5248 15.4296 5.8078 0.0000 21.2047 0.0000
# 6 0.0000 0.0000 0.0000 -16.7369 0.0000 10.3521
#
#
#
# Elastic Compliance Matrix: (Units=1/GPa)
#
#
# Indices 1 2 3 4 5 6 
#
# 1 0.024897 -0.013905 -0.000751 0.000000 -0.002033 0.000000
# 2 -0.013905 0.047378 -0.026641 0.000000 -0.020276 0.000000
# 3 -0.000751 -0.026641 0.029097 0.000000 0.011789 0.000000
# 4 0.000000 0.000000 0.000000 -0.016449 0.000000 -0.026593
# 5 -0.002033 -0.020276 0.011789 0.000000 0.059694 0.000000
# 6 0.000000 0.000000 0.000000 -0.026593 0.000000 0.053603
#
#
# Mechanical properties :
#
#
# Convention : Reuss Voigt Hill
#
# Bulk Modulus (GPa) = 53.25627 62.61352 57.93490
# Shear Modulus (GPa) = 17.41700 5.36563 11.39131
#
# Velocity S-wave (km/s) = 3.03399 1.68398 2.45366
# Velocity P-wave (km/s) = 6.35767 6.07231 6.21663
#
# Compressibility (1/GPa) = 0.01877713
#
# Stress axis : x y z
#
# Youngs Moduli (GPa) = 40.16586 21.10666 34.36742
#
# Poissons Ratio (x) = 0.29350 0.02582
# Poissons Ratio (y) = 0.55852 0.91558
# Poissons Ratio (z) = 0.03018 0.56230
#
# Static dielectric constant tensor:
#      x y z
#    x 1.672530 0.000000 -0.033240 
#    y 0.000000 1.651120 0.000000 
#    z -0.033240 0.000000 1.638570 
# 
# From -- ./inp_files/58229.got.cif
#   From: 2010.05.17/outbox.cif.g08.bks.cpg/sg10_30_cif.got.tgz:58229.got - 2010.06.03 11:33:40.
