data_PCOD9147434
_publ_section_title
;
Structure prediction by ZEFSAII (Michael W. Deem and Ramdas Pophale) SiO2 
 PCOD9147434
Probable space group: P 2/M
;
_chemical_formula_sum "Si O2"
_cell_formula_units_Z 26
_cell_length_a 8.776364
_cell_length_b 11.786860
_cell_length_c 18.629659
_cell_angle_alpha 90.000000
_cell_angle_beta 137.067165
_cell_angle_gamma 90.000000
_cell_volume 1312.666498
_symmetry_space_group_name_H-M "P 2/M"
_symmetry_group_IT_number 10
_symmetry_cell_setting 'monoclinic'
loop_
_space_group_symop_operation_xyz
x,y,z
-x,y,-z
-x,-y,-z
x,-y,z
loop_
_atom_site_type_symbol
_atom_site_label
_atom_site_fract_x
_atom_site_fract_y
_atom_site_fract_z
Si Si1 0.773252 0.000000 0.113349
Si Si2 0.430316 0.000000 0.813347
Si Si3 0.733388 0.000000 0.407286
Si Si4 0.666623 0.633625 0.995823
Si Si5 0.734728 0.750169 0.405135
Si Si6 0.931386 0.775935 0.818200
Si Si7 0.604696 0.632112 0.614592
Si Si8 0.583697 0.772093 0.828707
O O1 0.915879 0.111768 0.139946
O O2 0.766150 0.000000 0.197487
O O3 0.500000 0.000000 0.000000
O O4 0.349740 0.000000 0.703440
O O5 0.572691 0.887012 0.870716
O O6 0.668403 0.875843 0.414058
O O7 0.000000 0.000000 0.500000
O O8 0.647514 0.500000 0.989557
O O9 0.625969 0.676611 0.901395
O O10 0.500000 0.680661 0.000000
O O11 0.907523 0.675149 0.102503
O O12 0.597713 0.655376 0.399780
O O13 0.648053 0.751044 0.293314
O O14 0.000000 0.736969 0.500000
O O15 0.791722 0.724699 0.702684
O O16 0.761361 0.790424 0.826351
O O17 0.500000 0.650266 0.500000
O O18 0.680794 0.500000 0.645954
#
# Coordination Sequence:
#
# PCOD9147434 Si02
#       8
#     2   2   2   4   4   4   4   4
#     4  12  25  40  64  96 126 154 198 251 307 375
#     4  10  19  35  56  83 118 149 184 237 297 353
#     4   8  16  31  53  83 113 147 188 236 294 350
#     4  11  24  40  59  85 116 154 202 252 302 357
#     4   9  19  36  60  87 119 157 202 253 302 360
#     4  11  23  41  63  89 122 160 200 248 307 368
#     4  10  23  41  60  86 122 163 207 253 302 357
#     4  10  21  37  60  87 119 157 200 246 302 367
#
# _framework density 19.807013000000001
#
# number of rings (size 3 to 8) (size 9 to 14) (size 15 to 20)
#    0.000    1.846    0.000    3.692    0.000   10.769 
#    0.000    4.615    0.000    0.000    0.000    0.000 
#    0.000    0.000    0.000    0.000    0.000    0.000 
#
# Total GULP energy -144891.834171 kJ/mol
# GULP energy per Si atom -5572.762853 kJ/mol
# Density = 1.976193 g / cm^3
# Si number density = 19.807013 Si / 1000 Ang^3
#
#
#
# Elastic Constant Matrix: (Units=GPa)
#
#
# Indices 1 2 3 4 5 6 
#
# 1 71.0838 37.3844 31.6116 0.0000 1.9780 0.0000
# 2 37.3844 105.8090 48.3993 0.0000 -6.3626 0.0000
# 3 31.6116 48.3993 115.8933 0.0000 10.3975 0.0000
# 4 0.0000 0.0000 0.0000 21.9931 0.0000 -1.0260
# 5 1.9780 -6.3626 10.3975 0.0000 24.3307 0.0000
# 6 0.0000 0.0000 0.0000 -1.0260 0.0000 51.7539
#
#
#
# Elastic Compliance Matrix: (Units=1/GPa)
#
#
# Indices 1 2 3 4 5 6 
#
# 1 0.018045 -0.005320 -0.002541 0.000000 -0.001772 0.000000
# 2 -0.005320 0.013960 -0.004934 0.000000 0.006192 0.000000
# 3 -0.002541 -0.004934 0.011937 0.000000 -0.006185 0.000000
# 4 0.000000 0.000000 0.000000 0.045511 0.000000 0.000902
# 5 -0.001772 0.006192 -0.006185 0.000000 0.045507 0.000000
# 6 0.000000 0.000000 0.000000 0.000902 0.000000 0.019340
#
#
# Mechanical properties :
#
#
# Convention : Reuss Voigt Hill
#
# Bulk Modulus (GPa) = 54.49190 58.61963 56.55576
# Shear Modulus (GPa) = 26.88043 31.30827 29.09435
#
# Velocity S-wave (km/s) = 3.68790 3.98007 3.83677
# Velocity P-wave (km/s) = 6.76057 7.12607 6.94573
#
# Compressibility (1/GPa) = 0.01835135
#
# Stress axis : x y z
#
# Youngs Moduli (GPa) = 55.41645 71.63317 83.76976
#
# Poissons Ratio (x) = 0.38107 0.21290
# Poissons Ratio (y) = 0.29480 0.41336
# Poissons Ratio (z) = 0.14084 0.35347
#
# Static dielectric constant tensor:
#      x y z
#    x 1.770160 0.000000 0.003270 
#    y 0.000000 1.749410 0.000000 
#    z 0.003270 0.000000 1.697700 
# 
# From -- ./inp_files/37629.got.cif
#   From: 2010.05.17/outbox.cif.g08.bks.cpg/sg10_19_cif.got.tgz:37629.got - 2010.06.03 11:33:40.
