data_PCOD9147266
_publ_section_title
;
Structure prediction by ZEFSAII (Michael W. Deem and Ramdas Pophale) SiO2 
 PCOD9147266
Probable space group: P 2/M
;
_chemical_formula_sum "Si O2"
_cell_formula_units_Z 30
_cell_length_a 7.604201
_cell_length_b 13.032470
_cell_length_c 12.857790
_cell_angle_alpha 90.000000
_cell_angle_beta 83.840442
_cell_angle_gamma 90.000000
_cell_volume 1266.870374
_symmetry_space_group_name_H-M "P 2/M"
_symmetry_group_IT_number 10
_symmetry_cell_setting 'monoclinic'
loop_
_space_group_symop_operation_xyz
x,y,z
-x,y,-z
-x,-y,-z
x,-y,z
loop_
_atom_site_type_symbol
_atom_site_label
_atom_site_fract_x
_atom_site_fract_y
_atom_site_fract_z
Si Si1 0.200373 0.108869 0.337427
Si Si2 0.600912 0.614252 0.105730
Si Si3 0.392922 0.111032 0.648606
Si Si4 0.500000 0.284177 0.500000
Si Si5 0.852089 0.331529 0.588471
Si Si6 0.220083 0.388573 0.182974
Si Si7 0.760883 0.832122 0.119625
Si Si8 0.171735 0.167016 0.106689
O O1 0.395429 0.104203 0.371102
O O2 0.113678 0.210486 0.387951
O O3 0.235402 0.124824 0.212201
O O4 0.107899 0.000000 0.359586
O O5 0.678537 0.500000 0.109080
O O6 0.430454 0.621750 0.191191
O O7 0.726227 0.709473 0.120228
O O8 0.500000 0.622652 0.000000
O O9 0.371448 0.213017 0.581569
O O10 0.334764 0.126016 0.772072
O O11 0.321660 0.000000 0.616874
O O12 0.650404 0.342048 0.557973
O O13 0.870529 0.381906 0.700082
O O14 0.000000 0.368253 0.500000
O O15 0.189385 0.500000 0.136077
O O16 0.172170 0.290894 0.116947
O O17 0.966100 0.861089 0.115038
O O18 0.720394 0.864415 0.002752
#
# Coordination Sequence:
#
# PCOD9147266 Si02
#       8
#     4   4   4   2   4   4   4   4
#     4   9  20  39  58  83 116 149 194 243 286 349
#     4  10  19  34  59  84 107 146 191 234 284 340
#     4  10  22  38  60  86 114 154 198 241 294 340
#     4  10  21  40  63  86 122 152 197 260 285 350
#     4  10  22  39  63  90 116 156 199 238 307 352
#     4  10  21  40  61  85 118 149 190 242 290 352
#     4  11  22  35  56  85 120 152 193 239 288 346
#     4  10  22  36  54  85 120 156 187 234 292 350
#
# _framework density 23.680402999999998
#
# number of rings (size 3 to 8) (size 9 to 14) (size 15 to 20)
#    0.000    2.000    1.333    2.600    3.733    2.667 
#    0.000    4.333    0.000    0.000    0.000    0.000 
#    0.000    0.000    0.000    0.000    0.000    0.000 
#
# Total GULP energy -167388.367569 kJ/mol
# GULP energy per Si atom -5579.612252 kJ/mol
# Density = 2.362651 g / cm^3
# Si number density = 23.680403 Si / 1000 Ang^3
#
#
#
# Elastic Constant Matrix: (Units=GPa)
#
#
# Indices 1 2 3 4 5 6 
#
# 1 33.6832 -1.3155 5.5246 0.0000 -12.3213 0.0000
# 2 -1.3155 69.5187 -11.5557 0.0000 -2.5061 0.0000
# 3 5.5246 -11.5557 129.4124 0.0000 -26.1450 0.0000
# 4 0.0000 0.0000 0.0000 1.2284 0.0000 -7.7621
# 5 -12.3213 -2.5061 -26.1450 0.0000 33.2200 0.0000
# 6 0.0000 0.0000 0.0000 -7.7621 0.0000 24.9020
#
#
#
# Elastic Compliance Matrix: (Units=1/GPa)
#
#
# Indices 1 2 3 4 5 6 
#
# 1 0.034674 0.001417 0.001505 0.000000 0.014152 0.000000
# 2 0.001417 0.014840 0.001899 0.000000 0.003139 0.000000
# 3 0.001505 0.001899 0.009482 0.000000 0.008164 0.000000
# 4 0.000000 0.000000 0.000000 -0.839590 0.000000 -0.261704
# 5 0.014152 0.003139 0.008164 0.000000 0.042014 0.000000
# 6 0.000000 0.000000 0.000000 -0.261704 0.000000 -0.041417
#
#
# Mechanical properties :
#
#
# Convention : Reuss Voigt Hill
#
# Bulk Modulus (GPa) = 14.56926 24.21346 19.39136
# Shear Modulus (GPa) = -6.52094 27.86747 10.67326
#
# Velocity S-wave (km/s) = -1.66124 3.43420 2.12532
# Velocity P-wave (km/s) = 1.57677 5.09630 3.77216
#
# Compressibility (1/GPa) = 0.06863765
#
# Stress axis : x y z
#
# Youngs Moduli (GPa) = 28.84031 67.38430 105.46384
#
# Poissons Ratio (x) = -0.09545 -0.15877
# Poissons Ratio (y) = -0.04085 -0.20027
# Poissons Ratio (z) = -0.04342 -0.12796
#
# Static dielectric constant tensor:
#      x y z
#    x 1.889250 0.000000 0.011860 
#    y 0.000000 1.982380 0.000000 
#    z 0.011860 0.000000 1.937150 
# 
# From -- ./inp_files/25285.got.cif
#   From: 2010.05.17/outbox.cif.g08.bks.cpg/sg10_13_cif.got.tgz:25285.got - 2010.06.03 11:33:40.
