data_PCOD9147133
_publ_section_title
;
Structure prediction by ZEFSAII (Michael W. Deem and Ramdas Pophale) SiO2 
 PCOD9147133
Probable space group: P 2/M
;
_chemical_formula_sum "Si O2"
_cell_formula_units_Z 30
_cell_length_a 8.786489
_cell_length_b 14.839554
_cell_length_c 13.781769
_cell_angle_alpha 90.000000
_cell_angle_beta 66.054570
_cell_angle_gamma 90.000000
_cell_volume 1642.310511
_symmetry_space_group_name_H-M "P 2/M"
_symmetry_group_IT_number 10
_symmetry_cell_setting 'monoclinic'
loop_
_space_group_symop_operation_xyz
x,y,z
-x,y,-z
-x,-y,-z
x,-y,z
loop_
_atom_site_type_symbol
_atom_site_label
_atom_site_fract_x
_atom_site_fract_y
_atom_site_fract_z
Si Si1 0.484373 0.395314 0.710746
Si Si2 0.862960 0.756444 0.848082
Si Si3 0.000000 0.837281 0.000000
Si Si4 0.583872 0.892732 0.873469
Si Si5 0.182094 0.395041 0.502121
Si Si6 0.615024 0.399351 0.877123
Si Si7 0.770419 0.734264 0.329596
Si Si8 0.303016 0.104227 0.785222
O O1 0.433902 0.500000 0.721885
O O2 0.664671 0.389152 0.612843
O O3 0.508917 0.364603 0.814400
O O4 0.345868 0.336138 0.696220
O O5 0.752054 0.834826 0.827870
O O6 0.765209 0.664926 0.859960
O O7 0.890103 0.780266 0.953563
O O8 0.041315 0.742649 0.754921
O O9 0.132808 0.887142 0.894769
O O10 0.454753 0.873029 0.819865
O O11 0.618317 0.000000 0.863229
O O12 0.500000 0.872119 0.000000
O O13 0.188205 0.500000 0.540179
O O14 0.215851 0.313068 0.568368
O O15 0.000000 0.385196 0.500000
O O16 0.672061 0.500000 0.836145
O O17 0.500000 0.403060 0.000000
O O18 0.700019 0.830905 0.308419
O O19 0.319324 0.000000 0.752567
#
# Coordination Sequence:
#
# PCOD9147133 Si02
#       8
#     4   4   2   4   4   4   4   4
#     4  10  21  39  63  88 115 153 199 247 297 348
#     4  11  22  33  52  79 119 155 194 241 290 349
#     4  10  21  32  51  82 110 156 195 246 295 334
#     4  10  19  34  57  82 109 156 208 254 298 344
#     4  10  21  40  67  93 116 148 199 258 301 341
#     4  10  22  37  55  79 117 163 196 229 283 356
#     4  11  23  35  56  91 120 152 190 249 308 349
#     4  10  21  36  55  82 118 154 196 243 296 353
#
# _framework density 18.266947999999999
#
# number of rings (size 3 to 8) (size 9 to 14) (size 15 to 20)
#    0.000    1.733    1.333    3.000    3.733    5.333 
#    0.000    0.333    0.000    2.000    0.000    0.000 
#    0.000    0.000    0.000    0.000    0.000    0.000 
#
# Total GULP energy -167205.992283 kJ/mol
# GULP energy per Si atom -5573.533076 kJ/mol
# Density = 1.822537 g / cm^3
# Si number density = 18.266948 Si / 1000 Ang^3
#
#
#
# Elastic Constant Matrix: (Units=GPa)
#
#
# Indices 1 2 3 4 5 6 
#
# 1 120.9439 49.0233 21.4716 0.0000 8.1092 0.0000
# 2 49.0233 73.6740 26.5906 0.0000 13.5236 0.0000
# 3 21.4716 26.5906 64.2168 0.0000 13.6637 0.0000
# 4 0.0000 0.0000 0.0000 26.2566 0.0000 1.8354
# 5 8.1092 13.5236 13.6637 0.0000 30.3124 0.0000
# 6 0.0000 0.0000 0.0000 1.8354 0.0000 18.7294
#
#
#
# Elastic Compliance Matrix: (Units=1/GPa)
#
#
# Indices 1 2 3 4 5 6 
#
# 1 0.011367 -0.007361 -0.000890 0.000000 0.000644 0.000000
# 2 -0.007361 0.021321 -0.005268 0.000000 -0.005169 0.000000
# 3 -0.000890 -0.005268 0.019357 0.000000 -0.006137 0.000000
# 4 0.000000 0.000000 0.000000 0.038348 0.000000 -0.003758
# 5 0.000644 -0.005169 -0.006137 0.000000 0.037890 0.000000
# 6 0.000000 0.000000 0.000000 -0.003758 0.000000 0.053760
#
#
# Mechanical properties :
#
#
# Convention : Reuss Voigt Hill
#
# Bulk Modulus (GPa) = 39.98650 50.33397 45.16023
# Shear Modulus (GPa) = 22.99750 25.84296 24.42023
#
# Velocity S-wave (km/s) = 3.55204 3.76538 3.66027
# Velocity P-wave (km/s) = 6.22578 6.82046 6.52989
#
# Compressibility (1/GPa) = 0.02500844
#
# Stress axis : x y z
#
# Youngs Moduli (GPa) = 87.97714 46.90199 51.66134
#
# Poissons Ratio (x) = 0.34522 0.04597
# Poissons Ratio (y) = 0.64756 0.27214
# Poissons Ratio (z) = 0.07828 0.24707
#
# Static dielectric constant tensor:
#      x y z
#    x 1.606430 0.000000 0.025370 
#    y 0.000000 1.709080 0.000000 
#    z 0.025370 0.000000 1.628690 
# 
# From -- ./inp_files/42928.got.cif
#   From: 2010.05.17/outbox.cif.g08.bks.cpg/sg10_22_cif.got.tgz:42928.got - 2010.06.03 11:33:40.
