data_PCOD9147135
_publ_section_title
;
Structure prediction by ZEFSAII (Michael W. Deem and Ramdas Pophale) SiO2 
 PCOD9147135
Probable space group: P 2/M
;
_chemical_formula_sum "Si O2"
_cell_formula_units_Z 24
_cell_length_a 31.627140
_cell_length_b 9.103441
_cell_length_c 9.144255
_cell_angle_alpha 90.000000
_cell_angle_beta 150.056398
_cell_angle_gamma 90.000000
_cell_volume 1314.142799
_symmetry_space_group_name_H-M "P 2/M"
_symmetry_group_IT_number 10
_symmetry_cell_setting 'monoclinic'
loop_
_space_group_symop_operation_xyz
x,y,z
-x,y,-z
-x,-y,-z
x,-y,z
loop_
_atom_site_type_symbol
_atom_site_label
_atom_site_fract_x
_atom_site_fract_y
_atom_site_fract_z
Si Si1 0.998537 0.668776 0.673555
Si Si2 0.342335 0.175817 0.870326
Si Si3 0.829589 0.825664 0.817946
Si Si4 0.494784 0.674768 0.155835
Si Si5 0.174855 0.825097 0.848269
Si Si6 0.330641 0.324658 0.150409
O O1 0.990811 0.500000 0.697045
O O2 0.000000 0.671610 0.500000
O O3 0.916460 0.761741 0.472041
O O4 0.087655 0.738779 0.986738
O O5 0.254819 0.210697 0.523938
O O6 0.347730 0.000000 0.902642
O O7 0.420966 0.235345 0.012709
O O8 0.342014 0.253161 0.026083
O O9 0.846079 0.000000 0.853930
O O10 0.815959 0.795785 0.949899
O O11 0.476955 0.500000 0.117008
O O12 0.584765 0.703841 0.501784
O O13 0.500000 0.709795 0.000000
O O14 0.178041 0.000000 0.835596
O O15 0.249971 0.746117 0.987885
O O16 0.320112 0.500000 0.106808
#
# Coordination Sequence:
#
# PCOD9147135 Si02
#       6
#     4   4   4   4   4   4
#     4   9  17  30  52  82 112 143 181 225 272 322
#     4  11  23  38  57  82 113 147 183 224 271 325
#     4   9  19  35  55  81 111 144 183 227 274 322
#     4  10  22  40  61  84 110 142 181 226 274 323
#     4  10  19  34  57  82 110 144 183 228 275 323
#     4  11  23  38  56  80 112 147 183 224 272 327
#
# _framework density 18.262855999999999
#
# number of rings (size 3 to 8) (size 9 to 14) (size 15 to 20)
#    0.000    2.000    0.000    3.500    0.000    7.667 
#    0.000    0.833    0.000    5.000    0.000    0.000 
#    0.000    0.000    0.000    0.000    0.000    0.000 
#
# Total GULP energy -134071.570428 kJ/mol
# GULP energy per Si atom -5586.315435 kJ/mol
# Density = 1.822129 g / cm^3
# Si number density = 18.262856 Si / 1000 Ang^3
#
#
#
# Elastic Constant Matrix: (Units=GPa)
#
#
# Indices 1 2 3 4 5 6 
#
# 1 104.9786 89.5645 124.3834 0.0000 0.7715 0.0000
# 2 89.5645 100.4946 96.9432 0.0000 18.0080 0.0000
# 3 124.3834 96.9432 120.4543 0.0000 46.2473 0.0000
# 4 0.0000 0.0000 0.0000 24.9357 0.0000 15.0269
# 5 0.7715 18.0080 46.2473 0.0000 11.1162 0.0000
# 6 0.0000 0.0000 0.0000 15.0269 0.0000 31.1898
#
#
#
# Elastic Compliance Matrix: (Units=1/GPa)
#
#
# Indices 1 2 3 4 5 6 
#
# 1 0.009299 -0.014938 0.011088 0.000000 -0.022576 0.000000
# 2 -0.014938 0.036808 -0.013891 0.000000 -0.000798 0.000000
# 3 0.011088 -0.013891 0.000523 0.000000 0.019558 0.000000
# 4 0.000000 0.000000 0.000000 0.056510 0.000000 -0.027226
# 5 -0.022576 -0.000798 0.019558 0.000000 0.011452 0.000000
# 6 0.000000 0.000000 0.000000 -0.027226 0.000000 0.045179
#
#
# Mechanical properties :
#
#
# Convention : Reuss Voigt Hill
#
# Bulk Modulus (GPa) = 89.71259 105.30107 97.50683
# Shear Modulus (GPa) = 25.12936 14.45079 19.79007
#
# Velocity S-wave (km/s) = 3.71345 2.81600 3.29542
# Velocity P-wave (km/s) = 8.22289 8.26782 8.24539
#
# Compressibility (1/GPa) = 0.01114671
#
# Stress axis : x y z
#
# Youngs Moduli (GPa) = 107.53906 27.16807 1911.37891
#
# Poissons Ratio (x) = 0.40585 -21.19352
# Poissons Ratio (y) = 1.60646 26.55170
# Poissons Ratio (z) = -1.19240 0.37740
#
# Static dielectric constant tensor:
#      x y z
#    x 1.596300 0.000000 -0.010500 
#    y 0.000000 1.608970 0.000000 
#    z -0.010500 0.000000 1.606270 
# 
# From -- ./inp_files/27168.got.cif
#   From: 2010.05.17/outbox.cif.g08.bks.cpg/sg10_14_cif.got.tgz:27168.got - 2010.06.03 11:33:40.
