data_PCOD9147973
_publ_section_title
;
Structure prediction by ZEFSAII (Michael W. Deem and Ramdas Pophale) SiO2 
 PCOD9147973
Probable space group: P 2/M
;
_chemical_formula_sum "Si O2"
_cell_formula_units_Z 30
_cell_length_a 30.100048
_cell_length_b 7.483847
_cell_length_c 12.849263
_cell_angle_alpha 90.000000
_cell_angle_beta 28.822284
_cell_angle_gamma 90.000000
_cell_volume 1395.411978
_symmetry_space_group_name_H-M "P 2/M"
_symmetry_group_IT_number 10
_symmetry_cell_setting 'monoclinic'
loop_
_space_group_symop_operation_xyz
x,y,z
-x,y,-z
-x,-y,-z
x,-y,z
loop_
_atom_site_type_symbol
_atom_site_label
_atom_site_fract_x
_atom_site_fract_y
_atom_site_fract_z
Si Si1 0.105741 0.798681 0.035126
Si Si2 0.854977 0.796487 0.821807
Si Si3 0.250862 0.707043 0.330652
Si Si4 0.491998 0.286130 0.691020
Si Si5 0.648316 0.713859 0.200006
Si Si6 0.894761 0.217754 0.191511
Si Si7 0.588848 0.000000 0.007949
Si Si8 0.907735 0.704192 0.490558
O O1 0.132657 0.711846 0.089710
O O2 0.994641 0.806345 0.266873
O O3 0.144467 0.000000 0.957709
O O4 0.130995 0.719754 0.872037
O O5 0.905419 0.712510 0.619704
O O6 0.889138 0.000000 0.758280
O O7 0.747239 0.795445 0.015623
O O8 0.280436 0.500000 0.255355
O O9 0.177876 0.717299 0.574742
O O10 0.334022 0.842302 0.175600
O O11 0.189790 0.764707 0.355666
O O12 0.489680 0.500000 0.714849
O O13 0.403882 0.233458 0.798931
O O14 0.579590 0.250368 0.436976
O O15 0.484520 0.158124 0.803994
O O16 0.660392 0.500000 0.168743
O O17 0.893638 0.000000 0.194228
O O18 0.000000 0.272269 0.000000
O O19 0.918798 0.500000 0.434149
#
# Coordination Sequence:
#
# PCOD9147973 Si02
#       8
#     4   4   4   4   4   4   2   4
#     4  10  22  38  56  81 112 148 199 244 279 330
#     4  11  23  34  53  83 117 154 191 235 277 338
#     4  11  24  37  55  89 118 149 195 243 291 334
#     4   9  20  36  56  84 116 151 189 236 286 342
#     4   9  19  36  54  78 115 151 191 236 277 336
#     4  10  19  37  63  80 105 151 199 243 292 338
#     4  12  22  33  57  84 114 152 178 234 293 356
#     4  11  23  36  52  77 116 156 195 237 279 335
#
# _framework density 21.499027000000002
#
# number of rings (size 3 to 8) (size 9 to 14) (size 15 to 20)
#    0.000    1.733    2.000    3.200    5.600    6.133 
#    0.000    0.000    0.000    0.000    0.000    1.867 
#    0.000    3.200    0.000    0.000    0.000    0.000 
#
# Total GULP energy -167108.473864 kJ/mol
# GULP energy per Si atom -5570.282462 kJ/mol
# Density = 2.145009 g / cm^3
# Si number density = 21.499027 Si / 1000 Ang^3
#
#
#
# Elastic Constant Matrix: (Units=GPa)
#
#
# Indices 1 2 3 4 5 6 
#
# 1 52.5591 -2.6528 14.3370 0.0000 28.2174 0.0000
# 2 -2.6528 83.3586 10.6229 0.0000 0.8210 0.0000
# 3 14.3370 10.6229 71.5092 0.0000 13.6238 0.0000
# 4 0.0000 0.0000 0.0000 103.9421 0.0000 18.6016
# 5 28.2174 0.8210 13.6238 0.0000 30.4962 0.0000
# 6 0.0000 0.0000 0.0000 18.6016 0.0000 17.2734
#
#
#
# Elastic Compliance Matrix: (Units=1/GPa)
#
#
# Indices 1 2 3 4 5 6 
#
# 1 0.038112 0.001718 -0.001278 0.000000 -0.034740 0.000000
# 2 0.001718 0.012313 -0.001976 0.000000 -0.001038 0.000000
# 3 -0.001278 -0.001976 0.015629 0.000000 -0.005746 0.000000
# 4 0.000000 0.000000 0.000000 0.011918 0.000000 -0.012834
# 5 -0.034740 -0.001038 -0.005746 0.000000 0.067530 0.000000
# 6 0.000000 0.000000 0.000000 -0.012834 0.000000 0.071713
#
#
# Mechanical properties :
#
#
# Convention : Reuss Voigt Hill
#
# Bulk Modulus (GPa) = 15.87741 28.00457 21.94099
# Shear Modulus (GPa) = 20.72279 42.68366 31.70323
#
# Velocity S-wave (km/s) = 3.10803 4.46059 3.84426
# Velocity P-wave (km/s) = 4.50345 6.29153 5.47103
#
# Compressibility (1/GPa) = 0.06298256
#
# Stress axis : x y z
#
# Youngs Moduli (GPa) = 26.23831 81.21469 63.98476
#
# Poissons Ratio (x) = -0.13952 0.08176
# Poissons Ratio (y) = -0.04507 0.12642
# Poissons Ratio (z) = 0.03353 0.16046
#
# Static dielectric constant tensor:
#      x y z
#    x 1.824870 0.000000 0.018530 
#    y 0.000000 1.772890 0.000000 
#    z 0.018530 0.000000 1.759670 
# 
# From -- ./inp_files/57975.got.cif
#   From: 2010.05.17/outbox.cif.g08.bks.cpg/sg10_29_cif.got.tgz:57975.got - 2010.06.03 11:33:40.
