data_PCOD9147576
_publ_section_title
;
Structure prediction by ZEFSAII (Michael W. Deem and Ramdas Pophale) SiO2 
 PCOD9147576
Probable space group: P 2/M
;
_chemical_formula_sum "Si O2"
_cell_formula_units_Z 32
_cell_length_a 27.096829
_cell_length_b 7.572490
_cell_length_c 20.968291
_cell_angle_alpha 90.000000
_cell_angle_beta 159.194639
_cell_angle_gamma 90.000000
_cell_volume 1528.221695
_symmetry_space_group_name_H-M "P 2/M"
_symmetry_group_IT_number 10
_symmetry_cell_setting 'monoclinic'
loop_
_space_group_symop_operation_xyz
x,y,z
-x,y,-z
-x,-y,-z
x,-y,z
loop_
_atom_site_type_symbol
_atom_site_label
_atom_site_fract_x
_atom_site_fract_y
_atom_site_fract_z
Si Si1 0.109669 0.204496 0.398102
Si Si2 0.159710 0.215956 0.200603
Si Si3 0.908249 0.215904 0.482825
Si Si4 0.207199 0.293210 0.001662
Si Si5 0.580748 0.704947 0.849055
Si Si6 0.792479 0.213409 0.210194
Si Si7 0.264641 0.795556 0.463118
Si Si8 0.658981 0.785906 0.700780
O O1 0.131449 0.281028 0.495122
O O2 0.191554 0.284865 0.437215
O O3 0.944800 0.208877 0.185543
O O4 0.154880 0.000000 0.457320
O O5 0.218630 0.279639 0.339423
O O6 0.250661 0.274303 0.250364
O O7 0.165502 0.000000 0.207048
O O8 0.000000 0.267336 0.000000
O O9 0.812184 0.269334 0.307355
O O10 0.066171 0.268013 0.655802
O O11 0.908988 0.000000 0.484739
O O12 0.186158 0.500000 0.962230
O O13 0.314559 0.221314 0.078392
O O14 0.274511 0.273105 0.152410
O O15 0.556927 0.500000 0.804778
O O16 0.430273 0.790935 0.668546
O O17 0.660646 0.719965 0.012453
O O18 0.788239 0.000000 0.204077
O O19 0.217482 0.000000 0.404393
O O20 0.500000 0.728189 0.500000
O O21 0.659748 0.000000 0.702620
#
# Coordination Sequence:
#
# PCOD9147576 Si02
#       8
#     4   4   4   4   4   4   4   4
#     4  10  19  35  59  85 108 136 179 227 270 316
#     4   9  17  32  53  78 104 130 169 220 269 318
#     4   8  15  29  54  86 111 134 173 227 274 312
#     4  11  23  36  53  79 110 143 179 220 270 324
#     4  11  23  37  52  77 113 150 184 219 264 321
#     4   9  16  31  56  82 109 141 177 222 272 317
#     4  10  21  36  58  83 108 142 180 222 274 323
#     4  10  20  34  54  77 101 134 177 225 271 314
#
# _framework density 20.93937
#
# number of rings (size 3 to 8) (size 9 to 14) (size 15 to 20)
#    0.000    2.250    1.250    3.000    0.000    5.250 
#    0.000    3.125    0.000    5.250    0.000    0.000 
#    0.000    0.000    0.000    0.000    0.000    0.000 
#
# Total GULP energy -178728.854777 kJ/mol
# GULP energy per Si atom -5585.276712 kJ/mol
# Density = 2.089171 g / cm^3
# Si number density = 20.939370 Si / 1000 Ang^3
#
#
#
# Elastic Constant Matrix: (Units=GPa)
#
#
# Indices 1 2 3 4 5 6 
#
# 1 169.9526 -3.4312 93.7117 0.0000 -10.7683 0.0000
# 2 -3.4312 48.0310 -13.5743 0.0000 2.7554 0.0000
# 3 93.7117 -13.5743 124.5620 0.0000 -10.9725 0.0000
# 4 0.0000 0.0000 0.0000 -323.7967 0.0000 61.2646
# 5 -10.7683 2.7554 -10.9725 0.0000 40.0446 0.0000
# 6 0.0000 0.0000 0.0000 61.2646 0.0000 -7.6435
#
#
#
# Elastic Compliance Matrix: (Units=1/GPa)
#
#
# Indices 1 2 3 4 5 6 
#
# 1 0.010176 -0.001506 -0.007757 0.000000 0.000715 0.000000
# 2 -0.001506 0.021733 0.003417 0.000000 -0.000964 0.000000
# 3 -0.007757 0.003417 0.014379 0.000000 0.001619 0.000000
# 4 0.000000 0.000000 0.000000 0.005979 0.000000 0.047923
# 5 0.000715 -0.000964 0.001619 0.000000 0.025674 0.000000
# 6 0.000000 0.000000 0.000000 0.047923 0.000000 0.253282
#
#
# Mechanical properties :
#
#
# Convention : Reuss Voigt Hill
#
# Bulk Modulus (GPa) = 28.90588 55.10642 42.00615
# Shear Modulus (GPa) = 14.10642 -40.55650 -13.22504
#
# Velocity S-wave (km/s) = 2.59835 -4.40574 -2.51587
# Velocity P-wave (km/s) = 4.77875 0.70249 3.41540
#
# Compressibility (1/GPa) = 0.03459503
#
# Stress axis : x y z
#
# Youngs Moduli (GPa) = 98.27029 46.01254 69.54666
#
# Poissons Ratio (x) = 0.06931 0.53947
# Poissons Ratio (y) = 0.14802 -0.23762
# Poissons Ratio (z) = 0.76227 -0.15721
#
# Static dielectric constant tensor:
#      x y z
#    x 1.782110 0.000000 0.022260 
#    y 0.000000 1.786650 0.000000 
#    z 0.022260 0.000000 1.734660 
# 
# From -- ./inp_files/87006.got.cif
#   From: 2010.05.17/outbox.cif.g08.bks.cpg/sg10_44_cif.got.tgz:87006.got - 2010.06.03 11:33:40.
