data_PCOD9147662
_publ_section_title
;
Structure prediction by ZEFSAII (Michael W. Deem and Ramdas Pophale) SiO2 
 PCOD9147662
Probable space group: P 2/M
;
_chemical_formula_sum "Si O2"
_cell_formula_units_Z 32
_cell_length_a 12.454896
_cell_length_b 14.064958
_cell_length_c 19.264453
_cell_angle_alpha 90.000000
_cell_angle_beta 152.280103
_cell_angle_gamma 90.000000
_cell_volume 1569.740174
_symmetry_space_group_name_H-M "P 2/M"
_symmetry_group_IT_number 10
_symmetry_cell_setting 'monoclinic'
loop_
_space_group_symop_operation_xyz
x,y,z
-x,y,-z
-x,-y,-z
x,-y,z
loop_
_atom_site_type_symbol
_atom_site_label
_atom_site_fract_x
_atom_site_fract_y
_atom_site_fract_z
Si Si1 0.059533 0.213873 0.158936
Si Si2 0.596503 0.387830 0.633499
Si Si3 0.582793 0.293955 0.886204
Si Si4 0.330783 0.298444 0.609360
Si Si5 0.879743 0.890345 0.660857
Si Si6 0.754987 0.398625 0.113567
Si Si7 0.866005 0.246011 0.288743
Si Si8 0.461139 0.109310 0.321697
O O1 0.189977 0.315747 0.233494
O O2 0.078919 0.170963 0.247181
O O3 0.205873 0.143742 0.194140
O O4 0.794112 0.226238 0.986088
O O5 0.500000 0.374527 0.500000
O O6 0.647754 0.500000 0.671854
O O7 0.415544 0.352229 0.588559
O O8 0.451497 0.340210 0.746319
O O9 0.383873 0.243986 0.818892
O O10 0.707996 0.368722 0.008330
O O11 0.425495 0.189630 0.661465
O O12 0.056375 0.288163 0.449936
O O13 0.618762 0.882668 0.482029
O O14 0.041328 0.851508 0.691070
O O15 0.926554 0.000000 0.702739
O O16 0.877711 0.500000 0.189056
O O17 0.867340 0.317752 0.224123
O O18 0.500000 0.406761 0.000000
O O19 0.473652 0.000000 0.305688
#
# Coordination Sequence:
#
# PCOD9147662 Si02
#       8
#     4   4   4   4   4   4   4   4
#     4  11  20  35  56  86 121 155 195 246 303 358
#     4  10  22  39  61  89 117 150 198 251 301 355
#     4  11  23  37  58  88 128 157 196 244 303 361
#     4  10  22  40  62  86 119 161 201 247 300 358
#     4  10  19  35  61  90 118 157 206 253 297 350
#     4   9  19  36  59  83 113 153 196 240 288 343
#     4  10  20  40  62  85 119 161 207 246 291 353
#     4   9  19  36  59  83 114 156 204 250 298 358
#
# _framework density 20.385538
#
# number of rings (size 3 to 8) (size 9 to 14) (size 15 to 20)
#    0.000    2.000    1.250    3.375    0.000    4.500 
#    0.000    5.000    0.000    6.750    0.000    0.000 
#    0.000    0.000    0.000    0.000    0.000    0.000 
#
# Total GULP energy -178550.451473 kJ/mol
# GULP energy per Si atom -5579.701609 kJ/mol
# Density = 2.033914 g / cm^3
# Si number density = 20.385538 Si / 1000 Ang^3
#
#
#
# Elastic Constant Matrix: (Units=GPa)
#
#
# Indices 1 2 3 4 5 6 
#
# 1 37.2006 11.0633 9.1705 0.0000 10.4544 0.0000
# 2 11.0633 91.2070 21.9617 0.0000 4.9049 0.0000
# 3 9.1705 21.9617 81.2126 0.0000 8.2918 0.0000
# 4 0.0000 0.0000 0.0000 3.4620 0.0000 -4.6699
# 5 10.4544 4.9049 8.2918 0.0000 38.0403 0.0000
# 6 0.0000 0.0000 0.0000 -4.6699 0.0000 -2.0378
#
#
#
# Elastic Compliance Matrix: (Units=1/GPa)
#
#
# Indices 1 2 3 4 5 6 
#
# 1 0.030307 -0.002815 -0.001890 0.000000 -0.007554 0.000000
# 2 -0.002815 0.012015 -0.002917 0.000000 -0.000140 0.000000
# 3 -0.001890 -0.002917 0.013525 0.000000 -0.002053 0.000000
# 4 0.000000 0.000000 0.000000 0.070602 0.000000 -0.161797
# 5 -0.007554 -0.000140 -0.002053 0.000000 0.028829 0.000000
# 6 0.000000 0.000000 0.000000 -0.161797 0.000000 -0.119949
#
#
# Mechanical properties :
#
#
# Convention : Reuss Voigt Hill
#
# Bulk Modulus (GPa) = 24.62799 32.66794 28.64797
# Shear Modulus (GPa) = 77.99245 19.05456 48.52351
#
# Velocity S-wave (km/s) = 6.19207 3.06062 4.88412
# Velocity P-wave (km/s) = 7.95171 5.34319 6.77419
#
# Compressibility (1/GPa) = 0.04060420
#
# Stress axis : x y z
#
# Youngs Moduli (GPa) = 32.99540 83.22618 73.93616
#
# Poissons Ratio (x) = 0.23428 0.13972
# Poissons Ratio (y) = 0.09288 0.21568
# Poissons Ratio (z) = 0.06235 0.24278
#
# Static dielectric constant tensor:
#      x y z
#    x 1.756660 0.000000 -0.001330 
#    y 0.000000 1.729260 0.000000 
#    z -0.001330 0.000000 1.727170 
# 
# From -- ./inp_files/77059.got.cif
#   From: 2010.05.17/outbox.cif.g08.bks.cpg/sg10_39_cif.got.tgz:77059.got - 2010.06.03 11:33:40.
