data_PCOD9147435
_publ_section_title
;
Structure prediction by ZEFSAII (Michael W. Deem and Ramdas Pophale) SiO2 
 PCOD9147435
Probable space group: P 2/M
;
_chemical_formula_sum "Si O2"
_cell_formula_units_Z 28
_cell_length_a 14.065469
_cell_length_b 8.685972
_cell_length_c 11.979920
_cell_angle_alpha 90.000000
_cell_angle_beta 109.060495
_cell_angle_gamma 90.000000
_cell_volume 1383.370359
_symmetry_space_group_name_H-M "P 2/M"
_symmetry_group_IT_number 10
_symmetry_cell_setting 'monoclinic'
loop_
_space_group_symop_operation_xyz
x,y,z
-x,y,-z
-x,-y,-z
x,-y,z
loop_
_atom_site_type_symbol
_atom_site_label
_atom_site_fract_x
_atom_site_fract_y
_atom_site_fract_z
Si Si1 0.617274 0.317788 0.043534
Si Si2 0.292852 0.674835 0.560611
Si Si3 0.489615 0.828839 0.629144
Si Si4 0.190474 0.816321 0.318670
Si Si5 0.693583 0.179089 0.847052
Si Si6 0.997740 0.317141 0.366340
Si Si7 0.211590 0.178216 0.738145
O O1 0.617171 0.500000 0.065380
O O2 0.689232 0.235823 0.160242
O O3 0.500000 0.264938 0.000000
O O4 0.668151 0.280544 0.944052
O O5 0.261394 0.500000 0.569928
O O6 0.409697 0.700326 0.631089
O O7 0.269091 0.723754 0.425781
O O8 0.232355 0.789553 0.616156
O O9 0.500000 0.824224 0.500000
O O10 0.595269 0.813094 0.730361
O O11 0.448838 0.000000 0.642511
O O12 0.213615 0.778417 0.198204
O O13 0.083281 0.769135 0.328310
O O14 0.207241 0.000000 0.336498
O O15 0.705476 0.000000 0.886964
O O16 0.015514 0.500000 0.366941
O O17 0.888861 0.274067 0.275489
O O18 0.000000 0.275208 0.500000
O O19 0.193987 0.000000 0.753922
#
# Coordination Sequence:
#
# PCOD9147435 Si02
#       7
#     4   4   4   4   4   4   4
#     4  11  25  45  68  95 129 168 213 266 321 380
#     4  12  23  35  55  89 128 164 205 259 319 377
#     4  10  19  35  56  84 121 163 206 253 309 376
#     4  11  22  39  62  91 126 167 211 257 312 379
#     4  10  22  40  63  90 125 167 214 263 313 376
#     4  11  23  40  64  97 133 167 207 266 325 382
#     4  12  25  42  67  93 123 168 217 265 316 379
#
# _framework density 20.240421999999999
#
# number of rings (size 3 to 8) (size 9 to 14) (size 15 to 20)
#    0.000    1.000    2.857    4.714    0.000    6.000 
#    0.000    0.714    0.000    4.286    0.000    0.000 
#    0.000    0.000    0.000    0.000    0.000    0.000 
#
# Total GULP energy -156459.741835 kJ/mol
# GULP energy per Si atom -5587.847923 kJ/mol
# Density = 2.019435 g / cm^3
# Si number density = 20.240422 Si / 1000 Ang^3
#
#
#
# Elastic Constant Matrix: (Units=GPa)
#
#
# Indices 1 2 3 4 5 6 
#
# 1 98.4139 16.2869 11.6785 0.0000 -2.0540 0.0000
# 2 16.2869 48.2497 12.5783 0.0000 2.1426 0.0000
# 3 11.6785 12.5783 53.6863 0.0000 -3.8936 0.0000
# 4 0.0000 0.0000 0.0000 26.3066 0.0000 -1.9800
# 5 -2.0540 2.1426 -3.8936 0.0000 32.0356 0.0000
# 6 0.0000 0.0000 0.0000 -1.9800 0.0000 6.3364
#
#
#
# Elastic Compliance Matrix: (Units=1/GPa)
#
#
# Indices 1 2 3 4 5 6 
#
# 1 0.010908 -0.003312 -0.001544 0.000000 0.000733 0.000000
# 2 -0.003312 0.023224 -0.004892 0.000000 -0.002360 0.000000
# 3 -0.001544 -0.004892 0.020304 0.000000 0.002696 0.000000
# 4 0.000000 0.000000 0.000000 0.038929 0.000000 0.012165
# 5 0.000733 -0.002360 0.002696 0.000000 0.031748 0.000000
# 6 0.000000 0.000000 0.000000 0.012165 0.000000 0.161620
#
#
# Mechanical properties :
#
#
# Convention : Reuss Voigt Hill
#
# Bulk Modulus (GPa) = 28.62009 31.27080 29.94545
# Shear Modulus (GPa) = 15.72947 23.58945 19.65946
#
# Velocity S-wave (km/s) = 2.79073 3.41759 3.11995
# Velocity P-wave (km/s) = 4.95530 5.57283 5.27311
#
# Compressibility (1/GPa) = 0.03494049
#
# Stress axis : x y z
#
# Youngs Moduli (GPa) = 91.67761 43.05963 49.25103
#
# Poissons Ratio (x) = 0.14262 0.07602
# Poissons Ratio (y) = 0.30365 0.24093
# Poissons Ratio (z) = 0.14152 0.21064
#
# Static dielectric constant tensor:
#      x y z
#    x 1.751130 0.000000 -0.007340 
#    y 0.000000 1.690520 0.000000 
#    z -0.007340 0.000000 1.713100 
# 
# From -- ./inp_files/49368.got.cif
#   From: 2010.05.17/outbox.cif.g08.bks.cpg/sg10_25_cif.got.tgz:49368.got - 2010.06.03 11:33:40.
