data_PCOD9147176
_publ_section_title
;
Structure prediction by ZEFSAII (Michael W. Deem and Ramdas Pophale) SiO2 
 PCOD9147176
Probable space group: P 2/M
;
_chemical_formula_sum "Si O2"
_cell_formula_units_Z 26
_cell_length_a 7.361178
_cell_length_b 21.529289
_cell_length_c 12.230663
_cell_angle_alpha 90.000000
_cell_angle_beta 40.291052
_cell_angle_gamma 90.000000
_cell_volume 1253.459098
_symmetry_space_group_name_H-M "P 2/M"
_symmetry_group_IT_number 10
_symmetry_cell_setting 'monoclinic'
loop_
_space_group_symop_operation_xyz
x,y,z
-x,y,-z
-x,-y,-z
x,-y,z
loop_
_atom_site_type_symbol
_atom_site_label
_atom_site_fract_x
_atom_site_fract_y
_atom_site_fract_z
Si Si1 0.566695 0.792629 0.287731
Si Si2 0.824402 0.326797 0.825113
Si Si3 0.052938 0.194630 0.666013
Si Si4 0.374800 0.334899 0.679771
Si Si5 0.160429 0.568586 0.538530
Si Si6 0.165040 0.932608 0.155463
Si Si7 0.000000 0.881582 0.000000
O O1 0.762534 0.799168 0.306772
O O2 0.259278 0.810195 0.468537
O O3 0.545036 0.719347 0.273554
O O4 0.727175 0.836243 0.129938
O O5 0.873541 0.258226 0.750077
O O6 0.039053 0.332509 0.829178
O O7 0.965291 0.381637 0.689932
O O8 0.500000 0.335973 0.000000
O O9 0.901963 0.129095 0.746065
O O10 0.500000 0.316200 0.500000
O O11 0.536022 0.399360 0.621314
O O12 0.185678 0.500000 0.578615
O O13 0.000000 0.561489 0.500000
O O14 0.036139 0.921205 0.093378
O O15 0.059875 0.000000 0.244724
O O16 0.500000 0.935846 0.000000
#
# Coordination Sequence:
#
# PCOD9147176 Si02
#       7
#     4   4   4   4   4   4   2
#     4   9  15  33  55  83 111 139 184 239 282 334
#     4  10  19  34  57  85 110 140 189 239 278 333
#     4   9  16  34  57  79 113 147 185 234 286 339
#     4   9  16  35  57  77 107 148 184 231 281 335
#     4  10  21  38  55  78 113 150 187 228 284 344
#     4  10  21  38  56  79 115 154 189 234 289 344
#     4  10  21  34  58  86 111 146 188 244 289 338
#
# _framework density 20.742597
#
# number of rings (size 3 to 8) (size 9 to 14) (size 15 to 20)
#    0.000    2.462    4.615    0.692    0.000    3.077 
#   11.077    7.692    0.000    3.692    0.000    0.000 
#    0.000    0.000    0.000    0.000    0.000    0.000 
#
# Total GULP energy -144817.778551 kJ/mol
# GULP energy per Si atom -5569.914560 kJ/mol
# Density = 2.069539 g / cm^3
# Si number density = 20.742597 Si / 1000 Ang^3
#
#
#
# Elastic Constant Matrix: (Units=GPa)
#
#
# Indices 1 2 3 4 5 6 
#
# 1 43.4173 19.4088 18.4064 0.0000 -18.5090 0.0000
# 2 19.4088 204.8748 66.9743 0.0000 -18.7864 0.0000
# 3 18.4064 66.9743 101.9932 0.0000 -36.2931 0.0000
# 4 0.0000 0.0000 0.0000 45.3679 0.0000 6.4023
# 5 -18.5090 -18.7864 -36.2931 0.0000 27.5268 0.0000
# 6 0.0000 0.0000 0.0000 6.4023 0.0000 1.5848
#
#
#
# Elastic Compliance Matrix: (Units=1/GPa)
#
#
# Indices 1 2 3 4 5 6 
#
# 1 0.033917 -0.002440 0.005659 0.000000 0.028602 0.000000
# 2 -0.002440 0.006459 -0.005305 0.000000 -0.004228 0.000000
# 3 0.005659 -0.005305 0.023232 0.000000 0.030815 0.000000
# 4 0.000000 0.000000 0.000000 0.051274 0.000000 -0.207144
# 5 0.028602 -0.004228 0.030815 0.000000 0.093304 0.000000
# 6 0.000000 0.000000 0.000000 -0.207144 0.000000 1.467854
#
#
# Mechanical properties :
#
#
# Convention : Reuss Voigt Hill
#
# Bulk Modulus (GPa) = 16.82498 62.20715 39.51606
# Shear Modulus (GPa) = 2.94113 31.26229 17.10171
#
# Velocity S-wave (km/s) = 1.19206 3.88642 2.87448
# Velocity P-wave (km/s) = 3.16601 7.08478 5.48716
#
# Compressibility (1/GPa) = 0.05943545
#
# Stress axis : x y z
#
# Youngs Moduli (GPa) = 29.48363 154.82655 43.04362
#
# Poissons Ratio (x) = 0.37785 -0.24359
# Poissons Ratio (y) = 0.07195 0.22835
# Poissons Ratio (z) = -0.16685 0.82138
#
# Static dielectric constant tensor:
#      x y z
#    x 1.852980 0.000000 0.002000 
#    y 0.000000 1.847360 0.000000 
#    z 0.002000 0.000000 1.736800 
# 
# From -- ./inp_files/19957.got.cif
#   From: 2010.05.17/outbox.cif.g08.bks.cpg/sg10_10_cif.got.tgz:19957.got - 2010.06.03 11:33:40.
