data_PCOD9147384
_publ_section_title
;
Structure prediction by ZEFSAII (Michael W. Deem and Ramdas Pophale) SiO2 
 PCOD9147384
Probable space group: P 2/M
;
_chemical_formula_sum "Si O2"
_cell_formula_units_Z 28
_cell_length_a 15.299590
_cell_length_b 11.463135
_cell_length_c 9.080706
_cell_angle_alpha 90.000000
_cell_angle_beta 71.596320
_cell_angle_gamma 90.000000
_cell_volume 1511.134087
_symmetry_space_group_name_H-M "P 2/M"
_symmetry_group_IT_number 10
_symmetry_cell_setting 'monoclinic'
loop_
_space_group_symop_operation_xyz
x,y,z
-x,y,-z
-x,-y,-z
x,-y,z
loop_
_atom_site_type_symbol
_atom_site_label
_atom_site_fract_x
_atom_site_fract_y
_atom_site_fract_z
Si Si1 0.293656 0.372439 0.037200
Si Si2 0.901944 0.862986 0.986690
Si Si3 0.901271 0.630932 0.409077
Si Si4 0.399557 0.131601 0.980307
Si Si5 0.759858 0.710502 0.243554
Si Si6 0.106699 0.706875 0.273921
Si Si7 0.402448 0.133581 0.623790
O O1 0.334695 0.500000 0.054666
O O2 0.192427 0.364130 0.163151
O O3 0.344824 0.250398 0.051911
O O4 0.281353 0.366561 0.866531
O O5 0.894467 0.823745 0.821914
O O6 0.896528 0.000000 0.004290
O O7 0.820492 0.805419 0.122767
O O8 0.000000 0.822546 0.000000
O O9 0.892790 0.500000 0.473634
O O10 0.829069 0.648369 0.317642
O O11 0.883447 0.716609 0.555850
O O12 0.006447 0.649246 0.302467
O O13 0.409170 0.135920 0.797950
O O14 0.360280 0.000000 0.035578
O O15 0.500000 0.136254 0.000000
O O16 0.678239 0.776689 0.371379
O O17 0.500000 0.164163 0.500000
O O18 0.380329 0.000000 0.591833
#
# Coordination Sequence:
#
# PCOD9147384 Si02
#       7
#     4   4   4   4   4   4   4
#     4  10  20  34  55  82 111 141 185 232 275 330
#     4  10  19  35  55  77 108 143 181 226 274 326
#     4  11  21  36  54  74 109 147 183 228 275 328
#     4   9  19  36  58  80 105 139 179 223 277 335
#     4  10  20  34  55  81 107 144 187 223 276 330
#     4  10  21  36  53  78 108 146 186 223 276 326
#     4   9  18  34  55  78 105 136 175 223 271 325
#
# _framework density 18.529131
#
# number of rings (size 3 to 8) (size 9 to 14) (size 15 to 20)
#    0.000    2.143    1.429    2.571    0.000    4.857 
#    0.000    5.000    0.000   10.714    0.000    0.000 
#    0.000    0.000    0.000    0.000    0.000    0.000 
#
# Total GULP energy -156013.726954 kJ/mol
# GULP energy per Si atom -5571.918820 kJ/mol
# Density = 1.848696 g / cm^3
# Si number density = 18.529131 Si / 1000 Ang^3
#
#
#
# Elastic Constant Matrix: (Units=GPa)
#
#
# Indices 1 2 3 4 5 6 
#
# 1 68.9399 37.3261 12.8750 0.0000 -6.6719 0.0000
# 2 37.3261 102.6802 24.7245 0.0000 -13.6287 0.0000
# 3 12.8750 24.7245 43.7916 0.0000 -16.1915 0.0000
# 4 0.0000 0.0000 0.0000 7.4864 0.0000 1.9345
# 5 -6.6719 -13.6287 -16.1915 0.0000 35.4514 0.0000
# 6 0.0000 0.0000 0.0000 1.9345 0.0000 14.7195
#
#
#
# Elastic Compliance Matrix: (Units=1/GPa)
#
#
# Indices 1 2 3 4 5 6 
#
# 1 0.018193 -0.006151 -0.001786 0.000000 0.000244 0.000000
# 2 -0.006151 0.013438 -0.005170 0.000000 0.001647 0.000000
# 3 -0.001786 -0.005170 0.030585 0.000000 0.011645 0.000000
# 4 0.000000 0.000000 0.000000 0.138270 0.000000 -0.018172
# 5 0.000244 0.001647 0.011645 0.000000 0.034206 0.000000
# 6 0.000000 0.000000 0.000000 -0.018172 0.000000 0.070325
#
#
# Mechanical properties :
#
#
# Convention : Reuss Voigt Hill
#
# Bulk Modulus (GPa) = 27.77542 40.58474 34.18008
# Shear Modulus (GPa) = 14.56741 20.89722 17.73231
#
# Velocity S-wave (km/s) = 2.80695 3.36192 3.09689
# Velocity P-wave (km/s) = 5.05252 6.08447 5.59235
#
# Compressibility (1/GPa) = 0.03600305
#
# Stress axis : x y z
#
# Youngs Moduli (GPa) = 54.96662 74.41313 32.69569
#
# Poissons Ratio (x) = 0.45772 0.05839
# Poissons Ratio (y) = 0.33810 0.16903
# Poissons Ratio (z) = 0.09816 0.38469
#
# Static dielectric constant tensor:
#      x y z
#    x 1.654300 0.000000 0.003080 
#    y 0.000000 1.658680 0.000000 
#    z 0.003080 0.000000 1.623130 
# 
# From -- ./inp_files/28206.got.cif
#   From: 2010.05.17/outbox.cif.g08.bks.cpg/sg10_15_cif.got.tgz:28206.got - 2010.06.03 11:33:40.
