data_PCOD9147872
_publ_section_title
;
Structure prediction by ZEFSAII (Michael W. Deem and Ramdas Pophale) SiO2 
 PCOD9147872
Probable space group: P 2/M
;
_chemical_formula_sum "Si O2"
_cell_formula_units_Z 32
_cell_length_a 8.858167
_cell_length_b 20.650807
_cell_length_c 15.243527
_cell_angle_alpha 90.000000
_cell_angle_beta 139.626513
_cell_angle_gamma 90.000000
_cell_volume 1806.281646
_symmetry_space_group_name_H-M "P 2/M"
_symmetry_group_IT_number 10
_symmetry_cell_setting 'monoclinic'
loop_
_space_group_symop_operation_xyz
x,y,z
-x,y,-z
-x,-y,-z
x,-y,z
loop_
_atom_site_type_symbol
_atom_site_label
_atom_site_fract_x
_atom_site_fract_y
_atom_site_fract_z
Si Si1 0.928001 0.191224 0.610855
Si Si2 0.246350 0.694576 0.150528
Si Si3 0.766595 0.683625 0.645907
Si Si4 0.231359 0.926959 0.352130
Si Si5 0.614722 0.424871 0.907403
Si Si6 0.867765 0.425261 0.206550
Si Si7 0.747705 0.075656 0.847391
Si Si8 0.390103 0.189715 0.703081
O O1 0.862965 0.251427 0.643463
O O2 0.913127 0.126434 0.661104
O O3 0.736964 0.187051 0.448125
O O4 0.181163 0.197094 0.679588
O O5 0.221809 0.687900 0.243916
O O6 0.316426 0.626884 0.135266
O O7 0.440565 0.748668 0.218398
O O8 0.000000 0.714870 0.000000
O O9 0.500000 0.675052 0.500000
O O10 0.926435 0.624325 0.685880
O O11 0.500000 0.920080 0.500000
O O12 0.224817 0.918201 0.245163
O O13 0.155687 0.000000 0.340207
O O14 0.640554 0.500000 0.890585
O O15 0.350574 0.415183 0.824874
O O16 0.770893 0.416086 0.064331
O O17 0.940886 0.500000 0.246886
O O18 0.546538 0.125570 0.786061
O O19 0.691437 0.000000 0.842176
O O20 0.000000 0.090662 0.000000
#
# Coordination Sequence:
#
# PCOD9147872 Si02
#       8
#     4   4   4   4   4   4   4   4
#     4  11  23  39  59  84 121 155 195 243 293 340
#     4  12  23  38  60  88 115 150 199 241 285 348
#     4  12  23  39  59  83 121 158 189 240 292 345
#     4  10  19  36  62  88 114 150 196 235 282 347
#     4   9  19  38  62  88 118 150 191 243 291 344
#     4   9  19  38  62  87 118 154 191 236 294 349
#     4  10  21  39  62  89 121 153 188 240 297 344
#     4  11  23  39  59  86 117 156 197 242 289 349
#
# _framework density 17.715952000000001
#
# number of rings (size 3 to 8) (size 9 to 14) (size 15 to 20)
#    0.000    1.500    3.750    3.000    0.000    1.500 
#    0.000    3.125    0.000    3.750    0.000    0.000 
#    0.000    0.000    0.000    0.000    0.000    0.000 
#
# Total GULP energy -178736.272339 kJ/mol
# GULP energy per Si atom -5585.508511 kJ/mol
# Density = 1.767563 g / cm^3
# Si number density = 17.715952 Si / 1000 Ang^3
#
#
#
# Elastic Constant Matrix: (Units=GPa)
#
#
# Indices 1 2 3 4 5 6 
#
# 1 86.6310 76.2802 51.0739 0.0000 12.5031 0.0000
# 2 76.2802 120.8655 46.9345 0.0000 21.4139 0.0000
# 3 51.0739 46.9345 106.7130 0.0000 9.9891 0.0000
# 4 0.0000 0.0000 0.0000 38.0678 0.0000 -9.8824
# 5 12.5031 21.4139 9.9891 0.0000 26.9110 0.0000
# 6 0.0000 0.0000 0.0000 -9.8824 0.0000 78.7137
#
#
#
# Elastic Compliance Matrix: (Units=1/GPa)
#
#
# Indices 1 2 3 4 5 6 
#
# 1 0.030119 -0.016487 -0.007337 0.000000 0.001849 0.000000
# 2 -0.016487 0.020252 -0.000233 0.000000 -0.008369 0.000000
# 3 -0.007337 -0.000233 0.013104 0.000000 -0.001270 0.000000
# 4 0.000000 0.000000 0.000000 0.027154 0.000000 0.003409
# 5 0.001849 -0.008369 -0.001270 0.000000 0.043431 0.000000
# 6 0.000000 0.000000 0.000000 0.003409 0.000000 0.013132
#
#
# Mechanical properties :
#
#
# Convention : Reuss Voigt Hill
#
# Bulk Modulus (GPa) = 65.10107 73.64296 69.37201
# Shear Modulus (GPa) = 24.94669 38.06655 31.50662
#
# Velocity S-wave (km/s) = 3.75660 4.64045 4.22172
# Velocity P-wave (km/s) = 7.45942 8.38873 7.93769
#
# Compressibility (1/GPa) = 0.01536073
#
# Stress axis : x y z
#
# Youngs Moduli (GPa) = 33.20131 49.37735 76.31345
#
# Poissons Ratio (x) = 0.81410 0.55992
# Poissons Ratio (y) = 0.54740 0.01778
# Poissons Ratio (z) = 0.24360 0.01150
#
# Static dielectric constant tensor:
#      x y z
#    x 1.581460 0.000000 -0.002270 
#    y 0.000000 1.597860 0.000000 
#    z -0.002270 0.000000 1.592820 
# 
# From -- ./inp_files/62514.got.cif
#   From: 2010.05.17/outbox.cif.g08.bks.cpg/sg10_32_cif.got.tgz:62514.got - 2010.06.03 11:33:40.
