data_PCOD9147400
_publ_section_title
;
Structure prediction by ZEFSAII (Michael W. Deem and Ramdas Pophale) SiO2 
 PCOD9147400
Probable space group: P 2/M
;
_chemical_formula_sum "Si O2"
_cell_formula_units_Z 28
_cell_length_a 21.200742
_cell_length_b 7.887348
_cell_length_c 17.548691
_cell_angle_alpha 90.000000
_cell_angle_beta 159.089565
_cell_angle_gamma 90.000000
_cell_volume 1047.329263
_symmetry_space_group_name_H-M "P 2/M"
_symmetry_group_IT_number 10
_symmetry_cell_setting 'monoclinic'
loop_
_space_group_symop_operation_xyz
x,y,z
-x,y,-z
-x,-y,-z
x,-y,z
loop_
_atom_site_type_symbol
_atom_site_label
_atom_site_fract_x
_atom_site_fract_y
_atom_site_fract_z
Si Si1 0.223254 0.692865 0.209175
Si Si2 0.069986 0.703891 0.758817
Si Si3 0.965580 0.705156 0.800952
Si Si4 0.561717 0.703940 0.297564
Si Si5 0.195617 0.798636 0.744597
Si Si6 0.454133 0.190287 0.336619
Si Si7 0.328668 0.702985 0.739215
O O1 0.202116 0.500000 0.213691
O O2 0.344289 0.789868 0.405572
O O3 0.342789 0.689764 0.266445
O O4 0.042785 0.763881 0.968644
O O5 0.072167 0.500000 0.764857
O O6 0.075839 0.768865 0.851896
O O7 0.204703 0.751625 0.843806
O O8 0.873881 0.757449 0.509127
O O9 0.981491 0.500000 0.821384
O O10 0.763349 0.738468 0.552651
O O11 0.534961 0.500000 0.265560
O O12 0.450726 0.772018 0.243318
O O13 0.562539 0.771805 0.211232
O O14 0.332804 0.738188 0.834771
O O15 0.000000 0.728993 0.500000
O O16 0.192399 0.000000 0.735257
O O17 0.395929 0.000000 0.286999
O O18 0.338492 0.500000 0.743564
#
# Coordination Sequence:
#
# PCOD9147400 Si02
#       7
#     4   4   4   4   4   4   4
#     4  10  19  35  56  73  90 120 160 198 235 276
#     4   8  13  24  40  60  87 117 149 187 229 270
#     4   8  16  30  51  75  95 118 156 202 239 274
#     4   9  17  32  51  72  96 123 157 196 237 280
#     4   9  15  21  32  55  88 123 155 184 218 265
#     4  11  22  35  49  70  98 126 156 191 233 282
#     4   8  14  24  40  60  85 118 153 188 226 267
#
# _framework density 26.734669
#
# number of rings (size 3 to 8) (size 9 to 14) (size 15 to 20)
#    0.000    3.000    0.000    4.714    0.000    2.857 
#    0.000    7.857    0.000    0.000    0.000    1.000 
#    0.000    8.000    0.000    0.000    0.000    0.000 
#
# Total GULP energy -156536.785272 kJ/mol
# GULP energy per Si atom -5590.599474 kJ/mol
# Density = 2.667382 g / cm^3
# Si number density = 26.734669 Si / 1000 Ang^3
#
#
#
# Elastic Constant Matrix: (Units=GPa)
#
#
# Indices 1 2 3 4 5 6 
#
# 1 232.2793 13.4675 34.1520 0.0000 -18.1122 0.0000
# 2 13.4675 59.9351 -10.9131 0.0000 -0.3379 0.0000
# 3 34.1520 -10.9131 73.8973 0.0000 -26.7858 0.0000
# 4 0.0000 0.0000 0.0000 -11.8868 0.0000 19.0800
# 5 -18.1122 -0.3379 -26.7858 0.0000 72.2256 0.0000
# 6 0.0000 0.0000 0.0000 19.0800 0.0000 -45.3516
#
#
#
# Elastic Compliance Matrix: (Units=1/GPa)
#
#
# Indices 1 2 3 4 5 6 
#
# 1 0.004755 -0.001485 -0.002296 0.000000 0.000334 0.000000
# 2 -0.001485 0.017696 0.003691 0.000000 0.001079 0.000000
# 3 -0.002296 0.003691 0.017255 0.000000 0.005841 0.000000
# 4 0.000000 0.000000 0.000000 -0.259095 0.000000 -0.109004
# 5 0.000334 0.001079 0.005841 0.000000 0.016101 0.000000
# 6 0.000000 0.000000 0.000000 -0.109004 0.000000 -0.067909
#
#
# Mechanical properties :
#
#
# Convention : Reuss Voigt Hill
#
# Bulk Modulus (GPa) = 25.29871 48.83607 37.06739
# Shear Modulus (GPa) = -19.39170 24.95780 2.78305
#
# Velocity S-wave (km/s) = -2.69613 3.05870 1.02140
# Velocity P-wave (km/s) = 0.45690 5.54804 3.90973
#
# Compressibility (1/GPa) = 0.03952771
#
# Stress axis : x y z
#
# Youngs Moduli (GPa) = 210.31355 56.50874 57.95272
#
# Poissons Ratio (x) = 0.08389 0.13304
# Poissons Ratio (y) = 0.31221 -0.21388
# Poissons Ratio (z) = 0.48279 -0.20855
#
# Static dielectric constant tensor:
#      x y z
#    x 2.127800 0.000000 0.032820 
#    y 0.000000 1.943380 0.000000 
#    z 0.032820 0.000000 2.268940 
# 
# From -- ./inp_files/75739.got.cif
#   From: 2010.05.17/outbox.cif.g08.bks.cpg/sg10_38_cif.got.tgz:75739.got - 2010.06.03 11:33:40.
