data_PCOD9147325
_publ_section_title
;
Structure prediction by ZEFSAII (Michael W. Deem and Ramdas Pophale) SiO2 
 PCOD9147325
Probable space group: P 2/M
;
_chemical_formula_sum "Si O2"
_cell_formula_units_Z 32
_cell_length_a 11.782000
_cell_length_b 11.854322
_cell_length_c 13.075606
_cell_angle_alpha 90.000000
_cell_angle_beta 112.640333
_cell_angle_gamma 90.000000
_cell_volume 1685.507857
_symmetry_space_group_name_H-M "P 2/M"
_symmetry_group_IT_number 10
_symmetry_cell_setting 'monoclinic'
loop_
_space_group_symop_operation_xyz
x,y,z
-x,y,-z
-x,-y,-z
x,-y,z
loop_
_atom_site_type_symbol
_atom_site_label
_atom_site_fract_x
_atom_site_fract_y
_atom_site_fract_z
Si Si1 0.207880 0.688272 0.832134
Si Si2 0.142425 0.629346 0.040289
Si Si3 0.361313 0.875423 0.412618
Si Si4 0.588757 0.624923 0.262062
Si Si5 0.290283 0.626448 0.471907
Si Si6 0.366947 0.873677 0.970325
Si Si7 0.002254 0.371061 0.387512
Si Si8 0.646252 0.789138 0.813476
O O1 0.315233 0.636180 0.798255
O O2 0.259209 0.810945 0.875423
O O3 0.083552 0.687585 0.724311
O O4 0.184185 0.633897 0.935292
O O5 0.146851 0.500000 0.077425
O O6 0.237524 0.704689 0.137229
O O7 0.000000 0.667445 0.000000
O O8 0.500000 0.883050 0.500000
O O9 0.323692 0.748937 0.437423
O O10 0.353618 0.861724 0.288324
O O11 0.304025 0.000000 0.421346
O O12 0.532023 0.500000 0.237640
O O13 0.666085 0.632516 0.394541
O O14 0.479980 0.716303 0.225230
O O15 0.336344 0.500000 0.450714
O O16 0.143992 0.622306 0.408141
O O17 0.375539 0.000000 0.934853
O O18 0.500000 0.816491 0.000000
O O19 0.345385 0.865412 0.083077
O O20 0.952873 0.500000 0.378746
O O21 0.000000 0.319480 0.500000
#
# Coordination Sequence:
#
# PCOD9147325 Si02
#       8
#     4   4   4   4   4   4   4   4
#     4  11  21  37  60  87 123 158 200 249 307 365
#     4  10  23  39  57  86 125 165 203 245 299 366
#     4  11  24  42  63  89 123 164 207 251 314 380
#     4  11  20  34  59  95 126 152 194 254 314 365
#     4  10  22  38  60  92 127 163 205 253 308 370
#     4  10  21  39  61  84 111 152 204 255 308 364
#     4  10  19  34  60  89 121 160 197 241 304 377
#     4  11  22  39  61  88 117 159 202 257 306 368
#
# _framework density 18.985374
#
# number of rings (size 3 to 8) (size 9 to 14) (size 15 to 20)
#    0.000    1.500    3.750    1.875    1.750    1.250 
#    0.000    3.125    0.000    2.625    0.000    0.000 
#    0.000    0.000    0.000    0.000    0.000    0.000 
#
# Total GULP energy -178273.625243 kJ/mol
# GULP energy per Si atom -5571.050789 kJ/mol
# Density = 1.894216 g / cm^3
# Si number density = 18.985374 Si / 1000 Ang^3
#
#
#
# Elastic Constant Matrix: (Units=GPa)
#
#
# Indices 1 2 3 4 5 6 
#
# 1 69.6188 31.8219 15.8116 0.0000 18.9218 0.0000
# 2 31.8219 107.8016 34.3402 0.0000 4.7928 0.0000
# 3 15.8116 34.3402 100.1851 0.0000 18.7892 0.0000
# 4 0.0000 0.0000 0.0000 -70.2891 0.0000 -25.2982
# 5 18.9218 4.7928 18.7892 0.0000 37.1206 0.0000
# 6 0.0000 0.0000 0.0000 -25.2982 0.0000 8.3212
#
#
#
# Elastic Compliance Matrix: (Units=1/GPa)
#
#
# Indices 1 2 3 4 5 6 
#
# 1 0.019289 -0.005465 0.000597 0.000000 -0.009429 0.000000
# 2 -0.005465 0.011970 -0.003837 0.000000 0.003183 0.000000
# 3 0.000597 -0.003837 0.012338 0.000000 -0.006054 0.000000
# 4 0.000000 0.000000 0.000000 -0.006793 0.000000 -0.020653
# 5 -0.009429 0.003183 -0.006054 0.000000 0.034399 0.000000
# 6 0.000000 0.000000 0.000000 -0.020653 0.000000 0.057384
#
#
# Mechanical properties :
#
#
# Convention : Reuss Voigt Hill
#
# Bulk Modulus (GPa) = 38.18653 49.06144 43.62398
# Shear Modulus (GPa) = 32.31511 8.07265 20.19388
#
# Velocity S-wave (km/s) = 4.13013 2.06428 3.26491
# Velocity P-wave (km/s) = 6.54991 5.61956 6.10249
#
# Compressibility (1/GPa) = 0.02618725
#
# Stress axis : x y z
#
# Youngs Moduli (GPa) = 51.84306 83.53925 81.05031
#
# Poissons Ratio (x) = 0.45654 -0.04841
# Poissons Ratio (y) = 0.28332 0.31103
# Poissons Ratio (z) = -0.03097 0.32058
#
# Static dielectric constant tensor:
#      x y z
#    x 1.670220 0.000000 -0.031160 
#    y 0.000000 1.713810 0.000000 
#    z -0.031160 0.000000 1.650590 
# 
# From -- ./inp_files/47036.got.cif
#   From: 2010.05.17/outbox.cif.g08.bks.cpg/sg10_24_cif.got.tgz:47036.got - 2010.06.03 11:33:40.
