data_PCOD9147156
_publ_section_title
;
Structure prediction by ZEFSAII (Michael W. Deem and Ramdas Pophale) SiO2 
 PCOD9147156
Probable space group: P 2/M
;
_chemical_formula_sum "Si O2"
_cell_formula_units_Z 28
_cell_length_a 16.287048
_cell_length_b 7.734140
_cell_length_c 12.195582
_cell_angle_alpha 90.000000
_cell_angle_beta 123.711754
_cell_angle_gamma 90.000000
_cell_volume 1277.900037
_symmetry_space_group_name_H-M "P 2/M"
_symmetry_group_IT_number 10
_symmetry_cell_setting 'monoclinic'
loop_
_space_group_symop_operation_xyz
x,y,z
-x,y,-z
-x,-y,-z
x,-y,z
loop_
_atom_site_type_symbol
_atom_site_label
_atom_site_fract_x
_atom_site_fract_y
_atom_site_fract_z
Si Si1 0.006400 0.293363 0.128339
Si Si2 0.390450 0.199702 0.422455
Si Si3 0.765489 0.792487 0.331178
Si Si4 0.821221 0.292300 0.129769
Si Si5 0.799615 0.209531 0.594740
Si Si6 0.356492 0.703490 0.156152
Si Si7 0.459885 0.790635 0.851258
O O1 0.992093 0.500000 0.110784
O O2 0.111804 0.262456 0.261122
O O3 0.918537 0.225751 0.140513
O O4 0.000000 0.223762 0.000000
O O5 0.500000 0.280023 0.500000
O O6 0.306164 0.273859 0.438636
O O7 0.350058 0.206413 0.268700
O O8 0.403980 0.000000 0.468346
O O9 0.815985 0.750049 0.253853
O O10 0.814785 0.731938 0.480644
O O11 0.652074 0.729777 0.245185
O O12 0.761202 0.000000 0.333711
O O13 0.820116 0.500000 0.122176
O O14 0.723831 0.231216 0.991671
O O15 0.796415 0.000000 0.594276
O O16 0.339145 0.500000 0.161755
O O17 0.464531 0.728920 0.184841
O O18 0.460252 0.000000 0.848388
O O19 0.500000 0.735940 0.000000
#
# Coordination Sequence:
#
# PCOD9147156 Si02
#       7
#     4   4   4   4   4   4   4
#     4  10  22  42  64  83 111 151 192 235 287 346
#     4  10  21  39  61  83 114 153 192 234 284 346
#     4  10  21  38  59  85 118 153 191 235 285 342
#     4  10  22  38  57  84 115 150 191 236 286 340
#     4  10  22  39  60  87 116 148 189 240 289 334
#     4  11  22  35  56  86 119 150 190 243 290 337
#     4  10  19  34  57  83 115 158 198 229 277 342
#
# _framework density 21.910947
#
# number of rings (size 3 to 8) (size 9 to 14) (size 15 to 20)
#    0.000    1.857    1.429    2.143    0.000    7.714 
#    0.000    4.286    0.000    0.000    0.000    0.000 
#    0.000    0.000    0.000    0.000    0.000    0.000 
#
# Total GULP energy -156500.406492 kJ/mol
# GULP energy per Si atom -5589.300232 kJ/mol
# Density = 2.186108 g / cm^3
# Si number density = 21.910947 Si / 1000 Ang^3
#
#
#
# Elastic Constant Matrix: (Units=GPa)
#
#
# Indices 1 2 3 4 5 6 
#
# 1 166.7773 0.8067 73.6498 0.0000 -10.8910 0.0000
# 2 0.8067 31.0728 -1.7150 0.0000 0.7182 0.0000
# 3 73.6498 -1.7150 153.1495 0.0000 -15.0200 0.0000
# 4 0.0000 0.0000 0.0000 31.6595 0.0000 -10.7962
# 5 -10.8910 0.7182 -15.0200 0.0000 33.9063 0.0000
# 6 0.0000 0.0000 0.0000 -10.7962 0.0000 17.0799
#
#
#
# Elastic Compliance Matrix: (Units=1/GPa)
#
#
# Indices 1 2 3 4 5 6 
#
# 1 0.007642 -0.000417 -0.003594 0.000000 0.000871 0.000000
# 2 -0.000417 0.032235 0.000503 0.000000 -0.000594 0.000000
# 3 -0.003594 0.000503 0.008520 0.000000 0.002609 0.000000
# 4 0.000000 0.000000 0.000000 0.040265 0.000000 0.025452
# 5 0.000871 -0.000594 0.002609 0.000000 0.030941 0.000000
# 6 0.000000 0.000000 0.000000 0.025452 0.000000 0.074637
#
#
# Mechanical properties :
#
#
# Convention : Reuss Voigt Hill
#
# Bulk Modulus (GPa) = 24.16597 55.16475 39.66536
# Shear Modulus (GPa) = 23.25047 35.07968 29.16507
#
# Velocity S-wave (km/s) = 3.26104 4.00560 3.65235
# Velocity P-wave (km/s) = 5.02318 6.82822 5.99404
#
# Compressibility (1/GPa) = 0.04138050
#
# Stress axis : x y z
#
# Youngs Moduli (GPa) = 130.85190 31.02236 117.37643
#
# Poissons Ratio (x) = 0.01293 0.42189
# Poissons Ratio (y) = 0.05456 -0.05907
# Poissons Ratio (z) = 0.47033 -0.01561
#
# Static dielectric constant tensor:
#      x y z
#    x 1.783790 0.000000 -0.001210 
#    y 0.000000 1.831080 0.000000 
#    z -0.001210 0.000000 1.782060 
# 
# From -- ./inp_files/50026.got.cif
#   From: 2010.05.17/outbox.cif.g08.bks.cpg/sg10_26_cif.got.tgz:50026.got - 2010.06.03 11:33:40.
