data_PCOD9147271
_publ_section_title
;
Structure prediction by ZEFSAII (Michael W. Deem and Ramdas Pophale) SiO2 
 PCOD9147271
Probable space group: P 2/M
;
_chemical_formula_sum "Si O2"
_cell_formula_units_Z 24
_cell_length_a 17.569084
_cell_length_b 7.675180
_cell_length_c 24.755235
_cell_angle_alpha 90.000000
_cell_angle_beta 19.277499
_cell_angle_gamma 90.000000
_cell_volume 1102.066456
_symmetry_space_group_name_H-M "P 2/M"
_symmetry_group_IT_number 10
_symmetry_cell_setting 'monoclinic'
loop_
_space_group_symop_operation_xyz
x,y,z
-x,y,-z
-x,-y,-z
x,-y,z
loop_
_atom_site_type_symbol
_atom_site_label
_atom_site_fract_x
_atom_site_fract_y
_atom_site_fract_z
Si Si1 0.068496 0.290105 0.038955
Si Si2 0.878807 0.713723 0.406885
Si Si3 0.638547 0.712449 0.262813
Si Si4 0.894168 0.303179 0.517145
Si Si5 0.557653 0.196040 0.134746
Si Si6 0.360247 0.289504 0.040651
O O1 0.066391 0.500000 0.041472
O O2 0.812104 0.231885 0.194189
O O3 0.237038 0.236068 0.876614
O O4 0.185531 0.228153 0.015394
O O5 0.873490 0.500000 0.412190
O O6 0.625059 0.771652 0.558865
O O7 0.927188 0.773852 0.435932
O O8 0.094147 0.764527 0.226016
O O9 0.635985 0.500000 0.264792
O O10 0.993297 0.500000 0.448065
O O11 0.622148 0.311467 0.711538
O O12 0.000000 0.218479 0.500000
O O13 0.491148 0.000000 0.192072
O O14 0.541197 0.227466 0.082178
O O15 0.368975 0.500000 0.033873
O O16 0.500000 0.231769 0.000000
#
# Coordination Sequence:
#
# PCOD9147271 Si02
#       6
#     4   4   4   4   4   4
#     4   9  16  31  56  81 107 138 178 228 279 326
#     4   9  16  30  55  84 107 130 176 235 282 321
#     4   8  14  27  54  86 107 131 173 234 289 318
#     4  10  19  34  59  85 107 135 179 235 280 318
#     4  12  24  36  52  79 116 153 182 215 267 331
#     4  10  21  38  59  80 105 143 188 230 272 321
#
# _framework density 21.777270999999999
#
# number of rings (size 3 to 8) (size 9 to 14) (size 15 to 20)
#    0.000    2.333    1.667    3.500    0.000    3.333 
#    0.000    3.333    0.000    5.000    0.000    0.000 
#    0.000    0.000    0.000    0.000    0.000    0.000 
#
# Total GULP energy -133990.824525 kJ/mol
# GULP energy per Si atom -5582.951022 kJ/mol
# Density = 2.172770 g / cm^3
# Si number density = 21.777271 Si / 1000 Ang^3
#
#
#
# Elastic Constant Matrix: (Units=GPa)
#
#
# Indices 1 2 3 4 5 6 
#
# 1 74.7266 1.0130 -13.1080 0.0000 -13.4517 0.0000
# 2 1.0130 49.7405 0.5714 0.0000 -1.9954 0.0000
# 3 -13.1080 0.5714 54.0194 0.0000 -8.5305 0.0000
# 4 0.0000 0.0000 0.0000 -13.5864 0.0000 23.4408
# 5 -13.4517 -1.9954 -8.5305 0.0000 40.3492 0.0000
# 6 0.0000 0.0000 0.0000 23.4408 0.0000 115.2681
#
#
#
# Elastic Compliance Matrix: (Units=1/GPa)
#
#
# Indices 1 2 3 4 5 6 
#
# 1 0.015299 -0.000121 0.004674 0.000000 0.006082 0.000000
# 2 -0.000121 0.020145 -0.000095 0.000000 0.000936 0.000000
# 3 0.004674 -0.000095 0.020579 0.000000 0.005904 0.000000
# 4 0.000000 0.000000 0.000000 -0.054486 0.000000 0.011080
# 5 0.006082 0.000936 0.005904 0.000000 0.028106 0.000000
# 6 0.000000 0.000000 0.000000 0.011080 0.000000 0.006422
#
#
# Mechanical properties :
#
#
# Convention : Reuss Voigt Hill
#
# Bulk Modulus (GPa) = 15.39892 17.27101 16.33497
# Shear Modulus (GPa) = 102.46741 41.07352 71.77046
#
# Velocity S-wave (km/s) = 6.86692 4.34761 5.74701
# Velocity P-wave (km/s) = 8.36416 5.75762 7.18016
#
# Compressibility (1/GPa) = 0.06493963
#
# Stress axis : x y z
#
# Youngs Moduli (GPa) = 65.36555 49.63904 48.59219
#
# Poissons Ratio (x) = 0.00602 -0.22712
# Poissons Ratio (y) = 0.00793 0.00460
# Poissons Ratio (z) = -0.30552 0.00470
#
# Static dielectric constant tensor:
#      x y z
#    x 1.802230 0.000000 -0.055090 
#    y 0.000000 1.873440 0.000000 
#    z -0.055090 0.000000 1.777010 
# 
# From -- ./inp_files/90007.got.cif
#   From: 2010.05.17/outbox.cif.g08.bks.cpg/sg10_46_cif.got.tgz:90007.got - 2010.06.03 11:33:40.
