data_PCOD9147740
_publ_section_title
;
Structure prediction by ZEFSAII (Michael W. Deem and Ramdas Pophale) SiO2 
 PCOD9147740
Probable space group: P 2/M
;
_chemical_formula_sum "Si O2"
_cell_formula_units_Z 28
_cell_length_a 9.835110
_cell_length_b 8.865477
_cell_length_c 26.563324
_cell_angle_alpha 90.000000
_cell_angle_beta 37.709097
_cell_angle_gamma 90.000000
_cell_volume 1416.669733
_symmetry_space_group_name_H-M "P 2/M"
_symmetry_group_IT_number 10
_symmetry_cell_setting 'monoclinic'
loop_
_space_group_symop_operation_xyz
x,y,z
-x,y,-z
-x,-y,-z
x,-y,z
loop_
_atom_site_type_symbol
_atom_site_label
_atom_site_fract_x
_atom_site_fract_y
_atom_site_fract_z
Si Si1 0.519167 0.680285 0.245995
Si Si2 0.735448 0.819052 0.083304
Si Si3 0.985919 0.681551 0.622303
Si Si4 0.429684 0.828824 0.461699
Si Si5 0.327319 0.183529 0.008770
Si Si6 0.121538 0.678580 0.696095
Si Si7 0.900149 0.179753 0.194974
O O1 0.531095 0.500000 0.244551
O O2 0.625988 0.737740 0.162495
O O3 0.260106 0.724278 0.323127
O O4 0.666944 0.749741 0.246965
O O5 0.707775 0.000000 0.097917
O O6 0.631216 0.768957 0.060521
O O7 0.000000 0.792427 0.000000
O O8 0.012077 0.500000 0.611093
O O9 0.183758 0.760101 0.533672
O O10 0.017270 0.720864 0.672487
O O11 0.500000 0.833736 0.500000
O O12 0.619053 0.726178 0.381731
O O13 0.437495 0.000000 0.439767
O O14 0.082457 0.224930 0.099905
O O15 0.334895 0.000000 0.005957
O O16 0.500000 0.237218 0.000000
O O17 0.099827 0.500000 0.708691
O O18 0.023401 0.763568 0.772851
O O19 0.884229 0.000000 0.199907
#
# Coordination Sequence:
#
# PCOD9147740 Si02
#       7
#     4   4   4   4   4   4   4
#     4  11  23  38  56  81 114 150 188 228 275 331
#     4  10  19  36  58  79 106 144 188 229 275 327
#     4   9  20  37  57  82 114 149 185 225 274 332
#     4   9  17  32  56  86 114 142 183 228 272 324
#     4   9  19  35  55  80 109 142 181 229 281 328
#     4  10  20  36  58  83 114 149 182 223 280 334
#     4  11  22  38  57  81 113 147 187 232 279 329
#
# _framework density 19.764662000000001
#
# number of rings (size 3 to 8) (size 9 to 14) (size 15 to 20)
#    0.000    2.143    1.429    1.714    2.000    3.714 
#    0.000    0.714    0.000    6.429    0.000    0.000 
#    0.000    0.000    0.000    0.000    0.000    0.000 
#
# Total GULP energy -156324.998669 kJ/mol
# GULP energy per Si atom -5583.035667 kJ/mol
# Density = 1.971968 g / cm^3
# Si number density = 19.764662 Si / 1000 Ang^3
#
#
#
# Elastic Constant Matrix: (Units=GPa)
#
#
# Indices 1 2 3 4 5 6 
#
# 1 69.5352 10.1542 -5.8448 0.0000 -13.1460 0.0000
# 2 10.1542 30.8831 2.7305 0.0000 -9.7014 0.0000
# 3 -5.8448 2.7305 18.5271 0.0000 -11.2799 0.0000
# 4 0.0000 0.0000 0.0000 25.8334 0.0000 5.5817
# 5 -13.1460 -9.7014 -11.2799 0.0000 34.3327 0.0000
# 6 0.0000 0.0000 0.0000 5.5817 0.0000 27.8828
#
#
#
# Elastic Compliance Matrix: (Units=1/GPa)
#
#
# Indices 1 2 3 4 5 6 
#
# 1 0.017794 -0.003876 0.012083 0.000000 0.009688 0.000000
# 2 -0.003876 0.036396 -0.001536 0.000000 0.008296 0.000000
# 3 0.012083 -0.001536 0.075710 0.000000 0.029067 0.000000
# 4 0.000000 0.000000 0.000000 0.040460 0.000000 -0.008099
# 5 0.009688 0.008296 0.029067 0.000000 0.044730 0.000000
# 6 0.000000 0.000000 0.000000 -0.008099 0.000000 0.037486
#
#
# Mechanical properties :
#
#
# Convention : Reuss Voigt Hill
#
# Bulk Modulus (GPa) = 6.98105 14.78056 10.88080
# Shear Modulus (GPa) = 17.42274 25.07015 21.24645
#
# Velocity S-wave (km/s) = 2.97224 3.56537 3.28223
# Velocity P-wave (km/s) = 3.91392 4.94405 4.45883
#
# Compressibility (1/GPa) = 0.14324497
#
# Stress axis : x y z
#
# Youngs Moduli (GPa) = 56.19716 27.47531 13.20826
#
# Poissons Ratio (x) = 0.10648 -0.15960
# Poissons Ratio (y) = 0.21780 0.02029
# Poissons Ratio (z) = -0.67906 0.04220
#
# Static dielectric constant tensor:
#      x y z
#    x 1.708300 0.000000 -0.001220 
#    y 0.000000 1.664290 0.000000 
#    z -0.001220 0.000000 1.687370 
# 
# From -- ./inp_files/37347.got.cif
#   From: 2010.05.17/outbox.cif.g08.bks.cpg/sg10_19_cif.got.tgz:37347.got - 2010.06.03 11:33:40.
