data_PCOD9147680
_publ_section_title
;
Structure prediction by ZEFSAII (Michael W. Deem and Ramdas Pophale) SiO2 
 PCOD9147680
Probable space group: P 2/M
;
_chemical_formula_sum "Si O2"
_cell_formula_units_Z 30
_cell_length_a 9.598583
_cell_length_b 14.422674
_cell_length_c 12.459930
_cell_angle_alpha 90.000000
_cell_angle_beta 61.454746
_cell_angle_gamma 90.000000
_cell_volume 1515.237115
_symmetry_space_group_name_H-M "P 2/M"
_symmetry_group_IT_number 10
_symmetry_cell_setting 'monoclinic'
loop_
_space_group_symop_operation_xyz
x,y,z
-x,y,-z
-x,-y,-z
x,-y,z
loop_
_atom_site_type_symbol
_atom_site_label
_atom_site_fract_x
_atom_site_fract_y
_atom_site_fract_z
Si Si1 0.473835 0.895978 0.743506
Si Si2 0.229207 0.686750 0.670511
Si Si3 0.500000 0.171742 0.500000
Si Si4 0.667805 0.894915 0.876734
Si Si5 0.170954 0.391959 0.468003
Si Si6 0.130379 0.280934 0.135550
Si Si7 0.366843 0.389130 0.198581
Si Si8 0.319685 0.705042 0.864630
O O1 0.519815 0.884728 0.602510
O O2 0.623438 0.886070 0.767806
O O3 0.357612 0.811853 0.819246
O O4 0.408862 0.000000 0.786233
O O5 0.346767 0.764406 0.579594
O O6 0.208260 0.617862 0.578865
O O7 0.301321 0.653302 0.757314
O O8 0.053154 0.719922 0.766500
O O9 0.789709 0.817587 0.867396
O O10 0.720781 0.000000 0.879218
O O11 0.500000 0.881482 0.000000
O O12 0.161605 0.500000 0.443375
O O13 0.307319 0.356782 0.338819
O O14 0.000000 0.349419 0.500000
O O15 0.228448 0.355711 0.170082
O O16 0.169556 0.301058 0.997207
O O17 0.389485 0.500000 0.183216
O O18 0.532625 0.336613 0.123427
#
# Coordination Sequence:
#
# PCOD9147680 Si02
#       8
#     4   4   2   4   4   4   4   4
#     4  10  19  36  63  88 118 162 204 245 295 360
#     4  11  24  39  63  86 124 160 204 252 304 361
#     4  10  23  40  57  86 122 166 201 242 312 370
#     4  10  19  35  62  92 121 158 204 251 297 354
#     4  10  20  38  61  86 114 153 207 255 299 351
#     4  12  22  39  62  90 125 161 201 254 302 359
#     4  11  23  40  65  92 121 158 202 249 303 365
#     4  11  23  40  58  93 125 162 203 242 304 369
#
# _framework density 19.798881999999999
#
# number of rings (size 3 to 8) (size 9 to 14) (size 15 to 20)
#    0.000    1.333    4.000    2.600    0.000    1.600 
#    0.000    5.000    0.000    8.000    0.000    0.000 
#    0.000    0.000    0.000    0.000    0.000    0.000 
#
# Total GULP energy -167420.277452 kJ/mol
# GULP energy per Si atom -5580.675915 kJ/mol
# Density = 1.975382 g / cm^3
# Si number density = 19.798882 Si / 1000 Ang^3
#
#
#
# Elastic Constant Matrix: (Units=GPa)
#
#
# Indices 1 2 3 4 5 6 
#
# 1 76.0762 13.1403 25.5278 0.0000 -8.3604 0.0000
# 2 13.1403 56.9146 12.6632 0.0000 -11.9102 0.0000
# 3 25.5278 12.6632 113.7214 0.0000 1.2688 0.0000
# 4 0.0000 0.0000 0.0000 13.2310 0.0000 1.1537
# 5 -8.3604 -11.9102 1.2688 0.0000 44.2279 0.0000
# 6 0.0000 0.0000 0.0000 1.1537 0.0000 4.1901
#
#
#
# Elastic Compliance Matrix: (Units=1/GPa)
#
#
# Indices 1 2 3 4 5 6 
#
# 1 0.014826 -0.002255 -0.003103 0.000000 0.002284 0.000000
# 2 -0.002255 0.019493 -0.001719 0.000000 0.004872 0.000000
# 3 -0.003103 -0.001719 0.009696 0.000000 -0.001328 0.000000
# 4 0.000000 0.000000 0.000000 0.077439 0.000000 -0.021321
# 5 0.002284 0.004872 -0.001328 0.000000 0.024392 0.000000
# 6 0.000000 0.000000 0.000000 -0.021321 0.000000 0.244531
#
#
# Mechanical properties :
#
#
# Convention : Reuss Voigt Hill
#
# Bulk Modulus (GPa) = 33.48627 38.81941 36.15284
# Shear Modulus (GPa) = 12.06321 25.35519 18.70920
#
# Velocity S-wave (km/s) = 2.47105 3.58248 3.07736
# Velocity P-wave (km/s) = 5.00913 6.06314 5.56116
#
# Compressibility (1/GPa) = 0.02986299
#
# Stress axis : x y z
#
# Youngs Moduli (GPa) = 67.44770 51.30107 103.13439
#
# Poissons Ratio (x) = 0.11567 0.31998
# Poissons Ratio (y) = 0.15207 0.17727
# Poissons Ratio (z) = 0.20926 0.08818
#
# Static dielectric constant tensor:
#      x y z
#    x 1.707430 0.000000 0.017040 
#    y 0.000000 1.692180 0.000000 
#    z 0.017040 0.000000 1.739130 
# 
# From -- ./inp_files/42941.got.cif
#   From: 2010.05.17/outbox.cif.g08.bks.cpg/sg10_22_cif.got.tgz:42941.got - 2010.06.03 11:33:40.
