data_PCOD9147838
_publ_section_title
;
Structure prediction by ZEFSAII (Michael W. Deem and Ramdas Pophale) SiO2 
 PCOD9147838
Probable space group: P 2/M
;
_chemical_formula_sum "Si O2"
_cell_formula_units_Z 32
_cell_length_a 15.274017
_cell_length_b 23.286184
_cell_length_c 8.951262
_cell_angle_alpha 90.000000
_cell_angle_beta 29.755116
_cell_angle_gamma 90.000000
_cell_volume 1580.064840
_symmetry_space_group_name_H-M "P 2/M"
_symmetry_group_IT_number 10
_symmetry_cell_setting 'monoclinic'
loop_
_space_group_symop_operation_xyz
x,y,z
-x,y,-z
-x,-y,-z
x,-y,z
loop_
_atom_site_type_symbol
_atom_site_label
_atom_site_fract_x
_atom_site_fract_y
_atom_site_fract_z
Si Si1 0.695680 0.862929 0.271444
Si Si2 0.843764 0.260807 0.022051
Si Si3 0.323798 0.851959 0.343004
Si Si4 0.184242 0.360189 0.138145
Si Si5 0.751933 0.278478 0.496408
Si Si6 0.534734 0.392961 0.795086
Si Si7 0.160076 0.432741 0.869939
Si Si8 0.989639 0.064704 0.197469
O O1 0.500000 0.861001 0.500000
O O2 0.675474 0.862456 0.480399
O O3 0.807249 0.806421 0.060725
O O4 0.815260 0.916058 0.043102
O O5 0.775095 0.296413 0.983844
O O6 0.046745 0.279475 0.744398
O O7 0.753249 0.275799 0.313804
O O8 0.311432 0.782829 0.346503
O O9 0.154561 0.888281 0.539731
O O10 0.500000 0.871786 0.000000
O O11 0.000000 0.361490 0.500000
O O12 0.349063 0.379897 0.992068
O O13 0.166784 0.398302 0.014219
O O14 0.640483 0.335320 0.691184
O O15 0.661987 0.423176 0.487633
O O16 0.500000 0.426559 0.000000
O O17 0.133389 0.500000 0.940270
O O18 0.000000 0.412448 0.000000
O O19 0.944462 0.000000 0.309448
O O20 0.000000 0.066281 0.000000
#
# Coordination Sequence:
#
# PCOD9147838 Si02
#       8
#     4   4   4   4   4   4   4   4
#     4  10  21  36  58  86 119 159 203 253 313 376
#     4  10  20  36  59  86 123 161 202 255 314 381
#     4  10  20  35  58  87 117 155 204 255 309 372
#     4  12  26  42  65  97 132 170 214 263 322 379
#     4  10  19  36  61  85 123 162 203 254 315 376
#     4  12  25  41  66  96 130 170 215 264 321 381
#     4  11  25  47  72  97 131 173 216 263 314 373
#     4   9  18  37  60  83 115 161 211 253 302 374
#
# _framework density 20.252331999999999
#
# number of rings (size 3 to 8) (size 9 to 14) (size 15 to 20)
#    0.000    1.500    2.500    3.000    3.500    2.000 
#    0.000    0.625    0.000    0.750    0.000    0.000 
#    0.000    0.000    0.000    0.000    0.000    0.000 
#
# Total GULP energy -178679.164389 kJ/mol
# GULP energy per Si atom -5583.723887 kJ/mol
# Density = 2.020624 g / cm^3
# Si number density = 20.252332 Si / 1000 Ang^3
#
#
#
# Elastic Constant Matrix: (Units=GPa)
#
#
# Indices 1 2 3 4 5 6 
#
# 1 83.2979 21.8905 33.8391 0.0000 -6.9706 0.0000
# 2 21.8905 73.0526 34.1021 0.0000 2.0323 0.0000
# 3 33.8391 34.1021 110.1684 0.0000 -5.3993 0.0000
# 4 0.0000 0.0000 0.0000 2.8500 0.0000 -7.6392
# 5 -6.9706 2.0323 -5.3993 0.0000 31.4567 0.0000
# 6 0.0000 0.0000 0.0000 -7.6392 0.0000 7.8911
#
#
#
# Elastic Compliance Matrix: (Units=1/GPa)
#
#
# Indices 1 2 3 4 5 6 
#
# 1 0.014355 -0.002787 -0.003411 0.000000 0.002776 0.000000
# 2 -0.002787 0.016655 -0.004420 0.000000 -0.002452 0.000000
# 3 -0.003411 -0.004420 0.011567 0.000000 0.001515 0.000000
# 4 0.000000 0.000000 0.000000 -0.220008 0.000000 -0.212985
# 5 0.002776 -0.002452 0.001515 0.000000 0.032823 0.000000
# 6 0.000000 0.000000 0.000000 -0.212985 0.000000 -0.079461
#
#
# Mechanical properties :
#
#
# Convention : Reuss Voigt Hill
#
# Bulk Modulus (GPa) = 46.85327 49.57582 48.21455
# Shear Modulus (GPa) = -25.54677 20.21873 -2.66402
#
# Velocity S-wave (km/s) = -3.55551 3.16308 -1.14816
# Velocity P-wave (km/s) = 2.51585 6.15405 4.70116
#
# Compressibility (1/GPa) = 0.02134323
#
# Stress axis : x y z
#
# Youngs Moduli (GPa) = 69.66081 60.04114 86.45268
#
# Poissons Ratio (x) = 0.16731 0.29486
# Poissons Ratio (y) = 0.19412 0.38210
# Poissons Ratio (z) = 0.23759 0.26537
#
# Static dielectric constant tensor:
#      x y z
#    x 1.713360 0.000000 -0.001850 
#    y 0.000000 1.728790 0.000000 
#    z -0.001850 0.000000 1.716110 
# 
# From -- ./inp_files/30565.got.cif
#   From: 2010.05.17/outbox.cif.g08.bks.cpg/sg10_16_cif.got.tgz:30565.got - 2010.06.03 11:33:40.
