data_PCOD9147775
_publ_section_title
;
Structure prediction by ZEFSAII (Michael W. Deem and Ramdas Pophale) SiO2 
 PCOD9147775
Probable space group: P 2/M
;
_chemical_formula_sum "Si O2"
_cell_formula_units_Z 28
_cell_length_a 27.909300
_cell_length_b 8.607436
_cell_length_c 9.549433
_cell_angle_alpha 90.000000
_cell_angle_beta 142.521220
_cell_angle_gamma 90.000000
_cell_volume 1395.846824
_symmetry_space_group_name_H-M "P 2/M"
_symmetry_group_IT_number 10
_symmetry_cell_setting 'monoclinic'
loop_
_space_group_symop_operation_xyz
x,y,z
-x,y,-z
-x,-y,-z
x,-y,z
loop_
_atom_site_type_symbol
_atom_site_label
_atom_site_fract_x
_atom_site_fract_y
_atom_site_fract_z
Si Si1 0.704247 0.814917 0.152383
Si Si2 0.577666 0.819360 0.276240
Si Si3 0.839148 0.314097 0.288644
Si Si4 0.524431 0.811173 0.712592
Si Si5 0.874921 0.687671 0.053114
Si Si6 0.734643 0.316796 0.516827
Si Si7 0.018195 0.186143 0.202063
O O1 0.753731 0.743201 0.140509
O O2 0.744175 0.771190 0.392274
O O3 0.703158 0.000000 0.133578
O O4 0.613467 0.758888 0.949052
O O5 0.543714 0.755097 0.342351
O O6 0.648865 0.724583 0.377385
O O7 0.603427 0.000000 0.348901
O O8 0.500000 0.819160 0.000000
O O9 0.840569 0.500000 0.292817
O O10 0.862366 0.262221 0.185114
O O11 0.901608 0.252251 0.546769
O O12 0.500000 0.773449 0.500000
O O13 0.525231 0.000000 0.731128
O O14 0.884192 0.500000 0.075307
O O15 0.949530 0.760304 0.148287
O O16 0.799171 0.726540 0.782512
O O17 0.741404 0.500000 0.505522
O O18 0.022824 0.000000 0.210642
O O19 0.000000 0.239070 0.000000
#
# Coordination Sequence:
#
# PCOD9147775 Si02
#       7
#     4   4   4   4   4   4   4
#     4  11  22  39  61  88 120 156 203 252 298 353
#     4  10  19  36  59  84 115 154 201 252 301 350
#     4  11  24  42  63  89 124 160 196 241 297 355
#     4   9  19  35  56  83 116 154 197 247 304 357
#     4  10  24  43  62  88 124 162 198 240 295 356
#     4  11  23  39  60  87 121 160 202 246 298 357
#     4  11  24  42  66  96 124 153 197 245 289 346
#
# _framework density 20.059508000000001
#
# number of rings (size 3 to 8) (size 9 to 14) (size 15 to 20)
#    0.000    1.571    1.429    3.000    2.000    7.714 
#    0.000    0.000    0.000    2.143    0.000    0.000 
#    0.000    0.000    0.000    0.000    0.000    0.000 
#
# Total GULP energy -156461.529288 kJ/mol
# GULP energy per Si atom -5587.911760 kJ/mol
# Density = 2.001385 g / cm^3
# Si number density = 20.059508 Si / 1000 Ang^3
#
#
#
# Elastic Constant Matrix: (Units=GPa)
#
#
# Indices 1 2 3 4 5 6 
#
# 1 127.9522 15.6200 14.7389 0.0000 -12.7630 0.0000
# 2 15.6200 21.3533 14.9467 0.0000 -0.0650 0.0000
# 3 14.7389 14.9467 59.4331 0.0000 -5.3413 0.0000
# 4 0.0000 0.0000 0.0000 21.8168 0.0000 -3.4372
# 5 -12.7630 -0.0650 -5.3413 0.0000 36.9091 0.0000
# 6 0.0000 0.0000 0.0000 -3.4372 0.0000 34.3833
#
#
#
# Elastic Compliance Matrix: (Units=1/GPa)
#
#
# Indices 1 2 3 4 5 6 
#
# 1 0.008923 -0.006262 -0.000367 0.000000 0.003022 0.000000
# 2 -0.006262 0.061375 -0.014252 0.000000 -0.004120 0.000000
# 3 -0.000367 -0.014252 0.020757 0.000000 0.002852 0.000000
# 4 0.000000 0.000000 0.000000 0.046570 0.000000 0.004655
# 5 0.003022 -0.004120 0.002852 0.000000 0.028544 0.000000
# 6 0.000000 0.000000 0.000000 0.004655 0.000000 0.029549
#
#
# Mechanical properties :
#
#
# Convention : Reuss Voigt Hill
#
# Bulk Modulus (GPa) = 20.28633 33.26110 26.77372
# Shear Modulus (GPa) = 19.69186 29.51735 24.60461
#
# Velocity S-wave (km/s) = 3.13656 3.84016 3.50606
# Velocity P-wave (km/s) = 4.82208 6.02326 5.45583
#
# Compressibility (1/GPa) = 0.04929427
#
# Stress axis : x y z
#
# Youngs Moduli (GPa) = 112.06413 16.29321 48.17612
#
# Poissons Ratio (x) = 0.10202 0.01766
# Poissons Ratio (y) = 0.70171 0.68663
# Poissons Ratio (z) = 0.04109 0.23222
#
# Static dielectric constant tensor:
#      x y z
#    x 1.755300 0.000000 -0.025400 
#    y 0.000000 1.688330 0.000000 
#    z -0.025400 0.000000 1.708450 
# 
# From -- ./inp_files/37346.got.cif
#   From: 2010.05.17/outbox.cif.g08.bks.cpg/sg10_19_cif.got.tgz:37346.got - 2010.06.03 11:33:40.
