data_PCOD9147886
_publ_section_title
;
Structure prediction by ZEFSAII (Michael W. Deem and Ramdas Pophale) SiO2 
 PCOD9147886
Probable space group: P 2/M
;
_chemical_formula_sum "Si O2"
_cell_formula_units_Z 18
_cell_length_a 9.686793
_cell_length_b 7.879943
_cell_length_c 24.062546
_cell_angle_alpha 90.000000
_cell_angle_beta 151.262046
_cell_angle_gamma 90.000000
_cell_volume 883.106611
_symmetry_space_group_name_H-M "P 2/M"
_symmetry_group_IT_number 10
_symmetry_cell_setting 'monoclinic'
loop_
_space_group_symop_operation_xyz
x,y,z
-x,y,-z
-x,-y,-z
x,-y,z
loop_
_atom_site_type_symbol
_atom_site_label
_atom_site_fract_x
_atom_site_fract_y
_atom_site_fract_z
Si Si1 0.186644 0.500000 0.918863
Si Si2 0.412118 0.500000 0.326978
Si Si3 0.211154 0.500000 0.431552
Si Si4 0.677031 0.186983 0.363465
Si Si5 0.823626 0.199120 0.995039
Si Si6 0.203426 0.187112 0.724244
O O1 0.928721 0.500000 0.782113
O O2 0.500000 0.500000 0.000000
O O3 0.141739 0.335856 0.943482
O O4 0.660872 0.500000 0.461207
O O5 0.477522 0.333290 0.314817
O O6 0.500000 0.500000 0.500000
O O7 0.023642 0.336004 0.351512
O O8 0.690047 0.190492 0.301846
O O9 0.000000 0.212520 0.500000
O O10 0.583085 0.000000 0.349004
O O11 0.486198 0.207948 0.860783
O O12 0.892646 0.000000 0.033301
O O13 0.000000 0.239068 0.000000
O O14 0.076980 0.000000 0.690115
#
# Coordination Sequence:
#
# PCOD9147886 Si02
#       6
#     2   2   2   4   4   4
#     4  12  28  43  63  92 133 172 216 259 316 376
#     4  12  24  39  60  91 123 166 199 246 307 374
#     4  12  26  39  59  84 126 167 206 244 296 367
#     4  10  19  36  62  94 126 150 188 251 315 370
#     4  10  22  44  71  96 124 165 218 269 315 370
#     4  10  21  39  66  94 120 154 201 257 310 364
#
# _framework density 20.382591000000001
#
# number of rings (size 3 to 8) (size 9 to 14) (size 15 to 20)
#    0.000    1.333    2.222    3.333    3.111    3.556 
#    0.000    0.000    0.000    0.000    0.000    0.000 
#    0.000    0.000    0.000    0.000    0.000    0.000 
#
# Total GULP energy -100512.665239 kJ/mol
# GULP energy per Si atom -5584.036958 kJ/mol
# Density = 2.033620 g / cm^3
# Si number density = 20.382591 Si / 1000 Ang^3
#
#
#
# Elastic Constant Matrix: (Units=GPa)
#
#
# Indices 1 2 3 4 5 6 
#
# 1 46.7592 56.3123 4.9812 0.0000 19.0002 0.0000
# 2 56.3123 164.0129 71.0765 0.0000 28.9355 0.0000
# 3 4.9812 71.0765 107.2831 0.0000 11.6360 0.0000
# 4 0.0000 0.0000 0.0000 643.0209 0.0000 416.7286
# 5 19.0002 28.9355 11.6360 0.0000 35.3547 0.0000
# 6 0.0000 0.0000 0.0000 416.7286 0.0000 287.2472
#
#
#
# Elastic Compliance Matrix: (Units=1/GPa)
#
#
# Indices 1 2 3 4 5 6 
#
# 1 0.050224 -0.020107 0.012581 0.000000 -0.014676 0.000000
# 2 -0.020107 0.017692 -0.010774 0.000000 -0.000128 0.000000
# 3 0.012581 -0.010774 0.016231 0.000000 -0.003286 0.000000
# 4 0.000000 0.000000 0.000000 0.026011 0.000000 -0.037736
# 5 -0.014676 -0.000128 -0.003286 0.000000 0.037358 0.000000
# 6 0.000000 0.000000 0.000000 -0.037736 0.000000 0.058228
#
#
# Mechanical properties :
#
#
# Convention : Reuss Voigt Hill
#
# Bulk Modulus (GPa) = 21.03145 64.75500 42.89323
# Shear Modulus (GPa) = 19.36535 205.50356 112.43446
#
# Velocity S-wave (km/s) = 3.08570 10.05196 7.43517
# Velocity P-wave (km/s) = 4.79960 12.90586 9.73646
#
# Compressibility (1/GPa) = 0.04754783
#
# Stress axis : x y z
#
# Youngs Moduli (GPa) = 19.91074 56.52222 61.60993
#
# Poissons Ratio (x) = 1.13649 -0.77511
# Poissons Ratio (y) = 0.40034 0.66377
# Poissons Ratio (z) = -0.25050 0.60896
#
# Static dielectric constant tensor:
#      x y z
#    x 1.942250 0.000000 -0.406620 
#    y 0.000000 1.730900 0.000000 
#    z -0.406620 0.000000 2.259940 
# 
# From -- ./inp_files/76275.got.cif
#   From: 2010.05.17/outbox.cif.g08.bks.cpg/sg10_39_cif.got.tgz:76275.got - 2010.06.03 11:33:40.
