data_PCOD9147057
_publ_section_title
;
Structure prediction by ZEFSAII (Michael W. Deem and Ramdas Pophale) SiO2 
 PCOD9147057
Probable space group: P 2/M
;
_chemical_formula_sum "Si O2"
_cell_formula_units_Z 24
_cell_length_a 14.229172
_cell_length_b 7.526782
_cell_length_c 10.011559
_cell_angle_alpha 90.000000
_cell_angle_beta 91.905646
_cell_angle_gamma 90.000000
_cell_volume 1071.643717
_symmetry_space_group_name_H-M "P 2/M"
_symmetry_group_IT_number 10
_symmetry_cell_setting 'monoclinic'
loop_
_space_group_symop_operation_xyz
x,y,z
-x,y,-z
-x,-y,-z
x,-y,z
loop_
_atom_site_type_symbol
_atom_site_label
_atom_site_fract_x
_atom_site_fract_y
_atom_site_fract_z
Si Si1 0.413350 0.702648 0.076713
Si Si2 0.104371 0.286067 0.852892
Si Si3 0.292836 0.284369 0.311497
Si Si4 0.897136 0.283367 0.836858
Si Si5 0.592097 0.790998 0.431921
Si Si6 0.692255 0.791846 0.177390
O O1 0.441402 0.500000 0.109361
O O2 0.329626 0.701223 0.964627
O O3 0.500000 0.786844 0.000000
O O4 0.372383 0.781621 0.210384
O O5 0.104099 0.500000 0.852714
O O6 0.198235 0.227933 0.782691
O O7 0.001827 0.227721 0.797353
O O8 0.112885 0.228312 0.008607
O O9 0.293478 0.500000 0.305735
O O10 0.191045 0.223994 0.255063
O O11 0.323046 0.228500 0.459602
O O12 0.895785 0.500000 0.836368
O O13 0.500000 0.713277 0.500000
O O14 0.624875 0.718900 0.290595
O O15 0.573983 0.000000 0.409516
O O16 0.673349 0.000000 0.158382
#
# Coordination Sequence:
#
# PCOD9147057 Si02
#       6
#     4   4   4   4   4   4
#     4  10  20  34  55  82 108 134 173 227 277 320
#     4   9  16  32  57  80 108 142 174 216 269 318
#     4  10  19  34  56  83 108 133 177 226 267 317
#     4   8  15  30  55  83 108 138 173 216 269 319
#     4  10  23  41  55  71 105 151 188 217 261 321
#     4  11  22  35  53  79 109 142 181 222 266 319
#
# _framework density 22.395502
#
# number of rings (size 3 to 8) (size 9 to 14) (size 15 to 20)
#    0.000    2.333    1.667    2.500    0.000    2.667 
#    0.000    3.333    0.000    5.000    0.000    0.000 
#    0.000    0.000    0.000    0.000    0.000    0.000 
#
# Total GULP energy -134023.158432 kJ/mol
# GULP energy per Si atom -5584.298268 kJ/mol
# Density = 2.234453 g / cm^3
# Si number density = 22.395502 Si / 1000 Ang^3
#
#
#
# Elastic Constant Matrix: (Units=GPa)
#
#
# Indices 1 2 3 4 5 6 
#
# 1 103.8399 4.0717 -7.8060 0.0000 2.2425 0.0000
# 2 4.0717 63.9787 -1.8124 0.0000 -5.0726 0.0000
# 3 -7.8060 -1.8124 55.3205 0.0000 -2.7269 0.0000
# 4 0.0000 0.0000 0.0000 14.7554 0.0000 2.9657
# 5 2.2425 -5.0726 -2.7269 0.0000 32.8659 0.0000
# 6 0.0000 0.0000 0.0000 2.9657 0.0000 6.9296
#
#
#
# Elastic Compliance Matrix: (Units=1/GPa)
#
#
# Indices 1 2 3 4 5 6 
#
# 1 0.009769 -0.000636 0.001325 0.000000 -0.000655 0.000000
# 2 -0.000636 0.015888 0.000556 0.000000 0.002542 0.000000
# 3 0.001325 0.000556 0.018357 0.000000 0.001518 0.000000
# 4 0.000000 0.000000 0.000000 0.074150 0.000000 -0.031735
# 5 -0.000655 0.002542 0.001518 0.000000 0.030990 0.000000
# 6 0.000000 0.000000 0.000000 -0.031735 0.000000 0.157891
#
#
# Mechanical properties :
#
#
# Convention : Reuss Voigt Hill
#
# Bulk Modulus (GPa) = 21.50348 23.56061 22.53205
# Shear Modulus (GPa) = 15.62233 26.15590 20.88912
#
# Velocity S-wave (km/s) = 2.64401 3.42118 3.05739
# Velocity P-wave (km/s) = 4.35243 5.11361 4.74829
#
# Compressibility (1/GPa) = 0.04650409
#
# Stress axis : x y z
#
# Youngs Moduli (GPa) = 102.36541 62.94074 54.47647
#
# Poissons Ratio (x) = 0.04003 -0.07220
# Poissons Ratio (y) = 0.06511 -0.03029
# Poissons Ratio (z) = -0.13567 -0.03500
#
# Static dielectric constant tensor:
#      x y z
#    x 1.886870 0.000000 0.005890 
#    y 0.000000 1.860540 0.000000 
#    z 0.005890 0.000000 1.782070 
# 
# From -- ./inp_files/27190.got.cif
#   From: 2010.05.17/outbox.cif.g08.bks.cpg/sg10_14_cif.got.tgz:27190.got - 2010.06.03 11:33:40.
