data_PCOD9147554
_publ_section_title
;
Structure prediction by ZEFSAII (Michael W. Deem and Ramdas Pophale) SiO2 
 PCOD9147554
Probable space group: P 2/M
;
_chemical_formula_sum "Si O2"
_cell_formula_units_Z 32
_cell_length_a 28.428546
_cell_length_b 7.940438
_cell_length_c 22.272138
_cell_angle_alpha 90.000000
_cell_angle_beta 18.244646
_cell_angle_gamma 90.000000
_cell_volume 1574.017256
_symmetry_space_group_name_H-M "P 2/M"
_symmetry_group_IT_number 10
_symmetry_cell_setting 'monoclinic'
loop_
_space_group_symop_operation_xyz
x,y,z
-x,y,-z
-x,-y,-z
x,-y,z
loop_
_atom_site_type_symbol
_atom_site_label
_atom_site_fract_x
_atom_site_fract_y
_atom_site_fract_z
Si Si1 0.746206 0.193493 0.818256
Si Si2 0.619560 0.205662 0.170251
Si Si3 0.688714 0.798891 0.520977
Si Si4 0.159974 0.299233 0.782058
Si Si5 0.468834 0.201793 0.471424
Si Si6 0.764783 0.204248 0.660364
Si Si7 0.575002 0.691926 0.778690
Si Si8 0.895956 0.205911 0.756065
O O1 0.746946 0.266414 0.750429
O O2 0.848418 0.266830 0.747177
O O3 0.796489 0.000000 0.749821
O O4 0.574224 0.197578 0.048895
O O5 0.473819 0.256227 0.308187
O O6 0.584695 0.264005 0.280021
O O7 0.621484 0.000000 0.168179
O O8 0.771971 0.263248 0.954145
O O9 0.808566 0.744475 0.325716
O O10 0.694183 0.730095 0.581658
O O11 0.690952 0.000000 0.521123
O O12 0.160349 0.500000 0.787260
O O13 0.301681 0.234019 0.648796
O O14 0.000000 0.234231 0.000000
O O15 0.500000 0.270292 0.500000
O O16 0.487058 0.000000 0.451872
O O17 0.646312 0.273954 0.756898
O O18 0.933611 0.249571 0.436196
O O19 0.748330 0.000000 0.679752
O O20 0.525848 0.500000 0.833580
O O21 0.888584 0.000000 0.763272
#
# Coordination Sequence:
#
# PCOD9147554 Si02
#       8
#     4   4   4   4   4   4   4   4
#     4  10  19  35  59  82 104 138 188 237 277 330
#     4   8  14  28  54  81 105 133 171 228 277 317
#     4  10  19  36  62  85 107 141 189 235 272 318
#     4  10  21  37  57  84 120 153 182 221 275 333
#     4   9  18  33  54  82 114 146 189 236 272 314
#     4  10  21  35  54  81 111 143 181 231 286 332
#     4  12  24  37  54  78 113 150 184 224 277 333
#     4   9  16  31  56  83 107 133 178 233 285 326
#
# _framework density 20.330145000000002
#
# number of rings (size 3 to 8) (size 9 to 14) (size 15 to 20)
#    0.000    2.250    1.250    3.375    0.000    4.750 
#    2.250    0.625    0.000    1.500    0.000    0.000 
#    0.000    0.000    0.000    0.000    0.000    0.000 
#
# Total GULP energy -178595.625844 kJ/mol
# GULP energy per Si atom -5581.113308 kJ/mol
# Density = 2.028387 g / cm^3
# Si number density = 20.330145 Si / 1000 Ang^3
#
#
#
# Elastic Constant Matrix: (Units=GPa)
#
#
# Indices 1 2 3 4 5 6 
#
# 1 71.1007 1.4274 0.2539 0.0000 17.4731 0.0000
# 2 1.4274 19.1859 -7.5198 0.0000 4.9182 0.0000
# 3 0.2539 -7.5198 69.3997 0.0000 18.9082 0.0000
# 4 0.0000 0.0000 0.0000 18.7620 0.0000 -41.8729
# 5 17.4731 4.9182 18.9082 0.0000 33.1296 0.0000
# 6 0.0000 0.0000 0.0000 -41.8729 0.0000 192.3212
#
#
#
# Elastic Compliance Matrix: (Units=1/GPa)
#
#
# Indices 1 2 3 4 5 6 
#
# 1 0.016729 0.002895 0.003284 0.000000 -0.011127 0.000000
# 2 0.002895 0.060611 0.011160 0.000000 -0.016894 0.000000
# 3 0.003284 0.011160 0.019573 0.000000 -0.014560 0.000000
# 4 0.000000 0.000000 0.000000 0.103678 0.000000 0.022573
# 5 -0.011127 -0.016894 -0.014560 0.000000 0.046871 0.000000
# 6 0.000000 0.000000 0.000000 0.022573 0.000000 0.010114
#
#
# Mechanical properties :
#
#
# Convention : Reuss Voigt Hill
#
# Bulk Modulus (GPa) = 7.59924 16.44548 12.02236
# Shear Modulus (GPa) = 18.74321 59.87755 39.31038
#
# Velocity S-wave (km/s) = 3.03964 5.43291 4.40204
# Velocity P-wave (km/s) = 4.00815 6.88928 5.63593
#
# Compressibility (1/GPa) = 0.13159210
#
# Stress axis : x y z
#
# Youngs Moduli (GPa) = 59.77538 16.49863 51.08966
#
# Poissons Ratio (x) = -0.04777 -0.16779
# Poissons Ratio (y) = -0.17306 -0.57015
# Poissons Ratio (z) = -0.19632 -0.18412
#
# Static dielectric constant tensor:
#      x y z
#    x 1.718190 0.000000 0.035310 
#    y 0.000000 1.742670 0.000000 
#    z 0.035310 0.000000 1.721830 
# 
# From -- ./inp_files/83372.got.cif
#   From: 2010.05.17/outbox.cif.g08.bks.cpg/sg10_42_cif.got.tgz:83372.got - 2010.06.03 11:33:40.
