data_PCOD9147980
_publ_section_title
;
Structure prediction by ZEFSAII (Michael W. Deem and Ramdas Pophale) SiO2 
 PCOD9147980
Probable space group: P 2/M
;
_chemical_formula_sum "Si O2"
_cell_formula_units_Z 30
_cell_length_a 15.366596
_cell_length_b 7.866168
_cell_length_c 13.027810
_cell_angle_alpha 90.000000
_cell_angle_beta 74.358863
_cell_angle_gamma 90.000000
_cell_volume 1516.438221
_symmetry_space_group_name_H-M "P 2/M"
_symmetry_group_IT_number 10
_symmetry_cell_setting 'monoclinic'
loop_
_space_group_symop_operation_xyz
x,y,z
-x,y,-z
-x,-y,-z
x,-y,z
loop_
_atom_site_type_symbol
_atom_site_label
_atom_site_fract_x
_atom_site_fract_y
_atom_site_fract_z
Si Si1 0.491349 0.205828 0.383962
Si Si2 0.007137 0.307329 0.777674
Si Si3 0.000000 0.751449 0.000000
Si Si4 0.186029 0.802549 0.612627
Si Si5 0.684460 0.699252 0.247470
Si Si6 0.803950 0.797508 0.021851
Si Si7 0.293124 0.208387 0.379386
Si Si8 0.186766 0.204528 0.214093
O O1 0.500000 0.261033 0.500000
O O2 0.578657 0.266961 0.294713
O O3 0.395677 0.262888 0.368365
O O4 0.492496 0.000000 0.383259
O O5 0.005727 0.500000 0.820190
O O6 0.915034 0.274304 0.746035
O O7 0.095577 0.284783 0.681746
O O8 0.007595 0.187507 0.878278
O O9 0.105365 0.695670 0.976159
O O10 0.261649 0.788390 0.677017
O O11 0.229464 0.735770 0.493782
O O12 0.163328 0.000000 0.604468
O O13 0.702861 0.500000 0.250949
O O14 0.725484 0.762196 0.127348
O O15 0.827042 0.000000 0.019971
O O16 0.780754 0.754666 0.911720
O O17 0.251431 0.263917 0.284568
O O18 0.293861 0.000000 0.381058
O O19 0.181437 0.000000 0.222692
#
# Coordination Sequence:
#
# PCOD9147980 Si02
#       8
#     4   4   2   4   4   4   4   4
#     4  10  19  37  63  88 111 144 189 236 285 336
#     4  11  22  35  52  82 119 155 190 227 280 337
#     4  10  20  32  56  80 112 148 192 234 282 322
#     4  11  21  36  59  85 114 149 190 235 282 333
#     4  12  24  36  54  86 122 150 181 231 290 342
#     4  10  20  35  58  84 112 147 191 235 276 329
#     4   9  19  38  63  86 110 144 189 239 283 330
#     4   9  20  39  60  83 111 149 195 235 275 329
#
# _framework density 19.783200000000001
#
# number of rings (size 3 to 8) (size 9 to 14) (size 15 to 20)
#    0.000    1.733    2.667    2.400    0.000    4.000 
#    0.000    5.333    0.000    4.000    0.000    0.000 
#    0.000    0.000    0.000    0.000    0.000    0.000 
#
# Total GULP energy -167290.338773 kJ/mol
# GULP energy per Si atom -5576.344626 kJ/mol
# Density = 1.973817 g / cm^3
# Si number density = 19.783200 Si / 1000 Ang^3
#
#
#
# Elastic Constant Matrix: (Units=GPa)
#
#
# Indices 1 2 3 4 5 6 
#
# 1 156.0769 10.5370 108.9826 0.0000 3.4288 0.0000
# 2 10.5370 53.6093 14.4680 0.0000 -1.9336 0.0000
# 3 108.9826 14.4680 154.1270 0.0000 -12.7440 0.0000
# 4 0.0000 0.0000 0.0000 13.1528 0.0000 -39.0490
# 5 3.4288 -1.9336 -12.7440 0.0000 40.5996 0.0000
# 6 0.0000 0.0000 0.0000 -39.0490 0.0000 60.0996
#
#
#
# Elastic Compliance Matrix: (Units=1/GPa)
#
#
# Indices 1 2 3 4 5 6 
#
# 1 0.013316 -0.000137 -0.009749 0.000000 -0.004191 0.000000
# 2 -0.000137 0.019145 -0.001667 0.000000 0.000400 0.000000
# 3 -0.009749 -0.001667 0.013962 0.000000 0.005127 0.000000
# 4 0.000000 0.000000 0.000000 -0.081841 0.000000 -0.053175
# 5 -0.004191 0.000400 0.005127 0.000000 0.026613 0.000000
# 6 0.000000 0.000000 0.000000 -0.053175 0.000000 -0.017911
#
#
# Mechanical properties :
#
#
# Convention : Reuss Voigt Hill
#
# Bulk Modulus (GPa) = 42.88942 70.19872 56.54407
# Shear Modulus (GPa) = 1200.82464 38.09211 619.45837
#
# Velocity S-wave (km/s) = 24.66394 4.39279 17.71449
# Velocity P-wave (km/s) = 28.85839 7.82878 21.14351
#
# Compressibility (1/GPa) = 0.02331577
#
# Stress axis : x y z
#
# Youngs Moduli (GPa) = 75.09701 52.23362 71.62133
#
# Poissons Ratio (x) = 0.00717 0.69827
# Poissons Ratio (y) = 0.01031 0.11939
# Poissons Ratio (z) = 0.73215 0.08707
#
# Static dielectric constant tensor:
#      x y z
#    x 1.658210 0.000000 0.005090 
#    y 0.000000 1.781540 0.000000 
#    z 0.005090 0.000000 1.676400 
# 
# From -- ./inp_files/49746.got.cif
#   From: 2010.05.17/outbox.cif.g08.bks.cpg/sg10_25_cif.got.tgz:49746.got - 2010.06.03 11:33:40.
