data_PCOD9147706
_publ_section_title
;
Structure prediction by ZEFSAII (Michael W. Deem and Ramdas Pophale) SiO2 
 PCOD9147706
Probable space group: P 2/M
;
_chemical_formula_sum "Si O2"
_cell_formula_units_Z 32
_cell_length_a 17.630171
_cell_length_b 15.547742
_cell_length_c 12.185855
_cell_angle_alpha 90.000000
_cell_angle_beta 29.581390
_cell_angle_gamma 90.000000
_cell_volume 1648.949244
_symmetry_space_group_name_H-M "P 2/M"
_symmetry_group_IT_number 10
_symmetry_cell_setting 'monoclinic'
loop_
_space_group_symop_operation_xyz
x,y,z
-x,y,-z
-x,-y,-z
x,-y,z
loop_
_atom_site_type_symbol
_atom_site_label
_atom_site_fract_x
_atom_site_fract_y
_atom_site_fract_z
Si Si1 0.900532 0.815985 0.328601
Si Si2 0.828831 0.771339 0.664575
Si Si3 0.316500 0.404325 0.224662
Si Si4 0.702877 0.340113 0.517980
Si Si5 0.561280 0.199215 0.166429
Si Si6 0.244622 0.220894 0.860608
Si Si7 0.679173 0.405252 0.308054
Si Si8 0.298495 0.096382 0.586630
O O1 0.832109 0.811556 0.537775
O O2 0.839227 0.729636 0.345581
O O3 0.841469 0.889983 0.322056
O O4 0.082210 0.813790 0.105917
O O5 0.774626 0.671765 0.720468
O O6 0.000000 0.776970 0.500000
O O7 0.697150 0.811250 0.907781
O O8 0.290214 0.500000 0.212495
O O9 0.270605 0.397638 0.409482
O O10 0.500000 0.388955 0.000000
O O11 0.549094 0.280631 0.722539
O O12 0.689629 0.394432 0.425351
O O13 0.635109 0.213160 0.192683
O O14 0.446857 0.119553 0.326446
O O15 0.234968 0.322153 0.846507
O O16 0.289834 0.165801 0.696177
O O17 0.500000 0.397856 0.500000
O O18 0.734032 0.500000 0.204493
O O19 0.303678 0.000000 0.623684
#
# Coordination Sequence:
#
# PCOD9147706 Si02
#       8
#     4   4   4   4   4   4   4   4
#     4  10  23  38  66  90 127 160 201 251 311 369
#     4  11  22  41  63  89 120 169 209 248 317 367
#     4  10  20  33  55  86 119 161 217 267 303 351
#     4  10  19  36  55  84 121 165 204 257 307 355
#     4  11  21  39  66  90 125 160 209 252 302 367
#     4  12  21  40  62  95 130 164 203 258 307 366
#     4  11  21  34  56  88 126 171 214 253 307 363
#     4  11  25  43  69  98 122 157 200 254 318 377
#
# _framework density 19.406298
#
# number of rings (size 3 to 8) (size 9 to 14) (size 15 to 20)
#    0.000    1.250    6.250    1.125    0.000    2.250 
#    0.000    5.625    0.000    0.750    0.000    0.000 
#    0.000    0.000    0.000    0.000    0.000    0.000 
#
# Total GULP energy -178550.336999 kJ/mol
# GULP energy per Si atom -5579.698031 kJ/mol
# Density = 1.936213 g / cm^3
# Si number density = 19.406298 Si / 1000 Ang^3
#
#
#
# Elastic Constant Matrix: (Units=GPa)
#
#
# Indices 1 2 3 4 5 6 
#
# 1 58.2091 14.7534 -3.2100 0.0000 3.9447 0.0000
# 2 14.7534 77.6182 16.2586 0.0000 5.3057 0.0000
# 3 -3.2100 16.2586 52.6463 0.0000 -4.0970 0.0000
# 4 0.0000 0.0000 0.0000 5.4518 0.0000 -1.2356
# 5 3.9447 5.3057 -4.0970 0.0000 29.4273 0.0000
# 6 0.0000 0.0000 0.0000 -1.2356 0.0000 6.7179
#
#
#
# Elastic Compliance Matrix: (Units=1/GPa)
#
#
# Indices 1 2 3 4 5 6 
#
# 1 0.018376 -0.003853 0.002197 0.000000 -0.001463 0.000000
# 2 -0.003853 0.014870 -0.005050 0.000000 -0.002868 0.000000
# 3 0.002197 -0.005050 0.020963 0.000000 0.003535 0.000000
# 4 0.000000 0.000000 0.000000 0.191405 0.000000 0.035205
# 5 -0.001463 -0.002868 0.003535 0.000000 0.035187 0.000000
# 6 0.000000 0.000000 0.000000 0.035205 0.000000 0.155332
#
#
# Mechanical properties :
#
#
# Convention : Reuss Voigt Hill
#
# Bulk Modulus (GPa) = 24.51227 27.11975 25.81601
# Shear Modulus (GPa) = 10.79574 19.03083 14.91328
#
# Velocity S-wave (km/s) = 2.36116 3.13493 2.77515
# Velocity P-wave (km/s) = 4.48241 5.20661 4.85802
#
# Compressibility (1/GPa) = 0.04079589
#
# Stress axis : x y z
#
# Youngs Moduli (GPa) = 54.41799 67.25022 47.70231
#
# Poissons Ratio (x) = 0.25912 -0.10478
# Poissons Ratio (y) = 0.20967 0.24091
# Poissons Ratio (z) = -0.11953 0.33963
#
# Static dielectric constant tensor:
#      x y z
#    x 1.672330 0.000000 0.007820 
#    y 0.000000 1.690960 0.000000 
#    z 0.007820 0.000000 1.694170 
# 
# From -- ./inp_files/54019.got.cif
#   From: 2010.05.17/outbox.cif.g08.bks.cpg/sg10_28_cif.got.tgz:54019.got - 2010.06.03 11:33:40.
