data_PCOD9147185
_publ_section_title
;
Structure prediction by ZEFSAII (Michael W. Deem and Ramdas Pophale) SiO2 
 PCOD9147185
Probable space group: P 2/M
;
_chemical_formula_sum "Si O2"
_cell_formula_units_Z 32
_cell_length_a 11.097507
_cell_length_b 7.638024
_cell_length_c 14.986149
_cell_angle_alpha 90.000000
_cell_angle_beta 102.745906
_cell_angle_gamma 90.000000
_cell_volume 1238.969405
_symmetry_space_group_name_H-M "P 2/M"
_symmetry_group_IT_number 10
_symmetry_cell_setting 'monoclinic'
loop_
_space_group_symop_operation_xyz
x,y,z
-x,y,-z
-x,-y,-z
x,-y,z
loop_
_atom_site_type_symbol
_atom_site_label
_atom_site_fract_x
_atom_site_fract_y
_atom_site_fract_z
Si Si1 0.459360 0.710489 0.391472
Si Si2 0.183867 0.700707 0.779904
Si Si3 0.807486 0.799391 0.721504
Si Si4 0.091577 0.206297 0.440582
Si Si5 0.554738 0.201457 0.103478
Si Si6 0.894295 0.715031 0.050270
Si Si7 0.696349 0.297699 0.883177
Si Si8 0.721889 0.287394 0.385242
O O1 0.500000 0.742663 0.500000
O O2 0.442547 0.500000 0.378403
O O3 0.331261 0.793598 0.341841
O O4 0.579587 0.765641 0.354901
O O5 0.145111 0.500000 0.762008
O O6 0.325384 0.701749 0.839840
O O7 0.103642 0.777586 0.847534
O O8 0.195809 0.780942 0.683702
O O9 0.894046 0.721666 0.657265
O O10 0.789208 0.713678 0.814679
O O11 0.842486 0.000000 0.741801
O O12 0.221619 0.226317 0.512595
O O13 0.000000 0.285670 0.500000
O O14 0.064017 0.000000 0.427115
O O15 0.435542 0.208518 0.148627
O O16 0.591489 0.000000 0.097536
O O17 0.500000 0.268558 0.000000
O O18 0.895305 0.500000 0.052437
O O19 0.232032 0.770589 0.018554
O O20 0.000000 0.771844 0.000000
O O21 0.667746 0.500000 0.891836
O O22 0.723997 0.500000 0.384843
#
# Coordination Sequence:
#
# PCOD9147185 Si02
#       8
#     4   4   4   4   4   4   4   4
#     4  10  19  34  57  85 118 148 183 232 287 346
#     4  10  20  36  59  86 116 151 192 235 287 344
#     4  11  23  38  59  86 117 152 193 240 288 344
#     4  10  23  42  60  80 113 157 197 235 285 345
#     4  11  22  36  58  88 122 154 190 236 285 342
#     4   9  19  36  57  82 112 148 193 240 284 337
#     4  11  22  37  61  87 116 155 193 235 290 346
#     4  10  21  36  58  87 114 145 186 240 290 336
#
# _framework density 25.827915999999998
#
# number of rings (size 3 to 8) (size 9 to 14) (size 15 to 20)
#    0.000    1.750    2.500    1.875    0.000    4.500 
#    0.000    1.250    0.000    3.375    0.000    0.000 
#    0.000    0.000    0.000    0.000    0.000    0.000 
#
# Total GULP energy -179038.097618 kJ/mol
# GULP energy per Si atom -5594.940551 kJ/mol
# Density = 2.576913 g / cm^3
# Si number density = 25.827916 Si / 1000 Ang^3
#
#
#
# Elastic Constant Matrix: (Units=GPa)
#
#
# Indices 1 2 3 4 5 6 
#
# 1 90.3891 9.6150 19.1539 0.0000 -26.4989 0.0000
# 2 9.6150 72.6322 10.0722 0.0000 -2.7467 0.0000
# 3 19.1539 10.0722 140.8686 0.0000 -31.2625 0.0000
# 4 0.0000 0.0000 0.0000 13.5383 0.0000 0.6245
# 5 -26.4989 -2.7467 -31.2625 0.0000 58.6551 0.0000
# 6 0.0000 0.0000 0.0000 0.6245 0.0000 19.2442
#
#
#
# Elastic Compliance Matrix: (Units=1/GPa)
#
#
# Indices 1 2 3 4 5 6 
#
# 1 0.012934 -0.001444 -0.000424 0.000000 0.005550 0.000000
# 2 -0.001444 0.014068 -0.000917 0.000000 -0.000482 0.000000
# 3 -0.000424 -0.000917 0.008132 0.000000 0.004100 0.000000
# 4 0.000000 0.000000 0.000000 0.073975 0.000000 -0.002401
# 5 0.005550 -0.000482 0.004100 0.000000 0.021719 0.000000
# 6 0.000000 0.000000 0.000000 -0.002401 0.000000 0.052042
#
#
# Mechanical properties :
#
#
# Convention : Reuss Voigt Hill
#
# Bulk Modulus (GPa) = 33.82292 42.39690 38.10991
# Shear Modulus (GPa) = 25.21534 35.95742 30.58638
#
# Velocity S-wave (km/s) = 3.12794 3.73526 3.44501
# Velocity P-wave (km/s) = 5.11559 5.92061 5.53276
#
# Compressibility (1/GPa) = 0.02956575
#
# Stress axis : x y z
#
# Youngs Moduli (GPa) = 77.31809 71.08351 122.97370
#
# Poissons Ratio (x) = 0.10261 0.05211
# Poissons Ratio (y) = 0.11161 0.11271
# Poissons Ratio (z) = 0.03276 0.06515
#
# Static dielectric constant tensor:
#      x y z
#    x 2.075490 0.000000 -0.050600 
#    y 0.000000 1.935980 0.000000 
#    z -0.050600 0.000000 2.041350 
# 
# From -- ./inp_files/63784.got.cif
#   From: 2010.05.17/outbox.cif.g08.bks.cpg/sg10_32_cif.got.tgz:63784.got - 2010.06.03 11:33:40.
