data_PCOD9147779
_publ_section_title
;
Structure prediction by ZEFSAII (Michael W. Deem and Ramdas Pophale) SiO2 
 PCOD9147779
Probable space group: P 2/M
;
_chemical_formula_sum "Si O2"
_cell_formula_units_Z 24
_cell_length_a 17.491207
_cell_length_b 7.261202
_cell_length_c 17.036348
_cell_angle_alpha 90.000000
_cell_angle_beta 35.295121
_cell_angle_gamma 90.000000
_cell_volume 1250.182491
_symmetry_space_group_name_H-M "P 2/M"
_symmetry_group_IT_number 10
_symmetry_cell_setting 'monoclinic'
loop_
_space_group_symop_operation_xyz
x,y,z
-x,y,-z
-x,-y,-z
x,-y,z
loop_
_atom_site_type_symbol
_atom_site_label
_atom_site_fract_x
_atom_site_fract_y
_atom_site_fract_z
Si Si1 0.903418 0.500000 0.199050
Si Si2 0.175040 0.222776 0.165643
Si Si3 0.347274 0.221356 0.868565
Si Si4 0.356852 0.775432 0.153896
Si Si5 0.643256 0.776651 0.666580
Si Si6 0.885402 0.777959 0.352437
Si Si7 0.796962 0.500000 0.117067
O O1 0.878749 0.676024 0.274967
O O2 0.815267 0.500000 0.194891
O O3 0.056083 0.500000 0.043435
O O4 0.243502 0.285096 0.188559
O O5 0.024311 0.276871 0.276469
O O6 0.176122 0.000000 0.167070
O O7 0.265173 0.274061 0.015583
O O8 0.499465 0.275690 0.754470
O O9 0.281130 0.324459 0.851356
O O10 0.339938 0.000000 0.866456
O O11 0.340436 0.714986 0.257206
O O12 0.355982 0.000000 0.155199
O O13 0.500000 0.721443 0.000000
O O14 0.763002 0.722987 0.509937
O O15 0.643562 0.000000 0.668564
O O16 0.884930 0.000000 0.343475
#
# Coordination Sequence:
#
# PCOD9147779 Si02
#       7
#     2   4   4   4   4   4   2
#     4  11  24  41  61  86 113 142 182 241 295 339
#     4   9  16  28  52  81 113 152 188 227 273 319
#     4  10  19  36  59  86 115 147 187 231 280 336
#     4   9  14  24  48  84 117 148 195 237 264 313
#     4   9  18  32  55  85 119 156 189 228 279 330
#     4  10  21  38  58  84 117 153 188 226 284 345
#     4  11  24  39  63  90 106 139 192 237 290 346
#
# _framework density 19.197198
#
# number of rings (size 3 to 8) (size 9 to 14) (size 15 to 20)
#    0.000    2.333    3.333    0.000    0.000    2.000 
#    0.000    6.667    0.000    9.000    0.000    0.000 
#    0.000    0.000    0.000    0.000    0.000    0.000 
#
# Total GULP energy -134048.170062 kJ/mol
# GULP energy per Si atom -5585.340419 kJ/mol
# Density = 1.915350 g / cm^3
# Si number density = 19.197198 Si / 1000 Ang^3
#
#
#
# Elastic Constant Matrix: (Units=GPa)
#
#
# Indices 1 2 3 4 5 6 
#
# 1 221.9577 48.0201 108.8809 0.0000 4.3887 0.0000
# 2 48.0201 98.5137 30.8603 0.0000 3.2276 0.0000
# 3 108.8809 30.8603 163.3961 0.0000 -8.0787 0.0000
# 4 0.0000 0.0000 0.0000 1.9399 0.0000 10.0997
# 5 4.3887 3.2276 -8.0787 0.0000 31.5117 0.0000
# 6 0.0000 0.0000 0.0000 10.0997 0.0000 30.5782
#
#
#
# Elastic Compliance Matrix: (Units=1/GPa)
#
#
# Indices 1 2 3 4 5 6 
#
# 1 0.007194 -0.002031 -0.004507 0.000000 -0.001949 0.000000
# 2 -0.002031 0.011448 -0.000864 0.000000 -0.001111 0.000000
# 3 -0.004507 -0.000864 0.009441 0.000000 0.003137 0.000000
# 4 0.000000 0.000000 0.000000 -0.716341 0.000000 0.236602
# 5 -0.001949 -0.001111 0.003137 0.000000 0.032924 0.000000
# 6 0.000000 0.000000 0.000000 0.236602 0.000000 -0.045445
#
#
# Mechanical properties :
#
#
# Convention : Reuss Voigt Hill
#
# Bulk Modulus (GPa) = 75.29798 95.48779 85.39289
# Shear Modulus (GPa) = -7.33622 32.54636 12.60507
#
# Velocity S-wave (km/s) = -1.95699 4.12195 2.56522
# Velocity P-wave (km/s) = 5.84826 8.51484 7.30427
#
# Compressibility (1/GPa) = 0.01328057
#
# Stress axis : x y z
#
# Youngs Moduli (GPa) = 139.00419 87.35258 105.91759
#
# Poissons Ratio (x) = 0.17742 0.47733
# Poissons Ratio (y) = 0.28233 0.09147
# Poissons Ratio (z) = 0.62643 0.07544
#
# Static dielectric constant tensor:
#      x y z
#    x 1.629720 0.000000 -0.011320 
#    y 0.000000 1.730100 0.000000 
#    z -0.011320 0.000000 1.632430 
# 
# From -- ./inp_files/66338.got.cif
#   From: 2010.05.17/outbox.cif.g08.bks.cpg/sg10_34_cif.got.tgz:66338.got - 2010.06.03 11:33:40.
