data_PCOD9147265
_publ_section_title
;
Structure prediction by ZEFSAII (Michael W. Deem and Ramdas Pophale) SiO2 
 PCOD9147265
Probable space group: P 2/M
;
_chemical_formula_sum "Si O2"
_cell_formula_units_Z 28
_cell_length_a 9.871370
_cell_length_b 16.368095
_cell_length_c 11.357379
_cell_angle_alpha 90.000000
_cell_angle_beta 122.662208
_cell_angle_gamma 90.000000
_cell_volume 1544.888501
_symmetry_space_group_name_H-M "P 2/M"
_symmetry_group_IT_number 10
_symmetry_cell_setting 'monoclinic'
loop_
_space_group_symop_operation_xyz
x,y,z
-x,y,-z
-x,-y,-z
x,-y,z
loop_
_atom_site_type_symbol
_atom_site_label
_atom_site_fract_x
_atom_site_fract_y
_atom_site_fract_z
Si Si1 0.402907 0.000000 0.573481
Si Si2 0.189375 0.405554 0.072919
Si Si3 0.376401 0.171074 0.679227
Si Si4 0.894017 0.276964 0.567587
Si Si5 0.623521 0.742008 0.947918
Si Si6 0.973764 0.000000 0.631725
Si Si7 0.682525 0.595136 0.601513
Si Si8 0.145505 0.838715 0.795927
O O1 0.500000 0.000000 0.500000
O O2 0.432627 0.916535 0.658924
O O3 0.216421 0.000000 0.450582
O O4 0.204265 0.500000 0.038516
O O5 0.278354 0.340298 0.032424
O O6 0.268491 0.399995 0.239131
O O7 0.000000 0.387688 0.000000
O O8 0.250142 0.214390 0.532655
O O9 0.521148 0.229735 0.786720
O O10 0.272106 0.158267 0.748058
O O11 0.809125 0.354724 0.583871
O O12 0.000000 0.293700 0.500000
O O13 0.017608 0.233293 0.713530
O O14 0.500000 0.730564 0.000000
O O15 0.748254 0.813972 0.042186
O O16 0.000000 0.000000 0.500000
O O17 0.049347 0.077823 0.732504
O O18 0.500000 0.625932 0.500000
O O19 0.684924 0.500000 0.567074
#
# Coordination Sequence:
#
# PCOD9147265 Si02
#       8
#     2   4   4   4   4   2   4   4
#     4  12  24  37  57  87 115 147 193 232 273 343
#     4  10  21  39  59  80 113 157 194 226 281 353
#     4  10  20  37  56  82 114 146 183 234 285 335
#     4  10  19  34  59  84 107 145 196 237 278 334
#     4  10  22  37  57  88 117 142 190 243 286 331
#     4  12  18  39  65  81 111 155 190 231 280 340
#     4  10  21  36  55  82 115 151 187 228 289 348
#     4  10  19  35  61  84 105 146 191 230 279 334
#
# _framework density 18.124283999999999
#
# number of rings (size 3 to 8) (size 9 to 14) (size 15 to 20)
#    0.000    1.714    2.857    2.143    0.000    2.857 
#    2.571    2.143    0.000   11.143    0.000    0.000 
#    0.000    0.000    0.000    0.000    0.000    0.000 
#
# Total GULP energy -156186.896948 kJ/mol
# GULP energy per Si atom -5578.103462 kJ/mol
# Density = 1.808303 g / cm^3
# Si number density = 18.124284 Si / 1000 Ang^3
#
#
#
# Elastic Constant Matrix: (Units=GPa)
#
#
# Indices 1 2 3 4 5 6 
#
# 1 89.0944 64.1606 32.9953 0.0000 21.0797 0.0000
# 2 64.1606 106.4692 16.7542 0.0000 2.4124 0.0000
# 3 32.9953 16.7542 67.7896 0.0000 20.8871 0.0000
# 4 0.0000 0.0000 0.0000 11.6202 0.0000 13.1937
# 5 21.0797 2.4124 20.8871 0.0000 19.7019 0.0000
# 6 0.0000 0.0000 0.0000 13.1937 0.0000 8.8575
#
#
#
# Elastic Compliance Matrix: (Units=1/GPa)
#
#
# Indices 1 2 3 4 5 6 
#
# 1 0.032582 -0.018657 -0.001798 0.000000 -0.030670 0.000000
# 2 -0.018657 0.020510 -0.002027 0.000000 0.019599 0.000000
# 3 -0.001798 -0.002027 0.022957 0.000000 -0.022167 0.000000
# 4 0.000000 0.000000 0.000000 -0.124498 0.000000 0.185444
# 5 -0.030670 0.019599 -0.022167 0.000000 0.104673 0.000000
# 6 0.000000 0.000000 0.000000 0.185444 0.000000 -0.163329
#
#
# Mechanical properties :
#
#
# Convention : Reuss Voigt Hill
#
# Bulk Modulus (GPa) = 32.16804 54.57481 43.37142
# Shear Modulus (GPa) = -96.56410 17.99881 -39.28265
#
# Velocity S-wave (km/s) = -7.30715 3.15473 -4.66059
# Velocity P-wave (km/s) = 7.30791 6.59140 2.23148
#
# Compressibility (1/GPa) = 0.03108676
#
# Stress axis : x y z
#
# Youngs Moduli (GPa) = 30.69191 48.75606 43.55882
#
# Poissons Ratio (x) = 0.90963 0.07830
# Poissons Ratio (y) = 0.57261 0.08830
# Poissons Ratio (z) = 0.05517 0.09884
#
# Static dielectric constant tensor:
#      x y z
#    x 1.595910 0.000000 0.009880 
#    y 0.000000 1.636280 0.000000 
#    z 0.009880 0.000000 1.626040 
# 
# From -- ./inp_files/25149.got.cif
#   From: 2010.05.17/outbox.cif.g08.bks.cpg/sg10_13_cif.got.tgz:25149.got - 2010.06.03 11:33:40.
