data_PCOD9147742
_publ_section_title
;
Structure prediction by ZEFSAII (Michael W. Deem and Ramdas Pophale) SiO2 
 PCOD9147742
Probable space group: P 2/M
;
_chemical_formula_sum "Si O2"
_cell_formula_units_Z 24
_cell_length_a 30.740996
_cell_length_b 8.425838
_cell_length_c 9.909908
_cell_angle_alpha 90.000000
_cell_angle_beta 149.440323
_cell_angle_gamma 90.000000
_cell_volume 1305.078246
_symmetry_space_group_name_H-M "P 2/M"
_symmetry_group_IT_number 10
_symmetry_cell_setting 'monoclinic'
loop_
_space_group_symop_operation_xyz
x,y,z
-x,y,-z
-x,-y,-z
x,-y,z
loop_
_atom_site_type_symbol
_atom_site_label
_atom_site_fract_x
_atom_site_fract_y
_atom_site_fract_z
Si Si1 0.036772 0.812058 0.245700
Si Si2 0.403038 0.692299 0.761977
Si Si3 0.721009 0.307128 0.338620
Si Si4 0.126409 0.689111 0.052996
Si Si5 0.252260 0.186873 0.172548
Si Si6 0.776196 0.311954 0.197403
O O1 0.123659 0.720382 0.508874
O O2 0.054570 0.000000 0.292368
O O3 0.000000 0.766745 0.000000
O O4 0.963002 0.772446 0.156132
O O5 0.402333 0.500000 0.756807
O O6 0.360623 0.742360 0.791124
O O7 0.338135 0.751347 0.474112
O O8 0.500000 0.746569 0.000000
O O9 0.721833 0.500000 0.338494
O O10 0.805280 0.259685 0.648861
O O11 0.727883 0.253332 0.203287
O O12 0.115123 0.500000 0.032355
O O13 0.172468 0.731174 0.036001
O O14 0.244913 0.000000 0.173851
O O15 0.251194 0.227991 0.012722
O O16 0.761927 0.500000 0.144537
#
# Coordination Sequence:
#
# PCOD9147742 Si02
#       6
#     4   4   4   4   4   4
#     4  11  22  34  52  82 117 148 186 230 279 327
#     4   9  18  37  64  89 110 139 182 227 272 334
#     4   8  16  31  55  83 107 137 182 230 271 317
#     4  10  19  36  58  80 106 146 196 233 271 323
#     4  11  23  38  55  81 116 147 180 228 289 336
#     4  11  21  36  56  79 110 150 192 231 275 323
#
# _framework density 18.389703000000001
#
# number of rings (size 3 to 8) (size 9 to 14) (size 15 to 20)
#    0.000    2.000    1.667    4.000    0.000    1.667 
#    0.000    5.000    0.000    5.000    0.000    0.000 
#    0.000    0.000    0.000    0.000    0.000    0.000 
#
# Total GULP energy -133999.719900 kJ/mol
# GULP energy per Si atom -5583.321662 kJ/mol
# Density = 1.834785 g / cm^3
# Si number density = 18.389703 Si / 1000 Ang^3
#
#
#
# Elastic Constant Matrix: (Units=GPa)
#
#
# Indices 1 2 3 4 5 6 
#
# 1 123.9912 -7.0121 53.8087 0.0000 -5.9008 0.0000
# 2 -7.0121 20.5249 -0.6781 0.0000 -0.8678 0.0000
# 3 53.8087 -0.6781 55.8013 0.0000 1.2236 0.0000
# 4 0.0000 0.0000 0.0000 9.8788 0.0000 -4.8616
# 5 -5.9008 -0.8678 1.2236 0.0000 33.8632 0.0000
# 6 0.0000 0.0000 0.0000 -4.8616 0.0000 14.1582
#
#
#
# Elastic Compliance Matrix: (Units=1/GPa)
#
#
# Indices 1 2 3 4 5 6 
#
# 1 0.014591 0.004653 -0.014083 0.000000 0.003171 0.000000
# 2 0.004653 0.050276 -0.003925 0.000000 0.002241 0.000000
# 3 -0.014083 -0.003925 0.031534 0.000000 -0.003694 0.000000
# 4 0.000000 0.000000 0.000000 0.121811 0.000000 0.041828
# 5 0.003171 0.002241 -0.003694 0.000000 0.030274 0.000000
# 6 0.000000 0.000000 0.000000 0.041828 0.000000 0.084993
#
#
# Mechanical properties :
#
#
# Convention : Reuss Voigt Hill
#
# Bulk Modulus (GPa) = 14.34899 32.50605 23.42752
# Shear Modulus (GPa) = 13.04058 21.85997 17.45028
#
# Velocity S-wave (km/s) = 2.66583 3.45150 3.08379
# Velocity P-wave (km/s) = 4.15875 5.79642 5.04448
#
# Compressibility (1/GPa) = 0.06969133
#
# Stress axis : x y z
#
# Youngs Moduli (GPa) = 68.53745 19.89015 31.71212
#
# Poissons Ratio (x) = -0.09256 0.44659
# Poissons Ratio (y) = -0.31894 0.12448
# Poissons Ratio (z) = 0.96518 0.07808
#
# Static dielectric constant tensor:
#      x y z
#    x 1.649390 0.000000 -0.006490 
#    y 0.000000 1.614060 0.000000 
#    z -0.006490 0.000000 1.599810 
# 
# From -- ./inp_files/33722.got.cif
#   From: 2010.05.17/outbox.cif.g08.bks.cpg/sg10_17_cif.got.tgz:33722.got - 2010.06.03 11:33:40.
