data_PCOD9147262
_publ_section_title
;
Structure prediction by ZEFSAII (Michael W. Deem and Ramdas Pophale) SiO2 
 PCOD9147262
Probable space group: P 2/M
;
_chemical_formula_sum "Si O2"
_cell_formula_units_Z 24
_cell_length_a 20.101642
_cell_length_b 7.942076
_cell_length_c 15.367103
_cell_angle_alpha 90.000000
_cell_angle_beta 149.449333
_cell_angle_gamma 90.000000
_cell_volume 1247.032514
_symmetry_space_group_name_H-M "P 2/M"
_symmetry_group_IT_number 10
_symmetry_cell_setting 'monoclinic'
loop_
_space_group_symop_operation_xyz
x,y,z
-x,y,-z
-x,-y,-z
x,-y,z
loop_
_atom_site_type_symbol
_atom_site_label
_atom_site_fract_x
_atom_site_fract_y
_atom_site_fract_z
Si Si1 0.399231 0.803250 0.955015
Si Si2 0.322017 0.206084 0.052282
Si Si3 0.078456 0.701108 0.003776
Si Si4 0.375431 0.203662 0.305341
Si Si5 0.878073 0.303298 0.421114
Si Si6 0.974726 0.199365 0.250514
O O1 0.253908 0.790702 0.752534
O O2 0.435184 0.000000 0.005709
O O3 0.500000 0.725476 0.000000
O O4 0.392608 0.731631 0.045102
O O5 0.381650 0.259029 0.211579
O O6 0.321361 0.000000 0.050192
O O7 0.169743 0.258594 0.881756
O O8 0.067447 0.500000 0.988941
O O9 0.020831 0.767765 0.847535
O O10 0.232560 0.745882 0.179794
O O11 0.000000 0.764053 0.000000
O O12 0.500000 0.265018 0.500000
O O13 0.378098 0.000000 0.308811
O O14 0.858645 0.500000 0.379123
O O15 0.000000 0.240969 0.500000
O O16 0.918694 0.282674 0.567312
O O17 0.982655 0.000000 0.273836
#
# Coordination Sequence:
#
# PCOD9147262 Si02
#       6
#     4   4   4   4   4   4
#     4  10  20  35  54  77 109 145 183 225 273 321
#     4   8  15  30  52  76 103 136 175 224 271 310
#     4  10  21  37  56  80 116 148 174 220 279 331
#     4   9  18  34  56  80 106 140 185 231 268 316
#     4  11  22  35  55  82 112 145 183 223 270 328
#     4  10  19  34  59  83 106 141 186 231 270 314
#
# _framework density 19.245688999999999
#
# number of rings (size 3 to 8) (size 9 to 14) (size 15 to 20)
#    0.000    2.333    1.667    2.500    0.000    2.667 
#    3.000    0.000    0.000    0.000    0.000    0.000 
#    0.000    0.000    0.000    0.000    0.000    0.000 
#
# Total GULP energy -133896.602204 kJ/mol
# GULP energy per Si atom -5579.025092 kJ/mol
# Density = 1.920188 g / cm^3
# Si number density = 19.245689 Si / 1000 Ang^3
#
#
#
# Elastic Constant Matrix: (Units=GPa)
#
#
# Indices 1 2 3 4 5 6 
#
# 1 176.5435 -1.4247 56.1629 0.0000 -1.1942 0.0000
# 2 -1.4247 23.2417 -10.3576 0.0000 1.2146 0.0000
# 3 56.1629 -10.3576 84.5517 0.0000 -13.0772 0.0000
# 4 0.0000 0.0000 0.0000 -9.8412 0.0000 18.4317
# 5 -1.1942 1.2146 -13.0772 0.0000 22.5448 0.0000
# 6 0.0000 0.0000 0.0000 18.4317 0.0000 -15.2771
#
#
#
# Elastic Compliance Matrix: (Units=1/GPa)
#
#
# Indices 1 2 3 4 5 6 
#
# 1 0.007403 -0.001886 -0.005572 0.000000 -0.002738 0.000000
# 2 -0.001886 0.046006 0.007130 0.000000 0.001557 0.000000
# 3 -0.005572 0.007130 0.017903 0.000000 0.009705 0.000000
# 4 0.000000 0.000000 0.000000 0.080668 0.000000 0.097325
# 5 -0.002738 0.001557 0.009705 0.000000 0.049757 0.000000
# 6 0.000000 0.000000 0.000000 0.097325 0.000000 0.051965
#
#
# Mechanical properties :
#
#
# Convention : Reuss Voigt Hill
#
# Bulk Modulus (GPa) = 14.15334 41.45535 27.80434
# Shear Modulus (GPa) = 17.99134 15.48237 16.73686
#
# Velocity S-wave (km/s) = 3.06081 2.83938 2.95217
# Velocity P-wave (km/s) = 4.45661 5.68650 5.10870
#
# Compressibility (1/GPa) = 0.07065470
#
# Stress axis : x y z
#
# Youngs Moduli (GPa) = 135.07643 21.73610 55.85725
#
# Poissons Ratio (x) = 0.04100 0.31124
# Poissons Ratio (y) = 0.25480 -0.39824
# Poissons Ratio (z) = 0.75266 -0.15497
#
# Static dielectric constant tensor:
#      x y z
#    x 1.696380 0.000000 -0.013340 
#    y 0.000000 1.682560 0.000000 
#    z -0.013340 0.000000 1.643720 
# 
# From -- ./inp_files/68783.got.cif
#   From: 2010.05.17/outbox.cif.g08.bks.cpg/sg10_35_cif.got.tgz:68783.got - 2010.06.03 11:33:40.
