data_PCOD9147717
_publ_section_title
;
Structure prediction by ZEFSAII (Michael W. Deem and Ramdas Pophale) SiO2 
 PCOD9147717
Probable space group: P 2/M
;
_chemical_formula_sum "Si O2"
_cell_formula_units_Z 26
_cell_length_a 13.502659
_cell_length_b 20.036412
_cell_length_c 10.285558
_cell_angle_alpha 90.000000
_cell_angle_beta 29.849806
_cell_angle_gamma 90.000000
_cell_volume 1385.030298
_symmetry_space_group_name_H-M "P 2/M"
_symmetry_group_IT_number 10
_symmetry_cell_setting 'monoclinic'
loop_
_space_group_symop_operation_xyz
x,y,z
-x,y,-z
-x,-y,-z
x,-y,z
loop_
_atom_site_type_symbol
_atom_site_label
_atom_site_fract_x
_atom_site_fract_y
_atom_site_fract_z
Si Si1 0.906876 0.925675 0.464488
Si Si2 0.510642 0.925753 0.801398
Si Si3 0.837765 0.696100 0.798829
Si Si4 0.235563 0.073711 0.753973
Si Si5 0.913289 0.426551 0.451533
Si Si6 0.500000 0.635079 0.000000
Si Si7 0.783719 0.167087 0.992656
O O1 0.671718 0.918032 0.730724
O O2 0.000000 0.923899 0.500000
O O3 0.947034 0.000000 0.363404
O O4 0.002798 0.866735 0.273978
O O5 0.647976 0.924040 0.514101
O O6 0.356227 0.867598 0.955234
O O7 0.419102 0.000000 0.912664
O O8 0.000000 0.715571 0.500000
O O9 0.947795 0.635192 0.750309
O O10 0.634423 0.675250 0.953539
O O11 0.795585 0.755726 0.946211
O O12 0.283368 0.135571 0.793988
O O13 0.279913 0.000000 0.763151
O O14 0.000000 0.075507 0.000000
O O15 0.936725 0.500000 0.363992
O O16 0.679116 0.407054 0.727572
O O17 0.000000 0.432175 0.500000
#
# Coordination Sequence:
#
# PCOD9147717 Si02
#       7
#     4   4   4   4   4   2   4
#     4  10  21  35  49  68  95 129 169 207 245 299
#     4  10  21  35  53  73  91 122 170 220 264 303
#     4   9  20  32  45  71 107 139 166 195 240 300
#     4  10  19  36  57  73  90 121 169 225 275 304
#     4   8  14  27  49  73  97 131 172 203 231 276
#     4   8  15  30  46  66 101 138 168 200 231 284
#     4  12  21  32  51  71 100 133 161 205 259 306
#
# _framework density 18.772152999999999
#
# number of rings (size 3 to 8) (size 9 to 14) (size 15 to 20)
#    0.000    2.615    1.538    2.538    0.000    6.154 
#    0.000    2.308    0.000    0.000    0.000    0.000 
#    0.000    3.077    0.000    0.000    0.000    0.000 
#
# Total GULP energy -144833.316990 kJ/mol
# GULP energy per Si atom -5570.512192 kJ/mol
# Density = 1.872943 g / cm^3
# Si number density = 18.772153 Si / 1000 Ang^3
#
#
#
# Elastic Constant Matrix: (Units=GPa)
#
#
# Indices 1 2 3 4 5 6 
#
# 1 74.7210 38.8488 28.2948 0.0000 -20.4393 0.0000
# 2 38.8488 153.2110 39.8843 0.0000 -9.2515 0.0000
# 3 28.2948 39.8843 84.1953 0.0000 -27.1635 0.0000
# 4 0.0000 0.0000 0.0000 25.4448 0.0000 15.6363
# 5 -20.4393 -9.2515 -27.1635 0.0000 38.3187 0.0000
# 6 0.0000 0.0000 0.0000 15.6363 0.0000 17.8196
#
#
#
# Elastic Compliance Matrix: (Units=1/GPa)
#
#
# Indices 1 2 3 4 5 6 
#
# 1 0.018016 -0.003610 -0.001977 0.000000 0.007336 0.000000
# 2 -0.003610 0.008193 -0.003437 0.000000 -0.002384 0.000000
# 3 -0.001977 -0.003437 0.017583 0.000000 0.010580 0.000000
# 4 0.000000 0.000000 0.000000 0.085293 0.000000 -0.074843
# 5 0.007336 -0.002384 0.010580 0.000000 0.036935 0.000000
# 6 0.000000 0.000000 0.000000 -0.074843 0.000000 0.121791
#
#
# Mechanical properties :
#
#
# Convention : Reuss Voigt Hill
#
# Bulk Modulus (GPa) = 38.84601 58.46479 48.65540
# Shear Modulus (GPa) = 15.90122 29.98989 22.94556
#
# Velocity S-wave (km/s) = 2.91359 4.00130 3.49996
# Velocity P-wave (km/s) = 5.66190 7.24978 6.50447
#
# Compressibility (1/GPa) = 0.02574267
#
# Stress axis : x y z
#
# Youngs Moduli (GPa) = 55.50691 122.05234 56.87258
#
# Poissons Ratio (x) = 0.44066 0.11245
# Poissons Ratio (y) = 0.20040 0.19548
# Poissons Ratio (z) = 0.10975 0.41950
#
# Static dielectric constant tensor:
#      x y z
#    x 1.722120 0.000000 0.009050 
#    y 0.000000 1.685730 0.000000 
#    z 0.009050 0.000000 1.730540 
# 
# From -- ./inp_files/52029.got.cif
#   From: 2010.05.17/outbox.cif.g08.bks.cpg/sg10_27_cif.got.tgz:52029.got - 2010.06.03 11:33:40.
