data_PCOD9147028
_publ_section_title
;
Structure prediction by ZEFSAII (Michael W. Deem and Ramdas Pophale) SiO2 
 PCOD9147028
Probable space group: P 2/M
;
_chemical_formula_sum "Si O2"
_cell_formula_units_Z 32
_cell_length_a 14.426616
_cell_length_b 7.636801
_cell_length_c 14.653899
_cell_angle_alpha 90.000000
_cell_angle_beta 60.441230
_cell_angle_gamma 90.000000
_cell_volume 1404.344248
_symmetry_space_group_name_H-M "P 2/M"
_symmetry_group_IT_number 10
_symmetry_cell_setting 'monoclinic'
loop_
_space_group_symop_operation_xyz
x,y,z
-x,y,-z
-x,-y,-z
x,-y,z
loop_
_atom_site_type_symbol
_atom_site_label
_atom_site_fract_x
_atom_site_fract_y
_atom_site_fract_z
Si Si1 0.175120 0.211490 0.652192
Si Si2 0.007273 0.794581 0.394631
Si Si3 0.910891 0.713790 0.973594
Si Si4 0.400363 0.211010 0.984837
Si Si5 0.832308 0.706110 0.824791
Si Si6 0.470324 0.198153 0.753927
Si Si7 0.409554 0.214450 0.471899
Si Si8 0.744697 0.704122 0.197913
O O1 0.080365 0.278000 0.633892
O O2 0.291162 0.266725 0.558417
O O3 0.175105 0.271879 0.757060
O O4 0.172349 0.000000 0.655634
O O5 0.000000 0.719211 0.500000
O O6 0.122868 0.781016 0.291084
O O7 0.980970 0.000000 0.415564
O O8 0.917324 0.500000 0.968259
O O9 0.904211 0.778249 0.873841
O O10 0.801388 0.760211 0.077399
O O11 0.000000 0.777323 0.000000
O O12 0.289540 0.268782 0.084664
O O13 0.392409 0.000000 0.983193
O O14 0.500000 0.257417 0.000000
O O15 0.430552 0.278340 0.868553
O O16 0.850468 0.500000 0.809883
O O17 0.559368 0.277187 0.644902
O O18 0.365245 0.194239 0.740747
O O19 0.504549 0.000000 0.759232
O O20 0.500000 0.272070 0.500000
O O21 0.412203 0.000000 0.469040
O O22 0.718364 0.500000 0.205228
#
# Coordination Sequence:
#
# PCOD9147028 Si02
#       8
#     4   4   4   4   4   4   4   4
#     4  10  20  36  58  84 114 152 197 242 293 351
#     4  10  23  42  63  87 116 152 198 251 297 345
#     4   9  18  32  51  78 112 151 190 229 285 348
#     4  10  22  39  61  89 120 155 199 249 296 347
#     4  11  22  39  63  88 119 158 198 242 296 358
#     4  10  19  34  56  80 111 151 194 237 286 345
#     4   9  16  29  52  79 108 146 189 230 280 347
#     4  11  20  32  53  81 117 152 188 237 291 347
#
# _framework density 22.786435000000001
#
# number of rings (size 3 to 8) (size 9 to 14) (size 15 to 20)
#    0.000    2.000    2.500    1.500    0.000    3.000 
#    0.000    5.000    0.000    3.000    0.000    0.000 
#    0.000    0.000    0.000    0.000    0.000    0.000 
#
# Total GULP energy -178680.930733 kJ/mol
# GULP energy per Si atom -5583.779085 kJ/mol
# Density = 2.273457 g / cm^3
# Si number density = 22.786435 Si / 1000 Ang^3
#
#
#
# Elastic Constant Matrix: (Units=GPa)
#
#
# Indices 1 2 3 4 5 6 
#
# 1 75.9198 -1.0192 38.6067 0.0000 9.2064 0.0000
# 2 -1.0192 49.1056 -0.4054 0.0000 3.0245 0.0000
# 3 38.6067 -0.4054 169.0585 0.0000 13.2301 0.0000
# 4 0.0000 0.0000 0.0000 38.2962 0.0000 -14.7167
# 5 9.2064 3.0245 13.2301 0.0000 32.5821 0.0000
# 6 0.0000 0.0000 0.0000 -14.7167 0.0000 14.1670
#
#
#
# Elastic Compliance Matrix: (Units=1/GPa)
#
#
# Indices 1 2 3 4 5 6 
#
# 1 0.015188 0.000475 -0.003231 0.000000 -0.003024 0.000000
# 2 0.000475 0.020503 0.000103 0.000000 -0.002079 0.000000
# 3 -0.003231 0.000103 0.006798 0.000000 -0.001857 0.000000
# 4 0.000000 0.000000 0.000000 0.043462 0.000000 0.045149
# 5 -0.003024 -0.002079 -0.001857 0.000000 0.032493 0.000000
# 6 0.000000 0.000000 0.000000 0.045149 0.000000 0.117487
#
#
# Mechanical properties :
#
#
# Convention : Reuss Voigt Hill
#
# Bulk Modulus (GPa) = 26.89287 40.93867 33.91577
# Shear Modulus (GPa) = 19.71364 34.13583 26.92474
#
# Velocity S-wave (km/s) = 2.94453 3.87470 3.44119
# Velocity P-wave (km/s) = 4.83613 6.16628 5.54126
#
# Compressibility (1/GPa) = 0.03718458
#
# Stress axis : x y z
#
# Youngs Moduli (GPa) = 65.84312 48.77326 147.09256
#
# Poissons Ratio (x) = -0.02316 0.47519
# Poissons Ratio (y) = -0.03126 -0.01522
# Poissons Ratio (z) = 0.21271 -0.00505
#
# Static dielectric constant tensor:
#      x y z
#    x 1.853730 0.000000 0.011310 
#    y 0.000000 1.830080 0.000000 
#    z 0.011310 0.000000 1.872720 
# 
# From -- ./inp_files/66505.got.cif
#   From: 2010.05.17/outbox.cif.g08.bks.cpg/sg10_34_cif.got.tgz:66505.got - 2010.06.03 11:33:40.
