data_PCOD9147442
_publ_section_title
;
Structure prediction by ZEFSAII (Michael W. Deem and Ramdas Pophale) SiO2 
 PCOD9147442
Probable space group: P 2/M
;
_chemical_formula_sum "Si O2"
_cell_formula_units_Z 24
_cell_length_a 9.924875
_cell_length_b 8.283952
_cell_length_c 22.641194
_cell_angle_alpha 90.000000
_cell_angle_beta 136.470914
_cell_angle_gamma 90.000000
_cell_volume 1282.054112
_symmetry_space_group_name_H-M "P 2/M"
_symmetry_group_IT_number 10
_symmetry_cell_setting 'monoclinic'
loop_
_space_group_symop_operation_xyz
x,y,z
-x,y,-z
-x,-y,-z
x,-y,z
loop_
_atom_site_type_symbol
_atom_site_label
_atom_site_fract_x
_atom_site_fract_y
_atom_site_fract_z
Si Si1 0.342972 0.687601 0.768476
Si Si2 0.440955 0.810208 0.274336
Si Si3 0.359977 0.195479 0.902303
Si Si4 0.792448 0.689814 0.462913
Si Si5 0.090283 0.803209 0.243055
Si Si6 0.091954 0.189729 0.376491
O O1 0.288890 0.500000 0.750084
O O2 0.496035 0.724352 0.765747
O O3 0.418027 0.735737 0.857014
O O4 0.142822 0.786183 0.693356
O O5 0.617447 0.784439 0.376591
O O6 0.244969 0.748059 0.243752
O O7 0.418414 0.000000 0.254900
O O8 0.133647 0.244110 0.840248
O O9 0.365301 0.000000 0.900433
O O10 0.500000 0.246606 0.000000
O O11 0.765838 0.500000 0.441973
O O12 0.807632 0.720309 0.537445
O O13 0.000000 0.739383 0.500000
O O14 0.144157 0.752314 0.327018
O O15 0.095131 0.000000 0.245282
O O16 0.136762 0.000000 0.395512
#
# Coordination Sequence:
#
# PCOD9147442 Si02
#       6
#     4   4   4   4   4   4
#     4  11  21  34  53  80 112 142 177 219 266 318
#     4  11  21  35  55  77 107 145 182 221 267 313
#     4   9  18  37  64  87 106 135 177 219 262 320
#     4  11  22  34  50  76 111 143 182 228 266 311
#     4   8  18  35  55  82 109 134 174 227 270 311
#     4  10  19  35  57  78 103 141 188 226 265 314
#
# _framework density 18.719958999999999
#
# number of rings (size 3 to 8) (size 9 to 14) (size 15 to 20)
#    0.000    2.000    1.667    4.000    0.000    1.667 
#    0.000   12.500    0.000    5.000    0.000    0.000 
#    0.000    0.000    0.000    0.000    0.000    0.000 
#
# Total GULP energy -134009.498069 kJ/mol
# GULP energy per Si atom -5583.729086 kJ/mol
# Density = 1.867735 g / cm^3
# Si number density = 18.719959 Si / 1000 Ang^3
#
#
#
# Elastic Constant Matrix: (Units=GPa)
#
#
# Indices 1 2 3 4 5 6 
#
# 1 126.0686 -1.8019 42.1212 0.0000 -14.9001 0.0000
# 2 -1.8019 18.6293 -1.3873 0.0000 0.1732 0.0000
# 3 42.1212 -1.3873 95.1011 0.0000 -19.6807 0.0000
# 4 0.0000 0.0000 0.0000 -13.4535 0.0000 8.0680
# 5 -14.9001 0.1732 -19.6807 0.0000 18.8865 0.0000
# 6 0.0000 0.0000 0.0000 8.0680 0.0000 -13.7518
#
#
#
# Elastic Compliance Matrix: (Units=1/GPa)
#
#
# Indices 1 2 3 4 5 6 
#
# 1 0.009547 0.000634 -0.003393 0.000000 0.003990 0.000000
# 2 0.000634 0.053782 0.000644 0.000000 0.000678 0.000000
# 3 -0.003393 0.000644 0.014626 0.000000 0.012558 0.000000
# 4 0.000000 0.000000 0.000000 -0.114678 0.000000 -0.067280
# 5 0.003990 0.000678 0.012558 0.000000 0.069175 0.000000
# 6 0.000000 0.000000 0.000000 -0.067280 0.000000 -0.112190
#
#
# Mechanical properties :
#
#
# Convention : Reuss Voigt Hill
#
# Bulk Modulus (GPa) = 13.56417 35.29588 24.43002
# Shear Modulus (GPa) = -98.16928 11.72739 -43.22095
#
# Velocity S-wave (km/s) = -7.24947 2.50564 -4.81023
# Velocity P-wave (km/s) = 7.92537 5.22174 4.21574
#
# Compressibility (1/GPa) = 0.07372366
#
# Stress axis : x y z
#
# Youngs Moduli (GPa) = 104.74987 18.59361 68.36961
#
# Poissons Ratio (x) = -0.01178 0.23200
# Poissons Ratio (y) = -0.06637 -0.04404
# Poissons Ratio (z) = 0.35546 -0.01198
#
# Static dielectric constant tensor:
#      x y z
#    x 1.655070 0.000000 -0.004930 
#    y 0.000000 1.631450 0.000000 
#    z -0.004930 0.000000 1.620390 
# 
# From -- ./inp_files/27316.got.cif
#   From: 2010.05.17/outbox.cif.g08.bks.cpg/sg10_14_cif.got.tgz:27316.got - 2010.06.03 11:33:40.
