data_PCOD9147636
_publ_section_title
;
Structure prediction by ZEFSAII (Michael W. Deem and Ramdas Pophale) SiO2 
 PCOD9147636
Probable space group: P 2/M
;
_chemical_formula_sum "Si O2"
_cell_formula_units_Z 28
_cell_length_a 12.087224
_cell_length_b 8.801119
_cell_length_c 16.026896
_cell_angle_alpha 90.000000
_cell_angle_beta 124.103201
_cell_angle_gamma 90.000000
_cell_volume 1411.755329
_symmetry_space_group_name_H-M "P 2/M"
_symmetry_group_IT_number 10
_symmetry_cell_setting 'monoclinic'
loop_
_space_group_symop_operation_xyz
x,y,z
-x,y,-z
-x,-y,-z
x,-y,z
loop_
_atom_site_type_symbol
_atom_site_label
_atom_site_fract_x
_atom_site_fract_y
_atom_site_fract_z
Si Si1 0.662745 0.818279 0.731450
Si Si2 0.141164 0.184805 0.329770
Si Si3 0.411749 0.679706 0.705622
Si Si4 0.586929 0.181075 0.117936
Si Si5 0.146021 0.817530 0.862795
Si Si6 0.157395 0.678969 0.047607
Si Si7 0.143656 0.183703 0.523120
O O1 0.738143 0.767409 0.679142
O O2 0.518758 0.746566 0.686133
O O3 0.756637 0.768719 0.848143
O O4 0.650673 0.000000 0.725069
O O5 0.152667 0.232529 0.430331
O O6 0.999517 0.232749 0.230353
O O7 0.139250 0.000000 0.328949
O O8 0.409924 0.500000 0.699831
O O9 0.453134 0.732228 0.815871
O O10 0.266321 0.747240 0.625347
O O11 0.740450 0.211859 0.157866
O O12 0.571416 0.000000 0.125981
O O13 0.500000 0.220534 0.000000
O O14 0.143192 0.000000 0.875240
O O15 0.182027 0.738874 0.964919
O O16 0.187863 0.500000 0.066733
O O17 0.000000 0.701003 0.000000
O O18 0.000000 0.226172 0.500000
O O19 0.153368 0.000000 0.530929
#
# Coordination Sequence:
#
# PCOD9147636 Si02
#       7
#     4   4   4   4   4   4   4
#     4  11  22  39  62  86 119 161 212 258 297 353
#     4   9  19  35  60  91 115 150 204 258 301 345
#     4  12  26  42  61  89 127 163 198 244 309 373
#     4  10  21  38  62  91 120 156 204 252 299 355
#     4  10  19  35  60  89 120 156 206 256 299 353
#     4  11  22  35  54  87 130 168 200 239 300 366
#     4  10  21  42  70  94 119 153 200 253 302 357
#
# _framework density 19.833465
#
# number of rings (size 3 to 8) (size 9 to 14) (size 15 to 20)
#    0.000    1.571    1.429    3.857    0.000    5.714 
#    0.000    5.000    0.000    0.000    0.000    0.000 
#    0.000    0.000    0.000    0.000    0.000    0.000 
#
# Total GULP energy -156569.755413 kJ/mol
# GULP energy per Si atom -5591.776979 kJ/mol
# Density = 1.978832 g / cm^3
# Si number density = 19.833465 Si / 1000 Ang^3
#
#
#
# Elastic Constant Matrix: (Units=GPa)
#
#
# Indices 1 2 3 4 5 6 
#
# 1 139.9000 50.3464 48.7531 0.0000 -1.0900 0.0000
# 2 50.3464 44.0976 27.5445 0.0000 -0.6822 0.0000
# 3 48.7531 27.5445 88.4521 0.0000 -8.3167 0.0000
# 4 0.0000 0.0000 0.0000 -22.9205 0.0000 -6.2494
# 5 -1.0900 -0.6822 -8.3167 0.0000 34.2090 0.0000
# 6 0.0000 0.0000 0.0000 -6.2494 0.0000 10.0428
#
#
#
# Elastic Compliance Matrix: (Units=1/GPa)
#
#
# Indices 1 2 3 4 5 6 
#
# 1 0.012798 -0.012637 -0.003177 0.000000 -0.000617 0.000000
# 2 -0.012637 0.040717 -0.005809 0.000000 -0.001003 0.000000
# 3 -0.003177 -0.005809 0.015192 0.000000 0.003476 0.000000
# 4 0.000000 0.000000 0.000000 -0.037300 0.000000 -0.023211
# 5 -0.000617 -0.001003 0.003476 0.000000 0.030038 0.000000
# 6 0.000000 0.000000 0.000000 -0.023211 0.000000 0.085130
#
#
# Mechanical properties :
#
#
# Convention : Reuss Voigt Hill
#
# Bulk Modulus (GPa) = 39.27289 58.41528 48.84408
# Shear Modulus (GPa) = 25.21359 13.98664 19.60012
#
# Velocity S-wave (km/s) = 3.56935 2.65845 3.14703
# Velocity P-wave (km/s) = 6.06888 6.24019 6.15513
#
# Compressibility (1/GPa) = 0.02546286
#
# Stress axis : x y z
#
# Youngs Moduli (GPa) = 78.13860 24.55983 65.82289
#
# Poissons Ratio (x) = 0.31035 0.20910
# Poissons Ratio (y) = 0.98740 0.38235
# Poissons Ratio (z) = 0.24823 0.14266
#
# Static dielectric constant tensor:
#      x y z
#    x 1.701850 0.000000 0.007100 
#    y 0.000000 1.659220 0.000000 
#    z 0.007100 0.000000 1.672670 
# 
# From -- ./inp_files/49125.got.cif
#   From: 2010.05.17/outbox.cif.g08.bks.cpg/sg10_25_cif.got.tgz:49125.got - 2010.06.03 11:33:40.
