data_PCOD9147012
_publ_section_title
;
Structure prediction by ZEFSAII (Michael W. Deem and Ramdas Pophale) SiO2 
 PCOD9147012
Probable space group: P 2/M
;
_chemical_formula_sum "Si O2"
_cell_formula_units_Z 32
_cell_length_a 27.812970
_cell_length_b 7.700726
_cell_length_c 18.027714
_cell_angle_alpha 90.000000
_cell_angle_beta 161.070284
_cell_angle_gamma 90.000000
_cell_volume 1252.596881
_symmetry_space_group_name_H-M "P 2/M"
_symmetry_group_IT_number 10
_symmetry_cell_setting 'monoclinic'
loop_
_space_group_symop_operation_xyz
x,y,z
-x,y,-z
-x,-y,-z
x,-y,z
loop_
_atom_site_type_symbol
_atom_site_label
_atom_site_fract_x
_atom_site_fract_y
_atom_site_fract_z
Si Si1 0.852136 0.706845 0.874945
Si Si2 0.496661 0.294777 0.810773
Si Si3 0.292910 0.799854 0.195292
Si Si4 0.823830 0.287324 0.663887
Si Si5 0.093002 0.300704 0.702068
Si Si6 0.410065 0.197624 0.215154
Si Si7 0.963042 0.302544 0.670238
Si Si8 0.651983 0.288183 0.179302
O O1 0.860878 0.500000 0.883205
O O2 0.717723 0.743389 0.734685
O O3 0.018732 0.768056 0.140989
O O4 0.829044 0.768935 0.757718
O O5 0.494466 0.500000 0.821307
O O6 0.334172 0.226190 0.595927
O O7 0.513543 0.274757 0.746633
O O8 0.623316 0.229205 0.052015
O O9 0.119112 0.779394 0.921116
O O10 0.330985 0.000000 0.250142
O O11 0.390283 0.720709 0.269763
O O12 0.821200 0.500000 0.658387
O O13 0.140085 0.500000 0.750987
O O14 0.000000 0.223950 0.500000
O O15 0.984698 0.314135 0.613385
O O16 0.238605 0.200310 0.938084
O O17 0.462364 0.000000 0.298402
O O18 0.965080 0.500000 0.704278
O O19 0.799636 0.223281 0.436605
O O20 0.669865 0.500000 0.206790
O O21 0.500000 0.248173 0.000000
#
# Coordination Sequence:
#
# PCOD9147012 Si02
#       8
#     4   4   4   4   4   4   4   4
#     4   9  17  34  59  85 109 132 169 217 267 321
#     4  10  19  34  56  79 108 141 175 216 261 316
#     4  10  21  35  52  76 106 141 180 223 265 307
#     4   8  17  33  57  87 110 133 168 215 268 319
#     4   9  16  28  48  72  95 125 173 224 263 302
#     4  10  21  35  49  71 105 143 181 219 262 313
#     4   9  17  29  47  72 100 134 172 212 256 303
#     4   9  18  30  49  79 108 135 173 215 258 310
#
# _framework density 25.546923
#
# number of rings (size 3 to 8) (size 9 to 14) (size 15 to 20)
#    0.000    2.750    0.000    2.250    1.750    3.750 
#    0.000    6.250    0.000    4.500    0.000    0.000 
#    0.000    0.000    0.000    0.000    0.000    0.000 
#
# Total GULP energy -178537.694461 kJ/mol
# GULP energy per Si atom -5579.302952 kJ/mol
# Density = 2.548878 g / cm^3
# Si number density = 25.546923 Si / 1000 Ang^3
#
#
#
# Elastic Constant Matrix: (Units=GPa)
#
#
# Indices 1 2 3 4 5 6 
#
# 1 142.0133 -9.3002 24.4905 0.0000 13.1239 0.0000
# 2 -9.3002 41.8508 8.9718 0.0000 -2.3983 0.0000
# 3 24.4905 8.9718 135.2007 0.0000 27.7278 0.0000
# 4 0.0000 0.0000 0.0000 10.2904 0.0000 29.3912
# 5 13.1239 -2.3983 27.7278 0.0000 35.2605 0.0000
# 6 0.0000 0.0000 0.0000 29.3912 0.0000 690.9134
#
#
#
# Elastic Compliance Matrix: (Units=1/GPa)
#
#
# Indices 1 2 3 4 5 6 
#
# 1 0.007518 0.001806 -0.001112 0.000000 -0.001801 0.000000
# 2 0.001806 0.025035 -0.002623 0.000000 0.003093 0.000000
# 3 -0.001112 -0.002623 0.009209 0.000000 -0.007006 0.000000
# 4 0.000000 0.000000 0.000000 0.110618 0.000000 -0.004706
# 5 -0.001801 0.003093 -0.007006 0.000000 0.034750 0.000000
# 6 0.000000 0.000000 0.000000 -0.004706 0.000000 0.001648
#
#
# Mechanical properties :
#
#
# Convention : Reuss Voigt Hill
#
# Bulk Modulus (GPa) = 26.38268 40.82100 33.60184
# Shear Modulus (GPa) = 24.35807 166.95304 95.65555
#
# Velocity S-wave (km/s) = 3.09117 8.09280 6.12571
# Velocity P-wave (km/s) = 4.80521 10.16553 7.95073
#
# Compressibility (1/GPa) = 0.03790365
#
# Stress axis : x y z
#
# Youngs Moduli (GPa) = 133.01227 39.94365 108.59216
#
# Poissons Ratio (x) = -0.07214 0.12080
# Poissons Ratio (y) = -0.24022 0.28482
# Poissons Ratio (z) = 0.14796 0.10476
#
# Static dielectric constant tensor:
#      x y z
#    x 2.092700 0.000000 -0.033020 
#    y 0.000000 1.979380 0.000000 
#    z -0.033020 0.000000 2.059920 
# 
# From -- ./inp_files/87222.got.cif
#   From: 2010.05.17/outbox.cif.g08.bks.cpg/sg10_44_cif.got.tgz:87222.got - 2010.06.03 11:33:40.
