data_PCOD9147022
_publ_section_title
;
Structure prediction by ZEFSAII (Michael W. Deem and Ramdas Pophale) SiO2 
 PCOD9147022
Probable space group: P 2/M
;
_chemical_formula_sum "Si O2"
_cell_formula_units_Z 24
_cell_length_a 26.103843
_cell_length_b 7.701625
_cell_length_c 18.861313
_cell_angle_alpha 90.000000
_cell_angle_beta 159.841166
_cell_angle_gamma 90.000000
_cell_volume 1306.784669
_symmetry_space_group_name_H-M "P 2/M"
_symmetry_group_IT_number 10
_symmetry_cell_setting 'monoclinic'
loop_
_space_group_symop_operation_xyz
x,y,z
-x,y,-z
-x,-y,-z
x,-y,z
loop_
_atom_site_type_symbol
_atom_site_label
_atom_site_fract_x
_atom_site_fract_y
_atom_site_fract_z
Si Si1 0.183714 0.000000 0.665199
Si Si2 0.052148 0.796318 0.992119
Si Si3 0.832184 0.300793 0.088420
Si Si4 0.673558 0.703857 0.242168
Si Si5 0.828411 0.000000 0.190942
Si Si6 0.118135 0.707582 0.366765
Si Si7 0.668773 0.211286 0.736798
O O1 0.241677 0.829937 0.700711
O O2 0.236423 0.000000 0.814814
O O3 0.006321 0.000000 0.431074
O O4 0.926445 0.781147 0.767600
O O5 0.080802 0.000000 0.041459
O O6 0.205296 0.727633 0.155844
O O7 0.000000 0.721343 0.000000
O O8 0.848264 0.500000 0.132643
O O9 0.790946 0.170336 0.097043
O O10 0.986587 0.243098 0.251009
O O11 0.714701 0.285777 0.872352
O O12 0.712124 0.500000 0.282359
O O13 0.729287 0.751198 0.394252
O O14 0.500000 0.723981 0.000000
O O15 0.111251 0.500000 0.349455
O O16 0.500000 0.257524 0.500000
O O17 0.678556 0.000000 0.753592
#
# Coordination Sequence:
#
# PCOD9147022 Si02
#       7
#     2   4   4   4   2   4   4
#     4  11  23  36  58  82 111 144 181 229 290 335
#     4   9  18  31  50  77 106 138 175 220 273 324
#     4  10  19  34  56  80 109 145 187 228 267 326
#     4  10  21  38  59  83 112 145 187 232 275 332
#     4  11  22  36  55  84 110 143 184 231 281 333
#     4   9  18  32  54  79 102 139 183 221 265 319
#     4   9  17  31  54  78 107 143 182 228 272 324
#
# _framework density 18.365687999999999
#
# number of rings (size 3 to 8) (size 9 to 14) (size 15 to 20)
#    0.000    2.333    2.500    0.250    2.333    1.333 
#    0.000    3.333    0.000    2.000    0.000    0.000 
#    0.000    0.000    0.000    0.000    0.000    0.000 
#
# Total GULP energy -133792.337414 kJ/mol
# GULP energy per Si atom -5574.680726 kJ/mol
# Density = 1.832389 g / cm^3
# Si number density = 18.365688 Si / 1000 Ang^3
#
#
#
# Elastic Constant Matrix: (Units=GPa)
#
#
# Indices 1 2 3 4 5 6 
#
# 1 124.8439 37.2809 39.8013 0.0000 -23.0059 0.0000
# 2 37.2809 49.3486 19.1688 0.0000 -3.9830 0.0000
# 3 39.8013 19.1688 108.9488 0.0000 -16.2245 0.0000
# 4 0.0000 0.0000 0.0000 17.8833 0.0000 -5.6946
# 5 -23.0059 -3.9830 -16.2245 0.0000 18.5251 0.0000
# 6 0.0000 0.0000 0.0000 -5.6946 0.0000 4.8157
#
#
#
# Elastic Compliance Matrix: (Units=1/GPa)
#
#
# Indices 1 2 3 4 5 6 
#
# 1 0.013556 -0.008589 -0.001390 0.000000 0.013770 0.000000
# 2 -0.008589 0.027230 -0.002725 0.000000 -0.007199 0.000000
# 3 -0.001390 -0.002725 0.011295 0.000000 0.007580 0.000000
# 4 0.000000 0.000000 0.000000 0.089691 0.000000 0.106061
# 5 0.013770 -0.007199 0.007580 0.000000 0.076172 0.000000
# 6 0.000000 0.000000 0.000000 0.106061 0.000000 0.333073
#
#
# Mechanical properties :
#
#
# Convention : Reuss Voigt Hill
#
# Bulk Modulus (GPa) = 37.49366 52.84927 45.17147
# Shear Modulus (GPa) = 8.54237 20.70416 14.62326
#
# Velocity S-wave (km/s) = 2.15902 3.36121 2.82481
# Velocity P-wave (km/s) = 5.16474 6.62588 5.94040
#
# Compressibility (1/GPa) = 0.02667117
#
# Stress axis : x y z
#
# Youngs Moduli (GPa) = 73.76959 36.72359 88.53672
#
# Poissons Ratio (x) = 0.31543 0.12310
# Poissons Ratio (y) = 0.63363 0.24128
# Poissons Ratio (z) = 0.10256 0.10008
#
# Static dielectric constant tensor:
#      x y z
#    x 1.626800 0.000000 -0.008840 
#    y 0.000000 1.656800 0.000000 
#    z -0.008840 0.000000 1.646970 
# 
# From -- ./inp_files/66723.got.cif
#   From: 2010.05.17/outbox.cif.g08.bks.cpg/sg10_34_cif.got.tgz:66723.got - 2010.06.03 11:33:40.
