data_PCOD9147898
_publ_section_title
;
Structure prediction by ZEFSAII (Michael W. Deem and Ramdas Pophale) SiO2 
 PCOD9147898
Probable space group: P 2/M
;
_chemical_formula_sum "Si O2"
_cell_formula_units_Z 28
_cell_length_a 9.710779
_cell_length_b 7.631368
_cell_length_c 33.985154
_cell_angle_alpha 90.000000
_cell_angle_beta 32.460052
_cell_angle_gamma 90.000000
_cell_volume 1351.719458
_symmetry_space_group_name_H-M "P 2/M"
_symmetry_group_IT_number 10
_symmetry_cell_setting 'monoclinic'
loop_
_space_group_symop_operation_xyz
x,y,z
-x,y,-z
-x,-y,-z
x,-y,z
loop_
_atom_site_type_symbol
_atom_site_label
_atom_site_fract_x
_atom_site_fract_y
_atom_site_fract_z
Si Si1 0.708266 0.299636 0.586937
Si Si2 0.312337 0.000000 0.103941
Si Si3 0.843328 0.294362 0.077916
Si Si4 0.922398 0.287172 0.614059
Si Si5 0.483571 0.192916 0.446766
Si Si6 0.721247 0.291262 0.822010
Si Si7 0.028203 0.303412 0.314899
Si Si8 0.902220 0.000000 0.931383
O O1 0.611365 0.500000 0.611276
O O2 0.558364 0.198127 0.589935
O O3 0.000000 0.306965 0.500000
O O4 0.736478 0.226872 0.623892
O O5 0.267807 0.170236 0.142258
O O6 0.141900 0.000000 0.105156
O O7 0.612488 0.000000 0.018908
O O8 0.878905 0.500000 0.079430
O O9 0.549510 0.267315 0.135553
O O10 0.947238 0.167780 0.086975
O O11 0.000000 0.257741 0.000000
O O12 0.910408 0.500000 0.616957
O O13 0.213317 0.240956 0.531406
O O14 0.858602 0.220062 0.672873
O O15 0.725936 0.311988 0.396600
O O16 0.559558 0.000000 0.441160
O O17 0.749962 0.500000 0.824528
O O18 0.923678 0.230297 0.739865
O O19 0.136044 0.500000 0.286528
#
# Coordination Sequence:
#
# PCOD9147898 Si02
#       8
#     4   2   4   4   4   4   4   2
#     4   8  15  30  51  71  94 130 172 218 273 330
#     4  11  23  38  61  90 130 157 191 243 289 356
#     4  10  19  36  63  93 122 156 201 243 282 340
#     4   9  18  34  55  76  99 134 186 237 280 331
#     4  11  21  31  48  77 110 140 178 227 282 342
#     4  10  22  40  62  86 117 161 203 243 295 349
#     4  10  21  37  56  76 102 142 186 232 284 336
#     4  11  22  37  62  97 124 160 194 236 298 343
#
# _framework density 20.714359000000002
#
# number of rings (size 3 to 8) (size 9 to 14) (size 15 to 20)
#    0.000    2.143    1.429    3.214    1.000    5.429 
#    0.000    2.857    0.000    3.429    0.000    0.000 
#    0.000    0.000    0.000    0.000    0.000    0.000 
#
# Total GULP energy -156129.237813 kJ/mol
# GULP energy per Si atom -5576.044208 kJ/mol
# Density = 2.066721 g / cm^3
# Si number density = 20.714359 Si / 1000 Ang^3
#
#
#
# Elastic Constant Matrix: (Units=GPa)
#
#
# Indices 1 2 3 4 5 6 
#
# 1 142.4130 61.8515 39.4617 0.0000 43.8071 0.0000
# 2 61.8515 103.8851 22.1961 0.0000 21.2961 0.0000
# 3 39.4617 22.1961 56.6609 0.0000 26.5906 0.0000
# 4 0.0000 0.0000 0.0000 -4.1295 0.0000 1.3800
# 5 43.8071 21.2961 26.5906 0.0000 37.8192 0.0000
# 6 0.0000 0.0000 0.0000 1.3800 0.0000 21.7267
#
#
#
# Elastic Compliance Matrix: (Units=1/GPa)
#
#
# Indices 1 2 3 4 5 6 
#
# 1 0.013202 -0.005183 -0.002026 0.000000 -0.010950 0.000000
# 2 -0.005183 0.013082 -0.001306 0.000000 -0.000444 0.000000
# 3 -0.002026 -0.001306 0.027051 0.000000 -0.015937 0.000000
# 4 0.000000 0.000000 0.000000 -0.237128 0.000000 0.015062
# 5 -0.010950 -0.000444 -0.015937 0.000000 0.050581 0.000000
# 6 0.000000 0.000000 0.000000 0.015062 0.000000 0.045070
#
#
# Mechanical properties :
#
#
# Convention : Reuss Voigt Hill
#
# Bulk Modulus (GPa) = 27.54459 61.10861 44.32660
# Shear Modulus (GPa) = -84.73188 23.04658 -30.84265
#
# Velocity S-wave (km/s) = -6.40263 3.33917 -3.86288
# Velocity P-wave (km/s) = 6.42900 6.66569 1.24485
#
# Compressibility (1/GPa) = 0.03630477
#
# Stress axis : x y z
#
# Youngs Moduli (GPa) = 75.74339 76.44012 36.96757
#
# Poissons Ratio (x) = 0.39619 0.07489
# Poissons Ratio (y) = 0.39258 0.04830
# Poissons Ratio (z) = 0.15344 0.09987
#
# Static dielectric constant tensor:
#      x y z
#    x 1.764760 0.000000 0.024300 
#    y 0.000000 1.754550 0.000000 
#    z 0.024300 0.000000 1.773100 
# 
# From -- ./inp_files/94527.got.cif
#   From: 2010.05.17/outbox.cif.g08.bks.cpg/sg10_48_cif.got.tgz:94527.got - 2010.06.03 11:33:40.
