data_PCOD9147001
_publ_section_title
;
Structure prediction by ZEFSAII (Michael W. Deem and Ramdas Pophale) SiO2 
 PCOD9147001
Probable space group: P 2/M
;
_chemical_formula_sum "Si O2"
_cell_formula_units_Z 32
_cell_length_a 5.289984
_cell_length_b 7.685129
_cell_length_c 36.431542
_cell_angle_alpha 90.000000
_cell_angle_beta 90.042318
_cell_angle_gamma 90.000000
_cell_volume 1481.095135
_symmetry_space_group_name_H-M "P 2/M"
_symmetry_group_IT_number 10
_symmetry_cell_setting 'monoclinic'
loop_
_space_group_symop_operation_xyz
x,y,z
-x,y,-z
-x,-y,-z
x,-y,z
loop_
_atom_site_type_symbol
_atom_site_label
_atom_site_fract_x
_atom_site_fract_y
_atom_site_fract_z
Si Si1 0.313781 0.298411 0.147492
Si Si2 0.807298 0.713442 0.770669
Si Si3 0.307114 0.709118 0.729751
Si Si4 0.249722 0.709666 0.479519
Si Si5 0.203284 0.208878 0.645257
Si Si6 0.813865 0.202290 0.104726
Si Si7 0.251522 0.212749 0.978340
Si Si8 0.296729 0.790986 0.394091
O O1 0.384661 0.500000 0.151934
O O2 0.252125 0.228169 0.188031
O O3 0.556066 0.215382 0.127943
O O4 0.056520 0.286635 0.124023
O O5 0.813693 0.500000 0.771061
O O6 0.578980 0.770057 0.744188
O O7 0.077038 0.772386 0.755239
O O8 0.310863 0.500000 0.732579
O O9 0.252103 0.753733 0.687749
O O10 0.500000 0.775161 0.500000
O O11 0.249265 0.500000 0.482465
O O12 0.254960 0.752853 0.436697
O O13 0.000000 0.775443 0.500000
O O14 0.436878 0.276672 0.621079
O O15 0.936971 0.276754 0.630102
O O16 0.196307 0.000000 0.641083
O O17 0.760883 0.271563 0.063809
O O18 0.883365 0.000000 0.101076
O O19 0.259668 0.000000 0.977825
O O20 0.500000 0.271729 0.000000
O O21 0.000000 0.264046 0.000000
O O22 0.303185 0.000000 0.390002
#
# Coordination Sequence:
#
# PCOD9147001 Si02
#       8
#     4   4   4   4   4   4   4   4
#     4  11  22  39  61  83 115 158 193 227 287 355
#     4   9  19  35  55  78 105 140 183 224 261 320
#     4  10  19  34  56  79 101 133 180 224 261 308
#     4  10  21  36  54  78 106 133 166 213 261 299
#     4  10  21  36  52  76 108 137 168 211 263 311
#     4  11  22  37  59  88 117 144 189 248 287 328
#     4   9  17  31  53  79 107 144 187 229 279 337
#     4  10  21  36  54  75 103 139 174 206 247 310
#
# _framework density 21.605633999999998
#
# number of rings (size 3 to 8) (size 9 to 14) (size 15 to 20)
#    0.000    2.000    0.000    3.750    0.000    5.500 
#    0.000    3.750    0.000    7.500    0.000    0.000 
#    0.000    0.000    0.000    0.000    0.000    0.000 
#
# Total GULP energy -178896.472312 kJ/mol
# GULP energy per Si atom -5590.514760 kJ/mol
# Density = 2.155646 g / cm^3
# Si number density = 21.605634 Si / 1000 Ang^3
#
#
#
# Elastic Constant Matrix: (Units=GPa)
#
#
# Indices 1 2 3 4 5 6 
#
# 1 83.6696 -1.3972 -18.7132 0.0000 -1.0433 0.0000
# 2 -1.3972 36.1656 -12.7370 0.0000 -0.3516 0.0000
# 3 -18.7132 -12.7370 63.2263 0.0000 -1.6376 0.0000
# 4 0.0000 0.0000 0.0000 25.7692 0.0000 -0.8136
# 5 -1.0433 -0.3516 -1.6376 0.0000 45.5787 0.0000
# 6 0.0000 0.0000 0.0000 -0.8136 0.0000 4.8411
#
#
#
# Elastic Compliance Matrix: (Units=1/GPa)
#
#
# Indices 1 2 3 4 5 6 
#
# 1 0.012940 0.001999 0.004245 0.000000 0.000464 0.000000
# 2 0.001999 0.030080 0.006665 0.000000 0.000517 0.000000
# 3 0.004245 0.006665 0.018436 0.000000 0.000811 0.000000
# 4 0.000000 0.000000 0.000000 0.039013 0.000000 0.006557
# 5 0.000464 0.000517 0.000811 0.000000 0.021984 0.000000
# 6 0.000000 0.000000 0.000000 0.006557 0.000000 0.207668
#
#
# Mechanical properties :
#
#
# Convention : Reuss Voigt Hill
#
# Bulk Modulus (GPa) = 11.45808 13.04073 12.24940
# Shear Modulus (GPa) = 14.99724 29.63171 22.31447
#
# Velocity S-wave (km/s) = 2.63750 3.70737 3.21722
# Velocity P-wave (km/s) = 3.81969 4.93711 4.41390
#
# Compressibility (1/GPa) = 0.08727467
#
# Stress axis : x y z
#
# Youngs Moduli (GPa) = 77.27780 33.24455 54.24114
#
# Poissons Ratio (x) = -0.06647 -0.23024
# Poissons Ratio (y) = -0.15451 -0.36151
# Poissons Ratio (z) = -0.32803 -0.22157
#
# Static dielectric constant tensor:
#      x y z
#    x 1.764080 0.000000 0.002940 
#    y 0.000000 1.796130 0.000000 
#    z 0.002940 0.000000 1.734690 
# 
# From -- ./inp_files/94335.got.cif
#   From: 2010.05.17/outbox.cif.g08.bks.cpg/sg10_48_cif.got.tgz:94335.got - 2010.06.03 11:33:40.
