data_PCOD9147082
_publ_section_title
;
Structure prediction by ZEFSAII (Michael W. Deem and Ramdas Pophale) SiO2 
 PCOD9147082
Probable space group: P 2/M
;
_chemical_formula_sum "Si O2"
_cell_formula_units_Z 22
_cell_length_a 15.173120
_cell_length_b 16.112164
_cell_length_c 12.397270
_cell_angle_alpha 90.000000
_cell_angle_beta 24.435621
_cell_angle_gamma 90.000000
_cell_volume 1253.745548
_symmetry_space_group_name_H-M "P 2/M"
_symmetry_group_IT_number 10
_symmetry_cell_setting 'monoclinic'
loop_
_space_group_symop_operation_xyz
x,y,z
-x,y,-z
-x,-y,-z
x,-y,z
loop_
_atom_site_type_symbol
_atom_site_label
_atom_site_fract_x
_atom_site_fract_y
_atom_site_fract_z
Si Si1 0.587339 0.500000 0.525595
Si Si2 0.083658 0.647549 0.795423
Si Si3 0.140056 0.500000 0.059581
Si Si4 0.425233 0.093755 0.958432
Si Si5 0.000000 0.182783 0.500000
Si Si6 0.719085 0.240538 0.609878
Si Si7 0.500000 0.355163 0.000000
Si Si8 0.173412 0.500000 0.395840
O O1 0.500000 0.500000 0.500000
O O2 0.726628 0.581761 0.391828
O O3 0.380496 0.500000 0.833435
O O4 0.158223 0.712444 0.622109
O O5 0.897277 0.585157 0.963333
O O6 0.000000 0.686388 0.000000
O O7 0.947443 0.500000 0.357501
O O8 0.601849 0.154643 0.709385
O O9 0.426222 0.000000 0.914364
O O10 0.500000 0.091061 0.000000
O O11 0.185310 0.129834 0.233444
O O12 0.873158 0.229916 0.544024
O O13 0.520957 0.296361 0.873348
O O14 0.693744 0.417406 0.769921
O O15 0.000000 0.500000 0.500000
#
# Coordination Sequence:
#
# PCOD9147082 Si02
#       8
#     2   4   2   4   2   4   2   2
#     4  11  21  38  59  76  98 147 195 245 282 310
#     4  11  23  39  55  79 111 141 195 240 276 322
#     4  11  21  36  53  78 102 145 189 234 280 317
#     4   9  18  34  56  86 117 145 179 222 276 336
#     4  10  19  34  56  87 114 152 178 213 286 340
#     4  11  22  36  57  83 116 147 178 239 273 334
#     4  11  22  38  45  78 114 142 187 218 278 317
#     4  11  26  33  52  75 111 157 185 217 276 344
#
# _framework density 17.547419999999999
#
# number of rings (size 3 to 8) (size 9 to 14) (size 15 to 20)
#    0.000    1.455    6.364    0.818    3.818    2.182 
#    0.000    0.000    0.000    0.545    0.000    1.273 
#    0.000    0.000    0.000    0.000    0.000    0.000 
#
# Total GULP energy -122573.160090 kJ/mol
# GULP energy per Si atom -5571.507277 kJ/mol
# Density = 1.750748 g / cm^3
# Si number density = 17.547420 Si / 1000 Ang^3
#
#
#
# Elastic Constant Matrix: (Units=GPa)
#
#
# Indices 1 2 3 4 5 6 
#
# 1 56.3026 34.9636 34.1990 0.0000 12.2530 0.0000
# 2 34.9636 114.5648 51.1625 0.0000 12.8140 0.0000
# 3 34.1990 51.1625 112.0147 0.0000 10.4702 0.0000
# 4 0.0000 0.0000 0.0000 -712.8690 0.0000 7.6007
# 5 12.2530 12.8140 10.4702 0.0000 34.8791 0.0000
# 6 0.0000 0.0000 0.0000 7.6007 0.0000 3.2613
#
#
#
# Elastic Compliance Matrix: (Units=1/GPa)
#
#
# Indices 1 2 3 4 5 6 
#
# 1 0.024919 -0.004799 -0.004900 0.000000 -0.005520 0.000000
# 2 -0.004799 0.012123 -0.003923 0.000000 -0.001590 0.000000
# 3 -0.004900 -0.003923 0.012264 0.000000 -0.000519 0.000000
# 4 0.000000 0.000000 0.000000 -0.001369 0.000000 0.003190
# 5 -0.005520 -0.001590 -0.000519 0.000000 0.031350 0.000000
# 6 0.000000 0.000000 0.000000 0.003190 0.000000 0.299189
#
#
# Mechanical properties :
#
#
# Convention : Reuss Voigt Hill
#
# Bulk Modulus (GPa) = 45.32892 58.17024 51.74958
# Shear Modulus (GPa) = 12.10433 -124.10859 -56.00213
#
# Velocity S-wave (km/s) = 2.62927 -8.41909 -5.65544
# Velocity P-wave (km/s) = 5.92501 7.82853 3.61802
#
# Compressibility (1/GPa) = 0.02206097
#
# Stress axis : x y z
#
# Youngs Moduli (GPa) = 40.12979 82.48537 81.54010
#
# Poissons Ratio (x) = 0.39587 0.39954
# Poissons Ratio (y) = 0.19260 0.31992
# Poissons Ratio (z) = 0.19663 0.32362
#
# Static dielectric constant tensor:
#      x y z
#    x 1.618660 0.000000 -0.012810 
#    y 0.000000 1.577130 0.000000 
#    z -0.012810 0.000000 1.635510 
# 
# From -- ./inp_files/69273.got.cif
#   From: 2010.05.17/outbox.cif.g08.bks.cpg/sg10_35_cif.got.tgz:69273.got - 2010.06.03 11:33:40.
