data_PCOD9147958
_publ_section_title
;
Structure prediction by ZEFSAII (Michael W. Deem and Ramdas Pophale) SiO2 
 PCOD9147958
Probable space group: P 2/M
;
_chemical_formula_sum "Si O2"
_cell_formula_units_Z 32
_cell_length_a 29.733586
_cell_length_b 7.661558
_cell_length_c 12.375092
_cell_angle_alpha 90.000000
_cell_angle_beta 147.771853
_cell_angle_gamma 90.000000
_cell_volume 1503.411321
_symmetry_space_group_name_H-M "P 2/M"
_symmetry_group_IT_number 10
_symmetry_cell_setting 'monoclinic'
loop_
_space_group_symop_operation_xyz
x,y,z
-x,y,-z
-x,-y,-z
x,-y,z
loop_
_atom_site_type_symbol
_atom_site_label
_atom_site_fract_x
_atom_site_fract_y
_atom_site_fract_z
Si Si1 0.848229 0.289441 0.918795
Si Si2 0.338159 0.285700 0.392555
Si Si3 0.009059 0.790399 0.395411
Si Si4 0.351222 0.198923 0.951469
Si Si5 0.513878 0.703997 0.148222
Si Si6 0.100270 0.294320 0.211292
Si Si7 0.399813 0.705193 0.285132
Si Si8 0.834775 0.201027 0.427181
O O1 0.847102 0.500000 0.911546
O O2 0.756467 0.231301 0.771425
O O3 0.863643 0.225900 0.828171
O O4 0.925716 0.243943 0.154848
O O5 0.341357 0.500000 0.398456
O O6 0.409145 0.224625 0.622351
O O7 0.360480 0.229456 0.316689
O O8 0.092821 0.722509 0.503785
O O9 0.000000 0.724860 0.500000
O O10 0.017679 0.000000 0.418229
O O11 0.258310 0.281929 0.756193
O O12 0.346932 0.000000 0.901703
O O13 0.427423 0.284861 0.040473
O O14 0.373113 0.201041 0.122232
O O15 0.535060 0.500000 0.175521
O O16 0.500000 0.780026 0.000000
O O17 0.122084 0.500000 0.266019
O O18 0.130348 0.203852 0.380766
O O19 0.000000 0.281126 0.000000
O O20 0.500000 0.716471 0.500000
O O21 0.377794 0.500000 0.227425
O O22 0.821974 0.000000 0.365460
#
# Coordination Sequence:
#
# PCOD9147958 Si02
#       8
#     4   4   4   4   4   4   4   4
#     4  10  21  37  58  86 116 143 181 236 290 334
#     4   9  19  36  57  85 115 144 183 234 284 334
#     4  10  22  40  59  79 111 154 194 231 276 338
#     4  11  24  39  57  85 120 152 190 240 288 335
#     4  10  21  39  63  86 113 154 196 232 280 343
#     4  10  20  36  59  86 113 142 185 240 285 330
#     4  10  19  37  62  83 110 147 192 238 282 341
#     4  10  23  40  57  81 115 155 193 231 280 341
#
# _framework density 21.284927
#
# number of rings (size 3 to 8) (size 9 to 14) (size 15 to 20)
#    0.000    2.000    2.500    0.375    3.500    2.500 
#    0.000    0.625    0.000    0.000    0.000    0.000 
#    0.000    0.000    0.000    0.000    0.000    0.000 
#
# Total GULP energy -178677.888117 kJ/mol
# GULP energy per Si atom -5583.684004 kJ/mol
# Density = 2.123648 g / cm^3
# Si number density = 21.284927 Si / 1000 Ang^3
#
#
#
# Elastic Constant Matrix: (Units=GPa)
#
#
# Indices 1 2 3 4 5 6 
#
# 1 161.5388 -1.6274 45.3686 0.0000 -5.9514 0.0000
# 2 -1.6274 34.0779 0.2572 0.0000 3.8237 0.0000
# 3 45.3686 0.2572 93.4396 0.0000 -2.1966 0.0000
# 4 0.0000 0.0000 0.0000 -4.6229 0.0000 10.7186
# 5 -5.9514 3.8237 -2.1966 0.0000 37.0241 0.0000
# 6 0.0000 0.0000 0.0000 10.7186 0.0000 -0.5102
#
#
#
# Elastic Compliance Matrix: (Units=1/GPa)
#
#
# Indices 1 2 3 4 5 6 
#
# 1 0.007204 0.000267 -0.003477 0.000000 0.000924 0.000000
# 2 0.000267 0.029701 -0.000283 0.000000 -0.003041 0.000000
# 3 -0.003477 -0.000283 0.012396 0.000000 0.000206 0.000000
# 4 0.000000 0.000000 0.000000 0.004534 0.000000 0.095251
# 5 0.000924 -0.003041 0.000206 0.000000 0.027484 0.000000
# 6 0.000000 0.000000 0.000000 0.095251 0.000000 0.041081
#
#
# Mechanical properties :
#
#
# Convention : Reuss Voigt Hill
#
# Bulk Modulus (GPa) = 23.63254 41.89478 32.76366
# Shear Modulus (GPa) = 34.84567 22.71540 28.78053
#
# Velocity S-wave (km/s) = 4.05051 3.27036 3.68116
# Velocity P-wave (km/s) = 5.74478 5.82974 5.78742
#
# Compressibility (1/GPa) = 0.04231455
#
# Stress axis : x y z
#
# Youngs Moduli (GPa) = 138.81906 33.66929 80.67268
#
# Poissons Ratio (x) = -0.00897 0.28047
# Poissons Ratio (y) = -0.03700 0.02280
# Poissons Ratio (z) = 0.48263 0.00952
#
# Static dielectric constant tensor:
#      x y z
#    x 1.736610 0.000000 0.023740 
#    y 0.000000 1.813840 0.000000 
#    z 0.023740 0.000000 1.722840 
# 
# From -- ./inp_files/58379.got.cif
#   From: 2010.05.17/outbox.cif.g08.bks.cpg/sg10_30_cif.got.tgz:58379.got - 2010.06.03 11:33:40.
