data_PCOD9147414
_publ_section_title
;
Structure prediction by ZEFSAII (Michael W. Deem and Ramdas Pophale) SiO2 
 PCOD9147414
Probable space group: P 2/M
;
_chemical_formula_sum "Si O2"
_cell_formula_units_Z 32
_cell_length_a 14.267439
_cell_length_b 7.527358
_cell_length_c 14.850214
_cell_angle_alpha 90.000000
_cell_angle_beta 119.530902
_cell_angle_gamma 90.000000
_cell_volume 1387.667694
_symmetry_space_group_name_H-M "P 2/M"
_symmetry_group_IT_number 10
_symmetry_cell_setting 'monoclinic'
loop_
_space_group_symop_operation_xyz
x,y,z
-x,y,-z
-x,-y,-z
x,-y,z
loop_
_atom_site_type_symbol
_atom_site_label
_atom_site_fract_x
_atom_site_fract_y
_atom_site_fract_z
Si Si1 0.613819 0.282910 0.518032
Si Si2 0.841486 0.288846 0.669049
Si Si3 0.918782 0.705427 0.888537
Si Si4 0.546442 0.289560 0.294539
Si Si5 0.379294 0.217762 0.971542
Si Si6 0.722080 0.201520 0.251642
Si Si7 0.311480 0.788880 0.139972
Si Si8 0.117067 0.786111 0.519867
O O1 0.500000 0.220917 0.500000
O O2 0.613581 0.500000 0.521420
O O3 0.719504 0.217681 0.617769
O O4 0.613773 0.231959 0.413504
O O5 0.835734 0.500000 0.681795
O O6 0.913188 0.216244 0.784713
O O7 0.872348 0.266903 0.579418
O O8 0.953469 0.500000 0.894795
O O9 0.797344 0.710555 0.870421
O O10 0.000000 0.787434 0.000000
O O11 0.558221 0.500000 0.289037
O O12 0.601338 0.198601 0.235593
O O13 0.420607 0.251078 0.246736
O O14 0.294915 0.280132 0.855122
O O15 0.379999 0.000000 0.970890
O O16 0.500000 0.275017 0.000000
O O17 0.341670 0.273529 0.053016
O O18 0.796688 0.282762 0.365225
O O19 0.761303 0.000000 0.257397
O O20 0.296195 0.000000 0.129883
O O21 0.000000 0.734830 0.500000
O O22 0.125932 0.000000 0.523528
#
# Coordination Sequence:
#
# PCOD9147414 Si02
#       8
#     4   4   4   4   4   4   4   4
#     4   9  17  30  51  79 110 147 187 225 278 344
#     4  10  20  38  62  85 114 154 195 236 288 350
#     4  10  23  43  64  86 116 154 195 244 298 342
#     4  11  20  32  54  83 117 150 188 238 290 344
#     4   9  17  32  54  79 111 153 194 231 283 348
#     4  10  19  35  56  77 110 152 193 236 286 343
#     4  11  22  37  60  88 117 155 200 241 287 348
#     4  10  22  38  58  86 119 153 192 243 295 339
#
# _framework density 23.060278
#
# number of rings (size 3 to 8) (size 9 to 14) (size 15 to 20)
#    0.000    2.000    2.500    1.500    0.000    4.000 
#    0.000    3.125    0.000    1.875    0.000    0.000 
#    0.000    0.000    0.000    0.000    0.000    0.000 
#
# Total GULP energy -178678.175132 kJ/mol
# GULP energy per Si atom -5583.692973 kJ/mol
# Density = 2.300779 g / cm^3
# Si number density = 23.060278 Si / 1000 Ang^3
#
#
#
# Elastic Constant Matrix: (Units=GPa)
#
#
# Indices 1 2 3 4 5 6 
#
# 1 61.4630 -11.6049 39.2935 0.0000 5.5426 0.0000
# 2 -11.6049 61.6249 5.7944 0.0000 -1.6476 0.0000
# 3 39.2935 5.7944 205.2694 0.0000 7.9231 0.0000
# 4 0.0000 0.0000 0.0000 9.8448 0.0000 -3.8934
# 5 5.5426 -1.6476 7.9231 0.0000 33.8471 0.0000
# 6 0.0000 0.0000 0.0000 -3.8934 0.0000 17.1237
#
#
#
# Elastic Compliance Matrix: (Units=1/GPa)
#
#
# Indices 1 2 3 4 5 6 
#
# 1 0.019640 0.003998 -0.003790 0.000000 -0.002134 0.000000
# 2 0.003998 0.017112 -0.001267 0.000000 0.000475 0.000000
# 3 -0.003790 -0.001267 0.005663 0.000000 -0.000767 0.000000
# 4 0.000000 0.000000 0.000000 0.111612 0.000000 0.025377
# 5 -0.002134 0.000475 -0.000767 0.000000 0.030097 0.000000
# 6 0.000000 0.000000 0.000000 0.025377 0.000000 0.064168
#
#
# Mechanical properties :
#
#
# Convention : Reuss Voigt Hill
#
# Bulk Modulus (GPa) = 24.81580 43.92481 34.37030
# Shear Modulus (GPa) = 18.95076 31.82142 25.38609
#
# Velocity S-wave (km/s) = 2.86980 3.71876 3.32152
# Velocity P-wave (km/s) = 4.66537 6.12602 5.44489
#
# Compressibility (1/GPa) = 0.04029691
#
# Stress axis : x y z
#
# Youngs Moduli (GPa) = 50.91572 58.43898 176.60034
#
# Poissons Ratio (x) = -0.23363 0.66933
# Poissons Ratio (y) = -0.20355 0.22369
# Poissons Ratio (z) = 0.19298 0.07402
#
# Static dielectric constant tensor:
#      x y z
#    x 1.842320 0.000000 -0.006090 
#    y 0.000000 1.859770 0.000000 
#    z -0.006090 0.000000 1.919750 
# 
# From -- ./inp_files/66565.got.cif
#   From: 2010.05.17/outbox.cif.g08.bks.cpg/sg10_34_cif.got.tgz:66565.got - 2010.06.03 11:33:40.
