data_PCOD9147381
_publ_section_title
;
Structure prediction by ZEFSAII (Michael W. Deem and Ramdas Pophale) SiO2 
 PCOD9147381
Probable space group: P 2/M
;
_chemical_formula_sum "Si O2"
_cell_formula_units_Z 23
_cell_length_a 12.136028
_cell_length_b 16.345022
_cell_length_c 6.996926
_cell_angle_alpha 90.000000
_cell_angle_beta 79.095580
_cell_angle_gamma 90.000000
_cell_volume 1362.875345
_symmetry_space_group_name_H-M "P 2/M"
_symmetry_group_IT_number 10
_symmetry_cell_setting 'monoclinic'
loop_
_space_group_symop_operation_xyz
x,y,z
-x,y,-z
-x,-y,-z
x,-y,z
loop_
_atom_site_type_symbol
_atom_site_label
_atom_site_fract_x
_atom_site_fract_y
_atom_site_fract_z
Si Si1 0.877449 0.719397 0.946214
Si Si2 0.000000 0.000000 0.500000
Si Si3 0.252297 0.279287 0.619881
Si Si4 0.431508 0.908936 0.217921
Si Si5 0.500000 0.223990 0.500000
Si Si6 0.870464 0.404090 0.607560
Si Si7 0.178785 0.856426 0.340689
O O1 0.856646 0.642647 0.813111
O O2 0.868276 0.798349 0.811893
O O3 0.790705 0.723447 0.149423
O O4 0.000000 0.713930 0.000000
O O5 0.906424 0.928070 0.580684
O O6 0.386450 0.274530 0.564582
O O7 0.204462 0.358098 0.525272
O O8 0.202997 0.201679 0.516725
O O9 0.480913 0.837081 0.329976
O O10 0.299521 0.891206 0.236567
O O11 0.443092 0.000000 0.300155
O O12 0.500000 0.908667 0.000000
O O13 0.845641 0.500000 0.629906
O O14 0.000000 0.394240 0.500000
#
# Coordination Sequence:
#
# PCOD9147381 Si02
#       7
#     4   1   4   4   2   4   4
#     4  11  20  35  58  83 112 145 186 227 272 331
#     4  12  20  36  52  70 114 152 182 222 284 322
#     4  10  21  39  58  83 114 146 183 228 274 331
#     4  10  19  35  55  76 103 139 190 239 274 312
#     4  10  21  36  59  80 106 148 188 222 273 331
#     4  10  21  37  59  87 115 143 177 224 280 333
#     4  10  22  35  53  77 111 152 183 227 281 323
#
# _framework density 16.876083999999999
#
# number of rings (size 3 to 8) (size 9 to 14) (size 15 to 20)
#    0.000    1.739    2.609    2.348    2.435    1.043 
#    0.000    4.348    0.000    1.043    0.000    0.000 
#    0.000    0.000    0.000    0.000    0.000    0.000 
#
# Total GULP energy -128095.601989 kJ/mol
# GULP energy per Si atom -5569.374000 kJ/mol
# Density = 1.683767 g / cm^3
# Si number density = 16.876084 Si / 1000 Ang^3
#
#
#
# Elastic Constant Matrix: (Units=GPa)
#
#
# Indices 1 2 3 4 5 6 
#
# 1 116.6410 74.1103 44.1618 0.0000 -14.4874 0.0000
# 2 74.1103 136.2061 59.2005 0.0000 -12.7188 0.0000
# 3 44.1618 59.2005 104.3782 0.0000 -16.3694 0.0000
# 4 0.0000 0.0000 0.0000 69.9292 0.0000 -107.8127
# 5 -14.4874 -12.7188 -16.3694 0.0000 22.5668 0.0000
# 6 0.0000 0.0000 0.0000 -107.8127 0.0000 202.1744
#
#
#
# Elastic Compliance Matrix: (Units=1/GPa)
#
#
# Indices 1 2 3 4 5 6 
#
# 1 0.013748 -0.006435 -0.001525 0.000000 0.004093 0.000000
# 2 -0.006435 0.012812 -0.004581 0.000000 -0.000233 0.000000
# 3 -0.001525 -0.004581 0.013840 0.000000 0.006478 0.000000
# 4 0.000000 0.000000 0.000000 0.080409 0.000000 0.042880
# 5 0.004093 -0.000233 0.006478 0.000000 0.051508 0.000000
# 6 0.000000 0.000000 0.000000 0.042880 0.000000 0.027812
#
#
# Mechanical properties :
#
#
# Convention : Reuss Voigt Hill
#
# Bulk Modulus (GPa) = 65.28098 79.13005 72.20551
# Shear Modulus (GPa) = 21.70913 70.91760 46.31337
#
# Velocity S-wave (km/s) = 3.59051 6.48951 5.24431
# Velocity P-wave (km/s) = 7.48034 10.15590 8.91902
#
# Compressibility (1/GPa) = 0.01531840
#
# Stress axis : x y z
#
# Youngs Moduli (GPa) = 72.73902 78.04892 72.25582
#
# Poissons Ratio (x) = 0.50227 0.11018
# Poissons Ratio (y) = 0.46810 0.33098
# Poissons Ratio (z) = 0.11091 0.35752
#
# Static dielectric constant tensor:
#      x y z
#    x 1.560630 0.000000 0.005100 
#    y 0.000000 1.552390 0.000000 
#    z 0.005100 0.000000 1.567330 
# 
# From -- ./inp_files/7188.got.cif
#   From: 2010.05.17/outbox.cif.g08.bks.cpg/sg10_4_cif.got.tgz:7188.got - 2010.06.03 11:33:40.
