data_PCOD9147009
_publ_section_title
;
Structure prediction by ZEFSAII (Michael W. Deem and Ramdas Pophale) SiO2 
 PCOD9147009
Probable space group: P 2/M
;
_chemical_formula_sum "Si O2"
_cell_formula_units_Z 24
_cell_length_a 7.466335
_cell_length_b 14.891678
_cell_length_c 13.836277
_cell_angle_alpha 90.000000
_cell_angle_beta 138.235113
_cell_angle_gamma 90.000000
_cell_volume 1024.693095
_symmetry_space_group_name_H-M "P 2/M"
_symmetry_group_IT_number 10
_symmetry_cell_setting 'monoclinic'
loop_
_space_group_symop_operation_xyz
x,y,z
-x,y,-z
-x,-y,-z
x,-y,z
loop_
_atom_site_type_symbol
_atom_site_label
_atom_site_fract_x
_atom_site_fract_y
_atom_site_fract_z
Si Si1 0.674544 0.098967 0.371800
Si Si2 0.144521 0.397127 0.332180
Si Si3 0.085175 0.715507 0.921233
Si Si4 0.694148 0.292343 0.418888
Si Si5 0.541319 0.399160 0.173381
Si Si6 0.741356 0.098224 0.967403
O O1 0.602883 0.189772 0.400025
O O2 0.522708 0.110653 0.206928
O O3 0.000000 0.095431 0.500000
O O4 0.583927 0.000000 0.371147
O O5 0.217218 0.500000 0.334831
O O6 0.128589 0.324630 0.239579
O O7 0.838093 0.401186 0.249073
O O8 0.300262 0.357237 0.487175
O O9 0.325974 0.644734 0.017206
O O10 0.196723 0.814997 0.942764
O O11 0.000000 0.718317 0.000000
O O12 0.548616 0.338664 0.271136
O O13 0.000000 0.284906 0.500000
O O14 0.458818 0.500000 0.164755
O O15 0.724315 0.000000 0.008249
O O16 0.000000 0.093985 0.000000
#
# Coordination Sequence:
#
# PCOD9147009 Si02
#       6
#     4   4   4   4   4   4
#     4   9  16  29  54  86 114 143 185 240 295 340
#     4  10  21  36  55  81 113 149 192 241 289 340
#     4  11  22  36  55  80 110 151 191 235 286 346
#     4   9  17  32  54  80 107 144 185 234 284 339
#     4  10  19  34  56  79 106 145 193 236 286 344
#     4   9  18  34  57  82 111 152 194 231 283 352
#
# _framework density 23.421647
#
# number of rings (size 3 to 8) (size 9 to 14) (size 15 to 20)
#    0.000    2.333    1.667    1.500    0.000    4.667 
#    0.000    1.667    0.000    5.000    0.000    5.833 
#    0.000    0.000    0.000    0.000    0.000    0.000 
#
# Total GULP energy -134021.652698 kJ/mol
# GULP energy per Si atom -5584.235529 kJ/mol
# Density = 2.336834 g / cm^3
# Si number density = 23.421647 Si / 1000 Ang^3
#
#
#
# Elastic Constant Matrix: (Units=GPa)
#
#
# Indices 1 2 3 4 5 6 
#
# 1 58.6412 11.0654 4.9699 0.0000 -2.1866 0.0000
# 2 11.0654 216.3580 60.7330 0.0000 -9.2245 0.0000
# 3 4.9699 60.7330 145.6162 0.0000 -3.0248 0.0000
# 4 0.0000 0.0000 0.0000 25.8042 0.0000 3.9444
# 5 -2.1866 -9.2245 -3.0248 0.0000 30.6654 0.0000
# 6 0.0000 0.0000 0.0000 3.9444 0.0000 24.6850
#
#
#
# Elastic Compliance Matrix: (Units=1/GPa)
#
#
# Indices 1 2 3 4 5 6 
#
# 1 0.017256 -0.000772 -0.000247 0.000000 0.000974 0.000000
# 2 -0.000772 0.005327 -0.002168 0.000000 0.001334 0.000000
# 3 -0.000247 -0.002168 0.007782 0.000000 0.000098 0.000000
# 4 0.000000 0.000000 0.000000 0.039724 0.000000 -0.006347
# 5 0.000974 0.001334 0.000098 0.000000 0.033090 0.000000
# 6 0.000000 0.000000 0.000000 -0.006347 0.000000 0.041525
#
#
# Mechanical properties :
#
#
# Convention : Reuss Voigt Hill
#
# Bulk Modulus (GPa) = 41.68060 63.79468 52.73764
# Shear Modulus (GPa) = 31.43221 39.15407 35.29314
#
# Velocity S-wave (km/s) = 3.66733 4.09308 3.88604
# Velocity P-wave (km/s) = 5.98053 7.04517 6.53457
#
# Compressibility (1/GPa) = 0.02399198
#
# Stress axis : x y z
#
# Youngs Moduli (GPa) = 57.95185 187.73145 128.50347
#
# Poissons Ratio (x) = 0.14487 0.03172
# Poissons Ratio (y) = 0.04472 0.27855
# Poissons Ratio (z) = 0.01431 0.40693
#
# Static dielectric constant tensor:
#      x y z
#    x 2.395320 0.000000 0.102030 
#    y 0.000000 1.895790 0.000000 
#    z 0.102030 0.000000 1.847440 
# 
# From -- ./inp_files/61677.got.cif
#   From: 2010.05.17/outbox.cif.g08.bks.cpg/sg10_31_cif.got.tgz:61677.got - 2010.06.03 11:33:40.
