data_PCOD9147695
_publ_section_title
;
Structure prediction by ZEFSAII (Michael W. Deem and Ramdas Pophale) SiO2 
 PCOD9147695
Probable space group: P 2/M
;
_chemical_formula_sum "Si O2"
_cell_formula_units_Z 22
_cell_length_a 14.019591
_cell_length_b 14.183320
_cell_length_c 10.555155
_cell_angle_alpha 90.000000
_cell_angle_beta 147.076029
_cell_angle_gamma 90.000000
_cell_volume 1140.769565
_symmetry_space_group_name_H-M "P 2/M"
_symmetry_group_IT_number 10
_symmetry_cell_setting 'monoclinic'
loop_
_space_group_symop_operation_xyz
x,y,z
-x,y,-z
-x,-y,-z
x,-y,z
loop_
_atom_site_type_symbol
_atom_site_label
_atom_site_fract_x
_atom_site_fract_y
_atom_site_fract_z
Si Si1 0.582478 0.797841 0.857601
Si Si2 0.900590 0.000000 0.523221
Si Si3 0.011691 0.795571 0.666725
Si Si4 0.439763 0.000000 0.752698
Si Si5 0.500000 0.154114 0.500000
Si Si6 0.782997 0.000000 0.756110
Si Si7 0.500000 0.333754 0.000000
Si Si8 0.873210 0.601390 0.481190
O O1 0.549383 0.905744 0.861493
O O2 0.494024 0.787475 0.622332
O O3 0.513689 0.731959 0.891839
O O4 0.788239 0.781698 0.074370
O O5 0.948685 0.100860 0.639937
O O6 0.000000 0.000000 0.500000
O O7 0.690611 0.000000 0.273583
O O8 0.909194 0.700806 0.591779
O O9 0.000000 0.799396 0.500000
O O10 0.299713 0.000000 0.478308
O O11 0.677071 0.088650 0.701142
O O12 0.000000 0.000000 0.000000
O O13 0.323838 0.392416 0.789487
O O14 0.900251 0.500000 0.577468
O O15 0.000000 0.602012 0.500000
#
# Coordination Sequence:
#
# PCOD9147695 Si02
#       8
#     4   2   4   2   2   2   2   4
#     4  11  22  37  56  79 121 154 195 245 290 346
#     4  10  21  31  48  78 123 153 184 227 300 348
#     4  10  19  36  51  83 113 157 188 235 290 351
#     4  10  22  33  49  79 110 158 208 237 279 347
#     4   9  22  40  52  78 115 156 198 244 293 345
#     4   9  19  37  55  72 100 157 219 251 270 332
#     4  12  21  37  60  90 118 141 190 252 301 346
#     4  10  20  37  58  88 119 151 193 245 299 346
#
# _framework density 19.285226999999999
#
# number of rings (size 3 to 8) (size 9 to 14) (size 15 to 20)
#    0.000    1.818    3.636    2.455    5.091    0.364 
#    0.000    0.000    0.000    0.000    0.000    7.000 
#    0.000    0.000    0.000    0.000    0.000    0.000 
#
# Total GULP energy -122647.927696 kJ/mol
# GULP energy per Si atom -5574.905804 kJ/mol
# Density = 1.924133 g / cm^3
# Si number density = 19.285227 Si / 1000 Ang^3
#
#
#
# Elastic Constant Matrix: (Units=GPa)
#
#
# Indices 1 2 3 4 5 6 
#
# 1 63.8664 28.4199 25.2379 0.0000 1.9368 0.0000
# 2 28.4199 148.6595 31.6094 0.0000 7.0771 0.0000
# 3 25.2379 31.6094 95.1564 0.0000 24.4149 0.0000
# 4 0.0000 0.0000 0.0000 28.4373 0.0000 8.6237
# 5 1.9368 7.0771 24.4149 0.0000 43.7538 0.0000
# 6 0.0000 0.0000 0.0000 8.6237 0.0000 7.7436
#
#
#
# Elastic Compliance Matrix: (Units=1/GPa)
#
#
# Indices 1 2 3 4 5 6 
#
# 1 0.018604 -0.002682 -0.004602 0.000000 0.002178 0.000000
# 2 -0.002682 0.007626 -0.001793 0.000000 -0.000114 0.000000
# 3 -0.004602 -0.001793 0.014237 0.000000 -0.007451 0.000000
# 4 0.000000 0.000000 0.000000 0.053097 0.000000 -0.059133
# 5 0.002178 -0.000114 -0.007451 0.000000 0.026935 0.000000
# 6 0.000000 0.000000 0.000000 -0.059133 0.000000 0.194994
#
#
# Mechanical properties :
#
#
# Convention : Reuss Voigt Hill
#
# Bulk Modulus (GPa) = 44.81624 53.13517 48.97571
# Shear Modulus (GPa) = 14.65919 30.81460 22.73690
#
# Velocity S-wave (km/s) = 2.76003 4.00163 3.43735
# Velocity P-wave (km/s) = 5.78326 6.99734 6.41907
#
# Compressibility (1/GPa) = 0.02231334
#
# Stress axis : x y z
#
# Youngs Moduli (GPa) = 53.75303 131.12922 70.24063
#
# Poissons Ratio (x) = 0.35164 0.32327
# Poissons Ratio (y) = 0.14415 0.12592
# Poissons Ratio (z) = 0.24739 0.23507
#
# Static dielectric constant tensor:
#      x y z
#    x 1.726480 0.000000 0.012460 
#    y 0.000000 1.727100 0.000000 
#    z 0.012460 0.000000 1.706340 
# 
# From -- ./inp_files/51480.got.cif
#   From: 2010.05.17/outbox.cif.g08.bks.cpg/sg10_26_cif.got.tgz:51480.got - 2010.06.03 11:33:40.
