data_PCOD9147673
_publ_section_title
;
Structure prediction by ZEFSAII (Michael W. Deem and Ramdas Pophale) SiO2 
 PCOD9147673
Probable space group: P 2/M
;
_chemical_formula_sum "Si O2"
_cell_formula_units_Z 16
_cell_length_a 12.227982
_cell_length_b 16.080256
_cell_length_c 5.133059
_cell_angle_alpha 90.000000
_cell_angle_beta 127.898639
_cell_angle_gamma 90.000000
_cell_volume 796.444138
_symmetry_space_group_name_H-M "P 2/M"
_symmetry_group_IT_number 10
_symmetry_cell_setting 'monoclinic'
loop_
_space_group_symop_operation_xyz
x,y,z
-x,y,-z
-x,-y,-z
x,-y,z
loop_
_atom_site_type_symbol
_atom_site_label
_atom_site_fract_x
_atom_site_fract_y
_atom_site_fract_z
Si Si1 0.150877 0.903525 0.080910
Si Si2 0.222571 0.678282 0.677139
Si Si3 0.900892 0.500000 0.600806
Si Si4 0.652813 0.243923 0.615937
Si Si5 0.000000 0.205151 0.500000
O O1 0.272289 0.843110 0.350234
O O2 0.187277 0.000000 0.124444
O O3 0.117342 0.859653 0.758515
O O4 0.000000 0.896488 0.000000
O O5 0.188427 0.583332 0.564883
O O6 0.336466 0.705726 0.635574
O O7 0.080085 0.731839 0.424501
O O8 0.266855 0.703972 0.036804
O O9 0.000000 0.500000 0.500000
O O10 0.000000 0.500000 0.000000
O O11 0.500000 0.229715 0.500000
#
# Coordination Sequence:
#
# PCOD9147673 Si02
#       5
#     4   4   2   4   2
#     4  10  20  35  60  91 122 158 207 263 314 362
#     4  11  23  40  64  93 124 165 205 259 311 370
#     4  12  24  38  65 102 133 152 205 268 318 365
#     4  11  24  43  63  88 128 174 210 249 307 378
#     4  10  19  35  62  86 130 150 208 247 325 358
#
# _framework density 20.089292
#
# number of rings (size 3 to 8) (size 9 to 14) (size 15 to 20)
#    0.000    1.250    3.750    2.625    3.500    0.500 
#    0.000    3.750    0.000    4.500    0.000    0.000 
#    0.000    0.000    0.000    0.000    0.000    0.000 
#
# Total GULP energy -89096.246083 kJ/mol
# GULP energy per Si atom -5568.515380 kJ/mol
# Density = 2.004357 g / cm^3
# Si number density = 20.089292 Si / 1000 Ang^3
#
#
#
# Elastic Constant Matrix: (Units=GPa)
#
#
# Indices 1 2 3 4 5 6 
#
# 1 128.2789 53.0948 8.8742 0.0000 6.5035 0.0000
# 2 53.0948 199.8834 33.8815 0.0000 11.8257 0.0000
# 3 8.8742 33.8815 51.6109 0.0000 -5.5933 0.0000
# 4 0.0000 0.0000 0.0000 12.1944 0.0000 -4.0677
# 5 6.5035 11.8257 -5.5933 0.0000 35.2094 0.0000
# 6 0.0000 0.0000 0.0000 -4.0677 0.0000 20.2745
#
#
#
# Elastic Compliance Matrix: (Units=1/GPa)
#
#
# Indices 1 2 3 4 5 6 
#
# 1 0.008784 -0.002260 -0.000122 0.000000 -0.000883 0.000000
# 2 -0.002260 0.006440 -0.004099 0.000000 -0.002397 0.000000
# 3 -0.000122 -0.004099 0.022629 0.000000 0.004994 0.000000
# 4 0.000000 0.000000 0.000000 0.087887 0.000000 0.017633
# 5 -0.000883 -0.002397 0.004994 0.000000 0.030163 0.000000
# 6 0.000000 0.000000 0.000000 0.017633 0.000000 0.052861
#
#
# Mechanical properties :
#
#
# Convention : Reuss Voigt Hill
#
# Bulk Modulus (GPa) = 40.17628 63.49713 51.83671
# Shear Modulus (GPa) = 21.73695 32.46381 27.10038
#
# Velocity S-wave (km/s) = 3.29297 4.02428 3.67685
# Velocity P-wave (km/s) = 5.87371 7.29857 6.62456
#
# Compressibility (1/GPa) = 0.02489031
#
# Stress axis : x y z
#
# Youngs Moduli (GPa) = 113.83926 155.28186 44.19164
#
# Poissons Ratio (x) = 0.35100 0.00540
# Poissons Ratio (y) = 0.25733 0.18113
# Poissons Ratio (z) = 0.01391 0.63646
#
# Static dielectric constant tensor:
#      x y z
#    x 1.723460 0.000000 -0.016670 
#    y 0.000000 1.728410 0.000000 
#    z -0.016670 0.000000 1.837730 
# 
# From -- ./inp_files/6681.got.cif
#   From: 2010.05.17/outbox.cif.g08.bks.cpg/sg10_4_cif.got.tgz:6681.got - 2010.06.03 11:33:40.
