data_PCOD9147688
_publ_section_title
;
Structure prediction by ZEFSAII (Michael W. Deem and Ramdas Pophale) SiO2 
 PCOD9147688
Probable space group: P 2/M
;
_chemical_formula_sum "Si O2"
_cell_formula_units_Z 20
_cell_length_a 9.463399
_cell_length_b 12.212044
_cell_length_c 13.466206
_cell_angle_alpha 90.000000
_cell_angle_beta 150.378331
_cell_angle_gamma 90.000000
_cell_volume 769.211212
_symmetry_space_group_name_H-M "P 2/M"
_symmetry_group_IT_number 10
_symmetry_cell_setting 'monoclinic'
loop_
_space_group_symop_operation_xyz
x,y,z
-x,y,-z
-x,-y,-z
x,-y,z
loop_
_atom_site_type_symbol
_atom_site_label
_atom_site_fract_x
_atom_site_fract_y
_atom_site_fract_z
Si Si1 0.719464 0.380725 0.260844
Si Si2 0.746436 0.216361 0.949242
Si Si3 0.031602 0.000000 0.419168
Si Si4 0.432411 0.000000 0.055563
Si Si5 0.433195 0.180269 0.569177
Si Si6 0.077764 0.373151 0.284927
O O1 0.572388 0.500000 0.181282
O O2 0.537660 0.282715 0.191814
O O3 0.823520 0.367516 0.211339
O O4 0.000000 0.385371 0.500000
O O5 0.697145 0.180485 0.805935
O O6 0.724092 0.106943 0.998972
O O7 0.982654 0.302059 0.132241
O O8 0.182415 0.109240 0.465857
O O9 0.237411 0.000000 0.657802
O O10 0.722190 0.000000 0.157693
O O11 0.500000 0.136559 0.500000
O O12 0.330822 0.305219 0.490771
O O13 0.141361 0.500000 0.304742
#
# Coordination Sequence:
#
# PCOD9147688 Si02
#       6
#     4   4   2   2   4   4
#     4  10  19  35  63  96 132 172 223 292 349 395
#     4  12  23  41  67  98 141 184 231 288 350 418
#     4  12  23  46  77 104 133 179 230 285 353 425
#     4  12  24  38  68 108 137 174 222 292 358 410
#     4  12  27  46  70 103 145 185 232 293 351 414
#     4  11  25  43  68 102 141 190 239 287 348 413
#
# _framework density 26.00066
#
# number of rings (size 3 to 8) (size 9 to 14) (size 15 to 20)
#    0.000    0.600    4.000    5.100    0.000    3.600 
#    0.000    1.000    0.000    4.800    0.000    0.000 
#    0.000    0.000    0.000    0.000    0.000    0.000 
#
# Total GULP energy -112001.899227 kJ/mol
# GULP energy per Si atom -5600.094961 kJ/mol
# Density = 2.594148 g / cm^3
# Si number density = 26.000660 Si / 1000 Ang^3
#
#
#
# Elastic Constant Matrix: (Units=GPa)
#
#
# Indices 1 2 3 4 5 6 
#
# 1 127.8705 51.9498 44.2961 0.0000 -44.2481 0.0000
# 2 51.9498 193.0666 52.5219 0.0000 -16.7792 0.0000
# 3 44.2961 52.5219 188.8360 0.0000 -30.3313 0.0000
# 4 0.0000 0.0000 0.0000 20.5072 0.0000 -12.3950
# 5 -44.2481 -16.7792 -30.3313 0.0000 58.9171 0.0000
# 6 0.0000 0.0000 0.0000 -12.3950 0.0000 12.2320
#
#
#
# Elastic Compliance Matrix: (Units=1/GPa)
#
#
# Indices 1 2 3 4 5 6 
#
# 1 0.011698 -0.002238 -0.000886 0.000000 0.007692 0.000000
# 2 -0.002238 0.006073 -0.001260 0.000000 -0.000600 0.000000
# 3 -0.000886 -0.001260 0.006202 0.000000 0.002169 0.000000
# 4 0.000000 0.000000 0.000000 0.125834 0.000000 0.127510
# 5 0.007692 -0.000600 0.002169 0.000000 0.023695 0.000000
# 6 0.000000 0.000000 0.000000 0.127510 0.000000 0.210962
#
#
# Mechanical properties :
#
#
# Convention : Reuss Voigt Hill
#
# Bulk Modulus (GPa) = 65.77243 89.70096 77.73669
# Shear Modulus (GPa) = 12.55330 42.39828 27.47579
#
# Velocity S-wave (km/s) = 2.19967 4.04253 3.25427
# Velocity P-wave (km/s) = 5.63939 7.50758 6.63952
#
# Compressibility (1/GPa) = 0.01520394
#
# Stress axis : x y z
#
# Youngs Moduli (GPa) = 85.48109 164.67658 161.22940
#
# Poissons Ratio (x) = 0.36858 0.14286
# Poissons Ratio (y) = 0.19133 0.20321
# Poissons Ratio (z) = 0.07574 0.20756
#
# Static dielectric constant tensor:
#      x y z
#    x 2.067140 0.000000 -0.060710 
#    y 0.000000 2.040430 0.000000 
#    z -0.060710 0.000000 2.627310 
# 
# From -- ./inp_files/51148.got.cif
#   From: 2010.05.17/outbox.cif.g08.bks.cpg/sg10_26_cif.got.tgz:51148.got - 2010.06.03 11:33:40.
