data_PCOD9147347
_publ_section_title
;
Structure prediction by ZEFSAII (Michael W. Deem and Ramdas Pophale) SiO2 
 PCOD9147347
Probable space group: P 2/M
;
_chemical_formula_sum "Si O2"
_cell_formula_units_Z 22
_cell_length_a 14.069613
_cell_length_b 15.857131
_cell_length_c 5.232254
_cell_angle_alpha 90.000000
_cell_angle_beta 84.211694
_cell_angle_gamma 90.000000
_cell_volume 1161.383332
_symmetry_space_group_name_H-M "P 2/M"
_symmetry_group_IT_number 10
_symmetry_cell_setting 'monoclinic'
loop_
_space_group_symop_operation_xyz
x,y,z
-x,y,-z
-x,-y,-z
x,-y,z
loop_
_atom_site_type_symbol
_atom_site_label
_atom_site_fract_x
_atom_site_fract_y
_atom_site_fract_z
Si Si1 0.309922 0.399720 0.618790
Si Si2 0.400414 0.819361 0.174445
Si Si3 0.933342 0.185718 0.767914
Si Si4 0.757109 0.694366 0.880597
Si Si5 0.567183 0.000000 0.730091
Si Si6 0.500000 0.686155 0.500000
Si Si7 0.933191 0.000000 0.767853
O O1 0.303813 0.500000 0.606693
O O2 0.276628 0.359753 0.356773
O O3 0.420541 0.373154 0.652328
O O4 0.246672 0.362375 0.865808
O O5 0.317041 0.771906 0.048818
O O6 0.431502 0.751462 0.374738
O O7 0.375214 0.912311 0.281000
O O8 0.500000 0.829008 0.000000
O O9 0.856542 0.259892 0.796830
O O10 0.884294 0.091997 0.780013
O O11 0.000000 0.191642 0.500000
O O12 0.000000 0.190084 0.000000
O O13 0.500000 0.000000 0.500000
O O14 0.500000 0.000000 0.000000
O O15 0.000000 0.000000 0.500000
O O16 0.000000 0.000000 0.000000
#
# Coordination Sequence:
#
# PCOD9147347 Si02
#       7
#     4   4   4   4   2   2   2
#     4  11  23  39  59  85 115 146 191 245 297 348
#     4  10  19  35  52  82 119 151 192 225 270 333
#     4  10  20  38  61  87 120 153 193 237 287 338
#     4  11  23  37  62  86 114 153 192 237 292 346
#     4  10  20  31  52  75 116 164 190 220 260 318
#     4  10  19  35  58  80 116 150 192 231 293 338
#     4   8  16  31  56  85 115 146 181 236 282 322
#
# _framework density 18.942927000000001
#
# number of rings (size 3 to 8) (size 9 to 14) (size 15 to 20)
#    0.000    1.818    2.727    1.909    0.000    0.727 
#    0.000    2.727    0.000   17.455    0.000    0.000 
#    0.000    0.000    0.000    0.000    0.000    0.000 
#
# Total GULP energy -122486.135626 kJ/mol
# GULP energy per Si atom -5567.551619 kJ/mol
# Density = 1.889981 g / cm^3
# Si number density = 18.942927 Si / 1000 Ang^3
#
#
#
# Elastic Constant Matrix: (Units=GPa)
#
#
# Indices 1 2 3 4 5 6 
#
# 1 51.5684 45.0675 10.4561 0.0000 -10.8786 0.0000
# 2 45.0675 185.4350 39.2551 0.0000 -5.7251 0.0000
# 3 10.4561 39.2551 102.7908 0.0000 -5.6153 0.0000
# 4 0.0000 0.0000 0.0000 28.9165 0.0000 1.2133
# 5 -10.8786 -5.7251 -5.6153 0.0000 19.1074 0.0000
# 6 0.0000 0.0000 0.0000 1.2133 0.0000 20.7888
#
#
#
# Elastic Compliance Matrix: (Units=1/GPa)
#
#
# Indices 1 2 3 4 5 6 
#
# 1 0.027900 -0.006428 0.000385 0.000000 0.014072 0.000000
# 2 -0.006428 0.007371 -0.002277 0.000000 -0.002120 0.000000
# 3 0.000385 -0.002277 0.010705 0.000000 0.002683 0.000000
# 4 0.000000 0.000000 0.000000 0.034667 0.000000 -0.002023
# 5 0.014072 -0.002120 0.002683 0.000000 0.060501 0.000000
# 6 0.000000 0.000000 0.000000 -0.002023 0.000000 0.048221
#
#
# Mechanical properties :
#
#
# Convention : Reuss Voigt Hill
#
# Bulk Modulus (GPa) = 34.08587 58.81684 46.45136
# Shear Modulus (GPa) = 23.17139 30.09691 26.63415
#
# Velocity S-wave (km/s) = 3.50125 3.99033 3.75376
# Velocity P-wave (km/s) = 5.86328 7.23513 6.58503
#
# Compressibility (1/GPa) = 0.02933767
#
# Stress axis : x y z
#
# Youngs Moduli (GPa) = 35.84289 135.65771 93.41014
#
# Poissons Ratio (x) = 0.87197 -0.03600
# Poissons Ratio (y) = 0.23039 0.21270
# Poissons Ratio (z) = -0.01381 0.30891
#
# Static dielectric constant tensor:
#      x y z
#    x 1.653950 0.000000 -0.000160 
#    y 0.000000 1.718420 0.000000 
#    z -0.000160 0.000000 1.632780 
# 
# From -- ./inp_files/6795.got.cif
#   From: 2010.05.17/outbox.cif.g08.bks.cpg/sg10_4_cif.got.tgz:6795.got - 2010.06.03 11:33:40.
