data_PCOD9147484
_publ_section_title
;
Structure prediction by ZEFSAII (Michael W. Deem and Ramdas Pophale) SiO2 
 PCOD9147484
Probable space group: P 2/M
;
_chemical_formula_sum "Si O2"
_cell_formula_units_Z 32
_cell_length_a 15.664361
_cell_length_b 13.581153
_cell_length_c 21.233296
_cell_angle_alpha 90.000000
_cell_angle_beta 157.132338
_cell_angle_gamma 90.000000
_cell_volume 1755.391410
_symmetry_space_group_name_H-M "P 2/M"
_symmetry_group_IT_number 10
_symmetry_cell_setting 'monoclinic'
loop_
_space_group_symop_operation_xyz
x,y,z
-x,y,-z
-x,-y,-z
x,-y,z
loop_
_atom_site_type_symbol
_atom_site_label
_atom_site_fract_x
_atom_site_fract_y
_atom_site_fract_z
Si Si1 0.775758 0.381660 0.983269
Si Si2 0.457297 0.226829 0.107454
Si Si3 0.765902 0.891075 0.406298
Si Si4 0.944648 0.883584 0.208542
Si Si5 0.746020 0.717567 0.828122
Si Si6 0.278611 0.383898 0.317467
Si Si7 0.592887 0.887737 0.431699
Si Si8 0.241636 0.885189 0.777423
O O1 0.764022 0.500000 0.969703
O O2 0.616169 0.337860 0.928509
O O3 0.706919 0.329480 0.870427
O O4 0.031974 0.352752 0.170342
O O5 0.623570 0.188532 0.273606
O O6 0.580651 0.191184 0.127991
O O7 0.226241 0.168395 0.953460
O O8 0.691326 0.893947 0.428142
O O9 0.026397 0.875892 0.587259
O O10 0.719867 0.000000 0.347864
O O11 0.844969 0.867648 0.210995
O O12 0.200935 0.854076 0.384977
O O13 0.942342 0.000000 0.195596
O O14 0.713508 0.636390 0.751732
O O15 0.598447 0.808924 0.705610
O O16 0.000000 0.748411 0.000000
O O17 0.500000 0.341237 0.500000
O O18 0.281726 0.500000 0.331829
O O19 0.527785 0.000000 0.405438
O O20 0.317784 0.000000 0.825899
#
# Coordination Sequence:
#
# PCOD9147484 Si02
#       8
#     4   4   4   4   4   4   4   4
#     4  10  22  37  51  79 107 129 168 220 269 304
#     4  12  19  28  52  77 102 139 168 211 261 309
#     4   9  17  30  49  75 104 133 173 215 244 289
#     4   9  19  32  49  76 109 139 170 212 254 299
#     4  10  19  35  58  77  99 138 170 207 261 315
#     4   9  19  36  60  82  98 123 168 225 267 305
#     4   9  18  33  49  74 110 138 164 202 251 307
#     4   9  18  32  50  76 108 138 174 219 254 292
#
# _framework density 18.229551000000001
#
# number of rings (size 3 to 8) (size 9 to 14) (size 15 to 20)
#    0.000    2.375    1.250    3.750    1.750    3.750 
#    0.000    0.000    0.000    3.375    0.000    0.000 
#    0.000    0.000    0.000    0.000    0.000    0.000 
#
# Total GULP energy -178216.395822 kJ/mol
# GULP energy per Si atom -5569.262369 kJ/mol
# Density = 1.818806 g / cm^3
# Si number density = 18.229551 Si / 1000 Ang^3
#
#
#
# Elastic Constant Matrix: (Units=GPa)
#
#
# Indices 1 2 3 4 5 6 
#
# 1 21.5961 9.5767 7.8153 0.0000 10.9593 0.0000
# 2 9.5767 55.4591 33.7726 0.0000 15.7618 0.0000
# 3 7.8153 33.7726 102.5248 0.0000 -4.1437 0.0000
# 4 0.0000 0.0000 0.0000 21.8009 0.0000 9.7384
# 5 10.9593 15.7618 -4.1437 0.0000 18.2887 0.0000
# 6 0.0000 0.0000 0.0000 9.7384 0.0000 16.5372
#
#
#
# Elastic Compliance Matrix: (Units=1/GPa)
#
#
# Indices 1 2 3 4 5 6 
#
# 1 0.074016 0.009609 -0.011036 0.000000 -0.055135 0.000000
# 2 0.009609 0.036775 -0.014493 0.000000 -0.040736 0.000000
# 3 -0.011036 -0.014493 0.016290 0.000000 0.022794 0.000000
# 4 0.000000 0.000000 0.000000 0.062243 0.000000 -0.036654
# 5 -0.055135 -0.040736 0.022794 0.000000 0.127989 0.000000
# 6 0.000000 0.000000 0.000000 -0.036654 0.000000 0.082055
#
#
# Mechanical properties :
#
#
# Convention : Reuss Voigt Hill
#
# Bulk Modulus (GPa) = 10.49954 31.32325 20.91139
# Shear Modulus (GPa) = 10.80018 19.88638 15.34328
#
# Velocity S-wave (km/s) = 2.43668 3.30644 2.90430
# Velocity P-wave (km/s) = 3.69982 5.63886 4.76893
#
# Compressibility (1/GPa) = 0.09524224
#
# Stress axis : x y z
#
# Youngs Moduli (GPa) = 13.51053 27.19240 61.38611
#
# Poissons Ratio (x) = -0.26129 0.67744
# Poissons Ratio (y) = -0.12982 0.88966
# Poissons Ratio (z) = 0.14910 0.39410
#
# Static dielectric constant tensor:
#      x y z
#    x 1.675970 0.000000 -0.003130 
#    y 0.000000 1.617800 0.000000 
#    z -0.003130 0.000000 1.671190 
# 
# From -- ./inp_files/80267.got.cif
#   From: 2010.05.17/outbox.cif.g08.bks.cpg/sg10_41_cif.got.tgz:80267.got - 2010.06.03 11:33:40.
