data_PCOD9147828
_publ_section_title
;
Structure prediction by ZEFSAII (Michael W. Deem and Ramdas Pophale) SiO2 
 PCOD9147828
Probable space group: P 2/M
;
_chemical_formula_sum "Si O2"
_cell_formula_units_Z 32
_cell_length_a 28.789789
_cell_length_b 8.837416
_cell_length_c 22.234455
_cell_angle_alpha 90.000000
_cell_angle_beta 18.724902
_cell_angle_gamma 90.000000
_cell_volume 1816.053487
_symmetry_space_group_name_H-M "P 2/M"
_symmetry_group_IT_number 10
_symmetry_cell_setting 'monoclinic'
loop_
_space_group_symop_operation_xyz
x,y,z
-x,y,-z
-x,-y,-z
x,-y,z
loop_
_atom_site_type_symbol
_atom_site_label
_atom_site_fract_x
_atom_site_fract_y
_atom_site_fract_z
Si Si1 0.663584 0.181123 0.283812
Si Si2 0.156303 0.315756 0.187419
Si Si3 0.939847 0.317214 0.008687
Si Si4 0.337648 0.820533 0.317925
Si Si5 0.109375 0.679074 0.681887
Si Si6 0.800998 0.680186 0.998631
Si Si7 0.821359 0.317124 0.602616
Si Si8 0.656073 0.317098 0.928338
O O1 0.500000 0.228798 0.500000
O O2 0.785342 0.249073 0.179043
O O3 0.706813 0.236341 0.164113
O O4 0.671392 0.000000 0.277169
O O5 0.156264 0.500000 0.186997
O O6 0.251568 0.267366 0.127040
O O7 0.989109 0.269959 0.399106
O O8 0.216267 0.268086 0.048803
O O9 0.925908 0.500000 0.024650
O O10 0.000000 0.271627 0.000000
O O11 0.053566 0.276524 0.816488
O O12 0.243147 0.768793 0.491035
O O13 0.257729 0.754521 0.357253
O O14 0.343353 0.000000 0.307429
O O15 0.497657 0.752619 0.123975
O O16 0.143181 0.500000 0.640484
O O17 0.969234 0.700706 0.810921
O O18 0.772116 0.500000 0.038123
O O19 0.817448 0.500000 0.600901
O O20 0.739639 0.277587 0.764463
O O21 0.644514 0.500000 0.944035
#
# Coordination Sequence:
#
# PCOD9147828 Si02
#       8
#     4   4   4   4   4   4   4   4
#     4  10  21  36  54  80 116 152 182 215 259 319
#     4   9  17  34  59  86 108 131 175 229 277 321
#     4   9  19  37  61  87 110 136 178 231 277 317
#     4  12  24  36  52  77 112 150 185 221 263 318
#     4   9  17  34  59  82 107 138 179 227 268 317
#     4   9  17  33  59  84 107 137 179 230 269 312
#     4  10  19  36  61  83 104 136 181 229 274 326
#     4  10  21  36  57  82 109 141 176 224 282 327
#
# _framework density 17.620625
#
# number of rings (size 3 to 8) (size 9 to 14) (size 15 to 20)
#    0.000    2.250    1.250    3.000    0.000    6.750 
#    2.250    1.250    0.000    1.500    0.000    0.000 
#    0.000    0.000    0.000    0.000    0.000    0.000 
#
# Total GULP energy -178591.697102 kJ/mol
# GULP energy per Si atom -5580.990534 kJ/mol
# Density = 1.758052 g / cm^3
# Si number density = 17.620625 Si / 1000 Ang^3
#
#
#
# Elastic Constant Matrix: (Units=GPa)
#
#
# Indices 1 2 3 4 5 6 
#
# 1 157.8416 37.8419 95.3270 0.0000 1.5154 0.0000
# 2 37.8419 24.9173 45.2151 0.0000 2.2303 0.0000
# 3 95.3270 45.2151 153.8599 0.0000 -0.9571 0.0000
# 4 0.0000 0.0000 0.0000 -10.4793 0.0000 -6.6661
# 5 1.5154 2.2303 -0.9571 0.0000 24.2996 0.0000
# 6 0.0000 0.0000 0.0000 -6.6661 0.0000 -3.4030
#
#
#
# Elastic Compliance Matrix: (Units=1/GPa)
#
#
# Indices 1 2 3 4 5 6 
#
# 1 0.011053 -0.009342 -0.004103 0.000000 0.000007 0.000000
# 2 -0.009342 0.095845 -0.022435 0.000000 -0.009098 0.000000
# 3 -0.004103 -0.022435 0.015653 0.000000 0.002932 0.000000
# 4 0.000000 0.000000 0.000000 0.387798 0.000000 -0.759646
# 5 0.000007 -0.009098 0.002932 0.000000 0.042103 0.000000
# 6 0.000000 0.000000 0.000000 -0.759646 0.000000 1.194193
#
#
# Mechanical properties :
#
#
# Convention : Reuss Voigt Hill
#
# Bulk Modulus (GPa) = 19.68824 77.04295 48.36560
# Shear Modulus (GPa) = 2.72430 12.63243 7.67837
#
# Velocity S-wave (km/s) = 1.24477 2.68043 2.08975
# Velocity P-wave (km/s) = 3.64192 7.30737 5.77327
#
# Compressibility (1/GPa) = 0.05079174
#
# Stress axis : x y z
#
# Youngs Moduli (GPa) = 90.47459 10.43352 63.88754
#
# Poissons Ratio (x) = 0.09747 0.26211
# Poissons Ratio (y) = 0.84519 1.43331
# Poissons Ratio (z) = 0.37119 0.23407
#
# Static dielectric constant tensor:
#      x y z
#    x 1.594010 0.000000 0.013480 
#    y 0.000000 1.586140 0.000000 
#    z 0.013480 0.000000 1.577640 
# 
# From -- ./inp_files/86746.got.cif
#   From: 2010.05.17/outbox.cif.g08.bks.cpg/sg10_44_cif.got.tgz:86746.got - 2010.06.03 11:33:40.
