data_PCOD9147865
_publ_section_title
;
Structure prediction by ZEFSAII (Michael W. Deem and Ramdas Pophale) SiO2 
 PCOD9147865
Probable space group: P 2/M
;
_chemical_formula_sum "Si O2"
_cell_formula_units_Z 32
_cell_length_a 21.757536
_cell_length_b 8.305867
_cell_length_c 13.133483
_cell_angle_alpha 90.000000
_cell_angle_beta 137.528919
_cell_angle_gamma 90.000000
_cell_volume 1602.575899
_symmetry_space_group_name_H-M "P 2/M"
_symmetry_group_IT_number 10
_symmetry_cell_setting 'monoclinic'
loop_
_space_group_symop_operation_xyz
x,y,z
-x,y,-z
-x,-y,-z
x,-y,z
loop_
_atom_site_type_symbol
_atom_site_label
_atom_site_fract_x
_atom_site_fract_y
_atom_site_fract_z
Si Si1 0.601141 0.694728 0.654066
Si Si2 0.858765 0.686367 0.257747
Si Si3 0.786831 0.305672 0.787380
Si Si4 0.120593 0.192340 0.306652
Si Si5 0.409386 0.309103 0.949402
Si Si6 0.218601 0.191424 0.633035
Si Si7 0.671883 0.184964 0.954282
Si Si8 0.074541 0.693159 0.869927
O O1 0.500000 0.744812 0.500000
O O2 0.601935 0.500000 0.665055
O O3 0.681275 0.738582 0.673216
O O4 0.629583 0.770041 0.795618
O O5 0.881603 0.500000 0.304524
O O6 0.848732 0.770752 0.354487
O O7 0.920217 0.754099 0.240573
O O8 0.757751 0.702435 0.085501
O O9 0.792955 0.500000 0.792438
O O10 0.830860 0.240789 0.738372
O O11 0.844037 0.249666 0.956698
O O12 0.176737 0.246393 0.475000
O O13 0.020039 0.264480 0.193112
O O14 0.112978 0.000000 0.301660
O O15 0.413955 0.500000 0.975252
O O16 0.315796 0.272622 0.774960
O O17 0.500000 0.261918 0.000000
O O18 0.399629 0.215467 0.043206
O O19 0.232926 0.000000 0.647515
O O20 0.703035 0.000000 0.995133
O O21 0.083436 0.500000 0.872952
#
# Coordination Sequence:
#
# PCOD9147865 Si02
#       8
#     4   4   4   4   4   4   4   4
#     4  10  21  39  62  87 116 152 195 244 293 342
#     4  10  19  36  62  87 113 147 195 243 284 343
#     4  10  21  40  62  85 116 153 197 246 292 344
#     4  11  25  40  56  84 122 159 195 241 293 355
#     4  10  21  37  60  86 111 147 198 244 285 344
#     4  10  22  39  56  82 121 157 191 237 297 350
#     4  11  21  34  56  84 117 152 185 233 293 349
#     4  10  21  38  62  88 114 150 197 247 295 346
#
# _framework density 19.967853000000002
#
# number of rings (size 3 to 8) (size 9 to 14) (size 15 to 20)
#    0.000    1.750    1.250    4.500    0.000    8.250 
#    0.000    6.250    0.000    0.000    0.000    0.000 
#    0.000    0.000    0.000    0.000    0.000    0.000 
#
# Total GULP energy -178742.607660 kJ/mol
# GULP energy per Si atom -5585.706489 kJ/mol
# Density = 1.992241 g / cm^3
# Si number density = 19.967853 Si / 1000 Ang^3
#
#
#
# Elastic Constant Matrix: (Units=GPa)
#
#
# Indices 1 2 3 4 5 6 
#
# 1 129.4538 3.1357 32.2820 0.0000 1.9367 0.0000
# 2 3.1357 16.1640 1.9545 0.0000 1.7248 0.0000
# 3 32.2820 1.9545 62.2180 0.0000 -3.7728 0.0000
# 4 0.0000 0.0000 0.0000 14.1883 0.0000 -26.7887
# 5 1.9367 1.7248 -3.7728 0.0000 25.7602 0.0000
# 6 0.0000 0.0000 0.0000 -26.7887 0.0000 -12.5922
#
#
#
# Elastic Compliance Matrix: (Units=1/GPa)
#
#
# Indices 1 2 3 4 5 6 
#
# 1 0.008937 -0.001030 -0.004683 0.000000 -0.001289 0.000000
# 2 -0.001030 0.062738 -0.001702 0.000000 -0.004372 0.000000
# 3 -0.004683 -0.001702 0.018750 0.000000 0.003212 0.000000
# 4 0.000000 0.000000 0.000000 0.014049 0.000000 -0.029888
# 5 -0.001289 -0.004372 0.003212 0.000000 0.039680 0.000000
# 6 0.000000 0.000000 0.000000 -0.029888 0.000000 -0.015830
#
#
# Mechanical properties :
#
#
# Convention : Reuss Voigt Hill
#
# Bulk Modulus (GPa) = 13.22807 31.39780 22.31293
# Shear Modulus (GPa) = 29.69983 16.83550 23.26766
#
# Velocity S-wave (km/s) = 3.86084 2.90682 3.41729
# Velocity P-wave (km/s) = 5.14916 5.19850 5.17389
#
# Compressibility (1/GPa) = 0.07559682
#
# Stress axis : x y z
#
# Youngs Moduli (GPa) = 111.89809 15.93930 53.33232
#
# Poissons Ratio (x) = 0.01642 0.24974
# Poissons Ratio (y) = 0.11525 0.09075
# Poissons Ratio (z) = 0.52398 0.02712
#
# Static dielectric constant tensor:
#      x y z
#    x 1.707010 0.000000 -0.004180 
#    y 0.000000 1.687490 0.000000 
#    z -0.004180 0.000000 1.691190 
# 
# From -- ./inp_files/55315.got.cif
#   From: 2010.05.17/outbox.cif.g08.bks.cpg/sg10_28_cif.got.tgz:55315.got - 2010.06.03 11:33:40.
