data_PCOD9147165
_publ_section_title
;
Structure prediction by ZEFSAII (Michael W. Deem and Ramdas Pophale) SiO2 
 PCOD9147165
Probable space group: P 2/M
;
_chemical_formula_sum "Si O2"
_cell_formula_units_Z 28
_cell_length_a 14.562428
_cell_length_b 8.803168
_cell_length_c 17.947542
_cell_angle_alpha 90.000000
_cell_angle_beta 137.965405
_cell_angle_gamma 90.000000
_cell_volume 1540.563872
_symmetry_space_group_name_H-M "P 2/M"
_symmetry_group_IT_number 10
_symmetry_cell_setting 'monoclinic'
loop_
_space_group_symop_operation_xyz
x,y,z
-x,y,-z
-x,-y,-z
x,-y,z
loop_
_atom_site_type_symbol
_atom_site_label
_atom_site_fract_x
_atom_site_fract_y
_atom_site_fract_z
Si Si1 0.356723 0.318109 0.373440
Si Si2 0.884473 0.817716 0.672158
Si Si3 0.244002 0.817978 0.560106
Si Si4 0.434690 0.818503 0.265310
Si Si5 0.729650 0.317374 0.267656
Si Si6 0.588461 0.317037 0.906148
Si Si7 0.173868 0.683546 0.835653
O O1 0.500000 0.275043 0.500000
O O2 0.345754 0.500000 0.367610
O O3 0.231439 0.246570 0.343197
O O4 0.365182 0.257768 0.294466
O O5 0.846332 0.768708 0.564543
O O6 0.034055 0.755061 0.780753
O O7 0.881854 0.000000 0.673061
O O8 0.402715 0.778083 0.637382
O O9 0.209576 0.747341 0.619235
O O10 0.236340 0.000000 0.561740
O O11 0.378053 0.758942 0.152632
O O12 0.423641 0.000000 0.263545
O O13 0.736126 0.500000 0.274398
O O14 0.568097 0.274404 0.167908
O O15 0.800171 0.266355 0.233886
O O16 0.591235 0.500000 0.899496
O O17 0.696282 0.275295 0.034906
O O18 0.163288 0.500000 0.829770
#
# Coordination Sequence:
#
# PCOD9147165 Si02
#       7
#     4   4   4   4   4   4   4
#     4  11  22  36  59  87 111 139 179 224 272 327
#     4  11  23  38  55  78 113 151 184 221 272 332
#     4   9  19  34  52  78 111 145 179 222 273 324
#     4  10  19  34  57  84 113 142 179 225 273 324
#     4   9  18  33  57  83 107 142 187 231 274 321
#     4   9  18  35  58  82 110 144 186 231 275 321
#     4  10  21  37  55  79 112 148 186 231 276 321
#
# _framework density 18.175163000000001
#
# number of rings (size 3 to 8) (size 9 to 14) (size 15 to 20)
#    0.000    2.143    1.429    1.714    0.000    5.714 
#    0.000    3.571    0.000    8.571    0.000    0.000 
#    0.000    0.000    0.000    0.000    0.000    0.000 
#
# Total GULP energy -156333.896439 kJ/mol
# GULP energy per Si atom -5583.353444 kJ/mol
# Density = 1.813380 g / cm^3
# Si number density = 18.175163 Si / 1000 Ang^3
#
#
#
# Elastic Constant Matrix: (Units=GPa)
#
#
# Indices 1 2 3 4 5 6 
#
# 1 100.4658 23.0785 17.7216 0.0000 -7.8400 0.0000
# 2 23.0785 17.8010 8.3599 0.0000 -0.8995 0.0000
# 3 17.7216 8.3599 18.7716 0.0000 -4.1493 0.0000
# 4 0.0000 0.0000 0.0000 23.9168 0.0000 -8.4969
# 5 -7.8400 -0.8995 -4.1493 0.0000 24.1233 0.0000
# 6 0.0000 0.0000 0.0000 -8.4969 0.0000 -20.3362
#
#
#
# Elastic Compliance Matrix: (Units=1/GPa)
#
#
# Indices 1 2 3 4 5 6 
#
# 1 0.015084 -0.016488 -0.006184 0.000000 0.003224 0.000000
# 2 -0.016488 0.089253 -0.025605 0.000000 -0.006435 0.000000
# 3 -0.006184 -0.025605 0.072619 0.000000 0.009526 0.000000
# 4 0.000000 0.000000 0.000000 0.036407 0.000000 -0.015212
# 5 0.003224 -0.006435 0.009526 0.000000 0.043900 0.000000
# 6 0.000000 0.000000 0.000000 -0.015212 0.000000 -0.042818
#
#
# Mechanical properties :
#
#
# Convention : Reuss Voigt Hill
#
# Bulk Modulus (GPa) = 12.43776 26.15096 19.29436
# Shear Modulus (GPa) = 14.80160 11.39933 13.10046
#
# Velocity S-wave (km/s) = 2.85684 2.50710 2.68766
# Velocity P-wave (km/s) = 4.21191 4.77496 4.50225
#
# Compressibility (1/GPa) = 0.08040032
#
# Stress axis : x y z
#
# Youngs Moduli (GPa) = 66.29681 11.20411 13.77045
#
# Poissons Ratio (x) = 0.18474 0.08516
# Poissons Ratio (y) = 1.09312 0.35259
# Poissons Ratio (z) = 0.41001 0.28688
#
# Static dielectric constant tensor:
#      x y z
#    x 1.602260 0.000000 -0.002060 
#    y 0.000000 1.606520 0.000000 
#    z -0.002060 0.000000 1.616610 
# 
# From -- ./inp_files/49178.got.cif
#   From: 2010.05.17/outbox.cif.g08.bks.cpg/sg10_25_cif.got.tgz:49178.got - 2010.06.03 11:33:40.
