data_PCOD9147073
_publ_section_title
;
Structure prediction by ZEFSAII (Michael W. Deem and Ramdas Pophale) SiO2 
 PCOD9147073
Probable space group: P 2/M
;
_chemical_formula_sum "Si O2"
_cell_formula_units_Z 26
_cell_length_a 21.334294
_cell_length_b 8.231441
_cell_length_c 7.521714
_cell_angle_alpha 90.000000
_cell_angle_beta 58.462248
_cell_angle_gamma 90.000000
_cell_volume 1125.800046
_symmetry_space_group_name_H-M "P 2/M"
_symmetry_group_IT_number 10
_symmetry_cell_setting 'monoclinic'
loop_
_space_group_symop_operation_xyz
x,y,z
-x,y,-z
-x,-y,-z
x,-y,z
loop_
_atom_site_type_symbol
_atom_site_label
_atom_site_fract_x
_atom_site_fract_y
_atom_site_fract_z
Si Si1 0.630254 0.820551 0.657371
Si Si2 0.936269 0.684409 0.210191
Si Si3 0.000000 0.258177 0.500000
Si Si4 0.688648 0.179187 0.168123
Si Si5 0.549247 0.500000 0.706794
Si Si6 0.837307 0.821076 0.801564
Si Si7 0.782043 0.313629 0.540017
Si Si8 0.609543 0.500000 0.208708
O O1 0.652891 0.821840 0.415272
O O2 0.577848 0.665008 0.755886
O O3 0.707983 0.786315 0.635439
O O4 0.601014 0.000000 0.746711
O O5 0.927102 0.500000 0.154187
O O6 0.965035 0.672040 0.370399
O O7 0.854233 0.755098 0.331654
O O8 0.000000 0.766177 0.000000
O O9 0.075412 0.185707 0.303228
O O10 0.655573 0.334568 0.116861
O O11 0.672578 0.000000 0.112182
O O12 0.777548 0.194362 0.046490
O O13 0.582977 0.500000 0.455166
O O14 0.462350 0.500000 0.805660
O O15 0.810486 0.690182 0.699579
O O16 0.824492 0.000000 0.739550
O O17 0.767409 0.500000 0.504940
#
# Coordination Sequence:
#
# PCOD9147073 Si02
#       8
#     4   4   2   4   2   4   4   2
#     4  10  19  34  56  84 115 148 187 234 285 341
#     4   9  19  34  50  78 114 153 196 251 307 350
#     4  10  20  34  56  78 111 154 205 250 299 353
#     4   9  20  35  55  84 113 148 191 232 285 344
#     4   9  18  34  55  87 117 147 183 228 284 350
#     4  10  21  37  55  78 111 150 191 241 293 341
#     4  10  20  34  54  79 110 147 195 237 285 351
#     4   9  18  34  57  84 118 147 183 230 285 342
#
# _framework density 23.094685999999999
#
# number of rings (size 3 to 8) (size 9 to 14) (size 15 to 20)
#    0.000    2.462    0.769    0.923    3.231    1.231 
#    0.000    3.077    0.000    4.615    0.000    3.231 
#    0.000    0.000    0.000    0.000    0.000    0.000 
#
# Total GULP energy -144776.836768 kJ/mol
# GULP energy per Si atom -5568.339876 kJ/mol
# Density = 2.304212 g / cm^3
# Si number density = 23.094686 Si / 1000 Ang^3
#
#
#
# Elastic Constant Matrix: (Units=GPa)
#
#
# Indices 1 2 3 4 5 6 
#
# 1 110.5055 64.9078 16.1934 0.0000 -26.1184 0.0000
# 2 64.9078 145.5427 28.3989 0.0000 -24.0998 0.0000
# 3 16.1934 28.3989 72.7282 0.0000 -16.0234 0.0000
# 4 0.0000 0.0000 0.0000 2.6020 0.0000 14.0072
# 5 -26.1184 -24.0998 -16.0234 0.0000 27.1000 0.0000
# 6 0.0000 0.0000 0.0000 14.0072 0.0000 -4.4620
#
#
#
# Elastic Compliance Matrix: (Units=1/GPa)
#
#
# Indices 1 2 3 4 5 6 
#
# 1 0.014070 -0.004829 0.000913 0.000000 0.009805 0.000000
# 2 -0.004829 0.009926 -0.002163 0.000000 0.002894 0.000000
# 3 0.000913 -0.002163 0.016282 0.000000 0.008584 0.000000
# 4 0.000000 0.000000 0.000000 0.021471 0.000000 0.067403
# 5 0.009805 0.002894 0.008584 0.000000 0.053999 0.000000
# 6 0.000000 0.000000 0.000000 0.067403 0.000000 -0.012521
#
#
# Mechanical properties :
#
#
# Convention : Reuss Voigt Hill
#
# Bulk Modulus (GPa) = 35.56206 60.86406 48.21306
# Shear Modulus (GPa) = 40.07756 19.66643 29.87199
#
# Velocity S-wave (km/s) = 4.17028 2.92131 3.60037
# Velocity P-wave (km/s) = 6.21451 6.14736 6.18103
#
# Compressibility (1/GPa) = 0.02811985
#
# Stress axis : x y z
#
# Youngs Moduli (GPa) = 71.07543 100.74837 61.41643
#
# Poissons Ratio (x) = 0.48653 -0.05610
# Poissons Ratio (y) = 0.34324 0.13284
# Poissons Ratio (z) = -0.06492 0.21792
#
# Static dielectric constant tensor:
#      x y z
#    x 1.839590 0.000000 0.018300 
#    y 0.000000 1.896800 0.000000 
#    z 0.018300 0.000000 1.932320 
# 
# From -- ./inp_files/34246.got.cif
#   From: 2010.05.17/outbox.cif.g08.bks.cpg/sg10_18_cif.got.tgz:34246.got - 2010.06.03 11:33:40.
