data_PCOD9147560
_publ_section_title
;
Structure prediction by ZEFSAII (Michael W. Deem and Ramdas Pophale) SiO2 
 PCOD9147560
Probable space group: P 2/M
;
_chemical_formula_sum "Si O2"
_cell_formula_units_Z 32
_cell_length_a 8.912326
_cell_length_b 15.668540
_cell_length_c 21.897215
_cell_angle_alpha 90.000000
_cell_angle_beta 150.418003
_cell_angle_gamma 90.000000
_cell_volume 1509.537875
_symmetry_space_group_name_H-M "P 2/M"
_symmetry_group_IT_number 10
_symmetry_cell_setting 'monoclinic'
loop_
_space_group_symop_operation_xyz
x,y,z
-x,y,-z
-x,-y,-z
x,-y,z
loop_
_atom_site_type_symbol
_atom_site_label
_atom_site_fract_x
_atom_site_fract_y
_atom_site_fract_z
Si Si1 0.542911 0.402143 0.705903
Si Si2 0.818139 0.317062 0.622222
Si Si3 0.585702 0.749331 0.422958
Si Si4 0.295416 0.897709 0.980486
Si Si5 0.456350 0.637898 0.814425
Si Si6 0.238445 0.599915 0.952181
Si Si7 0.412478 0.100045 0.278584
Si Si8 0.368004 0.833894 0.133868
O O1 0.508231 0.500000 0.671234
O O2 0.362230 0.331807 0.602917
O O3 0.471300 0.402844 0.752839
O O4 0.892653 0.370346 0.822785
O O5 0.500000 0.368749 0.500000
O O6 0.735086 0.265269 0.653846
O O7 0.816781 0.256061 0.561850
O O8 0.123352 0.369089 0.726989
O O9 0.583845 0.835609 0.384111
O O10 0.944414 0.872797 0.847480
O O11 0.289785 0.000000 0.976023
O O12 0.500000 0.860763 0.000000
O O13 0.452703 0.872401 0.099098
O O14 0.678020 0.607901 0.946777
O O15 0.537677 0.736200 0.830889
O O16 0.221683 0.500000 0.931225
O O17 0.500000 0.637273 0.000000
O O18 0.494528 0.116715 0.236974
O O19 0.442702 0.000000 0.304377
O O20 0.000000 0.840232 0.000000
#
# Coordination Sequence:
#
# PCOD9147560 Si02
#       8
#     4   4   4   4   4   4   4   4
#     4  11  22  38  62  93 124 154 194 243 294 357
#     4   8  23  42  61  81 115 155 199 256 295 344
#     4   9  20  43  60  83 117 152 201 245 294 348
#     4   9  19  31  48  81 119 151 190 238 283 348
#     4  12  21  36  60  86 115 160 196 244 298 347
#     4  10  22  37  57  88 126 159 193 236 290 358
#     4  10  19  35  59  82 115 157 194 241 297 353
#     4  10  20  32  51  85 120 151 190 231 296 360
#
# _framework density 21.198540999999999
#
# number of rings (size 3 to 8) (size 9 to 14) (size 15 to 20)
#    0.750    1.250    1.250    2.625    3.500    3.500 
#    0.000    5.000    0.000    2.250    0.000    0.000 
#    0.000    0.000    0.000    0.000    0.000    0.000 
#
# Total GULP energy -178341.156570 kJ/mol
# GULP energy per Si atom -5573.161143 kJ/mol
# Density = 2.115029 g / cm^3
# Si number density = 21.198541 Si / 1000 Ang^3
#
#
#
# Elastic Constant Matrix: (Units=GPa)
#
#
# Indices 1 2 3 4 5 6 
#
# 1 77.8730 -9.7175 8.5348 0.0000 -16.3120 0.0000
# 2 -9.7175 0.5233 14.6603 0.0000 34.3726 0.0000
# 3 8.5348 14.6603 41.8292 0.0000 -18.4680 0.0000
# 4 0.0000 0.0000 0.0000 -30.3395 0.0000 -4.3990
# 5 -16.3120 34.3726 -18.4680 0.0000 -13.7369 0.0000
# 6 0.0000 0.0000 0.0000 -4.3990 0.0000 21.9677
#
#
#
# Elastic Compliance Matrix: (Units=1/GPa)
#
#
# Indices 1 2 3 4 5 6 
#
# 1 0.015360 0.007748 -0.003353 0.000000 0.005655 0.000000
# 2 0.007748 0.017875 0.004920 0.000000 0.028913 0.000000
# 3 -0.003353 0.004920 0.018863 0.000000 -0.009068 0.000000
# 4 0.000000 0.000000 0.000000 -0.032030 0.000000 -0.006414
# 5 0.005655 0.028913 -0.009068 0.000000 0.005026 0.000000
# 6 0.000000 0.000000 0.000000 -0.006414 0.000000 0.044237
#
#
# Mechanical properties :
#
#
# Convention : Reuss Voigt Hill
#
# Bulk Modulus (GPa) = 14.13887 16.35341 15.24614
# Shear Modulus (GPa) = 67.31505 2.69480 35.00492
#
# Velocity S-wave (km/s) = 5.64123 1.12871 4.06801
# Velocity P-wave (km/s) = 7.00825 3.07080 5.41042
#
# Compressibility (1/GPa) = 0.07072702
#
# Stress axis : x y z
#
# Youngs Moduli (GPa) = 65.10338 55.94415 53.01381
#
# Poissons Ratio (x) = -0.43344 0.17775
# Poissons Ratio (y) = -0.50440 -0.26081
# Poissons Ratio (z) = 0.21829 -0.27523
#
# Static dielectric constant tensor:
#      x y z
#    x 1.836450 0.000000 0.024880 
#    y 0.000000 1.743730 0.000000 
#    z 0.024880 0.000000 1.793180 
# 
# From -- ./inp_files/82843.got.cif
#   From: 2010.05.17/outbox.cif.g08.bks.cpg/sg10_42_cif.got.tgz:82843.got - 2010.06.03 11:33:40.
