data_PCOD9147471
_publ_section_title
;
Structure prediction by ZEFSAII (Michael W. Deem and Ramdas Pophale) SiO2 
 PCOD9147471
Probable space group: P 2/M
;
_chemical_formula_sum "Si O2"
_cell_formula_units_Z 24
_cell_length_a 11.163569
_cell_length_b 12.557617
_cell_length_c 17.206962
_cell_angle_alpha 90.000000
_cell_angle_beta 151.689684
_cell_angle_gamma 90.000000
_cell_volume 1143.981071
_symmetry_space_group_name_H-M "P 2/M"
_symmetry_group_IT_number 10
_symmetry_cell_setting 'monoclinic'
loop_
_space_group_symop_operation_xyz
x,y,z
-x,y,-z
-x,-y,-z
x,-y,z
loop_
_atom_site_type_symbol
_atom_site_label
_atom_site_fract_x
_atom_site_fract_y
_atom_site_fract_z
Si Si1 0.872821 0.500000 0.758602
Si Si2 0.874048 0.669444 0.002727
Si Si3 0.348175 0.285076 0.628340
Si Si4 0.319066 0.500000 0.525165
Si Si5 0.157385 0.877064 0.407668
Si Si6 0.093691 0.121603 0.901175
Si Si7 0.310601 0.877624 0.743523
O O1 0.617099 0.500000 0.666634
O O2 0.810857 0.500000 0.632936
O O3 0.042447 0.601566 0.876664
O O4 0.589169 0.673179 0.813095
O O5 0.967817 0.789179 0.071246
O O6 0.000000 0.619654 0.000000
O O7 0.244719 0.394718 0.532022
O O8 0.354716 0.206041 0.557185
O O9 0.255588 0.203675 0.642512
O O10 0.073830 0.860143 0.271139
O O11 0.896316 0.863854 0.307433
O O12 0.241859 0.000000 0.464285
O O13 0.055701 0.000000 0.904958
O O14 0.398222 0.134796 0.060738
O O15 0.291271 0.000000 0.704072
#
# Coordination Sequence:
#
# PCOD9147471 Si02
#       7
#     2   4   4   2   4   4   4
#     4  11  22  41  62  78  99 142 191 227 275 324
#     4  11  21  37  58  80 110 143 185 229 272 329
#     4  11  21  34  55  86 111 141 181 228 278 317
#     4  11  23  38  60  83 106 134 181 237 276 327
#     4  10  19  35  57  83 115 149 188 226 261 316
#     4   9  19  34  55  84 116 150 183 221 273 323
#     4   9  18  34  58  84 113 150 187 221 263 322
#
# _framework density 20.979367
#
# number of rings (size 3 to 8) (size 9 to 14) (size 15 to 20)
#    0.000    1.833    1.667    3.250    0.000    4.333 
#    0.000    1.667    0.000    2.000    0.000   11.667 
#    0.000    0.000    0.000    0.000    0.000    0.000 
#
# Total GULP energy -133652.483222 kJ/mol
# GULP energy per Si atom -5568.853468 kJ/mol
# Density = 2.093162 g / cm^3
# Si number density = 20.979367 Si / 1000 Ang^3
#
#
#
# Elastic Constant Matrix: (Units=GPa)
#
#
# Indices 1 2 3 4 5 6 
#
# 1 34.2766 30.3035 9.9786 0.0000 -22.1130 0.0000
# 2 30.3035 120.7441 36.6591 0.0000 -29.1110 0.0000
# 3 9.9786 36.6591 112.5077 0.0000 -24.7675 0.0000
# 4 0.0000 0.0000 0.0000 38.5704 0.0000 -21.7107
# 5 -22.1130 -29.1110 -24.7675 0.0000 33.9168 0.0000
# 6 0.0000 0.0000 0.0000 -21.7107 0.0000 18.8543
#
#
#
# Elastic Compliance Matrix: (Units=1/GPa)
#
#
# Indices 1 2 3 4 5 6 
#
# 1 0.056098 -0.007418 0.004875 0.000000 0.033768 0.000000
# 2 -0.007418 0.011705 -0.002394 0.000000 0.003462 0.000000
# 3 0.004875 -0.002394 0.011300 0.000000 0.009375 0.000000
# 4 0.000000 0.000000 0.000000 0.073690 0.000000 0.084854
# 5 0.033768 0.003462 0.009375 0.000000 0.061318 0.000000
# 6 0.000000 0.000000 0.000000 0.084854 0.000000 0.150748
#
#
# Mechanical properties :
#
#
# Convention : Reuss Voigt Hill
#
# Bulk Modulus (GPa) = 14.44456 46.82340 30.63398
# Shear Modulus (GPa) = 12.56885 30.97411 21.77148
#
# Velocity S-wave (km/s) = 2.45032 3.84657 3.22492
# Velocity P-wave (km/s) = 3.86076 6.48810 5.33858
#
# Compressibility (1/GPa) = 0.06923024
#
# Stress axis : x y z
#
# Youngs Moduli (GPa) = 17.82585 85.43202 88.49697
#
# Poissons Ratio (x) = 0.63373 -0.43145
# Poissons Ratio (y) = 0.13223 0.21185
# Poissons Ratio (z) = -0.08691 0.20452
#
# Static dielectric constant tensor:
#      x y z
#    x 1.763830 0.000000 0.102160 
#    y 0.000000 1.779060 0.000000 
#    z 0.102160 0.000000 1.939110 
# 
# From -- ./inp_files/41972.got.cif
#   From: 2010.05.17/outbox.cif.g08.bks.cpg/sg10_21_cif.got.tgz:41972.got - 2010.06.03 11:33:40.
