data_PCOD9147483
_publ_section_title
;
Structure prediction by ZEFSAII (Michael W. Deem and Ramdas Pophale) SiO2 
 PCOD9147483
Probable space group: P 2/M
;
_chemical_formula_sum "Si O2"
_cell_formula_units_Z 28
_cell_length_a 12.969917
_cell_length_b 7.770705
_cell_length_c 15.082716
_cell_angle_alpha 90.000000
_cell_angle_beta 120.691905
_cell_angle_gamma 90.000000
_cell_volume 1307.186163
_symmetry_space_group_name_H-M "P 2/M"
_symmetry_group_IT_number 10
_symmetry_cell_setting 'monoclinic'
loop_
_space_group_symop_operation_xyz
x,y,z
-x,y,-z
-x,-y,-z
x,-y,z
loop_
_atom_site_type_symbol
_atom_site_label
_atom_site_fract_x
_atom_site_fract_y
_atom_site_fract_z
Si Si1 0.522008 0.704127 0.288917
Si Si2 0.288927 0.709982 0.282794
Si Si3 0.578138 0.198270 0.114053
Si Si4 0.288758 0.291225 0.482981
Si Si5 0.976741 0.710640 0.888722
Si Si6 0.016961 0.797334 0.407314
Si Si7 0.839923 0.698302 0.177756
O O1 0.518193 0.500000 0.303373
O O2 0.390527 0.769943 0.258945
O O3 0.556203 0.727591 0.201908
O O4 0.622092 0.772585 0.401229
O O5 0.284330 0.500000 0.277866
O O6 0.324669 0.757966 0.398762
O O7 0.154285 0.768550 0.201455
O O8 0.716770 0.210255 0.147711
O O9 0.541505 0.000000 0.105957
O O10 0.500000 0.277804 0.000000
O O11 0.286084 0.500000 0.484613
O O12 0.154213 0.228662 0.440468
O O13 0.977216 0.500000 0.884686
O O14 0.082844 0.769603 0.870369
O O15 0.000000 0.760444 0.000000
O O16 0.000000 0.733983 0.500000
O O17 0.929076 0.705948 0.300383
O O18 0.987192 0.000000 0.391964
O O19 0.809007 0.500000 0.144846
#
# Coordination Sequence:
#
# PCOD9147483 Si02
#       7
#     4   4   4   4   4   4   4
#     4  10  21  36  62  92 118 154 201 250 293 347
#     4   9  17  33  57  88 124 154 187 241 303 352
#     4  11  26  45  61  81 119 163 199 241 296 353
#     4  10  19  35  57  88 122 153 195 243 297 350
#     4   9  18  32  56  91 121 147 184 241 304 352
#     4  11  23  37  56  83 119 162 199 237 292 353
#     4  11  22  39  65  92 117 149 196 250 296 345
#
# _framework density 21.420054
#
# number of rings (size 3 to 8) (size 9 to 14) (size 15 to 20)
#    0.000    1.857    1.429    2.571    2.000    6.857 
#    0.000    0.714    0.000    3.429    0.000    0.000 
#    0.000    0.000    0.000    0.000    0.000    0.000 
#
# Total GULP energy -156466.921889 kJ/mol
# GULP energy per Si atom -5588.104353 kJ/mol
# Density = 2.137130 g / cm^3
# Si number density = 21.420054 Si / 1000 Ang^3
#
#
#
# Elastic Constant Matrix: (Units=GPa)
#
#
# Indices 1 2 3 4 5 6 
#
# 1 155.7397 -11.7668 80.4934 0.0000 -4.9467 0.0000
# 2 -11.7668 26.7327 -3.8297 0.0000 1.2106 0.0000
# 3 80.4934 -3.8297 130.5811 0.0000 -24.9545 0.0000
# 4 0.0000 0.0000 0.0000 44.7945 0.0000 -94.9439
# 5 -4.9467 1.2106 -24.9545 0.0000 23.9596 0.0000
# 6 0.0000 0.0000 0.0000 -94.9439 0.0000 268.6008
#
#
#
# Elastic Compliance Matrix: (Units=1/GPa)
#
#
# Indices 1 2 3 4 5 6 
#
# 1 0.010316 0.003748 -0.007339 0.000000 -0.005703 0.000000
# 2 0.003748 0.038943 -0.001743 0.000000 -0.003010 0.000000
# 3 -0.007339 -0.001743 0.014805 0.000000 0.013993 0.000000
# 4 0.000000 0.000000 0.000000 0.089015 0.000000 0.031464
# 5 -0.005703 -0.003010 0.013993 0.000000 0.055285 0.000000
# 6 0.000000 0.000000 0.000000 0.031464 0.000000 0.014845
#
#
# Mechanical properties :
#
#
# Convention : Reuss Voigt Hill
#
# Bulk Modulus (GPa) = 18.72820 49.20528 33.96674
# Shear Modulus (GPa) = 19.86670 84.01474 51.94072
#
# Velocity S-wave (km/s) = 3.04876 6.26958 4.92963
# Velocity P-wave (km/s) = 4.59952 8.68514 6.94936
#
# Compressibility (1/GPa) = 0.05339540
#
# Stress axis : x y z
#
# Youngs Moduli (GPa) = 96.93478 25.67825 67.54434
#
# Poissons Ratio (x) = -0.09623 0.49572
# Poissons Ratio (y) = -0.36328 0.11774
# Poissons Ratio (z) = 0.71143 0.04476
#
# Static dielectric constant tensor:
#      x y z
#    x 1.738130 0.000000 -0.008390 
#    y 0.000000 1.784570 0.000000 
#    z -0.008390 0.000000 1.758300 
# 
# From -- ./inp_files/50042.got.cif
#   From: 2010.05.17/outbox.cif.g08.bks.cpg/sg10_26_cif.got.tgz:50042.got - 2010.06.03 11:33:40.
