data_PCOD9147433
_publ_section_title
;
Structure prediction by ZEFSAII (Michael W. Deem and Ramdas Pophale) SiO2 
 PCOD9147433
Probable space group: P 2/M
;
_chemical_formula_sum "Si O2"
_cell_formula_units_Z 32
_cell_length_a 8.898842
_cell_length_b 11.841294
_cell_length_c 15.346463
_cell_angle_alpha 90.000000
_cell_angle_beta 90.627366
_cell_angle_gamma 90.000000
_cell_volume 1617.018250
_symmetry_space_group_name_H-M "P 2/M"
_symmetry_group_IT_number 10
_symmetry_cell_setting 'monoclinic'
loop_
_space_group_symop_operation_xyz
x,y,z
-x,y,-z
-x,-y,-z
x,-y,z
loop_
_atom_site_type_symbol
_atom_site_label
_atom_site_fract_x
_atom_site_fract_y
_atom_site_fract_z
Si Si1 0.225511 0.123272 0.232655
Si Si2 0.412118 0.795905 0.084097
Si Si3 0.324369 0.631946 0.508763
Si Si4 0.818070 0.696809 0.320349
Si Si5 0.830629 0.368184 0.680841
Si Si6 0.161582 0.694300 0.967522
Si Si7 0.375371 0.383923 0.828865
Si Si8 0.879767 0.875802 0.177090
O O1 0.338058 0.122477 0.152414
O O2 0.233369 0.251113 0.274923
O O3 0.057375 0.120235 0.194265
O O4 0.244823 0.000000 0.281154
O O5 0.526837 0.719956 0.139573
O O6 0.500000 0.841583 0.000000
O O7 0.279291 0.716674 0.044943
O O8 0.500000 0.663218 0.500000
O O9 0.319397 0.500000 0.536728
O O10 0.238825 0.703851 0.581582
O O11 0.238081 0.637566 0.416565
O O12 0.694614 0.625230 0.266748
O O13 0.819469 0.809119 0.260934
O O14 0.987558 0.647443 0.318184
O O15 0.800052 0.500000 0.712018
O O16 0.236237 0.616685 0.895118
O O17 0.143309 0.810389 0.913063
O O18 0.000000 0.656971 0.000000
O O19 0.463582 0.500000 0.838809
O O20 0.814296 0.000000 0.171685
#
# Coordination Sequence:
#
# PCOD9147433 Si02
#       8
#     4   4   4   4   4   4   4   4
#     4  10  21  38  60  89 122 155 198 253 303 353
#     4  10  22  37  55  80 115 155 199 246 298 352
#     4  10  21  36  60  91 123 157 192 238 292 350
#     4  10  20  38  61  89 120 149 197 246 290 352
#     4  10  21  38  64  94 121 155 199 246 295 353
#     4  10  19  35  56  83 111 144 200 251 290 347
#     4  10  22  37  55  80 118 161 193 240 306 363
#     4   9  19  36  61  87 114 151 195 249 306 351
#
# _framework density 19.789511000000001
#
# number of rings (size 3 to 8) (size 9 to 14) (size 15 to 20)
#    0.000    2.125    1.250    1.500    1.750    5.000 
#    0.000    5.625    0.000    3.750    0.000    0.000 
#    0.000    0.000    0.000    0.000    0.000    0.000 
#
# Total GULP energy -178174.464532 kJ/mol
# GULP energy per Si atom -5567.952017 kJ/mol
# Density = 1.974447 g / cm^3
# Si number density = 19.789511 Si / 1000 Ang^3
#
#
#
# Elastic Constant Matrix: (Units=GPa)
#
#
# Indices 1 2 3 4 5 6 
#
# 1 58.9403 11.7258 34.4845 0.0000 -6.6445 0.0000
# 2 11.7258 108.9518 30.8711 0.0000 -5.1812 0.0000
# 3 34.4845 30.8711 74.5267 0.0000 7.1395 0.0000
# 4 0.0000 0.0000 0.0000 28.7951 0.0000 11.7342
# 5 -6.6445 -5.1812 7.1395 0.0000 33.1759 0.0000
# 6 0.0000 0.0000 0.0000 11.7342 0.0000 -51.8804
#
#
#
# Elastic Compliance Matrix: (Units=1/GPa)
#
#
# Indices 1 2 3 4 5 6 
#
# 1 0.025210 0.001353 -0.012997 0.000000 0.008057 0.000000
# 2 0.001353 0.010697 -0.005353 0.000000 0.003093 0.000000
# 3 -0.012997 -0.005353 0.022441 0.000000 -0.008269 0.000000
# 4 0.000000 0.000000 0.000000 0.031797 0.000000 0.007192
# 5 0.008057 0.003093 -0.008269 0.000000 0.034019 0.000000
# 6 0.000000 0.000000 0.000000 0.007192 0.000000 -0.017648
#
#
# Mechanical properties :
#
#
# Convention : Reuss Voigt Hill
#
# Bulk Modulus (GPa) = 41.06294 44.06462 42.56378
# Shear Modulus (GPa) = 33.64101 13.04062 23.34082
#
# Velocity S-wave (km/s) = 4.12751 2.56982 3.43804
# Velocity P-wave (km/s) = 6.59621 5.57856 6.10861
#
# Compressibility (1/GPa) = 0.02435286
#
# Stress axis : x y z
#
# Youngs Moduli (GPa) = 39.66714 93.48690 44.56040
#
# Poissons Ratio (x) = -0.12646 0.57915
# Poissons Ratio (y) = -0.05366 0.23854
# Poissons Ratio (z) = 0.51556 0.50045
#
# Static dielectric constant tensor:
#      x y z
#    x 1.708250 0.000000 -0.021940 
#    y 0.000000 1.686090 0.000000 
#    z -0.021940 0.000000 1.666180 
# 
# From -- ./inp_files/61239.got.cif
#   From: 2010.05.17/outbox.cif.g08.bks.cpg/sg10_31_cif.got.tgz:61239.got - 2010.06.03 11:33:40.
