data_PCOD9147614
_publ_section_title
;
Structure prediction by ZEFSAII (Michael W. Deem and Ramdas Pophale) SiO2 
 PCOD9147614
Probable space group: P 2/M
;
_chemical_formula_sum "Si O2"
_cell_formula_units_Z 20
_cell_length_a 22.816062
_cell_length_b 7.813921
_cell_length_c 10.305996
_cell_angle_alpha 90.000000
_cell_angle_beta 37.728093
_cell_angle_gamma 90.000000
_cell_volume 1124.322012
_symmetry_space_group_name_H-M "P 2/M"
_symmetry_group_IT_number 10
_symmetry_cell_setting 'monoclinic'
loop_
_space_group_symop_operation_xyz
x,y,z
-x,y,-z
-x,-y,-z
x,-y,z
loop_
_atom_site_type_symbol
_atom_site_label
_atom_site_fract_x
_atom_site_fract_y
_atom_site_fract_z
Si Si1 0.088915 0.000000 0.247528
Si Si2 0.231948 0.310022 0.995845
Si Si3 0.091004 0.000000 0.934737
Si Si4 0.242265 0.700172 0.671204
Si Si5 0.431005 0.799904 0.734022
Si Si6 0.547666 0.293073 0.781946
O O1 0.154655 0.834615 0.158477
O O2 0.000000 0.000000 0.500000
O O3 0.064814 0.000000 0.134915
O O4 0.191856 0.500000 0.083022
O O5 0.261386 0.290248 0.792767
O O6 0.328212 0.288616 0.909865
O O7 0.156776 0.167763 0.794716
O O8 0.000000 0.000000 0.000000
O O9 0.220270 0.500000 0.679969
O O10 0.340530 0.752273 0.428338
O O11 0.500000 0.730418 0.500000
O O12 0.486879 0.779777 0.769740
O O13 0.413185 0.000000 0.737036
O O14 0.543424 0.500000 0.780554
O O15 0.500000 0.239484 0.000000
#
# Coordination Sequence:
#
# PCOD9147614 Si02
#       6
#     2   4   2   4   4   4
#     4  10  22  42  60  81 114 136 180 245 293 334
#     4  10  19  35  60  85 110 150 190 225 277 337
#     4  10  22  40  62  82 102 142 190 232 283 340
#     4   9  19  36  59  82 111 148 187 227 272 331
#     4  11  21  32  56  87 118 151 192 232 269 332
#     4  10  21  36  53  81 120 156 185 225 277 330
#
# _framework density 17.788498000000001
#
# number of rings (size 3 to 8) (size 9 to 14) (size 15 to 20)
#    0.000    2.000    3.000    0.600    1.400    2.000 
#    3.600    0.000    0.000    0.000    0.000    0.000 
#    0.000    0.000    0.000    0.000    0.000    0.000 
#
# Total GULP energy -111628.212411 kJ/mol
# GULP energy per Si atom -5581.410621 kJ/mol
# Density = 1.774801 g / cm^3
# Si number density = 17.788498 Si / 1000 Ang^3
#
#
#
# Elastic Constant Matrix: (Units=GPa)
#
#
# Indices 1 2 3 4 5 6 
#
# 1 110.5982 42.7334 53.2357 0.0000 -16.1002 0.0000
# 2 42.7334 97.2244 62.1147 0.0000 -14.9444 0.0000
# 3 53.2357 62.1147 145.4796 0.0000 -10.5379 0.0000
# 4 0.0000 0.0000 0.0000 -18.9276 0.0000 10.7047
# 5 -16.1002 -14.9444 -10.5379 0.0000 22.6758 0.0000
# 6 0.0000 0.0000 0.0000 10.7047 0.0000 8.2166
#
#
#
# Elastic Compliance Matrix: (Units=1/GPa)
#
#
# Indices 1 2 3 4 5 6 
#
# 1 0.012312 -0.002654 -0.002966 0.000000 0.005614 0.000000
# 2 -0.002654 0.015787 -0.005332 0.000000 0.006042 0.000000
# 3 -0.002966 -0.005332 0.010171 0.000000 -0.000893 0.000000
# 4 0.000000 0.000000 0.000000 -0.030420 0.000000 0.039631
# 5 0.005614 0.006042 -0.000893 0.000000 0.051654 0.000000
# 6 0.000000 0.000000 0.000000 0.039631 0.000000 0.070073
#
#
# Mechanical properties :
#
#
# Convention : Reuss Voigt Hill
#
# Bulk Modulus (GPa) = 61.09658 74.38553 67.74106
# Shear Modulus (GPa) = 31.86031 15.40754 23.63392
#
# Velocity S-wave (km/s) = 4.23669 2.94624 3.64896
# Velocity P-wave (km/s) = 7.63894 7.31308 7.47778
#
# Compressibility (1/GPa) = 0.01636753
#
# Stress axis : x y z
#
# Youngs Moduli (GPa) = 81.22216 63.34312 98.32102
#
# Poissons Ratio (x) = 0.16811 0.29157
# Poissons Ratio (y) = 0.21555 0.52422
# Poissons Ratio (z) = 0.24087 0.33773
#
# Static dielectric constant tensor:
#      x y z
#    x 1.573730 0.000000 0.008440 
#    y 0.000000 1.631460 0.000000 
#    z 0.008440 0.000000 1.591250 
# 
# From -- ./inp_files/31735.got.cif
#   From: 2010.05.17/outbox.cif.g08.bks.cpg/sg10_16_cif.got.tgz:31735.got - 2010.06.03 11:33:40.
