data_PCOD9147269
_publ_section_title
;
Structure prediction by ZEFSAII (Michael W. Deem and Ramdas Pophale) SiO2 
 PCOD9147269
Probable space group: P 2/M
;
_chemical_formula_sum "Si O2"
_cell_formula_units_Z 21
_cell_length_a 4.952777
_cell_length_b 9.434620
_cell_length_c 22.861545
_cell_angle_alpha 90.000000
_cell_angle_beta 107.073178
_cell_angle_gamma 90.000000
_cell_volume 1021.186605
_symmetry_space_group_name_H-M "P 2/M"
_symmetry_group_IT_number 10
_symmetry_cell_setting 'monoclinic'
loop_
_space_group_symop_operation_xyz
x,y,z
-x,y,-z
-x,-y,-z
x,-y,z
loop_
_atom_site_type_symbol
_atom_site_label
_atom_site_fract_x
_atom_site_fract_y
_atom_site_fract_z
Si Si1 0.714000 0.828759 0.241124
Si Si2 0.892957 0.829388 0.835322
Si Si3 0.796359 0.663686 0.042771
Si Si4 0.258113 0.764579 0.444680
Si Si5 0.356384 0.837525 0.631622
Si Si6 0.000000 0.500000 0.500000
O O1 0.436501 0.792287 0.186120
O O2 0.681874 0.777928 0.305335
O O3 0.983131 0.787316 0.220261
O O4 0.723502 0.000000 0.246856
O O5 0.066120 0.753308 0.896879
O O6 0.919910 0.000000 0.842746
O O7 0.753171 0.500000 0.059423
O O8 0.500000 0.721144 0.000000
O O9 0.000000 0.662815 0.000000
O O10 0.500000 0.836645 0.500000
O O11 0.424647 0.749584 0.393784
O O12 0.166032 0.623138 0.472309
O O13 0.959068 0.839649 0.414959
O O14 0.466061 0.000000 0.640908
#
# Coordination Sequence:
#
# PCOD9147269 Si02
#       6
#     4   4   4   4   4   1
#     4   9  19  36  58  85 116 149 181 225 291 348
#     4  10  19  34  59  84 114 151 190 235 282 341
#     4  10  21  36  55  80 113 155 191 233 288 337
#     4  12  24  41  65  84 115 161 193 243 294 357
#     4  11  23  39  63  95 122 147 190 246 305 367
#     4  12  26  48  60  80 114 168 206 234 294 362
#
# _framework density 20.564311
#
# number of rings (size 3 to 8) (size 9 to 14) (size 15 to 20)
#    0.000    1.524    1.905    3.143    0.000    6.095 
#    0.000    0.000   12.571    0.000    0.000    0.000 
#    0.000    0.000    0.000    0.000    0.000    0.000 
#
# Total GULP energy -116948.985025 kJ/mol
# GULP energy per Si atom -5568.999287 kJ/mol
# Density = 2.051751 g / cm^3
# Si number density = 20.564311 Si / 1000 Ang^3
#
#
#
# Elastic Constant Matrix: (Units=GPa)
#
#
# Indices 1 2 3 4 5 6 
#
# 1 89.3464 9.5963 2.1475 0.0000 -6.7073 0.0000
# 2 9.5963 48.1043 23.2704 0.0000 -0.2123 0.0000
# 3 2.1475 23.2704 67.2133 0.0000 -6.7293 0.0000
# 4 0.0000 0.0000 0.0000 -6.7839 0.0000 -13.9091
# 5 -6.7073 -0.2123 -6.7293 0.0000 32.2342 0.0000
# 6 0.0000 0.0000 0.0000 -13.9091 0.0000 26.0468
#
#
#
# Elastic Compliance Matrix: (Units=1/GPa)
#
#
# Indices 1 2 3 4 5 6 
#
# 1 0.011658 -0.002713 0.000825 0.000000 0.002580 0.000000
# 2 -0.002713 0.025691 -0.009036 0.000000 -0.002282 0.000000
# 3 0.000825 -0.009036 0.018375 0.000000 0.003948 0.000000
# 4 0.000000 0.000000 0.000000 -0.070366 0.000000 -0.037576
# 5 0.002580 -0.002282 0.003948 0.000000 0.032369 0.000000
# 6 0.000000 0.000000 0.000000 -0.037576 0.000000 0.018327
#
#
# Mechanical properties :
#
#
# Convention : Reuss Voigt Hill
#
# Bulk Modulus (GPa) = 29.52034 30.52136 30.02085
# Shear Modulus (GPa) = 72.26075 21.60943 46.93509
#
# Velocity S-wave (km/s) = 5.93424 3.24515 4.78258
# Velocity P-wave (km/s) = 7.83198 5.37731 6.71772
#
# Compressibility (1/GPa) = 0.03387494
#
# Stress axis : x y z
#
# Youngs Moduli (GPa) = 85.78036 38.92465 54.42037
#
# Poissons Ratio (x) = 0.10562 -0.04491
# Poissons Ratio (y) = 0.23276 0.49176
# Poissons Ratio (z) = -0.07079 0.35174
#
# Static dielectric constant tensor:
#      x y z
#    x 1.730400 0.000000 0.003410 
#    y 0.000000 1.692130 0.000000 
#    z 0.003410 0.000000 1.757410 
# 
# From -- ./inp_files/80961.got.cif
#   From: 2010.05.17/outbox.cif.g08.bks.cpg/sg10_41_cif.got.tgz:80961.got - 2010.06.03 11:33:40.
