data_PCOD9147392
_publ_section_title
;
Structure prediction by ZEFSAII (Michael W. Deem and Ramdas Pophale) SiO2 
 PCOD9147392
Probable space group: P 2/M
;
_chemical_formula_sum "Si O2"
_cell_formula_units_Z 30
_cell_length_a 25.781643
_cell_length_b 13.198335
_cell_length_c 14.650000
_cell_angle_alpha 90.000000
_cell_angle_beta 159.463740
_cell_angle_gamma 90.000000
_cell_volume 1748.747307
_symmetry_space_group_name_H-M "P 2/M"
_symmetry_group_IT_number 10
_symmetry_cell_setting 'monoclinic'
loop_
_space_group_symop_operation_xyz
x,y,z
-x,y,-z
-x,-y,-z
x,-y,z
loop_
_atom_site_type_symbol
_atom_site_label
_atom_site_fract_x
_atom_site_fract_y
_atom_site_fract_z
Si Si1 0.359661 0.120097 0.943171
Si Si2 0.999178 0.723847 0.102795
Si Si3 0.049701 0.119440 0.345339
Si Si4 0.707332 0.387625 0.423010
Si Si5 0.508038 0.791217 0.653959
Si Si6 0.687102 0.382804 0.605393
Si Si7 0.500000 0.220736 0.000000
Si Si8 0.713578 0.117641 0.844604
O O1 0.187768 0.145285 0.638248
O O2 0.369417 0.000000 0.972764
O O3 0.428475 0.173375 0.144703
O O4 0.450094 0.153783 0.002934
O O5 0.048542 0.809886 0.254568
O O6 0.118241 0.633297 0.296245
O O7 0.000000 0.764111 0.000000
O O8 0.840963 0.678049 0.869712
O O9 0.064722 0.000000 0.346216
O O10 0.888516 0.132589 0.124937
O O11 0.671687 0.500000 0.329793
O O12 0.661032 0.381673 0.452930
O O13 0.629798 0.296991 0.242590
O O14 0.441057 0.679298 0.555157
O O15 0.371327 0.858970 0.390212
O O16 0.636050 0.809809 0.790545
O O17 0.699311 0.500000 0.653670
O O18 0.686493 0.000000 0.825271
#
# Coordination Sequence:
#
# PCOD9147392 Si02
#       8
#     4   4   4   4   4   4   2   4
#     4  11  23  37  55  83 119 155 184 224 285 343
#     4  10  19  35  55  80 113 149 188 232 278 329
#     4  10  21  37  56  81 116 151 189 231 275 339
#     4  10  20  34  54  79 109 148 193 233 272 326
#     4  11  20  37  60  84 112 147 184 237 288 331
#     4  10  20  35  57  84 111 145 190 237 283 331
#     4  12  20  34  52  82 114 150 186 228 274 340
#     4  10  21  38  61  86 110 143 194 241 279 333
#
# _framework density 17.155137
#
# number of rings (size 3 to 8) (size 9 to 14) (size 15 to 20)
#    0.000    1.600    4.000    2.400    0.000    2.400 
#    0.000    3.333    0.000    0.000    0.000    0.933 
#    0.000    0.000    0.000    0.000    0.000    0.000 
#
# Total GULP energy -167305.669708 kJ/mol
# GULP energy per Si atom -5576.855657 kJ/mol
# Density = 1.711609 g / cm^3
# Si number density = 17.155137 Si / 1000 Ang^3
#
#
#
# Elastic Constant Matrix: (Units=GPa)
#
#
# Indices 1 2 3 4 5 6 
#
# 1 71.9231 36.4674 49.5263 0.0000 5.4625 0.0000
# 2 36.4674 74.5793 32.4573 0.0000 6.3347 0.0000
# 3 49.5263 32.4573 97.9195 0.0000 -1.9605 0.0000
# 4 0.0000 0.0000 0.0000 4.8621 0.0000 -2.2999
# 5 5.4625 6.3347 -1.9605 0.0000 24.6429 0.0000
# 6 0.0000 0.0000 0.0000 -2.2999 0.0000 14.4553
#
#
#
# Elastic Compliance Matrix: (Units=1/GPa)
#
#
# Indices 1 2 3 4 5 6 
#
# 1 0.025118 -0.007400 -0.010341 0.000000 -0.004488 0.000000
# 2 -0.007400 0.018352 -0.002406 0.000000 -0.003268 0.000000
# 3 -0.010341 -0.002406 0.016324 0.000000 0.004209 0.000000
# 4 0.000000 0.000000 0.000000 0.222414 0.000000 0.035387
# 5 -0.004488 -0.003268 0.004209 0.000000 0.042750 0.000000
# 6 0.000000 0.000000 0.000000 0.035387 0.000000 0.074809
#
#
# Mechanical properties :
#
#
# Convention : Reuss Voigt Hill
#
# Bulk Modulus (GPa) = 51.28168 53.48041 52.38104
# Shear Modulus (GPa) = 11.19673 17.19012 14.19342
#
# Velocity S-wave (km/s) = 2.55752 3.16893 2.87950
# Velocity P-wave (km/s) = 6.21925 6.68070 6.45410
#
# Compressibility (1/GPa) = 0.01950014
#
# Stress axis : x y z
#
# Youngs Moduli (GPa) = 39.81275 54.49129 61.25780
#
# Poissons Ratio (x) = 0.40324 0.63347
# Poissons Ratio (y) = 0.29462 0.14736
# Poissons Ratio (z) = 0.41171 0.13108
#
# Static dielectric constant tensor:
#      x y z
#    x 1.567780 0.000000 0.003170 
#    y 0.000000 1.561110 0.000000 
#    z 0.003170 0.000000 1.608160 
# 
# From -- ./inp_files/72411.got.cif
#   From: 2010.05.17/outbox.cif.g08.bks.cpg/sg10_37_cif.got.tgz:72411.got - 2010.06.03 11:33:40.
