data_PCOD9147813
_publ_section_title
;
Structure prediction by ZEFSAII (Michael W. Deem and Ramdas Pophale) SiO2 
 PCOD9147813
Probable space group: P 2/M
;
_chemical_formula_sum "Si O2"
_cell_formula_units_Z 20
_cell_length_a 9.909778
_cell_length_b 7.717414
_cell_length_c 25.505031
_cell_angle_alpha 90.000000
_cell_angle_beta 27.372411
_cell_angle_gamma 90.000000
_cell_volume 896.818003
_symmetry_space_group_name_H-M "P 2/M"
_symmetry_group_IT_number 10
_symmetry_cell_setting 'monoclinic'
loop_
_space_group_symop_operation_xyz
x,y,z
-x,y,-z
-x,-y,-z
x,-y,z
loop_
_atom_site_type_symbol
_atom_site_label
_atom_site_fract_x
_atom_site_fract_y
_atom_site_fract_z
Si Si1 0.834177 0.798375 0.214624
Si Si2 0.842419 0.791291 0.391857
Si Si3 0.273224 0.699545 0.151436
Si Si4 0.876707 0.298651 0.988200
Si Si5 0.214621 0.788388 0.472294
O O1 0.546164 0.732174 0.344561
O O2 0.112445 0.781860 0.157092
O O3 0.783965 0.000000 0.220561
O O4 0.893423 0.710239 0.138620
O O5 0.500000 0.756324 0.500000
O O6 0.898567 0.732706 0.431862
O O7 0.047365 0.709004 0.277638
O O8 0.882133 0.000000 0.374029
O O9 0.327807 0.500000 0.117750
O O10 0.576951 0.779140 0.067781
O O11 0.805520 0.500000 0.024304
O O12 0.000000 0.222862 0.000000
O O13 0.000000 0.735157 0.500000
O O14 0.219955 0.000000 0.472562
#
# Coordination Sequence:
#
# PCOD9147813 Si02
#       5
#     4   4   4   4   4
#     4  11  22  39  63  90 117 150 198 244 288 344
#     4  10  19  36  60  86 118 151 189 237 289 340
#     4  11  23  39  61  86 117 157 197 237 289 349
#     4  10  24  44  61  82 118 157 193 241 298 347
#     4   9  19  35  56  85 120 153 183 232 295 343
#
# _framework density 22.301068999999998
#
# number of rings (size 3 to 8) (size 9 to 14) (size 15 to 20)
#    0.000    1.800    2.000    1.800    2.800    4.800 
#    0.000    0.000    0.000    3.000    0.000    0.000 
#    0.000    0.000    0.000    0.000    0.000    0.000 
#
# Total GULP energy -111781.249630 kJ/mol
# GULP energy per Si atom -5589.062481 kJ/mol
# Density = 2.225031 g / cm^3
# Si number density = 22.301069 Si / 1000 Ang^3
#
#
#
# Elastic Constant Matrix: (Units=GPa)
#
#
# Indices 1 2 3 4 5 6 
#
# 1 154.6924 1.8206 33.9782 0.0000 20.4010 0.0000
# 2 1.8206 32.8202 -0.4292 0.0000 -4.6984 0.0000
# 3 33.9782 -0.4292 74.7494 0.0000 16.4536 0.0000
# 4 0.0000 0.0000 0.0000 -0.1937 0.0000 4.0812
# 5 20.4010 -4.6984 16.4536 0.0000 40.0047 0.0000
# 6 0.0000 0.0000 0.0000 4.0812 0.0000 20.1632
#
#
#
# Elastic Compliance Matrix: (Units=1/GPa)
#
#
# Indices 1 2 3 4 5 6 
#
# 1 0.007449 -0.000844 -0.002785 0.000000 -0.002752 0.000000
# 2 -0.000844 0.031118 -0.000371 0.000000 0.004237 0.000000
# 3 -0.002785 -0.000371 0.015766 0.000000 -0.005108 0.000000
# 4 0.000000 0.000000 0.000000 -0.980665 0.000000 0.198494
# 5 -0.002752 0.004237 -0.005108 0.000000 0.028999 0.000000
# 6 0.000000 0.000000 0.000000 0.198494 0.000000 0.009419
#
#
# Mechanical properties :
#
#
# Convention : Reuss Voigt Hill
#
# Bulk Modulus (GPa) = 21.58228 37.00016 29.29122
# Shear Modulus (GPa) = -5.78388 27.12099 10.66856
#
# Velocity S-wave (km/s) = -1.61220 3.49109 2.18958
# Velocity P-wave (km/s) = 2.49662 5.73389 4.42214
#
# Compressibility (1/GPa) = 0.04633432
#
# Stress axis : x y z
#
# Youngs Moduli (GPa) = 134.24446 32.13620 63.42681
#
# Poissons Ratio (x) = 0.02711 0.17665
# Poissons Ratio (y) = 0.11326 0.02350
# Poissons Ratio (z) = 0.37388 0.01191
#
# Static dielectric constant tensor:
#      x y z
#    x 1.816380 0.000000 -0.019520 
#    y 0.000000 1.832580 0.000000 
#    z -0.019520 0.000000 1.796970 
# 
# From -- ./inp_files/22154.got.cif
#   From: 2010.05.17/outbox.cif.g08.bks.cpg/sg10_12_cif.got.tgz:22154.got - 2010.06.03 11:33:40.
