data_PCOD9147174
_publ_section_title
;
Structure prediction by ZEFSAII (Michael W. Deem and Ramdas Pophale) SiO2 
 PCOD9147174
Probable space group: P 2/M
;
_chemical_formula_sum "Si O2"
_cell_formula_units_Z 24
_cell_length_a 10.060047
_cell_length_b 12.715649
_cell_length_c 11.363665
_cell_angle_alpha 90.000000
_cell_angle_beta 46.178785
_cell_angle_gamma 90.000000
_cell_volume 1048.807163
_symmetry_space_group_name_H-M "P 2/M"
_symmetry_group_IT_number 10
_symmetry_cell_setting 'monoclinic'
loop_
_space_group_symop_operation_xyz
x,y,z
-x,y,-z
-x,-y,-z
x,-y,z
loop_
_atom_site_type_symbol
_atom_site_label
_atom_site_fract_x
_atom_site_fract_y
_atom_site_fract_z
Si Si1 0.713504 0.887030 0.409276
Si Si2 0.196681 0.272535 0.817434
Si Si3 0.266962 0.111021 0.323816
Si Si4 0.837450 0.500000 0.201955
Si Si5 0.307430 0.881066 0.946574
Si Si6 0.277637 0.287518 0.155900
Si Si7 0.950099 0.500000 0.676009
O O1 0.500000 0.881107 0.500000
O O2 0.813314 0.784919 0.300306
O O3 0.732161 0.890171 0.537070
O O4 0.784090 0.000000 0.319188
O O5 0.268398 0.390791 0.758770
O O6 0.303384 0.186890 0.830065
O O7 0.000000 0.279329 0.000000
O O8 0.478941 0.106570 0.152996
O O9 0.212567 0.224539 0.311607
O O10 0.181382 0.000000 0.332003
O O11 0.905769 0.500000 0.297979
O O12 0.000000 0.500000 0.000000
O O13 0.231224 0.000000 0.984047
O O14 0.225623 0.800542 0.090696
O O15 0.172272 0.396878 0.221217
O O16 0.500000 0.306038 0.000000
O O17 0.000000 0.500000 0.500000
#
# Coordination Sequence:
#
# PCOD9147174 Si02
#       7
#     4   4   4   2   4   4   2
#     4  10  19  34  57  84 121 156 188 241 306 357
#     4  11  22  37  60  83 117 156 207 242 291 353
#     4   9  18  34  59  90 121 152 187 239 305 361
#     4  10  24  45  63  83 117 169 207 254 303 352
#     4  10  19  35  62  95 124 151 189 244 302 360
#     4  10  21  39  65  90 115 154 203 249 290 361
#     4  12  27  45  64  85 122 167 209 256 308 350
#
# _framework density 22.883137000000001
#
# number of rings (size 3 to 8) (size 9 to 14) (size 15 to 20)
#    0.000    1.833    1.667    3.250    2.333    3.333 
#    0.000    1.250    0.000    1.000    0.000    0.000 
#    0.000    0.000    0.000    0.000    0.000    0.000 
#
# Total GULP energy -133686.023942 kJ/mol
# GULP energy per Si atom -5570.250998 kJ/mol
# Density = 2.283105 g / cm^3
# Si number density = 22.883137 Si / 1000 Ang^3
#
#
#
# Elastic Constant Matrix: (Units=GPa)
#
#
# Indices 1 2 3 4 5 6 
#
# 1 46.8080 33.9797 17.4966 0.0000 6.0244 0.0000
# 2 33.9797 254.8119 51.6996 0.0000 9.8476 0.0000
# 3 17.4966 51.6996 83.0289 0.0000 18.4086 0.0000
# 4 0.0000 0.0000 0.0000 13.7945 0.0000 -4.6819
# 5 6.0244 9.8476 18.4086 0.0000 36.8972 0.0000
# 6 0.0000 0.0000 0.0000 -4.6819 0.0000 47.9551
#
#
#
# Elastic Compliance Matrix: (Units=1/GPa)
#
#
# Indices 1 2 3 4 5 6 
#
# 1 0.024652 -0.002569 -0.003210 0.000000 -0.001738 0.000000
# 2 -0.002569 0.004761 -0.002513 0.000000 0.000402 0.000000
# 3 -0.003210 -0.002513 0.015764 0.000000 -0.006670 0.000000
# 4 0.000000 0.000000 0.000000 0.074977 0.000000 0.007320
# 5 -0.001738 0.000402 -0.006670 0.000000 0.030607 0.000000
# 6 0.000000 0.000000 0.000000 0.007320 0.000000 0.021568
#
#
# Mechanical properties :
#
#
# Convention : Reuss Voigt Hill
#
# Bulk Modulus (GPa) = 34.97197 65.66675 50.31936
# Shear Modulus (GPa) = 25.19616 38.49421 31.84519
#
# Velocity S-wave (km/s) = 3.32185 4.10592 3.73452
# Velocity P-wave (km/s) = 5.47987 7.15800 6.37440
#
# Compressibility (1/GPa) = 0.02859433
#
# Stress axis : x y z
#
# Youngs Moduli (GPa) = 40.56406 210.02792 63.43654
#
# Poissons Ratio (x) = 0.53956 0.20363
# Poissons Ratio (y) = 0.10421 0.15939
# Poissons Ratio (z) = 0.13021 0.52770
#
# Static dielectric constant tensor:
#      x y z
#    x 2.402300 0.000000 0.548540 
#    y 0.000000 1.888970 0.000000 
#    z 0.548540 0.000000 2.462470 
# 
# From -- ./inp_files/46535.got.cif
#   From: 2010.05.17/outbox.cif.g08.bks.cpg/sg10_24_cif.got.tgz:46535.got - 2010.06.03 11:33:40.
