data_PCOD9147840
_publ_section_title
;
Structure prediction by ZEFSAII (Michael W. Deem and Ramdas Pophale) SiO2 
 PCOD9147840
Probable space group: P 2/M
;
_chemical_formula_sum "Si O2"
_cell_formula_units_Z 28
_cell_length_a 9.984523
_cell_length_b 7.582676
_cell_length_c 26.816768
_cell_angle_alpha 90.000000
_cell_angle_beta 144.253721
_cell_angle_gamma 90.000000
_cell_volume 1186.084272
_symmetry_space_group_name_H-M "P 2/M"
_symmetry_group_IT_number 10
_symmetry_cell_setting 'monoclinic'
loop_
_space_group_symop_operation_xyz
x,y,z
-x,y,-z
-x,-y,-z
x,-y,z
loop_
_atom_site_type_symbol
_atom_site_label
_atom_site_fract_x
_atom_site_fract_y
_atom_site_fract_z
Si Si1 0.076245 0.291807 0.465722
Si Si2 0.421673 0.287140 0.921587
Si Si3 0.569432 0.295634 0.636460
Si Si4 0.036141 0.795791 0.735406
Si Si5 0.742352 0.297542 0.793435
Si Si6 0.685326 0.201285 0.272714
Si Si7 0.889355 0.716060 0.018434
O O1 0.069490 0.500000 0.450199
O O2 0.336700 0.222293 0.542591
O O3 0.000000 0.275141 0.500000
O O4 0.890993 0.202015 0.374761
O O5 0.406733 0.500000 0.917403
O O6 0.178951 0.218876 0.829547
O O7 0.500000 0.231070 0.000000
O O8 0.626332 0.232455 0.946339
O O9 0.509257 0.500000 0.629250
O O10 0.649558 0.216050 0.713821
O O11 0.788497 0.288351 0.667101
O O12 0.202101 0.719468 0.743027
O O13 0.998587 0.000000 0.711551
O O14 0.806375 0.500000 0.800369
O O15 0.531334 0.296438 0.768502
O O16 0.958068 0.222219 0.888554
O O17 0.612247 0.000000 0.240617
O O18 0.896566 0.500000 0.021084
O O19 0.000000 0.773991 0.000000
#
# Coordination Sequence:
#
# PCOD9147840 Si02
#       7
#     4   4   4   4   4   4   4
#     4  10  20  39  64  90 116 145 191 247 296 345
#     4  10  20  37  61  85 111 148 197 247 292 341
#     4  10  21  38  62  88 113 147 195 246 294 346
#     4  11  25  41  56  83 124 163 197 234 285 350
#     4  10  19  36  61  86 114 148 192 247 296 343
#     4  11  24  39  57  85 122 161 196 234 287 351
#     4   9  17  29  51  83 111 139 181 234 289 338
#
# _framework density 23.607094
#
# number of rings (size 3 to 8) (size 9 to 14) (size 15 to 20)
#    0.000    1.857    1.429    2.571    0.000    8.000 
#    0.000    3.571    0.000    2.571    0.000    0.000 
#    0.000    0.000    0.000    0.000    0.000    0.000 
#
# Total GULP energy -156565.779581 kJ/mol
# GULP energy per Si atom -5591.634985 kJ/mol
# Density = 2.355336 g / cm^3
# Si number density = 23.607094 Si / 1000 Ang^3
#
#
#
# Elastic Constant Matrix: (Units=GPa)
#
#
# Indices 1 2 3 4 5 6 
#
# 1 64.9391 -4.7484 -6.9538 0.0000 16.1627 0.0000
# 2 -4.7484 54.6439 -5.8132 0.0000 -2.0686 0.0000
# 3 -6.9538 -5.8132 98.1351 0.0000 24.0350 0.0000
# 4 0.0000 0.0000 0.0000 30.3590 0.0000 19.7021
# 5 16.1627 -2.0686 24.0350 0.0000 41.4789 0.0000
# 6 0.0000 0.0000 0.0000 19.7021 0.0000 33.0864
#
#
#
# Elastic Compliance Matrix: (Units=1/GPa)
#
#
# Indices 1 2 3 4 5 6 
#
# 1 0.018166 0.001618 0.003609 0.000000 -0.009089 0.000000
# 2 0.001618 0.018565 0.001331 0.000000 -0.000476 0.000000
# 3 0.003609 0.001331 0.012648 0.000000 -0.008669 0.000000
# 4 0.000000 0.000000 0.000000 0.053686 0.000000 -0.031968
# 5 -0.009089 -0.000476 -0.008669 0.000000 0.032650 0.000000
# 6 0.000000 0.000000 0.000000 -0.031968 0.000000 0.049260
#
#
# Mechanical properties :
#
#
# Convention : Reuss Voigt Hill
#
# Bulk Modulus (GPa) = 16.00110 20.29860 18.14985
# Shear Modulus (GPa) = 25.94863 36.66710 31.30786
#
# Velocity S-wave (km/s) = 3.31900 3.94537 3.64566
# Velocity P-wave (km/s) = 4.63470 5.41958 5.04243
#
# Compressibility (1/GPa) = 0.06249571
#
# Stress axis : x y z
#
# Youngs Moduli (GPa) = 55.04760 53.86619 79.06548
#
# Poissons Ratio (x) = -0.08718 -0.28537
# Poissons Ratio (y) = -0.08909 -0.10523
# Poissons Ratio (z) = -0.19868 -0.07169
#
# Static dielectric constant tensor:
#      x y z
#    x 1.893840 0.000000 -0.017830 
#    y 0.000000 2.014680 0.000000 
#    z -0.017830 0.000000 1.863840 
# 
# From -- ./inp_files/92112.got.cif
#   From: 2010.05.17/outbox.cif.g08.bks.cpg/sg10_47_cif.got.tgz:92112.got - 2010.06.03 11:33:40.
