data_PCOD9147132
_publ_section_title
;
Structure prediction by ZEFSAII (Michael W. Deem and Ramdas Pophale) SiO2 
 PCOD9147132
Probable space group: P 2/M
;
_chemical_formula_sum "Si O2"
_cell_formula_units_Z 32
_cell_length_a 14.627026
_cell_length_b 8.535478
_cell_length_c 14.549556
_cell_angle_alpha 90.000000
_cell_angle_beta 86.794377
_cell_angle_gamma 90.000000
_cell_volume 1813.650250
_symmetry_space_group_name_H-M "P 2/M"
_symmetry_group_IT_number 10
_symmetry_cell_setting 'monoclinic'
loop_
_space_group_symop_operation_xyz
x,y,z
-x,y,-z
-x,-y,-z
x,-y,z
loop_
_atom_site_type_symbol
_atom_site_label
_atom_site_fract_x
_atom_site_fract_y
_atom_site_fract_z
Si Si1 0.804911 0.687321 0.666025
Si Si2 0.858547 0.811370 0.275883
Si Si3 0.670397 0.184295 0.814272
Si Si4 0.711533 0.186234 0.143266
Si Si5 0.044827 0.688347 0.188863
Si Si6 0.895697 0.810471 0.481475
Si Si7 0.486448 0.686431 0.893965
Si Si8 0.805541 0.686421 0.960430
O O1 0.795734 0.500000 0.670783
O O2 0.715864 0.765954 0.715671
O O3 0.829941 0.742397 0.563127
O O4 0.889428 0.732642 0.729011
O O5 0.765474 0.760792 0.231271
O O6 0.945664 0.757601 0.211729
O O7 0.871090 0.757090 0.380024
O O8 0.858805 0.000000 0.277259
O O9 0.564884 0.229638 0.830839
O O10 0.726975 0.277921 0.889305
O O11 0.683297 0.000000 0.829031
O O12 0.615106 0.269166 0.131638
O O13 0.696275 0.000000 0.147816
O O14 0.777572 0.225505 0.053861
O O15 0.038420 0.500000 0.187932
O O16 0.099579 0.735355 0.093775
O O17 0.000000 0.764269 0.500000
O O18 0.891360 0.000000 0.484817
O O19 0.499573 0.500000 0.887736
O O20 0.500000 0.733745 0.000000
O O21 0.808244 0.500000 0.977390
#
# Coordination Sequence:
#
# PCOD9147132 Si02
#       8
#     4   4   4   4   4   4   4   4
#     4  10  20  34  54  83 115 144 181 228 275 325
#     4  10  22  37  53  78 112 146 185 232 274 322
#     4  11  21  34  57  85 112 142 179 224 275 328
#     4  11  23  37  54  79 110 147 187 226 274 328
#     4   9  19  33  51  75 107 146 185 223 268 323
#     4  10  19  34  57  82 109 145 188 230 276 324
#     4  11  22  37  59  83 110 142 180 228 276 322
#     4  10  20  35  52  77 111 147 186 227 269 319
#
# _framework density 17.643975000000001
#
# number of rings (size 3 to 8) (size 9 to 14) (size 15 to 20)
#    0.000    1.750    2.500    3.375    0.000    5.250 
#    0.000    2.500    0.000    0.750    0.000    5.250 
#    0.000    0.000    0.000    0.000    0.000    0.000 
#
# Total GULP energy -178714.376676 kJ/mol
# GULP energy per Si atom -5584.824271 kJ/mol
# Density = 1.760382 g / cm^3
# Si number density = 17.643975 Si / 1000 Ang^3
#
#
#
# Elastic Constant Matrix: (Units=GPa)
#
#
# Indices 1 2 3 4 5 6 
#
# 1 103.6968 15.9470 51.6129 0.0000 -2.7471 0.0000
# 2 15.9470 18.8623 5.0060 0.0000 -2.7966 0.0000
# 3 51.6129 5.0060 81.6366 0.0000 -3.0613 0.0000
# 4 0.0000 0.0000 0.0000 20.7241 0.0000 -7.5683
# 5 -2.7471 -2.7966 -3.0613 0.0000 26.1519 0.0000
# 6 0.0000 0.0000 0.0000 -7.5683 0.0000 27.7129
#
#
#
# Elastic Compliance Matrix: (Units=1/GPa)
#
#
# Indices 1 2 3 4 5 6 
#
# 1 0.016071 -0.011158 -0.009500 0.000000 -0.000617 0.000000
# 2 -0.011158 0.062409 0.003449 0.000000 0.005906 0.000000
# 3 -0.009500 0.003449 0.018100 0.000000 0.001490 0.000000
# 4 0.000000 0.000000 0.000000 0.053598 0.000000 0.014638
# 5 -0.000617 0.005906 0.001490 0.000000 0.038979 0.000000
# 6 0.000000 0.000000 0.000000 0.014638 0.000000 0.040082
#
#
# Mechanical properties :
#
#
# Convention : Reuss Voigt Hill
#
# Bulk Modulus (GPa) = 16.08675 38.81417 27.45046
# Shear Modulus (GPa) = 17.58223 23.69311 20.63767
#
# Velocity S-wave (km/s) = 3.16016 3.66846 3.42376
# Velocity P-wave (km/s) = 4.73843 6.32375 5.58760
#
# Compressibility (1/GPa) = 0.06216295
#
# Stress axis : x y z
#
# Youngs Moduli (GPa) = 62.22280 16.02326 55.24943
#
# Poissons Ratio (x) = 0.17878 0.52485
# Poissons Ratio (y) = 0.69426 -0.19053
# Poissons Ratio (z) = 0.59109 -0.05526
#
# Static dielectric constant tensor:
#      x y z
#    x 1.593440 0.000000 0.004350 
#    y 0.000000 1.592030 0.000000 
#    z 0.004350 0.000000 1.603440 
# 
# From -- ./inp_files/63837.got.cif
#   From: 2010.05.17/outbox.cif.g08.bks.cpg/sg10_32_cif.got.tgz:63837.got - 2010.06.03 11:33:40.
