data_PCOD9147694
_publ_section_title
;
Structure prediction by ZEFSAII (Michael W. Deem and Ramdas Pophale) SiO2 
 PCOD9147694
Probable space group: P 2/M
;
_chemical_formula_sum "Si O2"
_cell_formula_units_Z 32
_cell_length_a 15.649210
_cell_length_b 14.874694
_cell_length_c 22.450169
_cell_angle_alpha 90.000000
_cell_angle_beta 19.550554
_cell_angle_gamma 90.000000
_cell_volume 1748.782981
_symmetry_space_group_name_H-M "P 2/M"
_symmetry_group_IT_number 10
_symmetry_cell_setting 'monoclinic'
loop_
_space_group_symop_operation_xyz
x,y,z
-x,y,-z
-x,-y,-z
x,-y,z
loop_
_atom_site_type_symbol
_atom_site_label
_atom_site_fract_x
_atom_site_fract_y
_atom_site_fract_z
Si Si1 0.716296 0.394411 0.967512
Si Si2 0.143090 0.699880 0.002423
Si Si3 0.893368 0.898843 0.930901
Si Si4 0.021877 0.900850 0.710956
Si Si5 0.893460 0.605830 0.635377
Si Si6 0.044258 0.707559 0.653232
Si Si7 0.632757 0.289350 0.267516
Si Si8 0.379015 0.095467 0.690767
O O1 0.772748 0.500000 0.925862
O O2 0.862471 0.342653 0.819181
O O3 0.801493 0.356442 0.975345
O O4 0.411742 0.382827 0.162449
O O5 0.303412 0.670825 0.838966
O O6 0.204818 0.804808 0.977420
O O7 0.848706 0.687872 0.174245
O O8 0.891035 0.890159 0.861102
O O9 0.185719 0.900111 0.762684
O O10 0.790418 0.000000 0.013448
O O11 0.977636 0.813580 0.699915
O O12 0.327484 0.901561 0.521479
O O13 0.955572 0.000000 0.729968
O O14 0.950479 0.500000 0.608865
O O15 0.000000 0.628386 0.500000
O O16 0.010866 0.666241 0.610044
O O17 0.341119 0.694873 0.476837
O O18 0.667823 0.181443 0.238124
O O19 0.332489 0.000000 0.752446
#
# Coordination Sequence:
#
# PCOD9147694 Si02
#       8
#     4   4   4   4   4   4   4   4
#     4  11  23  39  60  83 107 136 179 230 275 320
#     4  10  19  36  51  78 114 152 184 222 267 322
#     4   9  15  25  45  73 106 144 185 223 262 309
#     4   9  16  27  46  76 110 143 178 216 264 318
#     4  10  22  41  65  88 107 132 173 226 280 329
#     4  11  20  36  58  85 111 143 178 227 275 318
#     4   9  20  32  52  77 115 152 185 217 267 328
#     4   8  14  24  42  70 105 145 186 226 261 300
#
# _framework density 18.298438999999998
#
# number of rings (size 3 to 8) (size 9 to 14) (size 15 to 20)
#    0.000    2.375    1.250    1.875    0.000    3.500 
#    0.000    6.250    0.000    2.625    0.000    0.000 
#    0.000    0.000    0.000    0.000    0.000    0.000 
#
# Total GULP energy -178286.714838 kJ/mol
# GULP energy per Si atom -5571.459839 kJ/mol
# Density = 1.825679 g / cm^3
# Si number density = 18.298439 Si / 1000 Ang^3
#
#
#
# Elastic Constant Matrix: (Units=GPa)
#
#
# Indices 1 2 3 4 5 6 
#
# 1 60.6921 34.9038 7.3172 0.0000 5.1642 0.0000
# 2 34.9038 82.0864 29.5199 0.0000 -4.0419 0.0000
# 3 7.3172 29.5199 50.5734 0.0000 3.7672 0.0000
# 4 0.0000 0.0000 0.0000 24.7384 0.0000 2.6400
# 5 5.1642 -4.0419 3.7672 0.0000 15.1583 0.0000
# 6 0.0000 0.0000 0.0000 2.6400 0.0000 29.1591
#
#
#
# Elastic Compliance Matrix: (Units=1/GPa)
#
#
# Indices 1 2 3 4 5 6 
#
# 1 0.024299 -0.012716 0.004866 0.000000 -0.012878 0.000000
# 2 -0.012716 0.022722 -0.012427 0.000000 0.013479 0.000000
# 3 0.004866 -0.012427 0.027197 0.000000 -0.011730 0.000000
# 4 0.000000 0.000000 0.000000 0.040817 0.000000 -0.003695
# 5 -0.012878 0.013479 -0.011730 0.000000 0.076867 0.000000
# 6 0.000000 0.000000 0.000000 -0.003695 0.000000 0.034629
#
#
# Mechanical properties :
#
#
# Convention : Reuss Voigt Hill
#
# Bulk Modulus (GPa) = 29.70611 37.42597 33.56604
# Shear Modulus (GPa) = 17.96580 21.91856 19.94218
#
# Velocity S-wave (km/s) = 3.13680 3.46473 3.30484
# Velocity P-wave (km/s) = 5.42115 6.04180 5.73987
#
# Compressibility (1/GPa) = 0.03366311
#
# Stress axis : x y z
#
# Youngs Moduli (GPa) = 41.15453 44.01018 36.76903
#
# Poissons Ratio (x) = 0.55963 -0.17892
# Poissons Ratio (y) = 0.52332 0.45694
# Poissons Ratio (z) = -0.20026 0.54692
#
# Static dielectric constant tensor:
#      x y z
#    x 1.604880 0.000000 0.003260 
#    y 0.000000 1.665720 0.000000 
#    z 0.003260 0.000000 1.635610 
# 
# From -- ./inp_files/82844.got.cif
#   From: 2010.05.17/outbox.cif.g08.bks.cpg/sg10_42_cif.got.tgz:82844.got - 2010.06.03 11:33:40.
