data_PCOD9147961
_publ_section_title
;
Structure prediction by ZEFSAII (Michael W. Deem and Ramdas Pophale) SiO2 
 PCOD9147961
Probable space group: P 2/M
;
_chemical_formula_sum "Si O2"
_cell_formula_units_Z 28
_cell_length_a 26.161126
_cell_length_b 8.519677
_cell_length_c 9.263402
_cell_angle_alpha 90.000000
_cell_angle_beta 135.153828
_cell_angle_gamma 90.000000
_cell_volume 1456.015318
_symmetry_space_group_name_H-M "P 2/M"
_symmetry_group_IT_number 10
_symmetry_cell_setting 'monoclinic'
loop_
_space_group_symop_operation_xyz
x,y,z
-x,y,-z
-x,-y,-z
x,-y,z
loop_
_atom_site_type_symbol
_atom_site_label
_atom_site_fract_x
_atom_site_fract_y
_atom_site_fract_z
Si Si1 0.857591 0.687766 0.879932
Si Si2 0.573778 0.812339 0.976365
Si Si3 0.004365 0.310414 0.340630
Si Si4 0.717081 0.811941 0.762805
Si Si5 0.582282 0.314276 0.315106
Si Si6 0.716726 0.808862 0.094050
Si Si7 0.857475 0.811912 0.555224
O O1 0.851043 0.500000 0.875765
O O2 0.787863 0.763404 0.815376
O O3 0.862225 0.738226 0.723071
O O4 0.930723 0.734719 0.110564
O O5 0.590538 0.768922 0.176038
O O6 0.640546 0.759342 0.011112
O O7 0.566301 0.000000 0.949943
O O8 0.496843 0.734913 0.785663
O O9 0.011140 0.500000 0.346662
O O10 0.073260 0.236005 0.400373
O O11 0.000000 0.265569 0.500000
O O12 0.646328 0.738740 0.547648
O O13 0.709855 0.000000 0.746020
O O14 0.724275 0.759185 0.943404
O O15 0.584201 0.500000 0.296254
O O16 0.784584 0.757916 0.327040
O O17 0.717185 0.000000 0.096422
O O18 0.854713 0.000000 0.564040
#
# Coordination Sequence:
#
# PCOD9147961 Si02
#       7
#     4   4   4   4   4   4   4
#     4  11  23  39  59  85 116 151 191 235 285 340
#     4  10  19  37  62  85 111 151 196 236 283 338
#     4  10  22  40  60  84 118 156 191 233 288 344
#     4  11  22  39  60  83 112 148 190 236 286 340
#     4  11  22  37  56  85 119 150 188 235 286 340
#     4   9  21  38  58  84 113 145 187 238 287 336
#     4  11  22  38  61  88 116 150 193 238 284 337
#
# _framework density 19.230567000000001
#
# number of rings (size 3 to 8) (size 9 to 14) (size 15 to 20)
#    0.000    1.571    0.000    6.000    0.000    4.857 
#    0.000   10.000    0.000    0.000    0.000    0.000 
#    0.000    0.000    0.000    0.000    0.000    0.000 
#
# Total GULP energy -156558.023916 kJ/mol
# GULP energy per Si atom -5591.357997 kJ/mol
# Density = 1.918680 g / cm^3
# Si number density = 19.230567 Si / 1000 Ang^3
#
#
#
# Elastic Constant Matrix: (Units=GPa)
#
#
# Indices 1 2 3 4 5 6 
#
# 1 123.6021 -8.7283 21.6268 0.0000 3.1024 0.0000
# 2 -8.7283 70.9974 223.8230 0.0000 -14.2016 0.0000
# 3 21.6268 223.8230 1118.8736 0.0000 -65.7948 0.0000
# 4 0.0000 0.0000 0.0000 23.0865 0.0000 -10.0852
# 5 3.1024 -14.2016 -65.7948 0.0000 32.7602 0.0000
# 6 0.0000 0.0000 0.0000 -10.0852 0.0000 -101.3999
#
#
#
# Elastic Compliance Matrix: (Units=1/GPa)
#
#
# Indices 1 2 3 4 5 6 
#
# 1 0.008608 0.004240 -0.001082 0.000000 -0.001151 0.000000
# 2 0.004240 0.040277 -0.008092 0.000000 0.000808 0.000000
# 3 -0.001082 -0.008092 0.002646 0.000000 0.001908 0.000000
# 4 0.000000 0.000000 0.000000 0.041512 0.000000 -0.004129
# 5 -0.001151 0.000808 0.001908 0.000000 0.034816 0.000000
# 6 0.000000 0.000000 0.000000 -0.004129 0.000000 -0.009451
#
#
# Mechanical properties :
#
#
# Convention : Reuss Voigt Hill
#
# Bulk Modulus (GPa) = 24.00246 198.54624 111.27435
# Shear Modulus (GPa) = 35.17105 62.67281 48.92193
#
# Velocity S-wave (km/s) = 4.28122 5.71498 5.04925
# Velocity P-wave (km/s) = 6.07840 12.12507 9.59073
#
# Compressibility (1/GPa) = 0.04166239
#
# Stress axis : x y z
#
# Youngs Moduli (GPa) = 116.16966 24.82818 377.99562
#
# Poissons Ratio (x) = -0.10526 0.40906
# Poissons Ratio (y) = -0.49252 3.05857
# Poissons Ratio (z) = 0.12572 0.20090
#
# Static dielectric constant tensor:
#      x y z
#    x 1.635780 0.000000 0.001220 
#    y 0.000000 1.660480 0.000000 
#    z 0.001220 0.000000 1.646000 
# 
# From -- ./inp_files/37228.got.cif
#   From: 2010.05.17/outbox.cif.g08.bks.cpg/sg10_19_cif.got.tgz:37228.got - 2010.06.03 11:33:40.
