data_PCOD9147413
_publ_section_title
;
Structure prediction by ZEFSAII (Michael W. Deem and Ramdas Pophale) SiO2 
 PCOD9147413
Probable space group: P 2/M
;
_chemical_formula_sum "Si O2"
_cell_formula_units_Z 28
_cell_length_a 8.373855
_cell_length_b 19.324282
_cell_length_c 14.036663
_cell_angle_alpha 90.000000
_cell_angle_beta 41.613619
_cell_angle_gamma 90.000000
_cell_volume 1508.442413
_symmetry_space_group_name_H-M "P 2/M"
_symmetry_group_IT_number 10
_symmetry_cell_setting 'monoclinic'
loop_
_space_group_symop_operation_xyz
x,y,z
-x,y,-z
-x,-y,-z
x,-y,z
loop_
_atom_site_type_symbol
_atom_site_label
_atom_site_fract_x
_atom_site_fract_y
_atom_site_fract_z
Si Si1 0.248941 0.349585 0.341959
Si Si2 0.256185 0.582508 0.935807
Si Si3 0.370187 0.790862 0.403375
Si Si4 0.770660 0.078972 0.867521
Si Si5 0.873505 0.199646 0.285750
Si Si6 0.265983 0.073429 0.340840
Si Si7 0.237889 0.319852 0.124759
O O1 0.504962 0.390729 0.227117
O O2 0.300615 0.276840 0.373367
O O3 0.198325 0.341160 0.251828
O O4 0.000000 0.378155 0.500000
O O5 0.273999 0.500000 0.937022
O O6 0.248346 0.618467 0.043279
O O7 0.000000 0.599008 0.000000
O O8 0.184508 0.800877 0.574542
O O9 0.627274 0.788469 0.339805
O O10 0.380037 0.857576 0.331172
O O11 0.777811 0.074966 0.751022
O O12 0.981238 0.130122 0.805789
O O13 0.786903 0.000000 0.899198
O O14 0.500000 0.106403 0.000000
O O15 0.039478 0.264404 0.187904
O O16 0.000000 0.072255 0.500000
O O17 0.389626 0.000000 0.311224
O O18 0.500000 0.285605 0.000000
#
# Coordination Sequence:
#
# PCOD9147413 Si02
#       7
#     4   4   4   4   4   4   4
#     4  11  21  38  63  90 122 158 198 248 290 345
#     4  10  23  44  66  91 125 159 193 238 293 354
#     4  11  22  34  56  85 121 148 193 251 297 347
#     4  10  21  37  56  79 111 151 197 248 299 353
#     4  11  21  35  55  85 116 154 192 245 302 352
#     4  10  19  35  56  77 106 149 196 239 288 346
#     4  10  21  37  62  87 115 156 198 237 286 348
#
# _framework density 18.562193000000001
#
# number of rings (size 3 to 8) (size 9 to 14) (size 15 to 20)
#    0.000    1.571    2.857    2.571    0.000    4.571 
#    0.000    5.000    0.000    4.286    0.000    0.000 
#    0.000    0.000    0.000    0.000    0.000    0.000 
#
# Total GULP energy -156027.244019 kJ/mol
# GULP energy per Si atom -5572.401572 kJ/mol
# Density = 1.851995 g / cm^3
# Si number density = 18.562193 Si / 1000 Ang^3
#
#
#
# Elastic Constant Matrix: (Units=GPa)
#
#
# Indices 1 2 3 4 5 6 
#
# 1 69.3452 40.2603 29.5960 0.0000 -11.3807 0.0000
# 2 40.2603 95.2325 26.2428 0.0000 -16.1246 0.0000
# 3 29.5960 26.2428 111.4892 0.0000 -18.6951 0.0000
# 4 0.0000 0.0000 0.0000 27.6192 0.0000 -5.5202
# 5 -11.3807 -16.1246 -18.6951 0.0000 30.5367 0.0000
# 6 0.0000 0.0000 0.0000 -5.5202 0.0000 34.2708
#
#
#
# Elastic Compliance Matrix: (Units=1/GPa)
#
#
# Indices 1 2 3 4 5 6 
#
# 1 0.020458 -0.007436 -0.003410 0.000000 0.001610 0.000000
# 2 -0.007436 0.014602 -0.000708 0.000000 0.004506 0.000000
# 3 -0.003410 -0.000708 0.010883 0.000000 0.005018 0.000000
# 4 0.000000 0.000000 0.000000 0.037411 0.000000 0.006026
# 5 0.001610 0.004506 0.005018 0.000000 0.038799 0.000000
# 6 0.000000 0.000000 0.000000 0.006026 0.000000 0.030150
#
#
# Mechanical properties :
#
#
# Convention : Reuss Voigt Hill
#
# Bulk Modulus (GPa) = 43.79363 52.02948 47.91156
# Shear Modulus (GPa) = 27.31902 30.48319 28.90110
#
# Velocity S-wave (km/s) = 3.84051 4.05683 3.95015
# Velocity P-wave (km/s) = 6.58105 7.07350 6.83171
#
# Compressibility (1/GPa) = 0.02283437
#
# Stress axis : x y z
#
# Youngs Moduli (GPa) = 48.88142 68.48246 91.88819
#
# Poissons Ratio (x) = 0.50926 0.31337
# Poissons Ratio (y) = 0.36350 0.06501
# Poissons Ratio (z) = 0.16670 0.04845
#
# Static dielectric constant tensor:
#      x y z
#    x 1.637770 0.000000 -0.027020 
#    y 0.000000 1.662080 0.000000 
#    z -0.027020 0.000000 1.667770 
# 
# From -- ./inp_files/62300.got.cif
#   From: 2010.05.17/outbox.cif.g08.bks.cpg/sg10_32_cif.got.tgz:62300.got - 2010.06.03 11:33:40.
