data_PCOD9147161
_publ_section_title
;
Structure prediction by ZEFSAII (Michael W. Deem and Ramdas Pophale) SiO2 
 PCOD9147161
Probable space group: P 2/M
;
_chemical_formula_sum "Si O2"
_cell_formula_units_Z 32
_cell_length_a 13.096872
_cell_length_b 8.682497
_cell_length_c 32.613015
_cell_angle_alpha 90.000000
_cell_angle_beta 26.942274
_cell_angle_gamma 90.000000
_cell_volume 1680.312732
_symmetry_space_group_name_H-M "P 2/M"
_symmetry_group_IT_number 10
_symmetry_cell_setting 'monoclinic'
loop_
_space_group_symop_operation_xyz
x,y,z
-x,y,-z
-x,-y,-z
x,-y,z
loop_
_atom_site_type_symbol
_atom_site_label
_atom_site_fract_x
_atom_site_fract_y
_atom_site_fract_z
Si Si1 0.171128 0.313679 0.706484
Si Si2 0.246524 0.812356 0.899172
Si Si3 0.114632 0.820752 0.639248
Si Si4 0.414797 0.819741 0.150720
Si Si5 0.575052 0.314375 0.622056
Si Si6 0.578378 0.184689 0.712260
Si Si7 0.043091 0.684163 0.578701
Si Si8 0.663260 0.683720 0.906147
O O1 0.168733 0.500000 0.704830
O O2 0.215231 0.251338 0.644791
O O3 0.360020 0.267693 0.671587
O O4 0.922705 0.259816 0.810519
O O5 0.421882 0.768390 0.871731
O O6 0.355712 0.763846 0.817020
O O7 0.238491 0.000000 0.901154
O O8 0.000000 0.756454 0.000000
O O9 0.153452 0.739212 0.581905
O O10 0.844146 0.807772 0.742593
O O11 0.175749 0.000000 0.614672
O O12 0.442908 0.723484 0.099592
O O13 0.458859 0.000000 0.126235
O O14 0.571387 0.500000 0.627107
O O15 0.577608 0.244666 0.666270
O O16 0.795617 0.272376 0.516880
O O17 0.798967 0.243570 0.657459
O O18 0.585166 0.000000 0.709898
O O19 0.022189 0.500000 0.587370
O O20 0.677965 0.500000 0.906148
O O21 0.500000 0.746280 0.000000
#
# Coordination Sequence:
#
# PCOD9147161 Si02
#       8
#     4   4   4   4   4   4   4   4
#     4   9  19  37  56  76 110 151 185 223 278 335
#     4   9  18  34  55  80 110 143 177 220 277 332
#     4  10  19  34  57  84 111 139 181 234 280 326
#     4   9  17  32  52  75 104 137 175 219 265 321
#     4  10  23  40  56  79 113 153 191 229 277 338
#     4  11  22  38  59  84 113 146 187 235 282 328
#     4  11  22  37  59  82 108 148 193 230 278 340
#     4   9  18  32  52  78 105 138 178 221 270 322
#
# _framework density 19.044073999999998
#
# number of rings (size 3 to 8) (size 9 to 14) (size 15 to 20)
#    0.000    2.250    1.250    1.500    0.000    5.250 
#    0.000    2.500    0.000    2.625    0.000    0.000 
#    0.000    0.000    0.000    0.000    0.000    0.000 
#
# Total GULP energy -178564.955755 kJ/mol
# GULP energy per Si atom -5580.154867 kJ/mol
# Density = 1.900073 g / cm^3
# Si number density = 19.044074 Si / 1000 Ang^3
#
#
#
# Elastic Constant Matrix: (Units=GPa)
#
#
# Indices 1 2 3 4 5 6 
#
# 1 93.9593 17.7244 45.9811 0.0000 15.3806 0.0000
# 2 17.7244 16.2130 24.3821 0.0000 4.7799 0.0000
# 3 45.9811 24.3821 106.8931 0.0000 23.7083 0.0000
# 4 0.0000 0.0000 0.0000 16.5155 0.0000 3.3205
# 5 15.3806 4.7799 23.7083 0.0000 30.8829 0.0000
# 6 0.0000 0.0000 0.0000 3.3205 0.0000 31.6530
#
#
#
# Elastic Compliance Matrix: (Units=1/GPa)
#
#
# Indices 1 2 3 4 5 6 
#
# 1 0.014698 -0.010175 -0.003287 0.000000 -0.003222 0.000000
# 2 -0.010175 0.101064 -0.019681 0.000000 0.004534 0.000000
# 3 -0.003287 -0.019681 0.017138 0.000000 -0.008473 0.000000
# 4 0.000000 0.000000 0.000000 0.061854 0.000000 -0.006489
# 5 -0.003222 0.004534 -0.008473 0.000000 0.039788 0.000000
# 6 0.000000 0.000000 0.000000 -0.006489 0.000000 0.032273
#
#
# Mechanical properties :
#
#
# Convention : Reuss Voigt Hill
#
# Bulk Modulus (GPa) = 15.01221 43.69343 29.35282
# Shear Modulus (GPa) = 14.07238 24.40880 19.24059
#
# Velocity S-wave (km/s) = 2.72129 3.58397 3.18200
# Velocity P-wave (km/s) = 4.21591 6.33400 5.38022
#
# Compressibility (1/GPa) = 0.06661247
#
# Stress axis : x y z
#
# Youngs Moduli (GPa) = 68.03461 9.89474 58.35124
#
# Poissons Ratio (x) = 0.10068 0.19180
# Poissons Ratio (y) = 0.69229 1.14842
# Poissons Ratio (z) = 0.22363 0.19474
#
# Static dielectric constant tensor:
#      x y z
#    x 1.634610 0.000000 -0.005040 
#    y 0.000000 1.650740 0.000000 
#    z -0.005040 0.000000 1.682190 
# 
# From -- ./inp_files/49921.got.cif
#   From: 2010.05.17/outbox.cif.g08.bks.cpg/sg10_25_cif.got.tgz:49921.got - 2010.06.03 11:33:40.
