data_PCOD9147714
_publ_section_title
;
Structure prediction by ZEFSAII (Michael W. Deem and Ramdas Pophale) SiO2 
 PCOD9147714
Probable space group: P 2/M
;
_chemical_formula_sum "Si O2"
_cell_formula_units_Z 24
_cell_length_a 8.125808
_cell_length_b 15.455161
_cell_length_c 15.044345
_cell_angle_alpha 90.000000
_cell_angle_beta 144.042728
_cell_angle_gamma 90.000000
_cell_volume 1109.394318
_symmetry_space_group_name_H-M "P 2/M"
_symmetry_group_IT_number 10
_symmetry_cell_setting 'monoclinic'
loop_
_space_group_symop_operation_xyz
x,y,z
-x,y,-z
-x,-y,-z
x,-y,z
loop_
_atom_site_type_symbol
_atom_site_label
_atom_site_fract_x
_atom_site_fract_y
_atom_site_fract_z
Si Si1 0.814984 0.349538 0.621777
Si Si2 0.247972 0.406319 0.680501
Si Si3 0.616424 0.177584 0.452347
Si Si4 0.850847 0.098485 0.270341
Si Si5 0.426271 0.225121 0.185872
Si Si6 0.815564 0.233742 0.102267
O O1 0.500000 0.385351 0.500000
O O2 0.767171 0.270842 0.530760
O O3 0.066215 0.404360 0.691510
O O4 0.951014 0.302829 0.766189
O O5 0.393632 0.500000 0.735100
O O6 0.443873 0.322433 0.757083
O O7 0.000000 0.402814 0.500000
O O8 0.500000 0.162202 0.500000
O O9 0.413268 0.188243 0.280310
O O10 0.856017 0.106387 0.549123
O O11 0.644289 0.158820 0.235316
O O12 0.873057 0.145927 0.183619
O O13 0.761079 0.000000 0.221794
O O14 0.191726 0.226174 0.006804
O O15 0.500000 0.260124 0.000000
#
# Coordination Sequence:
#
# PCOD9147714 Si02
#       6
#     4   4   4   4   4   4
#     4  10  19  36  56  83 120 156 193 242 299 360
#     4  11  20  34  60  90 119 157 203 252 294 349
#     4  10  20  35  57  80 116 162 200 244 295 360
#     4  10  20  35  58  87 120 156 198 245 297 360
#     4  11  19  37  59  86 120 152 207 250 296 356
#     4   9  18  34  60  86 122 154 200 243 300 353
#
# _framework density 21.633424999999999
#
# number of rings (size 3 to 8) (size 9 to 14) (size 15 to 20)
#    0.000    1.833    6.667    0.500    0.000    5.000 
#    0.000    9.167    0.000    1.500    0.000    2.333 
#    0.000    0.000    0.000    0.000    0.000    0.000 
#
# Total GULP energy -133712.353710 kJ/mol
# GULP energy per Si atom -5571.348071 kJ/mol
# Density = 2.158419 g / cm^3
# Si number density = 21.633425 Si / 1000 Ang^3
#
#
#
# Elastic Constant Matrix: (Units=GPa)
#
#
# Indices 1 2 3 4 5 6 
#
# 1 67.6123 9.2261 42.4238 0.0000 -27.7396 0.0000
# 2 9.2261 94.5666 22.8406 0.0000 -5.6610 0.0000
# 3 42.4238 22.8406 166.6962 0.0000 -26.6569 0.0000
# 4 0.0000 0.0000 0.0000 -41.9236 0.0000 19.6480
# 5 -27.7396 -5.6610 -26.6569 0.0000 43.0613 0.0000
# 6 0.0000 0.0000 0.0000 19.6480 0.0000 -22.8397
#
#
#
# Elastic Compliance Matrix: (Units=1/GPa)
#
#
# Indices 1 2 3 4 5 6 
#
# 1 0.022008 -0.000561 -0.003628 0.000000 0.011858 0.000000
# 2 -0.000561 0.010963 -0.001317 0.000000 0.000264 0.000000
# 3 -0.003628 -0.001317 0.007438 0.000000 0.002094 0.000000
# 4 0.000000 0.000000 0.000000 -0.039966 0.000000 -0.034381
# 5 0.011858 0.000264 0.002094 0.000000 0.032192 0.000000
# 6 0.000000 0.000000 0.000000 -0.034381 0.000000 -0.073360
#
#
# Mechanical properties :
#
#
# Convention : Reuss Voigt Hill
#
# Bulk Modulus (GPa) = 34.01740 53.09513 43.55627
# Shear Modulus (GPa) = -251.08584 12.61856 -119.23364
#
# Velocity S-wave (km/s) = -10.78498 2.41776 -7.43203
# Velocity P-wave (km/s) = 11.80378 5.69126 7.31227
#
# Compressibility (1/GPa) = 0.02939672
#
# Stress axis : x y z
#
# Youngs Moduli (GPa) = 45.43786 91.21386 134.45291
#
# Poissons Ratio (x) = 0.05118 0.48778
# Poissons Ratio (y) = 0.02549 0.17709
# Poissons Ratio (z) = 0.16484 0.12014
#
# Static dielectric constant tensor:
#      x y z
#    x 1.918620 0.000000 0.006540 
#    y 0.000000 1.826240 0.000000 
#    z 0.006540 0.000000 1.841270 
# 
# From -- ./inp_files/61947.got.cif
#   From: 2010.05.17/outbox.cif.g08.bks.cpg/sg10_31_cif.got.tgz:61947.got - 2010.06.03 11:33:40.
