data_PCOD9147724
_publ_section_title
;
Structure prediction by ZEFSAII (Michael W. Deem and Ramdas Pophale) SiO2 
 PCOD9147724
Probable space group: P 2/M
;
_chemical_formula_sum "Si O2"
_cell_formula_units_Z 32
_cell_length_a 12.761154
_cell_length_b 13.694913
_cell_length_c 16.228438
_cell_angle_alpha 90.000000
_cell_angle_beta 38.391041
_cell_angle_gamma 90.000000
_cell_volume 1761.307536
_symmetry_space_group_name_H-M "P 2/M"
_symmetry_group_IT_number 10
_symmetry_cell_setting 'monoclinic'
loop_
_space_group_symop_operation_xyz
x,y,z
-x,y,-z
-x,-y,-z
x,-y,z
loop_
_atom_site_type_symbol
_atom_site_label
_atom_site_fract_x
_atom_site_fract_y
_atom_site_fract_z
Si Si1 0.980320 0.111054 0.414321
Si Si2 0.849598 0.389779 0.966517
Si Si3 0.767692 0.294153 0.477880
Si Si4 0.066147 0.388738 0.371318
Si Si5 0.434836 0.615394 0.734821
Si Si6 0.308498 0.682443 0.093665
Si Si7 0.698432 0.895174 0.901656
Si Si8 0.774433 0.616054 0.302713
O O1 0.860996 0.193286 0.445657
O O2 0.000000 0.128732 0.500000
O O3 0.165149 0.109506 0.256798
O O4 0.912311 0.000000 0.446051
O O5 0.871924 0.500000 0.984369
O O6 0.707659 0.347419 0.114101
O O7 0.770943 0.389519 0.923626
O O8 0.039252 0.351230 0.842875
O O9 0.602986 0.320027 0.632244
O O10 0.726858 0.313419 0.407436
O O11 0.906014 0.377665 0.411276
O O12 0.123526 0.500000 0.344090
O O13 0.209216 0.326126 0.240468
O O14 0.000000 0.354213 0.500000
O O15 0.473973 0.500000 0.728293
O O16 0.354123 0.620080 0.693769
O O17 0.281723 0.789417 0.069931
O O18 0.500000 0.664405 0.000000
O O19 0.730742 0.000000 0.924289
O O20 0.500000 0.896055 0.000000
O O21 0.782209 0.500000 0.322477
#
# Coordination Sequence:
#
# PCOD9147724 Si02
#       8
#     4   4   4   4   4   4   4   4
#     4  10  21  37  57  81 109 142 180 223 275 329
#     4  10  20  35  53  76 107 143 182 222 264 322
#     4  12  21  34  55  79 107 139 181 223 271 322
#     4  11  23  35  48  72 109 149 178 209 256 321
#     4  10  22  35  54  81 107 142 185 231 276 322
#     4  11  22  34  52  76 107 144 182 218 268 322
#     4   9  18  33  53  74  97 130 177 225 263 302
#     4  10  19  36  57  78 107 142 184 230 277 323
#
# _framework density 18.168320999999999
#
# number of rings (size 3 to 8) (size 9 to 14) (size 15 to 20)
#    0.000    1.625    2.500    2.625    1.750    4.500 
#    0.000    0.000    0.000    1.500    0.000    0.000 
#    0.000    5.000    0.000    0.000    0.000    0.000 
#
# Total GULP energy -178234.769782 kJ/mol
# GULP energy per Si atom -5569.836556 kJ/mol
# Density = 1.812697 g / cm^3
# Si number density = 18.168321 Si / 1000 Ang^3
#
#
#
# Elastic Constant Matrix: (Units=GPa)
#
#
# Indices 1 2 3 4 5 6 
#
# 1 43.0509 18.7928 23.8152 0.0000 -5.6919 0.0000
# 2 18.7928 101.3037 27.1199 0.0000 -2.5531 0.0000
# 3 23.8152 27.1199 96.6419 0.0000 -14.8830 0.0000
# 4 0.0000 0.0000 0.0000 16.9132 0.0000 -7.6215
# 5 -5.6919 -2.5531 -14.8830 0.0000 28.8241 0.0000
# 6 0.0000 0.0000 0.0000 -7.6215 0.0000 24.1423
#
#
#
# Elastic Compliance Matrix: (Units=1/GPa)
#
#
# Indices 1 2 3 4 5 6 
#
# 1 0.028226 -0.003689 -0.005554 0.000000 0.002379 0.000000
# 2 -0.003689 0.011167 -0.002373 0.000000 -0.000965 0.000000
# 3 -0.005554 -0.002373 0.013233 0.000000 0.005526 0.000000
# 4 0.000000 0.000000 0.000000 0.068932 0.000000 0.021761
# 5 0.002379 -0.000965 0.005526 0.000000 0.037931 0.000000
# 6 0.000000 0.000000 0.000000 0.021761 0.000000 0.048291
#
#
# Mechanical properties :
#
#
# Convention : Reuss Voigt Hill
#
# Bulk Modulus (GPa) = 34.02180 42.27248 38.14714
# Shear Modulus (GPa) = 20.76337 25.39382 23.07859
#
# Velocity S-wave (km/s) = 3.38425 3.74264 3.56795
# Velocity P-wave (km/s) = 5.83416 6.48028 6.16569
#
# Compressibility (1/GPa) = 0.02939292
#
# Stress axis : x y z
#
# Youngs Moduli (GPa) = 35.42862 89.55203 75.56857
#
# Poissons Ratio (x) = 0.33039 0.41970
# Poissons Ratio (y) = 0.13071 0.17933
# Poissons Ratio (z) = 0.19677 0.21251
#
# Static dielectric constant tensor:
#      x y z
#    x 1.637390 0.000000 0.021160 
#    y 0.000000 1.655030 0.000000 
#    z 0.021160 0.000000 1.695100 
# 
# From -- ./inp_files/29572.got.cif
#   From: 2010.05.17/outbox.cif.g08.bks.cpg/sg10_15_cif.got.tgz:29572.got - 2010.06.03 11:33:40.
