data_PCOD9147667
_publ_section_title
;
Structure prediction by ZEFSAII (Michael W. Deem and Ramdas Pophale) SiO2 
 PCOD9147667
Probable space group: P 2/M
;
_chemical_formula_sum "Si O2"
_cell_formula_units_Z 28
_cell_length_a 13.206556
_cell_length_b 14.200862
_cell_length_c 7.415809
_cell_angle_alpha 90.000000
_cell_angle_beta 58.947266
_cell_angle_gamma 90.000000
_cell_volume 1191.483385
_symmetry_space_group_name_H-M "P 2/M"
_symmetry_group_IT_number 10
_symmetry_cell_setting 'monoclinic'
loop_
_space_group_symop_operation_xyz
x,y,z
-x,y,-z
-x,-y,-z
x,-y,z
loop_
_atom_site_type_symbol
_atom_site_label
_atom_site_fract_x
_atom_site_fract_y
_atom_site_fract_z
Si Si1 0.489508 0.396876 0.227398
Si Si2 0.311686 0.892717 0.825037
Si Si3 0.131838 0.743631 0.856979
Si Si4 0.760766 0.608405 0.958149
Si Si5 0.876212 0.695796 0.531409
Si Si6 0.780730 0.895502 0.676780
Si Si7 0.548581 0.806827 0.749981
O O1 0.445394 0.500000 0.330243
O O2 0.426864 0.299749 0.338689
O O3 0.500000 0.402459 0.000000
O O4 0.627291 0.384527 0.153726
O O5 0.256169 0.892597 0.078503
O O6 0.314495 0.000000 0.757972
O O7 0.229698 0.824720 0.782832
O O8 0.443194 0.852624 0.733237
O O9 0.136103 0.684328 0.669431
O O10 0.157124 0.673768 0.997855
O O11 0.000000 0.784131 0.000000
O O12 0.795370 0.500000 0.927704
O O13 0.773341 0.648257 0.743990
O O14 0.866908 0.808549 0.565414
O O15 0.000000 0.661515 0.500000
O O16 0.662678 0.871494 0.671058
O O17 0.824926 0.000000 0.593553
O O18 0.500000 0.796834 0.000000
#
# Coordination Sequence:
#
# PCOD9147667 Si02
#       7
#     4   4   4   4   4   4   4
#     4   9  16  29  59  94 125 166 207 245 304 371
#     4  10  19  35  61  91 125 166 212 259 314 376
#     4  12  24  43  64  90 126 164 211 262 321 375
#     4  11  23  43  67  96 128 163 212 259 311 372
#     4  12  24  43  65  89 128 166 210 262 317 375
#     4  10  20  36  62  94 127 169 213 258 315 374
#     4   9  15  30  57  89 130 162 209 254 308 370
#
# _framework density 23.500119000000002
#
# number of rings (size 3 to 8) (size 9 to 14) (size 15 to 20)
#    0.000    1.571    4.286    2.143    0.000    4.000 
#    0.000    0.714    0.000    1.714    0.000    6.000 
#    0.000    0.000    0.000    0.000    0.000    0.000 
#
# Total GULP energy -156682.957692 kJ/mol
# GULP energy per Si atom -5595.819918 kJ/mol
# Density = 2.344663 g / cm^3
# Si number density = 23.500119 Si / 1000 Ang^3
#
#
#
# Elastic Constant Matrix: (Units=GPa)
#
#
# Indices 1 2 3 4 5 6 
#
# 1 117.9859 16.6450 11.0183 0.0000 5.5009 0.0000
# 2 16.6450 112.2733 -0.4259 0.0000 8.3465 0.0000
# 3 11.0183 -0.4259 60.1038 0.0000 21.5558 0.0000
# 4 0.0000 0.0000 0.0000 -124.2658 0.0000 -36.7150
# 5 5.5009 8.3465 21.5558 0.0000 19.7838 0.0000
# 6 0.0000 0.0000 0.0000 -36.7150 0.0000 2.5196
#
#
#
# Elastic Compliance Matrix: (Units=1/GPa)
#
#
# Indices 1 2 3 4 5 6 
#
# 1 0.008813 -0.001296 -0.001546 0.000000 -0.000219 0.000000
# 2 -0.001296 0.009600 0.002674 0.000000 -0.006603 0.000000
# 3 -0.001546 0.002674 0.028217 0.000000 -0.031442 0.000000
# 4 0.000000 0.000000 0.000000 -0.001517 0.000000 -0.022103
# 5 -0.000219 -0.006603 -0.031442 0.000000 0.087651 0.000000
# 6 0.000000 0.000000 0.000000 -0.022103 0.000000 0.074810
#
#
# Mechanical properties :
#
#
# Convention : Reuss Voigt Hill
#
# Bulk Modulus (GPa) = 21.60190 38.31533 29.95862
# Shear Modulus (GPa) = 22.38717 -2.85078 9.76820
#
# Velocity S-wave (km/s) = 3.08984 -1.10260 2.04100
# Velocity P-wave (km/s) = 4.68419 3.83650 4.28138
#
# Compressibility (1/GPa) = 0.04629222
#
# Stress axis : x y z
#
# Youngs Moduli (GPa) = 113.46801 104.16666 35.43993
#
# Poissons Ratio (x) = 0.13502 0.05480
# Poissons Ratio (y) = 0.14707 -0.09476
# Poissons Ratio (z) = 0.17546 -0.27851
#
# Static dielectric constant tensor:
#      x y z
#    x 1.883250 0.000000 0.008910 
#    y 0.000000 1.851590 0.000000 
#    z 0.008910 0.000000 1.939530 
# 
# From -- ./inp_files/25178.got.cif
#   From: 2010.05.17/outbox.cif.g08.bks.cpg/sg10_13_cif.got.tgz:25178.got - 2010.06.03 11:33:40.
