data_PCOD9147985
_publ_section_title
;
Structure prediction by ZEFSAII (Michael W. Deem and Ramdas Pophale) SiO2 
 PCOD9147985
Probable space group: P 2/M
;
_chemical_formula_sum "Si O2"
_cell_formula_units_Z 32
_cell_length_a 11.155580
_cell_length_b 18.837212
_cell_length_c 8.249696
_cell_angle_alpha 90.000000
_cell_angle_beta 119.293598
_cell_angle_gamma 90.000000
_cell_volume 1511.906514
_symmetry_space_group_name_H-M "P 2/M"
_symmetry_group_IT_number 10
_symmetry_cell_setting 'monoclinic'
loop_
_space_group_symop_operation_xyz
x,y,z
-x,y,-z
-x,-y,-z
x,-y,z
loop_
_atom_site_type_symbol
_atom_site_label
_atom_site_fract_x
_atom_site_fract_y
_atom_site_fract_z
Si Si1 0.639939 0.228606 0.393937
Si Si2 0.662238 0.578611 0.575270
Si Si3 0.647839 0.417135 0.173795
Si Si4 0.868478 0.685315 0.340923
Si Si5 0.925071 0.079824 0.282759
Si Si6 0.337510 0.277179 0.239693
Si Si7 0.914245 0.217779 0.095636
Si Si8 0.618165 0.078592 0.212006
O O1 0.762206 0.267059 0.376631
O O2 0.496208 0.272693 0.287377
O O3 0.674017 0.229760 0.605907
O O4 0.615491 0.148529 0.319789
O O5 0.500000 0.574652 0.500000
O O6 0.721387 0.500000 0.651856
O O7 0.670093 0.589836 0.384890
O O8 0.705195 0.644834 0.718258
O O9 0.663551 0.500000 0.145829
O O10 0.768270 0.368955 0.182747
O O11 0.500000 0.396264 0.000000
O O12 0.948122 0.739340 0.278090
O O13 0.000000 0.643977 0.500000
O O14 0.944908 0.136590 0.155795
O O15 0.764283 0.079559 0.218514
O O16 0.000000 0.100367 0.500000
O O17 0.970506 0.000000 0.271563
O O18 0.242130 0.239417 0.045642
O O19 0.000000 0.242667 0.000000
O O20 0.605720 0.000000 0.283413
O O21 0.500000 0.084303 0.000000
#
# Coordination Sequence:
#
# PCOD9147985 Si02
#       8
#     4   4   4   4   4   4   4   4
#     4  11  22  39  65  91 130 165 221 264 324 394
#     4  10  19  37  63  90 127 163 205 267 329 378
#     4  10  23  41  68 100 125 164 224 279 323 387
#     4  12  25  41  66  92 131 176 213 269 333 391
#     4  10  22  43  70  95 123 170 220 267 328 392
#     4  11  23  40  60 100 130 168 215 269 323 392
#     4  12  27  40  63  94 136 169 217 272 324 388
#     4  10  21  38  63  92 122 162 216 267 320 381
#
# _framework density 21.165329
#
# number of rings (size 3 to 8) (size 9 to 14) (size 15 to 20)
#    0.000    1.250    3.750    1.875    5.250    0.500 
#    0.000    1.875    0.000    0.750    0.000    0.000 
#    0.000    0.000    0.000    0.000    0.000    0.000 
#
# Total GULP energy -178517.185810 kJ/mol
# GULP energy per Si atom -5578.662057 kJ/mol
# Density = 2.111716 g / cm^3
# Si number density = 21.165329 Si / 1000 Ang^3
#
#
#
# Elastic Constant Matrix: (Units=GPa)
#
#
# Indices 1 2 3 4 5 6 
#
# 1 74.6583 17.2392 13.1529 0.0000 0.4826 0.0000
# 2 17.2392 140.3220 21.9033 0.0000 -3.7134 0.0000
# 3 13.1529 21.9033 51.8070 0.0000 23.4500 0.0000
# 4 0.0000 0.0000 0.0000 35.0719 0.0000 -3.0764
# 5 0.4826 -3.7134 23.4500 0.0000 32.1956 0.0000
# 6 0.0000 0.0000 0.0000 -3.0764 0.0000 8.6534
#
#
#
# Elastic Compliance Matrix: (Units=1/GPa)
#
#
# Indices 1 2 3 4 5 6 
#
# 1 0.014413 -0.000968 -0.004627 0.000000 0.003043 0.000000
# 2 -0.000968 0.008231 -0.005476 0.000000 0.004952 0.000000
# 3 -0.004627 -0.005476 0.034382 0.000000 -0.025605 0.000000
# 4 0.000000 0.000000 0.000000 0.029431 0.000000 0.010463
# 5 0.003043 0.004952 -0.025605 0.000000 0.050235 0.000000
# 6 0.000000 0.000000 0.000000 0.010463 0.000000 0.119281
#
#
# Mechanical properties :
#
#
# Convention : Reuss Voigt Hill
#
# Bulk Modulus (GPa) = 28.66611 41.26424 34.96517
# Shear Modulus (GPa) = 17.25660 29.48365 23.37012
#
# Velocity S-wave (km/s) = 2.85849 3.73636 3.32651
# Velocity P-wave (km/s) = 4.94650 6.17676 5.59554
#
# Compressibility (1/GPa) = 0.03488440
#
# Stress axis : x y z
#
# Youngs Moduli (GPa) = 69.37982 121.48918 29.08481
#
# Poissons Ratio (x) = 0.11759 0.13459
# Poissons Ratio (y) = 0.06716 0.15927
# Poissons Ratio (z) = 0.32104 0.66526
#
# Static dielectric constant tensor:
#      x y z
#    x 1.777780 0.000000 -0.002130 
#    y 0.000000 1.817840 0.000000 
#    z -0.002130 0.000000 1.822910 
# 
# From -- ./inp_files/26093.got.cif
#   From: 2010.05.17/outbox.cif.g08.bks.cpg/sg10_14_cif.got.tgz:26093.got - 2010.06.03 11:33:40.
