data_PCOD9147124
_publ_section_title
;
Structure prediction by ZEFSAII (Michael W. Deem and Ramdas Pophale) SiO2 
 PCOD9147124
Probable space group: P 2/M
;
_chemical_formula_sum "Si O2"
_cell_formula_units_Z 28
_cell_length_a 9.557069
_cell_length_b 8.601169
_cell_length_c 30.071602
_cell_angle_alpha 90.000000
_cell_angle_beta 142.439163
_cell_angle_gamma 90.000000
_cell_volume 1506.906131
_symmetry_space_group_name_H-M "P 2/M"
_symmetry_group_IT_number 10
_symmetry_cell_setting 'monoclinic'
loop_
_space_group_symop_operation_xyz
x,y,z
-x,y,-z
-x,-y,-z
x,-y,z
loop_
_atom_site_type_symbol
_atom_site_label
_atom_site_fract_x
_atom_site_fract_y
_atom_site_fract_z
Si Si1 0.416021 0.689543 0.430253
Si Si2 0.586882 0.814848 0.296206
Si Si3 0.484183 0.813504 0.133461
Si Si4 0.325208 0.812375 0.994904
Si Si5 0.184109 0.315116 0.137435
Si Si6 0.733312 0.311810 0.427939
Si Si7 0.111413 0.313154 0.707708
O O1 0.500000 0.741797 0.500000
O O2 0.419190 0.500000 0.431595
O O3 0.585842 0.738496 0.433606
O O4 0.152987 0.736553 0.355745
O O5 0.342408 0.757629 0.215833
O O6 0.633343 0.756717 0.357426
O O7 0.775375 0.744198 0.309835
O O8 0.597631 0.000000 0.296422
O O9 0.294275 0.745279 0.119088
O O10 0.727733 0.752678 0.212772
O O11 0.480269 0.000000 0.136087
O O12 0.426863 0.769060 0.068651
O O13 0.077443 0.737574 0.925612
O O14 0.298922 0.000000 0.987665
O O15 0.500000 0.768213 0.000000
O O16 0.204257 0.500000 0.144244
O O17 0.723206 0.500000 0.422804
O O18 0.000000 0.267550 0.500000
O O19 0.121714 0.500000 0.711102
#
# Coordination Sequence:
#
# PCOD9147124 Si02
#       7
#     4   4   4   4   4   4   4
#     4   9  18  33  55  83 111 142 181 225 273 323
#     4  11  22  37  57  81 112 146 184 226 272 329
#     4  10  20  36  58  81 109 145 183 222 271 331
#     4  10  22  39  57  80 113 150 184 222 274 331
#     4  11  22  37  59  84 110 142 185 231 275 324
#     4  10  20  36  59  84 112 146 184 227 275 326
#     4  10  19  34  57  82 109 140 181 230 276 324
#
# _framework density 18.581119000000001
#
# number of rings (size 3 to 8) (size 9 to 14) (size 15 to 20)
#    0.000    1.857    0.000    6.429    0.000    6.857 
#    0.000    4.286    0.000    3.000    0.000    0.000 
#    0.000    0.000    0.000    0.000    0.000    0.000 
#
# Total GULP energy -156454.703906 kJ/mol
# GULP energy per Si atom -5587.667997 kJ/mol
# Density = 1.853883 g / cm^3
# Si number density = 18.581119 Si / 1000 Ang^3
#
#
#
# Elastic Constant Matrix: (Units=GPa)
#
#
# Indices 1 2 3 4 5 6 
#
# 1 133.6007 32.3204 114.0507 0.0000 7.5962 0.0000
# 2 32.3204 44.6440 31.8526 0.0000 1.9328 0.0000
# 3 114.0507 31.8526 138.7451 0.0000 1.9501 0.0000
# 4 0.0000 0.0000 0.0000 42.9827 0.0000 10.4425
# 5 7.5962 1.9328 1.9501 0.0000 37.9737 0.0000
# 6 0.0000 0.0000 0.0000 10.4425 0.0000 31.9758
#
#
#
# Elastic Compliance Matrix: (Units=1/GPa)
#
#
# Indices 1 2 3 4 5 6 
#
# 1 0.026338 -0.004171 -0.020637 0.000000 -0.003997 0.000000
# 2 -0.004171 0.027489 -0.002877 0.000000 -0.000417 0.000000
# 3 -0.020637 -0.002877 0.024789 0.000000 0.003002 0.000000
# 4 0.000000 0.000000 0.000000 0.025270 0.000000 -0.008253
# 5 -0.003997 -0.000417 0.003002 0.000000 0.027001 0.000000
# 6 0.000000 0.000000 0.000000 -0.008253 0.000000 0.033969
#
#
# Mechanical properties :
#
#
# Convention : Reuss Voigt Hill
#
# Bulk Modulus (GPa) = 43.01317 74.82637 58.91977
# Shear Modulus (GPa) = 21.93239 31.83751 26.88495
#
# Velocity S-wave (km/s) = 3.43936 4.14385 3.80794
# Velocity P-wave (km/s) = 6.24271 7.95317 7.14928
#
# Compressibility (1/GPa) = 0.02324869
#
# Stress axis : x y z
#
# Youngs Moduli (GPa) = 37.96800 36.37776 40.34008
#
# Poissons Ratio (x) = 0.15172 0.83248
# Poissons Ratio (y) = 0.15836 0.11604
# Poissons Ratio (z) = 0.78353 0.10464
#
# Static dielectric constant tensor:
#      x y z
#    x 1.616210 0.000000 0.001570 
#    y 0.000000 1.629250 0.000000 
#    z 0.001570 0.000000 1.620410 
# 
# From -- ./inp_files/91960.got.cif
#   From: 2010.05.17/outbox.cif.g08.bks.cpg/sg10_46_cif.got.tgz:91960.got - 2010.06.03 11:33:40.
