data_PCOD9147083
_publ_section_title
;
Structure prediction by ZEFSAII (Michael W. Deem and Ramdas Pophale) SiO2 
 PCOD9147083
Probable space group: P 2/M
;
_chemical_formula_sum "Si O2"
_cell_formula_units_Z 26
_cell_length_a 8.681636
_cell_length_b 21.246245
_cell_length_c 7.457620
_cell_angle_alpha 90.000000
_cell_angle_beta 61.318322
_cell_angle_gamma 90.000000
_cell_volume 1206.790775
_symmetry_space_group_name_H-M "P 2/M"
_symmetry_group_IT_number 10
_symmetry_cell_setting 'monoclinic'
loop_
_space_group_symop_operation_xyz
x,y,z
-x,y,-z
-x,-y,-z
x,-y,z
loop_
_atom_site_type_symbol
_atom_site_label
_atom_site_fract_x
_atom_site_fract_y
_atom_site_fract_z
Si Si1 0.500000 0.599933 0.000000
Si Si2 0.771067 0.299025 0.954478
Si Si3 0.161084 0.302679 0.659958
Si Si4 0.706524 0.168132 0.373249
Si Si5 0.004835 0.071961 0.777501
Si Si6 0.691674 0.838574 0.953568
Si Si7 0.793361 0.568332 0.551981
O O1 0.371038 0.646738 0.968888
O O2 0.357807 0.566935 0.209534
O O3 0.705508 0.234985 0.899022
O O4 0.952915 0.311223 0.750306
O O5 0.813375 0.296281 0.141000
O O6 0.232692 0.233431 0.566298
O O7 0.242524 0.366458 0.534536
O O8 0.500000 0.160831 0.500000
O O9 0.821336 0.109836 0.375688
O O10 0.730237 0.166959 0.144794
O O11 0.841577 0.114294 0.804389
O O12 0.998972 0.000000 0.720271
O O13 0.000000 0.070065 0.000000
O O14 0.500000 0.860858 0.000000
O O15 0.778216 0.500000 0.463101
O O16 0.000000 0.570231 0.500000
#
# Coordination Sequence:
#
# PCOD9147083 Si02
#       7
#     2   4   4   4   4   4   4
#     4  12  23  40  66  96 117 160 208 260 305 368
#     4  10  20  36  62  91 121 154 207 258 305 356
#     4  10  21  40  60  88 122 162 203 254 304 369
#     4  10  21  35  58  88 117 155 201 250 295 358
#     4   9  18  35  57  82 119 163 200 240 298 361
#     4  10  19  34  56  87 118 153 201 250 301 355
#     4  11  25  44  63  90 127 164 201 253 314 371
#
# _framework density 21.544746
#
# number of rings (size 3 to 8) (size 9 to 14) (size 15 to 20)
#    0.000    1.846    3.846    0.231    4.308    0.615 
#    0.000    4.615    0.000    0.923    0.000    0.000 
#    0.000    0.000    0.000    0.000    0.000    0.000 
#
# Total GULP energy -144780.307143 kJ/mol
# GULP energy per Si atom -5568.473352 kJ/mol
# Density = 2.149571 g / cm^3
# Si number density = 21.544746 Si / 1000 Ang^3
#
#
#
# Elastic Constant Matrix: (Units=GPa)
#
#
# Indices 1 2 3 4 5 6 
#
# 1 76.5240 43.0335 30.5865 0.0000 -31.0471 0.0000
# 2 43.0335 191.7849 57.4067 0.0000 -27.3115 0.0000
# 3 30.5865 57.4067 89.3269 0.0000 -23.3939 0.0000
# 4 0.0000 0.0000 0.0000 -19.5014 0.0000 18.3254
# 5 -31.0471 -27.3115 -23.3939 0.0000 45.6804 0.0000
# 6 0.0000 0.0000 0.0000 18.3254 0.0000 9.3211
#
#
#
# Elastic Compliance Matrix: (Units=1/GPa)
#
#
# Indices 1 2 3 4 5 6 
#
# 1 0.019650 -0.002110 -0.002546 0.000000 0.010789 0.000000
# 2 -0.002110 0.006846 -0.003442 0.000000 0.000896 0.000000
# 3 -0.002546 -0.003442 0.015345 0.000000 0.004070 0.000000
# 4 0.000000 0.000000 0.000000 -0.018008 0.000000 0.035405
# 5 0.010789 0.000896 0.004070 0.000000 0.031844 0.000000
# 6 0.000000 0.000000 0.000000 0.035405 0.000000 0.037677
#
#
# Mechanical properties :
#
#
# Convention : Reuss Voigt Hill
#
# Bulk Modulus (GPa) = 38.99840 68.85437 53.92638
# Shear Modulus (GPa) = 42.33770 22.20729 32.27249
#
# Velocity S-wave (km/s) = 4.43776 3.21402 3.87451
# Velocity P-wave (km/s) = 6.66323 6.76767 6.71566
#
# Compressibility (1/GPa) = 0.02564208
#
# Stress axis : x y z
#
# Youngs Moduli (GPa) = 50.89109 146.07890 65.16907
#
# Poissons Ratio (x) = 0.30829 0.16595
# Poissons Ratio (y) = 0.10740 0.22432
# Poissons Ratio (z) = 0.12959 0.50283
#
# Static dielectric constant tensor:
#      x y z
#    x 1.873330 0.000000 0.060290 
#    y 0.000000 1.805940 0.000000 
#    z 0.060290 0.000000 1.794190 
# 
# From -- ./inp_files/20439.got.cif
#   From: 2010.05.17/outbox.cif.g08.bks.cpg/sg10_11_cif.got.tgz:20439.got - 2010.06.03 11:33:40.
