data_PCOD9147648
_publ_section_title
;
Structure prediction by ZEFSAII (Michael W. Deem and Ramdas Pophale) SiO2 
 PCOD9147648
Probable space group: P 2/M
;
_chemical_formula_sum "Si O2"
_cell_formula_units_Z 32
_cell_length_a 12.784976
_cell_length_b 7.494193
_cell_length_c 30.363912
_cell_angle_alpha 90.000000
_cell_angle_beta 150.926036
_cell_angle_gamma 90.000000
_cell_volume 1413.720720
_symmetry_space_group_name_H-M "P 2/M"
_symmetry_group_IT_number 10
_symmetry_cell_setting 'monoclinic'
loop_
_space_group_symop_operation_xyz
x,y,z
-x,y,-z
-x,-y,-z
x,-y,z
loop_
_atom_site_type_symbol
_atom_site_label
_atom_site_fract_x
_atom_site_fract_y
_atom_site_fract_z
Si Si1 0.477692 0.789991 0.111759
Si Si2 0.984056 0.715566 0.603458
Si Si3 0.291474 0.715636 0.950590
Si Si4 0.613210 0.281566 0.400442
Si Si5 0.144165 0.294901 0.253352
Si Si6 0.960911 0.208309 0.276634
Si Si7 0.215980 0.298052 0.098981
Si Si8 0.596369 0.718335 0.293947
O O1 0.715453 0.721018 0.187005
O O2 0.378961 0.697277 0.117840
O O3 0.496361 0.000000 0.128870
O O4 0.325933 0.765316 0.013845
O O5 0.986706 0.500000 0.603731
O O6 0.796964 0.777397 0.501794
O O7 0.952254 0.770697 0.642111
O O8 0.215056 0.776503 0.669699
O O9 0.291400 0.500000 0.947334
O O10 0.068115 0.783077 0.847979
O O11 0.500000 0.779900 0.000000
O O12 0.617062 0.500000 0.403174
O O13 0.376440 0.218125 0.327472
O O14 0.651379 0.230201 0.363907
O O15 0.154545 0.500000 0.241770
O O16 0.099356 0.293385 0.288965
O O17 0.949714 0.000000 0.261482
O O18 0.154715 0.500000 0.090262
O O19 0.360815 0.219325 0.191314
O O20 0.000000 0.211333 0.000000
O O21 0.589767 0.500000 0.290038
#
# Coordination Sequence:
#
# PCOD9147648 Si02
#       8
#     4   4   4   4   4   4   4   4
#     4  11  23  37  55  79 113 152 188 230 276 334
#     4  10  19  35  61  86 109 143 189 236 280 336
#     4  10  20  34  56  82 108 142 184 227 275 332
#     4   9  19  34  56  87 115 142 182 235 291 333
#     4  10  21  37  58  84 115 147 184 235 283 334
#     4  11  23  38  57  81 114 152 191 234 279 332
#     4  10  21  35  57  87 115 144 182 230 281 334
#     4   9  17  32  56  86 115 142 178 228 280 333
#
# _framework density 22.635304000000001
#
# number of rings (size 3 to 8) (size 9 to 14) (size 15 to 20)
#    0.000    2.000    2.500    1.125    1.750    4.000 
#    0.000    3.125    0.000    3.000    0.000    0.000 
#    0.000    0.000    0.000    0.000    0.000    0.000 
#
# Total GULP energy -178852.566279 kJ/mol
# GULP energy per Si atom -5589.142696 kJ/mol
# Density = 2.258379 g / cm^3
# Si number density = 22.635304 Si / 1000 Ang^3
#
#
#
# Elastic Constant Matrix: (Units=GPa)
#
#
# Indices 1 2 3 4 5 6 
#
# 1 50.0129 -14.4368 14.7777 0.0000 -18.6877 0.0000
# 2 -14.4368 67.8641 -0.7273 0.0000 6.5503 0.0000
# 3 14.7777 -0.7273 140.5032 0.0000 -23.2024 0.0000
# 4 0.0000 0.0000 0.0000 -58.1174 0.0000 134.6963
# 5 -18.6877 6.5503 -23.2024 0.0000 42.9303 0.0000
# 6 0.0000 0.0000 0.0000 134.6963 0.0000 -326.3685
#
#
#
# Elastic Compliance Matrix: (Units=1/GPa)
#
#
# Indices 1 2 3 4 5 6 
#
# 1 0.025213 0.004411 -0.001019 0.000000 0.009752 0.000000
# 2 0.004411 0.015741 -0.000507 0.000000 -0.000756 0.000000
# 3 -0.001019 -0.000507 0.007863 0.000000 0.003884 0.000000
# 4 0.000000 0.000000 0.000000 -0.395788 0.000000 -0.163347
# 5 0.009752 -0.000756 0.003884 0.000000 0.029753 0.000000
# 6 0.000000 0.000000 0.000000 -0.163347 0.000000 -0.070479
#
#
# Mechanical properties :
#
#
# Convention : Reuss Voigt Hill
#
# Bulk Modulus (GPa) = 18.31887 28.62303 23.47095
# Shear Modulus (GPa) = -13.32367 -51.06001 -32.19184
#
# Velocity S-wave (km/s) = -2.42879 -4.75465 -3.77529
# Velocity P-wave (km/s) = 0.49525 4.17965 2.93464
#
# Compressibility (1/GPa) = 0.05458851
#
# Stress axis : x y z
#
# Youngs Moduli (GPa) = 39.66203 63.52723 127.17565
#
# Poissons Ratio (x) = -0.28025 0.12954
# Poissons Ratio (y) = -0.17497 0.06451
# Poissons Ratio (z) = 0.04040 0.03223
#
# Static dielectric constant tensor:
#      x y z
#    x 1.785380 0.000000 0.005070 
#    y 0.000000 1.871630 0.000000 
#    z 0.005070 0.000000 1.840930 
# 
# From -- ./inp_files/55191.got.cif
#   From: 2010.05.17/outbox.cif.g08.bks.cpg/sg10_28_cif.got.tgz:55191.got - 2010.06.03 11:33:40.
