data_PCOD9147800
_publ_section_title
;
Structure prediction by ZEFSAII (Michael W. Deem and Ramdas Pophale) SiO2 
 PCOD9147800
Probable space group: P 2/M
;
_chemical_formula_sum "Si O2"
_cell_formula_units_Z 32
_cell_length_a 15.742766
_cell_length_b 7.630948
_cell_length_c 12.332324
_cell_angle_alpha 90.000000
_cell_angle_beta 89.681122
_cell_angle_gamma 90.000000
_cell_volume 1481.486623
_symmetry_space_group_name_H-M "P 2/M"
_symmetry_group_IT_number 10
_symmetry_cell_setting 'monoclinic'
loop_
_space_group_symop_operation_xyz
x,y,z
-x,y,-z
-x,-y,-z
x,-y,z
loop_
_atom_site_type_symbol
_atom_site_label
_atom_site_fract_x
_atom_site_fract_y
_atom_site_fract_z
Si Si1 0.254358 0.707724 0.413207
Si Si2 0.340858 0.212906 0.772115
Si Si3 0.094170 0.297910 0.014886
Si Si4 0.851478 0.211280 0.222386
Si Si5 0.583175 0.793040 0.444492
Si Si6 0.598251 0.211587 0.995524
Si Si7 0.247841 0.710000 0.165072
Si Si8 0.913776 0.211819 0.447367
O O1 0.266536 0.500000 0.406214
O O2 0.334534 0.778154 0.479931
O O3 0.249178 0.775979 0.289194
O O4 0.168357 0.741899 0.480853
O O5 0.244450 0.252656 0.743537
O O6 0.398773 0.280668 0.674876
O O7 0.361455 0.275377 0.891930
O O8 0.347539 0.000000 0.775543
O O9 0.080590 0.500000 0.049849
O O10 0.166305 0.222689 0.095563
O O11 0.131351 0.292476 0.893822
O O12 0.000000 0.216430 0.000000
O O13 0.907744 0.271148 0.322731
O O14 0.858952 0.000000 0.209889
O O15 0.500000 0.715621 0.500000
O O16 0.567665 0.000000 0.428116
O O17 0.595566 0.000000 0.995849
O O18 0.500000 0.271713 0.000000
O O19 0.663140 0.257322 0.898230
O O20 0.238241 0.500000 0.169037
O O21 0.000000 0.276911 0.500000
O O22 0.915872 0.000000 0.443690
#
# Coordination Sequence:
#
# PCOD9147800 Si02
#       8
#     4   4   4   4   4   4   4   4
#     4  11  24  40  58  83 120 157 192 239 288 343
#     4   9  17  34  56  83 114 140 179 238 286 325
#     4  10  22  39  59  82 112 152 194 233 280 341
#     4  10  19  36  60  84 113 143 183 241 289 332
#     4  10  21  38  63  88 115 154 194 236 289 343
#     4  10  21  36  59  87 112 143 188 236 281 336
#     4  10  23  41  56  79 118 156 190 233 284 338
#     4  10  22  40  61  86 116 151 192 240 291 345
#
# _framework density 21.599924999999999
#
# number of rings (size 3 to 8) (size 9 to 14) (size 15 to 20)
#    0.000    2.000    2.500    0.375    3.500    2.500 
#    0.000    0.625    0.000    0.000    0.000    0.000 
#    0.000    0.000    0.000    0.000    0.000    0.000 
#
# Total GULP energy -178620.104669 kJ/mol
# GULP energy per Si atom -5581.878271 kJ/mol
# Density = 2.155076 g / cm^3
# Si number density = 21.599925 Si / 1000 Ang^3
#
#
#
# Elastic Constant Matrix: (Units=GPa)
#
#
# Indices 1 2 3 4 5 6 
#
# 1 65.2061 -18.2656 -8.7952 0.0000 -10.7105 0.0000
# 2 -18.2656 37.6120 -18.7860 0.0000 -2.4777 0.0000
# 3 -8.7952 -18.7860 94.5999 0.0000 -7.9613 0.0000
# 4 0.0000 0.0000 0.0000 22.9363 0.0000 2.3190
# 5 -10.7105 -2.4777 -7.9613 0.0000 34.2879 0.0000
# 6 0.0000 0.0000 0.0000 2.3190 0.0000 27.9592
#
#
#
# Elastic Compliance Matrix: (Units=1/GPa)
#
#
# Indices 1 2 3 4 5 6 
#
# 1 0.021377 0.013696 0.005459 0.000000 0.008935 0.000000
# 2 0.013696 0.038723 0.009749 0.000000 0.009340 0.000000
# 3 0.005459 0.009749 0.013481 0.000000 0.005540 0.000000
# 4 0.000000 0.000000 0.000000 0.043968 0.000000 -0.003647
# 5 0.008935 0.009340 0.005540 0.000000 0.033917 0.000000
# 6 0.000000 0.000000 0.000000 -0.003647 0.000000 0.036069
#
#
# Mechanical properties :
#
#
# Convention : Reuss Voigt Hill
#
# Bulk Modulus (GPa) = 7.61088 11.74716 9.67902
# Shear Modulus (GPa) = 28.81491 33.25433 31.03462
#
# Velocity S-wave (km/s) = 3.65640 3.92798 3.79462
# Velocity P-wave (km/s) = 4.62135 5.10121 4.86720
#
# Compressibility (1/GPa) = 0.13139081
#
# Stress axis : x y z
#
# Youngs Moduli (GPa) = 46.78010 25.82415 74.18030
#
# Poissons Ratio (x) = -0.35370 -0.40497
# Poissons Ratio (y) = -0.64072 -0.72321
# Poissons Ratio (z) = -0.25538 -0.25177
#
# Static dielectric constant tensor:
#      x y z
#    x 1.792180 0.000000 0.007190 
#    y 0.000000 1.822480 0.000000 
#    z 0.007190 0.000000 1.777260 
# 
# From -- ./inp_files/49276.got.cif
#   From: 2010.05.17/outbox.cif.g08.bks.cpg/sg10_25_cif.got.tgz:49276.got - 2010.06.03 11:33:40.
