data_PCOD9147158
_publ_section_title
;
Structure prediction by ZEFSAII (Michael W. Deem and Ramdas Pophale) SiO2 
 PCOD9147158
Probable space group: P 2/M
;
_chemical_formula_sum "Si O2"
_cell_formula_units_Z 32
_cell_length_a 12.859991
_cell_length_b 13.042118
_cell_length_c 10.585626
_cell_angle_alpha 90.000000
_cell_angle_beta 72.633982
_cell_angle_gamma 90.000000
_cell_volume 1694.508451
_symmetry_space_group_name_H-M "P 2/M"
_symmetry_group_IT_number 10
_symmetry_cell_setting 'monoclinic'
loop_
_space_group_symop_operation_xyz
x,y,z
-x,y,-z
-x,-y,-z
x,-y,z
loop_
_atom_site_type_symbol
_atom_site_label
_atom_site_fract_x
_atom_site_fract_y
_atom_site_fract_z
Si Si1 0.277438 0.615752 0.254251
Si Si2 0.470103 0.730077 0.262560
Si Si3 0.101410 0.222424 0.384798
Si Si4 0.969915 0.880469 0.839075
Si Si5 0.691437 0.884619 0.611495
Si Si6 0.671407 0.621830 0.059304
Si Si7 0.622895 0.116674 0.344158
Si Si8 0.820596 0.801469 0.107424
O O1 0.245910 0.500000 0.288300
O O2 0.375109 0.645971 0.315494
O O3 0.172599 0.686580 0.302269
O O4 0.320581 0.626573 0.095252
O O5 0.386724 0.823762 0.262494
O O6 0.558664 0.676464 0.141302
O O7 0.543829 0.788657 0.338837
O O8 0.059522 0.146602 0.292198
O O9 0.188939 0.162443 0.436569
O O10 0.000000 0.261204 0.500000
O O11 0.069830 0.807815 0.847451
O O12 0.000428 0.000000 0.843791
O O13 0.864804 0.855569 0.964086
O O14 0.649330 0.880014 0.482789
O O15 0.697453 0.000000 0.651893
O O16 0.674419 0.500000 0.093374
O O17 0.767196 0.691688 0.088150
O O18 0.728414 0.136652 0.218071
O O19 0.580684 0.000000 0.333059
#
# Coordination Sequence:
#
# PCOD9147158 Si02
#       8
#     4   4   4   4   4   4   4   4
#     4  10  21  40  61  82 112 151 194 242 294 344
#     4  10  20  32  58  86 113 143 190 237 283 338
#     4  11  23  38  60  87 117 151 195 241 281 337
#     4  11  21  36  57  84 119 155 189 230 285 342
#     4  10  21  37  57  85 119 159 197 230 277 342
#     4  10  20  38  62  85 112 150 196 241 291 343
#     4  10  19  34  57  83 117 157 192 227 282 344
#     4  10  20  35  57  85 116 148 193 238 286 336
#
# _framework density 18.884532
#
# number of rings (size 3 to 8) (size 9 to 14) (size 15 to 20)
#    0.000    1.750    1.250    4.125    0.000    4.250 
#    0.000    1.875    0.000   41.250    0.000    0.000 
#    0.000    0.000    0.000    0.000    0.000    0.000 
#
# Total GULP energy -178146.973426 kJ/mol
# GULP energy per Si atom -5567.092920 kJ/mol
# Density = 1.884155 g / cm^3
# Si number density = 18.884532 Si / 1000 Ang^3
#
#
#
# Elastic Constant Matrix: (Units=GPa)
#
#
# Indices 1 2 3 4 5 6 
#
# 1 85.4182 41.3849 21.0151 0.0000 -15.2697 0.0000
# 2 41.3849 123.6520 25.4111 0.0000 -4.2385 0.0000
# 3 21.0151 25.4111 53.6930 0.0000 -15.9133 0.0000
# 4 0.0000 0.0000 0.0000 11.0745 0.0000 6.3240
# 5 -15.2697 -4.2385 -15.9133 0.0000 29.0751 0.0000
# 6 0.0000 0.0000 0.0000 6.3240 0.0000 13.4087
#
#
#
# Elastic Compliance Matrix: (Units=1/GPa)
#
#
# Indices 1 2 3 4 5 6 
#
# 1 0.015566 -0.004573 -0.002033 0.000000 0.006396 0.000000
# 2 -0.004573 0.010338 -0.004020 0.000000 -0.003095 0.000000
# 3 -0.002033 -0.004020 0.024866 0.000000 0.011956 0.000000
# 4 0.000000 0.000000 0.000000 0.123580 0.000000 -0.058285
# 5 0.006396 -0.003095 0.011956 0.000000 0.043845 0.000000
# 6 0.000000 0.000000 0.000000 -0.058285 0.000000 0.102067
#
#
# Mechanical properties :
#
#
# Convention : Reuss Voigt Hill
#
# Bulk Modulus (GPa) = 33.87669 48.70949 41.29309
# Shear Modulus (GPa) = 14.23071 22.37515 18.30293
#
# Velocity S-wave (km/s) = 2.74809 3.44589 3.11658
# Velocity P-wave (km/s) = 5.29595 6.45612 5.90460
#
# Compressibility (1/GPa) = 0.02951883
#
# Stress axis : x y z
#
# Youngs Moduli (GPa) = 64.24226 96.73310 40.21562
#
# Poissons Ratio (x) = 0.44234 0.08175
# Poissons Ratio (y) = 0.29377 0.16166
# Poissons Ratio (z) = 0.13059 0.38886
#
# Static dielectric constant tensor:
#      x y z
#    x 1.682290 0.000000 0.001540 
#    y 0.000000 1.664610 0.000000 
#    z 0.001540 0.000000 1.663240 
# 
# From -- ./inp_files/46985.got.cif
#   From: 2010.05.17/outbox.cif.g08.bks.cpg/sg10_24_cif.got.tgz:46985.got - 2010.06.03 11:33:40.
