data_PCOD9147764
_publ_section_title
;
Structure prediction by ZEFSAII (Michael W. Deem and Ramdas Pophale) SiO2 
 PCOD9147764
Probable space group: P 2/M
;
_chemical_formula_sum "Si O2"
_cell_formula_units_Z 32
_cell_length_a 16.071616
_cell_length_b 20.310084
_cell_length_c 16.473811
_cell_angle_alpha 90.000000
_cell_angle_beta 18.492308
_cell_angle_gamma 90.000000
_cell_volume 1705.561952
_symmetry_space_group_name_H-M "P 2/M"
_symmetry_group_IT_number 10
_symmetry_cell_setting 'monoclinic'
loop_
_space_group_symop_operation_xyz
x,y,z
-x,y,-z
-x,-y,-z
x,-y,z
loop_
_atom_site_type_symbol
_atom_site_label
_atom_site_fract_x
_atom_site_fract_y
_atom_site_fract_z
Si Si1 0.550182 0.898933 0.665169
Si Si2 0.276801 0.074278 0.756875
Si Si3 0.412051 0.253187 0.390670
Si Si4 0.837554 0.296825 0.865145
Si Si5 0.542655 0.378884 0.555383
Si Si6 0.882539 0.576254 0.917748
Si Si7 0.790754 0.801666 0.764825
Si Si8 0.874511 0.075064 0.803754
O O1 0.379595 0.931368 0.752201
O O2 0.579628 0.824319 0.607601
O O3 0.845363 0.923439 0.408485
O O4 0.371023 0.907711 0.910655
O O5 0.500000 0.109495 0.500000
O O6 0.246450 0.000000 0.748924
O O7 0.000000 0.107821 0.000000
O O8 0.460355 0.300538 0.422519
O O9 0.128739 0.273274 0.618672
O O10 0.631754 0.268636 0.120358
O O11 0.779381 0.262593 0.833357
O O12 0.827958 0.374930 0.892259
O O13 0.500000 0.392343 0.500000
O O14 0.825662 0.406698 0.320333
O O15 0.321730 0.408406 0.820093
O O16 0.864434 0.500000 0.912645
O O17 0.879999 0.866218 0.733150
O O18 0.000000 0.791088 0.500000
O O19 0.500000 0.813949 0.000000
O O20 0.839967 0.000000 0.804618
#
# Coordination Sequence:
#
# PCOD9147764 Si02
#       8
#     4   4   4   4   4   4   4   4
#     4  12  21  39  62  81 111 156 203 242 293 352
#     4  10  21  35  50  74 106 140 186 241 288 329
#     4  10  19  36  59  79 110 156 198 241 281 331
#     4  10  20  40  59  85 116 147 195 238 272 347
#     4  10  21  34  53  86 126 159 200 247 286 333
#     4  10  21  36  60  86 117 165 200 234 288 338
#     4  12  24  40  65  90 116 150 188 231 303 364
#     4  12  25  40  61  89 118 152 193 241 296 364
#
# _framework density 18.762145
#
# number of rings (size 3 to 8) (size 9 to 14) (size 15 to 20)
#    0.000    1.250    2.500    4.125    0.000    3.500 
#    0.000    2.500    0.000    0.750    0.000    0.000 
#    0.000    0.000    0.000    0.000    0.000    0.000 
#
# Total GULP energy -178524.599753 kJ/mol
# GULP energy per Si atom -5578.893742 kJ/mol
# Density = 1.871944 g / cm^3
# Si number density = 18.762145 Si / 1000 Ang^3
#
#
#
# Elastic Constant Matrix: (Units=GPa)
#
#
# Indices 1 2 3 4 5 6 
#
# 1 77.3177 36.5426 26.2852 0.0000 0.3638 0.0000
# 2 36.5426 153.6540 21.1273 0.0000 5.1199 0.0000
# 3 26.2852 21.1273 146.4865 0.0000 -8.6013 0.0000
# 4 0.0000 0.0000 0.0000 -0.5049 0.0000 -17.5874
# 5 0.3638 5.1199 -8.6013 0.0000 33.8052 0.0000
# 6 0.0000 0.0000 0.0000 -17.5874 0.0000 4.3320
#
#
#
# Elastic Compliance Matrix: (Units=1/GPa)
#
#
# Indices 1 2 3 4 5 6 
#
# 1 0.015274 -0.003311 -0.002277 0.000000 -0.000242 0.000000
# 2 -0.003311 0.007412 -0.000547 0.000000 -0.001226 0.000000
# 3 -0.002277 -0.000547 0.007431 0.000000 0.001998 0.000000
# 4 0.000000 0.000000 0.000000 -0.013907 0.000000 -0.056460
# 5 -0.000242 -0.001226 0.001998 0.000000 0.030278 0.000000
# 6 0.000000 0.000000 0.000000 -0.056460 0.000000 0.001621
#
#
# Mechanical properties :
#
#
# Convention : Reuss Voigt Hill
#
# Bulk Modulus (GPa) = 56.03446 60.59648 58.31547
# Shear Modulus (GPa) = 75.38208 27.09333 51.23771
#
# Velocity S-wave (km/s) = 6.34547 3.80418 5.23148
# Velocity P-wave (km/s) = 9.14424 7.18770 8.22436
#
# Compressibility (1/GPa) = 0.01784616
#
# Stress axis : x y z
#
# Youngs Moduli (GPa) = 65.47049 134.92224 134.56415
#
# Poissons Ratio (x) = 0.44677 0.30645
# Poissons Ratio (y) = 0.21679 0.07358
# Poissons Ratio (z) = 0.14910 0.07377
#
# Static dielectric constant tensor:
#      x y z
#    x 1.635130 0.000000 0.004630 
#    y 0.000000 1.677960 0.000000 
#    z 0.004630 0.000000 1.648370 
# 
# From -- ./inp_files/67916.got.cif
#   From: 2010.05.17/outbox.cif.g08.bks.cpg/sg10_34_cif.got.tgz:67916.got - 2010.06.03 11:33:40.
