data_PCOD9147366
_publ_section_title
;
Structure prediction by ZEFSAII (Michael W. Deem and Ramdas Pophale) SiO2 
 PCOD9147366
Probable space group: P 2/M
;
_chemical_formula_sum "Si O2"
_cell_formula_units_Z 28
_cell_length_a 15.148371
_cell_length_b 7.892121
_cell_length_c 12.195290
_cell_angle_alpha 90.000000
_cell_angle_beta 71.197318
_cell_angle_gamma 90.000000
_cell_volume 1380.174435
_symmetry_space_group_name_H-M "P 2/M"
_symmetry_group_IT_number 10
_symmetry_cell_setting 'monoclinic'
loop_
_space_group_symop_operation_xyz
x,y,z
-x,y,-z
-x,-y,-z
x,-y,z
loop_
_atom_site_type_symbol
_atom_site_label
_atom_site_fract_x
_atom_site_fract_y
_atom_site_fract_z
Si Si1 0.668115 0.302180 0.604494
Si Si2 0.763165 0.197104 0.785686
Si Si3 0.601859 0.702185 0.012799
Si Si4 0.538551 0.698996 0.269786
Si Si5 0.302050 0.197958 0.645522
Si Si6 0.917758 0.792982 0.884822
Si Si7 0.125952 0.793193 0.853270
O O1 0.657138 0.500000 0.582320
O O2 0.730020 0.284278 0.687884
O O3 0.564861 0.229309 0.671964
O O4 0.709151 0.218840 0.479466
O O5 0.680599 0.212417 0.908134
O O6 0.855451 0.266059 0.808580
O O7 0.777768 0.000000 0.753730
O O8 0.621924 0.500000 0.003281
O O9 0.500000 0.726025 0.000000
O O10 0.592773 0.766856 0.141159
O O11 0.525078 0.500000 0.250430
O O12 0.602945 0.718631 0.349651
O O13 0.213872 0.267125 0.748521
O O14 0.310868 0.000000 0.667838
O O15 0.025805 0.740993 0.844195
O O16 0.915944 0.000000 0.884215
O O17 0.873265 0.741231 0.019521
O O18 0.126504 0.000000 0.851454
#
# Coordination Sequence:
#
# PCOD9147366 Si02
#       7
#     4   4   4   4   4   4   4
#     4  11  23  40  55  70 104 153 190 213 258 331
#     4  11  21  33  54  85 112 136 177 230 275 305
#     4  10  19  35  54  75 107 147 182 208 253 324
#     4  10  21  37  56  75 102 146 188 215 256 324
#     4  11  22  35  55  83 108 133 177 234 277 305
#     4   8  15  30  54  82 110 140 168 206 268 333
#     4   8  15  31  54  80 111 139 167 209 268 330
#
# _framework density 20.287289999999999
#
# number of rings (size 3 to 8) (size 9 to 14) (size 15 to 20)
#    0.000    2.143    1.429    3.429    0.000    4.857 
#    0.000    0.714    0.000    7.714    0.000   10.000 
#    0.000    0.000    0.000    0.000    0.000    0.000 
#
# Total GULP energy -156361.197600 kJ/mol
# GULP energy per Si atom -5584.328486 kJ/mol
# Density = 2.024112 g / cm^3
# Si number density = 20.287290 Si / 1000 Ang^3
#
#
#
# Elastic Constant Matrix: (Units=GPa)
#
#
# Indices 1 2 3 4 5 6 
#
# 1 108.3497 -5.7567 47.7330 0.0000 19.0554 0.0000
# 2 -5.7567 20.2507 -1.6801 0.0000 -3.5174 0.0000
# 3 47.7330 -1.6801 85.6891 0.0000 11.8389 0.0000
# 4 0.0000 0.0000 0.0000 23.2447 0.0000 3.6339
# 5 19.0554 -3.5174 11.8389 0.0000 20.4939 0.0000
# 6 0.0000 0.0000 0.0000 3.6339 0.0000 13.7424
#
#
#
# Elastic Compliance Matrix: (Units=1/GPa)
#
#
# Indices 1 2 3 4 5 6 
#
# 1 0.013667 0.001844 -0.006374 0.000000 -0.008709 0.000000
# 2 0.001844 0.051151 -0.001087 0.000000 0.007693 0.000000
# 3 -0.006374 -0.001087 0.015656 0.000000 -0.003304 0.000000
# 4 0.000000 0.000000 0.000000 0.044876 0.000000 -0.011866
# 5 -0.008709 0.007693 -0.003304 0.000000 0.060122 0.000000
# 6 0.000000 0.000000 0.000000 -0.011866 0.000000 0.075905
#
#
# Mechanical properties :
#
#
# Convention : Reuss Voigt Hill
#
# Bulk Modulus (GPa) = 14.44259 32.76465 23.60362
# Shear Modulus (GPa) = 16.90956 23.09575 20.00266
#
# Velocity S-wave (km/s) = 2.89018 3.37773 3.14342
# Velocity P-wave (km/s) = 4.27458 5.60334 4.98345
#
# Compressibility (1/GPa) = 0.06923968
#
# Stress axis : x y z
#
# Youngs Moduli (GPa) = 73.16936 19.54993 63.87417
#
# Poissons Ratio (x) = -0.03604 0.40712
# Poissons Ratio (y) = -0.13489 0.06943
# Poissons Ratio (z) = 0.46636 0.02125
#
# Static dielectric constant tensor:
#      x y z
#    x 1.713500 0.000000 -0.003060 
#    y 0.000000 1.733850 0.000000 
#    z -0.003060 0.000000 1.702860 
# 
# From -- ./inp_files/49073.got.cif
#   From: 2010.05.17/outbox.cif.g08.bks.cpg/sg10_25_cif.got.tgz:49073.got - 2010.06.03 11:33:40.
