data_PCOD9147672
_publ_section_title
;
Structure prediction by ZEFSAII (Michael W. Deem and Ramdas Pophale) SiO2 
 PCOD9147672
Probable space group: P 2/M
;
_chemical_formula_sum "Si O2"
_cell_formula_units_Z 30
_cell_length_a 10.880632
_cell_length_b 22.415672
_cell_length_c 10.997229
_cell_angle_alpha 90.000000
_cell_angle_beta 149.416761
_cell_angle_gamma 90.000000
_cell_volume 1364.669159
_symmetry_space_group_name_H-M "P 2/M"
_symmetry_group_IT_number 10
_symmetry_cell_setting 'monoclinic'
loop_
_space_group_symop_operation_xyz
x,y,z
-x,y,-z
-x,-y,-z
x,-y,z
loop_
_atom_site_type_symbol
_atom_site_label
_atom_site_fract_x
_atom_site_fract_y
_atom_site_fract_z
Si Si1 0.837761 0.569768 0.681402
Si Si2 0.183790 0.181261 0.830686
Si Si3 0.678269 0.387264 0.809521
Si Si4 0.707416 0.147185 0.540766
Si Si5 0.369587 0.065898 0.113892
Si Si6 0.728327 0.288575 0.269168
Si Si7 0.000000 0.903086 0.000000
Si Si8 0.421420 0.741152 0.232823
O O1 0.865821 0.500000 0.679738
O O2 0.602054 0.593702 0.406231
O O3 0.754808 0.579489 0.751067
O O4 0.107692 0.599291 0.910344
O O5 0.243303 0.221910 0.765901
O O6 0.910715 0.161170 0.613444
O O7 0.331358 0.120631 0.986691
O O8 0.228700 0.227581 0.979830
O O9 0.678904 0.316238 0.785152
O O10 0.580410 0.087889 0.382756
O O11 0.818520 0.136009 0.766467
O O12 0.538618 0.204304 0.401050
O O13 0.406782 0.000000 0.093659
O O14 0.142831 0.064375 0.013946
O O15 0.630737 0.282944 0.321393
O O16 0.000000 0.314613 0.500000
O O17 0.500000 0.316217 0.000000
#
# Coordination Sequence:
#
# PCOD9147672 Si02
#       8
#     4   4   4   4   4   4   2   4
#     4  10  20  39  57  80 123 171 206 239 281 333
#     4   9  20  37  56  80 111 152 186 238 319 368
#     4  10  20  33  55  85 116 159 204 244 279 341
#     4  10  20  36  52  76 113 153 189 240 302 365
#     4  10  21  37  56  79 106 145 202 253 293 361
#     4  10  19  35  62  83 110 153 188 238 307 375
#     4  10  21  36  52  76 104 154 195 228 312 362
#     4  10  21  35  55  86 119 146 196 246 301 357
#
# _framework density 21.983349
#
# number of rings (size 3 to 8) (size 9 to 14) (size 15 to 20)
#    0.000    2.133    1.333    2.600    1.867    3.200 
#   14.400    0.000    0.000   10.400    0.000    0.000 
#    0.000   77.867    0.000    0.000    0.000    0.000 
#
# Total GULP energy -167204.646775 kJ/mol
# GULP energy per Si atom -5573.488226 kJ/mol
# Density = 2.193331 g / cm^3
# Si number density = 21.983349 Si / 1000 Ang^3
#
#
#
# Elastic Constant Matrix: (Units=GPa)
#
#
# Indices 1 2 3 4 5 6 
#
# 1 37.4195 -15.9216 3.3027 0.0000 6.2351 0.0000
# 2 -15.9216 108.7294 30.5890 0.0000 -0.6540 0.0000
# 3 3.3027 30.5890 144.5925 0.0000 22.2937 0.0000
# 4 0.0000 0.0000 0.0000 -13.3099 0.0000 -15.1339
# 5 6.2351 -0.6540 22.2937 0.0000 31.8893 0.0000
# 6 0.0000 0.0000 0.0000 -15.1339 0.0000 -3.0747
#
#
#
# Elastic Compliance Matrix: (Units=1/GPa)
#
#
# Indices 1 2 3 4 5 6 
#
# 1 0.029580 0.004540 -0.000850 0.000000 -0.005096 0.000000
# 2 0.004540 0.010574 -0.002507 0.000000 0.001082 0.000000
# 3 -0.000850 -0.002507 0.008348 0.000000 -0.005721 0.000000
# 4 0.000000 0.000000 0.000000 0.016345 0.000000 -0.080452
# 5 -0.005096 0.001082 -0.005721 0.000000 0.036377 0.000000
# 6 0.000000 0.000000 0.000000 -0.080452 0.000000 0.070755
#
#
# Mechanical properties :
#
#
# Convention : Reuss Voigt Hill
#
# Bulk Modulus (GPa) = 19.65937 36.29794 27.97866
# Shear Modulus (GPa) = 26.79967 21.28570 24.04268
#
# Velocity S-wave (km/s) = 3.49533 3.11507 3.31067
# Velocity P-wave (km/s) = 5.02514 5.43007 5.23152
#
# Compressibility (1/GPa) = 0.05086632
#
# Stress axis : x y z
#
# Youngs Moduli (GPa) = 33.80663 94.57232 119.78922
#
# Poissons Ratio (x) = -0.42937 0.10187
# Poissons Ratio (y) = -0.15349 0.30037
# Poissons Ratio (z) = 0.02875 0.23714
#
# Static dielectric constant tensor:
#      x y z
#    x 1.829710 0.000000 0.057030 
#    y 0.000000 1.782350 0.000000 
#    z 0.057030 0.000000 1.896390 
# 
# From -- ./inp_files/48046.got.cif
#   From: 2010.05.17/outbox.cif.g08.bks.cpg/sg10_25_cif.got.tgz:48046.got - 2010.06.03 11:33:40.
