data_PCOD9147853
_publ_section_title
;
Structure prediction by ZEFSAII (Michael W. Deem and Ramdas Pophale) SiO2 
 PCOD9147853
Probable space group: P 2/M
;
_chemical_formula_sum "Si O2"
_cell_formula_units_Z 30
_cell_length_a 13.809498
_cell_length_b 20.306621
_cell_length_c 13.866218
_cell_angle_alpha 90.000000
_cell_angle_beta 158.689440
_cell_angle_gamma 90.000000
_cell_volume 1413.142368
_symmetry_space_group_name_H-M "P 2/M"
_symmetry_group_IT_number 10
_symmetry_cell_setting 'monoclinic'
loop_
_space_group_symop_operation_xyz
x,y,z
-x,y,-z
-x,-y,-z
x,-y,z
loop_
_atom_site_type_symbol
_atom_site_label
_atom_site_fract_x
_atom_site_fract_y
_atom_site_fract_z
Si Si1 0.955811 0.170324 0.569693
Si Si2 0.543112 0.744911 0.927647
Si Si3 0.243704 0.661831 0.051713
Si Si4 0.268255 0.578099 0.481244
Si Si5 0.215883 0.000000 0.285663
Si Si6 0.269080 0.421437 0.712990
Si Si7 0.865091 0.803641 0.976996
Si Si8 0.299867 0.872570 0.492226
O O1 0.746380 0.231219 0.376245
O O2 0.799243 0.118110 0.490321
O O3 0.000000 0.150121 0.500000
O O4 0.241019 0.195586 0.872576
O O5 0.656440 0.690820 0.959490
O O6 0.500000 0.729622 0.000000
O O7 0.460299 0.613059 0.298562
O O8 0.212832 0.727244 0.087309
O O9 0.979112 0.619678 0.787748
O O10 0.249454 0.500000 0.442575
O O11 0.281117 0.585407 0.609786
O O12 0.500000 0.000000 0.500000
O O13 0.215496 0.064680 0.351407
O O14 0.000000 0.000000 0.000000
O O15 0.254166 0.500000 0.713477
O O16 0.000000 0.388346 0.500000
O O17 0.500000 0.401636 0.000000
O O18 0.604223 0.848768 0.757554
O O19 0.000000 0.819958 0.000000
O O20 0.103805 0.815027 0.273602
#
# Coordination Sequence:
#
# PCOD9147853 Si02
#       8
#     4   4   4   4   2   4   4   4
#     4  10  19  36  61  91 129 170 212 259 314 369
#     4  10  20  35  57  88 123 163 209 261 316 374
#     4  12  22  39  62  87 121 155 217 265 326 391
#     4  11  24  38  57  82 118 164 204 260 331 398
#     4  12  26  42  65 102 143 186 224 260 319 386
#     4   9  17  31  49  71 105 148 194 239 288 360
#     4  12  25  42  69  97 125 164 214 275 329 377
#     4  12  22  43  67  98 139 176 212 263 318 379
#
# _framework density 21.229284
#
# number of rings (size 3 to 8) (size 9 to 14) (size 15 to 20)
#    0.000    1.067    2.667    5.200    0.000    3.733 
#    0.000    0.333    0.000    2.800    0.000    5.600 
#    0.000    0.000    0.000    0.000    0.000    0.000 
#
# Total GULP energy -167531.390803 kJ/mol
# GULP energy per Si atom -5584.379693 kJ/mol
# Density = 2.118097 g / cm^3
# Si number density = 21.229284 Si / 1000 Ang^3
#
#
#
# Elastic Constant Matrix: (Units=GPa)
#
#
# Indices 1 2 3 4 5 6 
#
# 1 101.4800 34.5796 32.7422 0.0000 16.4255 0.0000
# 2 34.5796 95.5549 32.1680 0.0000 4.1646 0.0000
# 3 32.7422 32.1680 141.4897 0.0000 17.0256 0.0000
# 4 0.0000 0.0000 0.0000 20.3886 0.0000 1.2481
# 5 16.4255 4.1646 17.0256 0.0000 23.9303 0.0000
# 6 0.0000 0.0000 0.0000 1.2481 0.0000 16.0210
#
#
#
# Elastic Compliance Matrix: (Units=1/GPa)
#
#
# Indices 1 2 3 4 5 6 
#
# 1 0.012733 -0.003892 -0.001194 0.000000 -0.007213 0.000000
# 2 -0.003892 0.012522 -0.002193 0.000000 0.002052 0.000000
# 3 -0.001194 -0.002193 0.008419 0.000000 -0.004789 0.000000
# 4 0.000000 0.000000 0.000000 0.049282 0.000000 -0.003839
# 5 -0.007213 0.002052 -0.004789 0.000000 0.049789 0.000000
# 6 0.000000 0.000000 0.000000 -0.003839 0.000000 0.062717
#
#
# Mechanical properties :
#
#
# Convention : Reuss Voigt Hill
#
# Bulk Modulus (GPa) = 52.31064 59.72271 56.01668
# Shear Modulus (GPa) = 23.10623 28.00362 25.55493
#
# Velocity S-wave (km/s) = 3.30269 3.63589 3.47329
# Velocity P-wave (km/s) = 6.26402 6.76901 6.52141
#
# Compressibility (1/GPa) = 0.01911657
#
# Stress axis : x y z
#
# Youngs Moduli (GPa) = 78.53658 79.85670 118.78172
#
# Poissons Ratio (x) = 0.31077 0.14180
# Poissons Ratio (y) = 0.30563 0.26054
# Poissons Ratio (z) = 0.09376 0.17516
#
# Static dielectric constant tensor:
#      x y z
#    x 1.839890 0.000000 0.003390 
#    y 0.000000 1.890630 0.000000 
#    z 0.003390 0.000000 1.760530 
# 
# From -- ./inp_files/67887.got.cif
#   From: 2010.05.17/outbox.cif.g08.bks.cpg/sg10_34_cif.got.tgz:67887.got - 2010.06.03 11:33:40.
