data_PCOD9147697
_publ_section_title
;
Structure prediction by ZEFSAII (Michael W. Deem and Ramdas Pophale) SiO2 
 PCOD9147697
Probable space group: P 2/M
;
_chemical_formula_sum "Si O2"
_cell_formula_units_Z 32
_cell_length_a 12.344278
_cell_length_b 7.713634
_cell_length_c 32.223629
_cell_angle_alpha 90.000000
_cell_angle_beta 149.772808
_cell_angle_gamma 90.000000
_cell_volume 1544.679276
_symmetry_space_group_name_H-M "P 2/M"
_symmetry_group_IT_number 10
_symmetry_cell_setting 'monoclinic'
loop_
_space_group_symop_operation_xyz
x,y,z
-x,y,-z
-x,-y,-z
x,-y,z
loop_
_atom_site_type_symbol
_atom_site_label
_atom_site_fract_x
_atom_site_fract_y
_atom_site_fract_z
Si Si1 0.189015 0.286545 0.245072
Si Si2 0.363151 0.287930 0.391602
Si Si3 0.463854 0.789614 0.877145
Si Si4 0.372494 0.299496 0.221563
Si Si5 0.953643 0.790343 0.032610
Si Si6 0.802849 0.295806 0.575797
Si Si7 0.709640 0.704851 0.092335
Si Si8 0.276646 0.200380 0.728126
O O1 0.186825 0.500000 0.243711
O O2 0.272562 0.229319 0.317616
O O3 0.338743 0.229142 0.256669
O O4 0.943231 0.226102 0.157200
O O5 0.356832 0.500000 0.387699
O O6 0.607494 0.230131 0.482614
O O7 0.225773 0.230177 0.386351
O O8 0.325760 0.728121 0.870329
O O9 0.372261 0.725011 0.802769
O O10 0.465510 0.000000 0.877318
O O11 0.712652 0.734215 0.964342
O O12 0.434872 0.500000 0.245178
O O13 0.547836 0.215123 0.249795
O O14 0.140169 0.285220 0.122753
O O15 0.965428 0.000000 0.039545
O O16 0.000000 0.745216 0.000000
O O17 0.762284 0.500000 0.565359
O O18 0.043763 0.273094 0.640019
O O19 0.714250 0.500000 0.084408
O O20 0.500000 0.780623 0.000000
O O21 0.238105 0.000000 0.723914
#
# Coordination Sequence:
#
# PCOD9147697 Si02
#       8
#     4   4   4   4   4   4   4   4
#     4   9  18  33  52  76 109 144 173 212 270 321
#     4   8  15  31  56  83 110 137 169 215 269 320
#     4  10  21  35  53  75 102 139 180 213 256 320
#     4  11  22  35  54  79 104 137 185 226 257 309
#     4  10  19  36  54  70 102 144 177 214 266 313
#     4   9  17  32  58  87 106 130 174 221 264 316
#     4  10  20  34  53  79 111 139 169 217 269 308
#     4  11  22  37  53  75 109 143 172 215 274 318
#
# _framework density 20.716276000000001
#
# number of rings (size 3 to 8) (size 9 to 14) (size 15 to 20)
#    0.000    2.250    1.250    3.000    0.000    4.000 
#    0.000    3.125    0.000    7.500    0.000    0.000 
#    0.000    0.000    0.000    0.000    0.000    0.000 
#
# Total GULP energy -178683.616496 kJ/mol
# GULP energy per Si atom -5583.863016 kJ/mol
# Density = 2.066912 g / cm^3
# Si number density = 20.716276 Si / 1000 Ang^3
#
#
#
# Elastic Constant Matrix: (Units=GPa)
#
#
# Indices 1 2 3 4 5 6 
#
# 1 92.5184 -11.6564 45.4173 0.0000 -1.7949 0.0000
# 2 -11.6564 26.3128 0.3696 0.0000 -2.6309 0.0000
# 3 45.4173 0.3696 106.6912 0.0000 -0.4290 0.0000
# 4 0.0000 0.0000 0.0000 -31.3199 0.0000 -75.5694
# 5 -1.7949 -2.6309 -0.4290 0.0000 35.4602 0.0000
# 6 0.0000 0.0000 0.0000 -75.5694 0.0000 -70.4155
#
#
#
# Elastic Compliance Matrix: (Units=1/GPa)
#
#
# Indices 1 2 3 4 5 6 
#
# 1 0.014780 0.006753 -0.006310 0.000000 0.001173 0.000000
# 2 0.006753 0.041376 -0.003005 0.000000 0.003375 0.000000
# 3 -0.006310 -0.003005 0.012068 0.000000 -0.000396 0.000000
# 4 0.000000 0.000000 0.000000 0.020088 0.000000 -0.021558
# 5 0.001173 0.003375 -0.000396 0.000000 0.028506 0.000000
# 6 0.000000 0.000000 0.000000 -0.021558 0.000000 0.008935
#
#
# Mechanical properties :
#
#
# Convention : Reuss Voigt Hill
#
# Bulk Modulus (GPa) = 15.84776 32.64259 24.24517
# Shear Modulus (GPa) = 32.91445 -0.49557 16.20944
#
# Velocity S-wave (km/s) = 3.99033 -0.48963 2.80026
# Velocity P-wave (km/s) = 5.37557 3.93339 4.71001
#
# Compressibility (1/GPa) = 0.06310040
#
# Stress axis : x y z
#
# Youngs Moduli (GPa) = 67.65886 24.16880 82.86433
#
# Poissons Ratio (x) = -0.16322 0.52291
# Poissons Ratio (y) = -0.45692 0.24897
# Poissons Ratio (z) = 0.42695 0.07262
#
# Static dielectric constant tensor:
#      x y z
#    x 1.715620 0.000000 -0.007400 
#    y 0.000000 1.769820 0.000000 
#    z -0.007400 0.000000 1.739030 
# 
# From -- ./inp_files/95051.got.cif
#   From: 2010.05.17/outbox.cif.g08.bks.cpg/sg10_48_cif.got.tgz:95051.got - 2010.06.03 11:33:40.
