data_PCOD9147423
_publ_section_title
;
Structure prediction by ZEFSAII (Michael W. Deem and Ramdas Pophale) SiO2 
 PCOD9147423
Probable space group: P 2/M
;
_chemical_formula_sum "Si O2"
_cell_formula_units_Z 30
_cell_length_a 23.822947
_cell_length_b 12.246095
_cell_length_c 8.383662
_cell_angle_alpha 90.000000
_cell_angle_beta 138.546261
_cell_angle_gamma 90.000000
_cell_volume 1619.178686
_symmetry_space_group_name_H-M "P 2/M"
_symmetry_group_IT_number 10
_symmetry_cell_setting 'monoclinic'
loop_
_space_group_symop_operation_xyz
x,y,z
-x,y,-z
-x,-y,-z
x,-y,z
loop_
_atom_site_type_symbol
_atom_site_label
_atom_site_fract_x
_atom_site_fract_y
_atom_site_fract_z
Si Si1 0.593587 0.124169 0.654558
Si Si2 0.713486 0.723704 0.694446
Si Si3 0.599973 0.624077 0.178981
Si Si4 0.686558 0.801464 0.152379
Si Si5 0.000000 0.239062 0.000000
Si Si6 0.821824 0.874208 0.693415
Si Si7 0.022257 0.375754 0.371838
Si Si8 0.779344 0.380706 0.146683
O O1 0.500000 0.166808 0.500000
O O2 0.646426 0.198668 0.645029
O O3 0.585789 0.000000 0.576633
O O4 0.642574 0.124849 0.926832
O O5 0.659173 0.649478 0.458036
O O6 0.781840 0.797234 0.745394
O O7 0.763235 0.652271 0.929984
O O8 0.619740 0.500000 0.163711
O O9 0.620773 0.726472 0.109671
O O10 0.500000 0.626253 0.000000
O O11 0.751207 0.863959 0.404364
O O12 0.738541 0.711463 0.166310
O O13 0.912996 0.169336 0.826661
O O14 0.999745 0.310441 0.835850
O O15 0.829480 0.000000 0.761249
O O16 0.986249 0.500000 0.287398
O O17 0.123220 0.384058 0.597456
O O18 0.000000 0.327868 0.500000
O O19 0.741272 0.500000 0.093579
#
# Coordination Sequence:
#
# PCOD9147423 Si02
#       8
#     4   4   4   4   2   4   4   4
#     4  10  20  35  57  82 109 144 189 237 285 341
#     4  10  21  36  57  82 112 151 189 237 292 348
#     4  10  20  34  53  82 116 148 184 226 278 347
#     4  10  20  36  55  79 110 147 184 230 281 340
#     4  12  22  40  62  86 118 158 202 250 306 360
#     4  11  23  39  58  80 111 153 197 247 292 343
#     4  10  21  37  59  88 120 151 190 243 298 358
#     4  10  19  35  56  81 110 142 182 227 283 348
#
# _framework density 18.527912000000001
#
# number of rings (size 3 to 8) (size 9 to 14) (size 15 to 20)
#    0.000    1.733    1.333    3.600    0.000    0.000 
#    0.000    1.333    0.000   14.400    0.000    0.000 
#    0.000    0.000    0.000    0.000    0.000    0.000 
#
# Total GULP energy -167253.247805 kJ/mol
# GULP energy per Si atom -5575.108260 kJ/mol
# Density = 1.848574 g / cm^3
# Si number density = 18.527912 Si / 1000 Ang^3
#
#
#
# Elastic Constant Matrix: (Units=GPa)
#
#
# Indices 1 2 3 4 5 6 
#
# 1 75.0212 19.4179 19.5507 0.0000 7.7263 0.0000
# 2 19.4179 74.3652 10.3795 0.0000 7.4042 0.0000
# 3 19.5507 10.3795 41.6229 0.0000 7.7638 0.0000
# 4 0.0000 0.0000 0.0000 16.8587 0.0000 -3.0721
# 5 7.7263 7.4042 7.7638 0.0000 30.2778 0.0000
# 6 0.0000 0.0000 0.0000 -3.0721 0.0000 -9.6032
#
#
#
# Elastic Compliance Matrix: (Units=1/GPa)
#
#
# Indices 1 2 3 4 5 6 
#
# 1 0.015979 -0.003110 -0.006418 0.000000 -0.001671 0.000000
# 2 -0.003110 0.014742 -0.001776 0.000000 -0.002356 0.000000
# 3 -0.006418 -0.001776 0.028457 0.000000 -0.005225 0.000000
# 4 0.000000 0.000000 0.000000 0.056049 0.000000 -0.017930
# 5 -0.001671 -0.002356 -0.005225 0.000000 0.035370 0.000000
# 6 0.000000 0.000000 0.000000 -0.017930 0.000000 -0.098395
#
#
# Mechanical properties :
#
#
# Convention : Reuss Voigt Hill
#
# Bulk Modulus (GPa) = 27.34498 32.18951 29.76725
# Shear Modulus (GPa) = 57.47102 16.95075 37.21088
#
# Velocity S-wave (km/s) = 5.57548 3.02797 4.48634
# Velocity P-wave (km/s) = 7.49925 5.44390 6.55267
#
# Compressibility (1/GPa) = 0.03656978
#
# Stress axis : x y z
#
# Youngs Moduli (GPa) = 62.58083 67.83480 35.14024
#
# Poissons Ratio (x) = 0.21098 0.22554
# Poissons Ratio (y) = 0.19464 0.06240
# Poissons Ratio (z) = 0.40166 0.12046
#
# Static dielectric constant tensor:
#      x y z
#    x 1.657620 0.000000 -0.005850 
#    y 0.000000 1.655700 0.000000 
#    z -0.005850 0.000000 1.638240 
# 
# From -- ./inp_files/36179.got.cif
#   From: 2010.05.17/outbox.cif.g08.bks.cpg/sg10_19_cif.got.tgz:36179.got - 2010.06.03 11:33:40.
