data_PCOD9147186
_publ_section_title
;
Structure prediction by ZEFSAII (Michael W. Deem and Ramdas Pophale) SiO2 
 PCOD9147186
Probable space group: P 2/M
;
_chemical_formula_sum "Si O2"
_cell_formula_units_Z 32
_cell_length_a 23.030325
_cell_length_b 7.813715
_cell_length_c 14.920949
_cell_angle_alpha 90.000000
_cell_angle_beta 30.887965
_cell_angle_gamma 90.000000
_cell_volume 1378.405365
_symmetry_space_group_name_H-M "P 2/M"
_symmetry_group_IT_number 10
_symmetry_cell_setting 'monoclinic'
loop_
_space_group_symop_operation_xyz
x,y,z
-x,y,-z
-x,-y,-z
x,-y,z
loop_
_atom_site_type_symbol
_atom_site_label
_atom_site_fract_x
_atom_site_fract_y
_atom_site_fract_z
Si Si1 0.705178 0.300530 0.378714
Si Si2 0.872480 0.203626 0.006989
Si Si3 0.470105 0.197423 0.634969
Si Si4 0.316535 0.202861 0.991274
Si Si5 0.591424 0.696704 0.947175
Si Si6 0.079567 0.208324 0.263076
Si Si7 0.878877 0.704863 0.301813
Si Si8 0.166418 0.801442 0.436028
O O1 0.679988 0.500000 0.427704
O O2 0.770056 0.281736 0.198236
O O3 0.587980 0.201231 0.531882
O O4 0.791523 0.240683 0.341090
O O5 0.858335 0.000000 0.027525
O O6 0.886343 0.253726 0.884541
O O7 0.991852 0.252945 0.893609
O O8 0.500000 0.279966 0.500000
O O9 0.374990 0.275789 0.824698
O O10 0.435793 0.000000 0.661965
O O11 0.305667 0.000000 0.991145
O O12 0.395879 0.226420 0.971333
O O13 0.188129 0.266153 0.176058
O O14 0.558478 0.500000 0.004130
O O15 0.717251 0.708814 0.739984
O O16 0.500000 0.774917 0.000000
O O17 0.951497 0.268145 0.449195
O O18 0.070451 0.000000 0.280367
O O19 0.869588 0.500000 0.325540
O O20 0.853287 0.791669 0.430945
O O21 0.180780 0.000000 0.388940
#
# Coordination Sequence:
#
# PCOD9147186 Si02
#       8
#     4   4   4   4   4   4   4   4
#     4  11  23  35  52  79 117 162 203 250 307 368
#     4  10  19  34  57  85 118 158 205 253 301 357
#     4  10  22  40  62  89 120 157 202 255 308 361
#     4  10  21  40  66  93 120 157 204 252 303 365
#     4  11  26  45  63  86 124 166 201 250 312 365
#     4   8  17  36  62  91 121 151 189 248 312 359
#     4  10  21  36  54  82 122 161 198 246 309 367
#     4  10  21  39  65  93 119 154 203 251 300 364
#
# _framework density 23.215232
#
# number of rings (size 3 to 8) (size 9 to 14) (size 15 to 20)
#    0.000    2.000    0.000    3.750    1.750    7.750 
#    0.000    7.500    0.000    0.000    0.000    0.000 
#    0.000    0.000    0.000    0.000    0.000    0.000 
#
# Total GULP energy -178841.970515 kJ/mol
# GULP energy per Si atom -5588.811579 kJ/mol
# Density = 2.316239 g / cm^3
# Si number density = 23.215232 Si / 1000 Ang^3
#
#
#
# Elastic Constant Matrix: (Units=GPa)
#
#
# Indices 1 2 3 4 5 6 
#
# 1 120.6529 0.8878 45.2093 0.0000 -25.8989 0.0000
# 2 0.8878 35.9881 -7.0451 0.0000 -1.3734 0.0000
# 3 45.2093 -7.0451 115.0570 0.0000 -7.0269 0.0000
# 4 0.0000 0.0000 0.0000 31.3718 0.0000 -4.5573
# 5 -25.8989 -1.3734 -7.0269 0.0000 33.2204 0.0000
# 6 0.0000 0.0000 0.0000 -4.5573 0.0000 29.6566
#
#
#
# Elastic Compliance Matrix: (Units=1/GPa)
#
#
# Indices 1 2 3 4 5 6 
#
# 1 0.011574 -0.000778 -0.004099 0.000000 0.008124 0.000000
# 2 -0.000778 0.028255 0.002097 0.000000 0.001005 0.000000
# 3 -0.004099 0.002097 0.010375 0.000000 -0.000915 0.000000
# 4 0.000000 0.000000 0.000000 0.032604 0.000000 0.005010
# 5 0.008124 0.001005 -0.000915 0.000000 0.036283 0.000000
# 6 0.000000 0.000000 0.000000 0.005010 0.000000 0.034489
#
#
# Mechanical properties :
#
#
# Convention : Reuss Voigt Hill
#
# Bulk Modulus (GPa) = 22.39962 38.86687 30.63325
# Shear Modulus (GPa) = 28.73222 34.35950 31.54586
#
# Velocity S-wave (km/s) = 3.52183 3.85130 3.69025
# Velocity P-wave (km/s) = 5.11931 6.04608 5.60189
#
# Compressibility (1/GPa) = 0.04464361
#
# Stress axis : x y z
#
# Youngs Moduli (GPa) = 86.40245 35.39184 96.38940
#
# Poissons Ratio (x) = 0.02753 0.39512
# Poissons Ratio (y) = 0.06722 -0.20215
# Poissons Ratio (z) = 0.35418 -0.07422
#
# Static dielectric constant tensor:
#      x y z
#    x 1.908020 0.000000 -0.000980 
#    y 0.000000 1.845870 0.000000 
#    z -0.000980 0.000000 1.863090 
# 
# From -- ./inp_files/71441.got.cif
#   From: 2010.05.17/outbox.cif.g08.bks.cpg/sg10_36_cif.got.tgz:71441.got - 2010.06.03 11:33:40.
