data_PCOD9147145
_publ_section_title
;
Structure prediction by ZEFSAII (Michael W. Deem and Ramdas Pophale) SiO2 
 PCOD9147145
Probable space group: P 2/M
;
_chemical_formula_sum "Si O2"
_cell_formula_units_Z 32
_cell_length_a 16.796061
_cell_length_b 9.588887
_cell_length_c 21.562495
_cell_angle_alpha 90.000000
_cell_angle_beta 153.228640
_cell_angle_gamma 90.000000
_cell_volume 1564.239438
_symmetry_space_group_name_H-M "P 2/M"
_symmetry_group_IT_number 10
_symmetry_cell_setting 'monoclinic'
loop_
_space_group_symop_operation_xyz
x,y,z
-x,y,-z
-x,-y,-z
x,-y,z
loop_
_atom_site_type_symbol
_atom_site_label
_atom_site_fract_x
_atom_site_fract_y
_atom_site_fract_z
Si Si1 0.491600 0.661557 0.584103
Si Si2 0.189303 0.835849 0.991380
Si Si3 0.510119 0.661261 0.853637
Si Si4 0.710543 0.653457 0.424788
Si Si5 0.994981 0.838648 0.326222
Si Si6 0.313952 0.658789 0.835825
Si Si7 0.794198 0.834922 0.854258
Si Si8 0.825025 0.836636 0.684362
O O1 0.522813 0.500000 0.588507
O O2 0.398242 0.660640 0.587025
O O3 0.669783 0.748307 0.721783
O O4 0.347759 0.739579 0.440510
O O5 0.981368 0.798483 0.841004
O O6 0.198779 0.000000 0.982794
O O7 0.311987 0.749265 0.030420
O O8 0.258383 0.818366 0.109781
O O9 0.553040 0.500000 0.899784
O O10 0.415820 0.662266 0.721707
O O11 0.368957 0.712823 0.806039
O O12 0.797946 0.500000 0.484454
O O13 0.852709 0.775134 0.524491
O O14 0.822003 0.750542 0.220536
O O15 0.072576 0.825075 0.310600
O O16 0.962597 0.000000 0.315337
O O17 0.246997 0.500000 0.783455
O O18 0.500000 0.655506 0.000000
O O19 0.783570 0.000000 0.831273
O O20 0.000000 0.794497 0.000000
O O21 0.775004 0.000000 0.658096
#
# Coordination Sequence:
#
# PCOD9147145 Si02
#       8
#     4   4   4   4   4   4   4   4
#     4  10  19  34  57  83 109 142 182 221 265 316
#     4  10  20  35  57  83 109 139 180 225 267 318
#     4  10  20  34  53  76 104 138 177 223 269 315
#     4   9  18  33  52  74 101 135 174 216 264 317
#     4  10  20  33  51  74 103 136 175 223 268 310
#     4  10  21  35  50  70 100 139 177 215 267 324
#     4  10  21  37  58  84 113 144 175 213 267 326
#     4   9  19  35  55  80 109 144 183 223 268 317
#
# _framework density 20.457225000000001
#
# number of rings (size 3 to 8) (size 9 to 14) (size 15 to 20)
#    0.000    2.250    1.250    1.500    0.000    3.500 
#    0.000    3.125    0.000    3.750    0.000    0.000 
#    0.000    0.000    0.000    0.000    0.000    0.000 
#
# Total GULP energy -178652.245602 kJ/mol
# GULP energy per Si atom -5582.882675 kJ/mol
# Density = 2.041066 g / cm^3
# Si number density = 20.457225 Si / 1000 Ang^3
#
#
#
# Elastic Constant Matrix: (Units=GPa)
#
#
# Indices 1 2 3 4 5 6 
#
# 1 57.9670 28.5163 20.0540 0.0000 4.3886 0.0000
# 2 28.5163 93.5367 68.0159 0.0000 16.0748 0.0000
# 3 20.0540 68.0159 120.1273 0.0000 3.7003 0.0000
# 4 0.0000 0.0000 0.0000 107.3955 0.0000 76.1235
# 5 4.3886 16.0748 3.7003 0.0000 36.6493 0.0000
# 6 0.0000 0.0000 0.0000 76.1235 0.0000 83.0204
#
#
#
# Elastic Compliance Matrix: (Units=1/GPa)
#
#
# Indices 1 2 3 4 5 6 
#
# 1 0.020302 -0.006424 0.000237 0.000000 0.000363 0.000000
# 2 -0.006424 0.022163 -0.011235 0.000000 -0.007817 0.000000
# 3 0.000237 -0.011235 0.014541 0.000000 0.003431 0.000000
# 4 0.000000 0.000000 0.000000 0.026599 0.000000 -0.024389
# 5 0.000363 -0.007817 0.003431 0.000000 0.030324 0.000000
# 6 0.000000 0.000000 0.000000 -0.024389 0.000000 0.034408
#
#
# Mechanical properties :
#
#
# Convention : Reuss Voigt Hill
#
# Bulk Modulus (GPa) = 45.12518 56.08928 50.60723
# Shear Modulus (GPa) = 26.23734 55.74938 40.99336
#
# Velocity S-wave (km/s) = 3.58515 5.22598 4.48130
# Velocity P-wave (km/s) = 6.26450 7.99324 7.18108
#
# Compressibility (1/GPa) = 0.02216058
#
# Stress axis : x y z
#
# Youngs Moduli (GPa) = 49.25618 45.12088 68.77277
#
# Poissons Ratio (x) = 0.28986 -0.01629
# Poissons Ratio (y) = 0.31642 0.77268
# Poissons Ratio (z) = -0.01167 0.50694
#
# Static dielectric constant tensor:
#      x y z
#    x 1.773070 0.000000 -0.013570 
#    y 0.000000 1.706510 0.000000 
#    z -0.013570 0.000000 1.715190 
# 
# From -- ./inp_files/87014.got.cif
#   From: 2010.05.17/outbox.cif.g08.bks.cpg/sg10_44_cif.got.tgz:87014.got - 2010.06.03 11:33:40.
