data_PCOD9147843
_publ_section_title
;
Structure prediction by ZEFSAII (Michael W. Deem and Ramdas Pophale) SiO2 
 PCOD9147843
Probable space group: P 2/M
;
_chemical_formula_sum "Si O2"
_cell_formula_units_Z 28
_cell_length_a 21.914424
_cell_length_b 7.949851
_cell_length_c 16.357383
_cell_angle_alpha 90.000000
_cell_angle_beta 27.809525
_cell_angle_gamma 90.000000
_cell_volume 1329.492470
_symmetry_space_group_name_H-M "P 2/M"
_symmetry_group_IT_number 10
_symmetry_cell_setting 'monoclinic'
loop_
_space_group_symop_operation_xyz
x,y,z
-x,y,-z
-x,-y,-z
x,-y,z
loop_
_atom_site_type_symbol
_atom_site_label
_atom_site_fract_x
_atom_site_fract_y
_atom_site_fract_z
Si Si1 0.048045 0.195146 0.558884
Si Si2 0.896617 0.796845 0.054374
Si Si3 0.631035 0.198152 0.592599
Si Si4 0.493668 0.194872 0.915761
Si Si5 0.910006 0.301602 0.307082
Si Si6 0.396213 0.206342 0.554785
Si Si7 0.789414 0.692660 0.784381
O O1 0.084744 0.233381 0.607580
O O2 0.137207 0.296875 0.389906
O O3 0.897134 0.238777 0.719661
O O4 0.070102 0.000000 0.513904
O O5 0.749908 0.740249 0.246768
O O6 0.896207 0.000000 0.056420
O O7 0.000000 0.736751 0.000000
O O8 0.956306 0.739620 0.897935
O O9 0.578145 0.271100 0.741173
O O10 0.787478 0.217459 0.406498
O O11 0.577490 0.264460 0.569553
O O12 0.598109 0.000000 0.633712
O O13 0.537183 0.000000 0.873415
O O14 0.500000 0.270605 0.000000
O O15 0.343941 0.205086 0.064223
O O16 0.888630 0.500000 0.333416
O O17 0.500000 0.259808 0.500000
O O18 0.397125 0.000000 0.552055
O O19 0.757979 0.500000 0.840758
#
# Coordination Sequence:
#
# PCOD9147843 Si02
#       7
#     4   4   4   4   4   4   4
#     4  11  22  39  62  85 114 155 204 247 294 355
#     4  10  19  36  61  86 115 152 198 244 296 360
#     4  10  20  37  59  83 115 156 204 251 297 355
#     4  10  21  36  57  85 117 158 206 247 288 353
#     4  12  24  37  58  89 121 151 196 248 311 364
#     4   9  18  34  58  87 116 150 198 252 301 353
#     4  11  22  38  59  86 124 157 192 245 307 359
#
# _framework density 21.060668
#
# number of rings (size 3 to 8) (size 9 to 14) (size 15 to 20)
#    0.000    1.571    1.429    5.571    0.000    3.429 
#    0.000    2.857    0.000    1.714    0.000    0.000 
#    0.000    0.000    0.000    0.000    0.000    0.000 
#
# Total GULP energy -156428.957477 kJ/mol
# GULP energy per Si atom -5586.748481 kJ/mol
# Density = 2.101273 g / cm^3
# Si number density = 21.060668 Si / 1000 Ang^3
#
#
#
# Elastic Constant Matrix: (Units=GPa)
#
#
# Indices 1 2 3 4 5 6 
#
# 1 137.9117 -1.2255 46.4235 0.0000 13.2376 0.0000
# 2 -1.2255 35.2982 -6.8563 0.0000 6.9588 0.0000
# 3 46.4235 -6.8563 98.2399 0.0000 4.0340 0.0000
# 4 0.0000 0.0000 0.0000 -30.5096 0.0000 83.0227
# 5 13.2376 6.9588 4.0340 0.0000 30.1457 0.0000
# 6 0.0000 0.0000 0.0000 83.0227 0.0000 -4.9322
#
#
#
# Elastic Compliance Matrix: (Units=1/GPa)
#
#
# Indices 1 2 3 4 5 6 
#
# 1 0.008955 0.000196 -0.004077 0.000000 -0.003432 0.000000
# 2 0.000196 0.030242 0.002321 0.000000 -0.007378 0.000000
# 3 -0.004077 0.002321 0.012284 0.000000 -0.000389 0.000000
# 4 0.000000 0.000000 0.000000 0.000732 0.000000 0.012314
# 5 -0.003432 -0.007378 -0.000389 0.000000 0.036434 0.000000
# 6 0.000000 0.000000 0.000000 0.012314 0.000000 0.004525
#
#
# Mechanical properties :
#
#
# Convention : Reuss Voigt Hill
#
# Bulk Modulus (GPa) = 20.67828 38.68146 29.67987
# Shear Modulus (GPa) = 44.47940 14.48133 29.48037
#
# Velocity S-wave (km/s) = 4.60060 2.62506 3.74543
# Velocity P-wave (km/s) = 6.16931 5.25304 5.72952
#
# Compressibility (1/GPa) = 0.04835993
#
# Stress axis : x y z
#
# Youngs Moduli (GPa) = 111.67565 33.06644 81.40867
#
# Poissons Ratio (x) = -0.00647 0.33190
# Poissons Ratio (y) = -0.02184 -0.18896
# Poissons Ratio (z) = 0.45529 -0.07675
#
# Static dielectric constant tensor:
#      x y z
#    x 1.749890 0.000000 0.017300 
#    y 0.000000 1.738300 0.000000 
#    z 0.017300 0.000000 1.778220 
# 
# From -- ./inp_files/70163.got.cif
#   From: 2010.05.17/outbox.cif.g08.bks.cpg/sg10_36_cif.got.tgz:70163.got - 2010.06.03 11:33:40.
