data_PCOD9147112
_publ_section_title
;
Structure prediction by ZEFSAII (Michael W. Deem and Ramdas Pophale) SiO2 
 PCOD9147112
Probable space group: P 2/M
;
_chemical_formula_sum "Si O2"
_cell_formula_units_Z 28
_cell_length_a 26.061724
_cell_length_b 7.452465
_cell_length_c 9.783232
_cell_angle_alpha 90.000000
_cell_angle_beta 39.434787
_cell_angle_gamma 90.000000
_cell_volume 1206.967642
_symmetry_space_group_name_H-M "P 2/M"
_symmetry_group_IT_number 10
_symmetry_cell_setting 'monoclinic'
loop_
_space_group_symop_operation_xyz
x,y,z
-x,y,-z
-x,-y,-z
x,-y,z
loop_
_atom_site_type_symbol
_atom_site_label
_atom_site_fract_x
_atom_site_fract_y
_atom_site_fract_z
Si Si1 0.085699 0.217551 0.262736
Si Si2 0.811273 0.294169 0.193044
Si Si3 0.185150 0.789201 0.310569
Si Si4 0.499459 0.281204 0.843940
Si Si5 0.087769 0.716391 0.772252
Si Si6 0.657304 0.718980 0.344328
Si Si7 0.638732 0.705590 0.072685
O O1 0.153949 0.279083 0.229079
O O2 0.000000 0.273208 0.500000
O O3 0.085853 0.000000 0.255867
O O4 0.109918 0.289369 0.065921
O O5 0.787818 0.500000 0.269293
O O6 0.841621 0.213969 0.272526
O O7 0.737963 0.215022 0.255815
O O8 0.114336 0.761018 0.565061
O O9 0.199148 0.000000 0.269129
O O10 0.270699 0.706327 0.172934
O O11 0.495502 0.500000 0.858225
O O12 0.580783 0.235250 0.595083
O O13 0.424227 0.216916 0.906365
O O14 0.500000 0.219013 0.000000
O O15 0.086437 0.500000 0.787073
O O16 0.000000 0.782357 0.000000
O O17 0.663093 0.500000 0.324424
O O18 0.645398 0.783502 0.212660
O O19 0.611894 0.500000 0.148530
#
# Coordination Sequence:
#
# PCOD9147112 Si02
#       7
#     4   4   4   4   4   4   4
#     4  10  21  37  56  79 109 145 187 231 272 324
#     4  10  20  34  56  83 111 142 180 229 277 329
#     4  11  23  37  56  82 113 149 190 230 275 335
#     4   9  18  30  52  85 113 141 178 224 274 329
#     4  10  22  38  56  82 114 147 186 232 283 335
#     4   9  17  31  51  81 112 138 175 221 274 327
#     4  10  19  34  57  81 111 146 180 226 280 328
#
# _framework density 23.198633999999998
#
# number of rings (size 3 to 8) (size 9 to 14) (size 15 to 20)
#    0.000    2.143    1.429    1.714    2.000    3.429 
#    0.000    0.000    0.000    3.000    0.000    0.000 
#    0.000    0.000    0.000    0.000    0.000    0.000 
#
# Total GULP energy -156457.821945 kJ/mol
# GULP energy per Si atom -5587.779355 kJ/mol
# Density = 2.314583 g / cm^3
# Si number density = 23.198634 Si / 1000 Ang^3
#
#
#
# Elastic Constant Matrix: (Units=GPa)
#
#
# Indices 1 2 3 4 5 6 
#
# 1 108.8113 12.2768 14.0468 0.0000 -0.9210 0.0000
# 2 12.2768 73.4405 -6.9795 0.0000 0.3744 0.0000
# 3 14.0468 -6.9795 84.5584 0.0000 1.1224 0.0000
# 4 0.0000 0.0000 0.0000 -82.3874 0.0000 17.9547
# 5 -0.9210 0.3744 1.1224 0.0000 40.4771 0.0000
# 6 0.0000 0.0000 0.0000 17.9547 0.0000 -6.2615
#
#
#
# Elastic Compliance Matrix: (Units=1/GPa)
#
#
# Indices 1 2 3 4 5 6 
#
# 1 0.009619 -0.001775 -0.001748 0.000000 0.000284 0.000000
# 2 -0.001775 0.014053 0.001458 0.000000 -0.000211 0.000000
# 3 -0.001748 0.001458 0.012242 0.000000 -0.000393 0.000000
# 4 0.000000 0.000000 0.000000 -0.032359 0.000000 -0.092789
# 5 0.000284 -0.000211 -0.000393 0.000000 0.024725 0.000000
# 6 0.000000 0.000000 0.000000 -0.092789 0.000000 -0.425776
#
#
# Mechanical properties :
#
#
# Convention : Reuss Voigt Hill
#
# Bulk Modulus (GPa) = 31.46471 33.94425 32.70448
# Shear Modulus (GPa) = -13.06262 6.86338 -3.09962
#
# Velocity S-wave (km/s) = -2.37550 1.72190 -1.15716
# Velocity P-wave (km/s) = 2.46346 4.31475 3.51324
#
# Compressibility (1/GPa) = 0.03178164
#
# Stress axis : x y z
#
# Youngs Moduli (GPa) = 103.96501 71.15979 81.68546
#
# Poissons Ratio (x) = 0.12634 0.14280
# Poissons Ratio (y) = 0.18459 -0.11907
# Poissons Ratio (z) = 0.18175 -0.10373
#
# Static dielectric constant tensor:
#      x y z
#    x 1.868200 0.000000 -0.017400 
#    y 0.000000 1.899500 0.000000 
#    z -0.017400 0.000000 1.809390 
# 
# From -- ./inp_files/36955.got.cif
#   From: 2010.05.17/outbox.cif.g08.bks.cpg/sg10_19_cif.got.tgz:36955.got - 2010.06.03 11:33:40.
