data_PCOD9147280
_publ_section_title
;
Structure prediction by ZEFSAII (Michael W. Deem and Ramdas Pophale) SiO2 
 PCOD9147280
Probable space group: P 2/M
;
_chemical_formula_sum "Si O2"
_cell_formula_units_Z 32
_cell_length_a 21.232045
_cell_length_b 15.066731
_cell_length_c 15.137207
_cell_angle_alpha 90.000000
_cell_angle_beta 16.953395
_cell_angle_gamma 90.000000
_cell_volume 1412.000355
_symmetry_space_group_name_H-M "P 2/M"
_symmetry_group_IT_number 10
_symmetry_cell_setting 'monoclinic'
loop_
_space_group_symop_operation_xyz
x,y,z
-x,y,-z
-x,-y,-z
x,-y,z
loop_
_atom_site_type_symbol
_atom_site_label
_atom_site_fract_x
_atom_site_fract_y
_atom_site_fract_z
Si Si1 0.736035 0.402546 0.730657
Si Si2 0.392254 0.226851 0.787807
Si Si3 0.824151 0.773268 0.109956
Si Si4 0.675323 0.102978 0.960376
Si Si5 0.165267 0.898817 0.600289
Si Si6 0.242497 0.207772 0.324237
Si Si7 0.422554 0.399051 0.858020
Si Si8 0.930731 0.402797 0.195223
O O1 0.837484 0.500000 0.577583
O O2 0.839959 0.309261 0.562826
O O3 0.500000 0.405681 0.000000
O O4 0.701306 0.393844 0.882688
O O5 0.290215 0.209265 0.829802
O O6 0.649208 0.223292 0.422457
O O7 0.306298 0.155695 0.973188
O O8 0.355122 0.323794 0.880169
O O9 0.015289 0.842893 0.866053
O O10 0.929182 0.676807 0.956961
O O11 0.416965 0.103209 0.288008
O O12 0.744728 0.000000 0.869617
O O13 0.778886 0.158631 0.740864
O O14 0.149223 0.851959 0.526802
O O15 0.093910 0.000000 0.691542
O O16 0.500000 0.213497 0.000000
O O17 0.405535 0.500000 0.846682
O O18 0.675589 0.384312 0.542641
O O19 0.970251 0.500000 0.182442
O O20 0.000000 0.407445 0.000000
#
# Coordination Sequence:
#
# PCOD9147280 Si02
#       8
#     4   4   4   4   4   4   4   4
#     4   9  17  28  50  89 121 146 180 226 284 342
#     4  11  23  40  54  83 115 158 200 233 289 353
#     4  11  25  38  58  79 120 160 191 240 292 348
#     4  10  20  36  62  87 110 144 193 246 294 349
#     4  10  22  39  60  88 114 147 194 249 303 345
#     4   9  17  32  58  87 118 146 183 237 295 345
#     4  10  19  34  59  85 117 153 193 239 279 338
#     4  10  20  35  58  88 113 143 190 242 285 329
#
# _framework density 22.662883000000001
#
# number of rings (size 3 to 8) (size 9 to 14) (size 15 to 20)
#    0.000    2.000    2.500    1.125    3.500    3.000 
#    0.000    4.375    0.000    1.500    0.000    1.750 
#    0.000    0.000    0.000    0.000    0.000    0.000 
#
# Total GULP energy -178966.198452 kJ/mol
# GULP energy per Si atom -5592.693702 kJ/mol
# Density = 2.261130 g / cm^3
# Si number density = 22.662883 Si / 1000 Ang^3
#
#
#
# Elastic Constant Matrix: (Units=GPa)
#
#
# Indices 1 2 3 4 5 6 
#
# 1 82.8869 40.2947 14.7003 0.0000 21.1585 0.0000
# 2 40.2947 130.2019 17.3654 0.0000 -0.2956 0.0000
# 3 14.7003 17.3654 72.4141 0.0000 -4.6923 0.0000
# 4 0.0000 0.0000 0.0000 -6.9644 0.0000 21.7386
# 5 21.1585 -0.2956 -4.6923 0.0000 18.8607 0.0000
# 6 0.0000 0.0000 0.0000 21.7386 0.0000 5.3220
#
#
#
# Elastic Compliance Matrix: (Units=1/GPa)
#
#
# Indices 1 2 3 4 5 6 
#
# 1 0.023044 -0.006544 -0.004869 0.000000 -0.027165 0.000000
# 2 -0.006544 0.009795 -0.000544 0.000000 0.007359 0.000000
# 3 -0.004869 -0.000544 0.015532 0.000000 0.009318 0.000000
# 4 0.000000 0.000000 0.000000 -0.010443 0.000000 0.042655
# 5 -0.027165 0.007359 0.009318 0.000000 0.085928 0.000000
# 6 0.000000 0.000000 0.000000 0.042655 0.000000 0.013666
#
#
# Mechanical properties :
#
#
# Convention : Reuss Voigt Hill
#
# Bulk Modulus (GPa) = 40.88669 47.80263 44.34466
# Shear Modulus (GPa) = 29.48349 17.65316 23.56832
#
# Velocity S-wave (km/s) = 3.61079 2.79399 3.22833
# Velocity P-wave (km/s) = 5.95518 5.61669 5.78841
#
# Compressibility (1/GPa) = 0.02445784
#
# Stress axis : x y z
#
# Youngs Moduli (GPa) = 43.39576 102.09541 64.38322
#
# Poissons Ratio (x) = 0.66809 0.31348
# Poissons Ratio (y) = 0.28397 0.03500
# Poissons Ratio (z) = 0.21129 0.05549
#
# Static dielectric constant tensor:
#      x y z
#    x 1.818130 0.000000 -0.026240 
#    y 0.000000 1.823310 0.000000 
#    z -0.026240 0.000000 1.896690 
# 
# From -- ./inp_files/70740.got.cif
#   From: 2010.05.17/outbox.cif.g08.bks.cpg/sg10_36_cif.got.tgz:70740.got - 2010.06.03 11:33:40.
