data_PCOD9147293
_publ_section_title
;
Structure prediction by ZEFSAII (Michael W. Deem and Ramdas Pophale) SiO2 
 PCOD9147293
Probable space group: P 2/M
;
_chemical_formula_sum "Si O2"
_cell_formula_units_Z 30
_cell_length_a 9.885310
_cell_length_b 29.019768
_cell_length_c 5.397466
_cell_angle_alpha 90.000000
_cell_angle_beta 105.564102
_cell_angle_gamma 90.000000
_cell_volume 1491.590540
_symmetry_space_group_name_H-M "P 2/M"
_symmetry_group_IT_number 10
_symmetry_cell_setting 'monoclinic'
loop_
_space_group_symop_operation_xyz
x,y,z
-x,y,-z
-x,-y,-z
x,-y,z
loop_
_atom_site_type_symbol
_atom_site_label
_atom_site_fract_x
_atom_site_fract_y
_atom_site_fract_z
Si Si1 0.092176 0.000000 0.295048
Si Si2 0.138241 0.308661 0.662839
Si Si3 0.364362 0.450273 0.755198
Si Si4 0.859837 0.402211 0.068201
Si Si5 0.652756 0.641567 0.576834
Si Si6 0.339785 0.822450 0.449247
Si Si7 0.904497 0.897603 0.702773
Si Si8 0.341868 0.762564 0.954388
O O1 0.161192 0.050515 0.327449
O O2 0.000000 0.000000 0.500000
O O3 0.000000 0.000000 0.000000
O O4 0.241282 0.322920 0.493727
O O5 0.227897 0.277530 0.888204
O O6 0.000000 0.283525 0.500000
O O7 0.091628 0.357469 0.754596
O O8 0.363033 0.500000 0.622672
O O9 0.371877 0.404273 0.599333
O O10 0.500000 0.450314 0.000000
O O11 0.216905 0.442856 0.823619
O O12 0.731362 0.379692 0.850171
O O13 0.000000 0.418326 0.000000
O O14 0.500000 0.664141 0.500000
O O15 0.500000 0.840953 0.500000
O O16 0.219431 0.860582 0.367629
O O17 0.323875 0.795964 0.705122
O O18 0.327529 0.788534 0.207346
O O19 0.000000 0.893391 0.500000
O O20 0.000000 0.892316 0.000000
O O21 0.500000 0.743548 0.000000
#
# Coordination Sequence:
#
# PCOD9147293 Si02
#       8
#     2   4   4   4   4   4   4   4
#     4   8  16  30  51  84 119 154 202 256 304 358
#     4  11  25  40  60  87 113 144 188 246 284 345
#     4  10  22  39  60  90 117 145 192 230 269 342
#     4  11  23  41  60  86 119 147 180 235 293 335
#     4  11  23  39  63  87 113 152 187 227 286 344
#     4  10  22  41  58  86 122 161 199 254 305 362
#     4  10  19  34  59  87 119 161 208 255 306 363
#     4  10  24  40  62  87 120 158 204 245 303 364
#
# _framework density 20.112756999999998
#
# number of rings (size 3 to 8) (size 9 to 14) (size 15 to 20)
#    0.000    1.733    2.667    0.800    3.733    3.200 
#    0.000    1.000    0.000    0.000    0.000    8.400 
#    0.000    0.000    0.000    0.000    0.000    0.000 
#
# Total GULP energy -167340.030344 kJ/mol
# GULP energy per Si atom -5578.001011 kJ/mol
# Density = 2.006698 g / cm^3
# Si number density = 20.112757 Si / 1000 Ang^3
#
#
#
# Elastic Constant Matrix: (Units=GPa)
#
#
# Indices 1 2 3 4 5 6 
#
# 1 116.2083 35.7930 19.7934 0.0000 8.2706 0.0000
# 2 35.7930 55.2168 11.4551 0.0000 19.2259 0.0000
# 3 19.7934 11.4551 91.0929 0.0000 8.2965 0.0000
# 4 0.0000 0.0000 0.0000 37.7072 0.0000 12.8105
# 5 8.2706 19.2259 8.2965 0.0000 31.8359 0.0000
# 6 0.0000 0.0000 0.0000 12.8105 0.0000 -8.7118
#
#
#
# Elastic Compliance Matrix: (Units=1/GPa)
#
#
# Indices 1 2 3 4 5 6 
#
# 1 0.011067 -0.007573 -0.001646 0.000000 0.002127 0.000000
# 2 -0.007573 0.028363 -0.000553 0.000000 -0.015017 0.000000
# 3 -0.001646 -0.000553 0.011611 0.000000 -0.002264 0.000000
# 4 0.000000 0.000000 0.000000 0.017685 0.000000 0.026006
# 5 0.002127 -0.015017 -0.002264 0.000000 0.040517 0.000000
# 6 0.000000 0.000000 0.000000 0.026006 0.000000 -0.076546
#
#
# Mechanical properties :
#
#
# Convention : Reuss Voigt Hill
#
# Bulk Modulus (GPa) = 31.75015 44.06679 37.90847
# Shear Modulus (GPa) = 79.69286 25.19803 52.44544
#
# Velocity S-wave (km/s) = 6.30151 3.54339 5.11198
# Velocity P-wave (km/s) = 8.29251 6.22079 7.33021
#
# Compressibility (1/GPa) = 0.03149592
#
# Stress axis : x y z
#
# Youngs Moduli (GPa) = 90.36078 35.25716 86.12303
#
# Poissons Ratio (x) = 0.26700 0.14177
# Poissons Ratio (y) = 0.68430 0.04767
# Poissons Ratio (z) = 0.14874 0.01951
#
# Static dielectric constant tensor:
#      x y z
#    x 3.204050 0.000000 0.579390 
#    y 0.000000 1.703710 0.000000 
#    z 0.579390 0.000000 2.048760 
# 
# From -- ./inp_files/5538.got.cif
#   From: 2010.05.17/outbox.cif.g08.bks.cpg/sg10_3_cif.got.tgz:5538.got - 2010.06.03 11:33:40.
