data_PCOD9147214
_publ_section_title
;
Structure prediction by ZEFSAII (Michael W. Deem and Ramdas Pophale) SiO2 
 PCOD9147214
Probable space group: P 2/M
;
_chemical_formula_sum "Si O2"
_cell_formula_units_Z 28
_cell_length_a 13.458596
_cell_length_b 7.552570
_cell_length_c 15.004860
_cell_angle_alpha 90.000000
_cell_angle_beta 54.459345
_cell_angle_gamma 90.000000
_cell_volume 1241.059272
_symmetry_space_group_name_H-M "P 2/M"
_symmetry_group_IT_number 10
_symmetry_cell_setting 'monoclinic'
loop_
_space_group_symop_operation_xyz
x,y,z
-x,y,-z
-x,-y,-z
x,-y,z
loop_
_atom_site_type_symbol
_atom_site_label
_atom_site_fract_x
_atom_site_fract_y
_atom_site_fract_z
Si Si1 0.145846 0.716087 0.660354
Si Si2 0.005565 0.716325 0.098947
Si Si3 0.474036 0.700499 0.778692
Si Si4 0.726097 0.713709 0.986542
Si Si5 0.412968 0.716454 0.463390
Si Si6 0.332243 0.800592 0.183756
Si Si7 0.942777 0.285512 0.623985
O O1 0.149195 0.500000 0.657961
O O2 0.275870 0.777425 0.556198
O O3 0.106740 0.771310 0.779930
O O4 0.036247 0.769316 0.652167
O O5 0.005215 0.500000 0.098316
O O6 0.134024 0.771898 0.075910
O O7 0.000000 0.775480 0.000000
O O8 0.437003 0.500000 0.772781
O O9 0.357369 0.781800 0.889060
O O10 0.531677 0.780062 0.659269
O O11 0.578360 0.691518 0.799929
O O12 0.726490 0.500000 0.990796
O O13 0.670342 0.758364 0.919583
O O14 0.500000 0.763363 0.500000
O O15 0.407393 0.500000 0.461772
O O16 0.193210 0.781494 0.289241
O O17 0.374934 0.000000 0.173060
O O18 0.935017 0.500000 0.629827
O O19 0.000000 0.232524 0.500000
#
# Coordination Sequence:
#
# PCOD9147214 Si02
#       7
#     4   4   4   4   4   4   4
#     4   9  16  28  48  76 110 142 172 216 269 326
#     4   9  17  28  49  80 110 139 178 226 279 331
#     4  10  21  36  56  81 112 148 188 232 279 333
#     4  10  20  36  57  82 111 146 187 232 279 334
#     4   9  18  31  51  83 117 144 176 222 278 332
#     4  12  24  37  55  81 114 148 187 234 284 336
#     4  10  19  34  58  83 111 147 186 226 273 329
#
# _framework density 22.561371000000001
#
# number of rings (size 3 to 8) (size 9 to 14) (size 15 to 20)
#    0.000    2.143    1.429    2.571    2.000    4.857 
#    0.000    0.000    0.000    0.857    0.000    0.000 
#    0.000    0.000    0.000    0.000    0.000    0.000 
#
# Total GULP energy -156489.742361 kJ/mol
# GULP energy per Si atom -5588.919370 kJ/mol
# Density = 2.251002 g / cm^3
# Si number density = 22.561371 Si / 1000 Ang^3
#
#
#
# Elastic Constant Matrix: (Units=GPa)
#
#
# Indices 1 2 3 4 5 6 
#
# 1 42.0982 -3.7070 29.5307 0.0000 2.8439 0.0000
# 2 -3.7070 59.9703 5.2697 0.0000 0.3147 0.0000
# 3 29.5307 5.2697 200.9772 0.0000 4.3630 0.0000
# 4 0.0000 0.0000 0.0000 82.3110 0.0000 61.9970
# 5 2.8439 0.3147 4.3630 0.0000 43.8372 0.0000
# 6 0.0000 0.0000 0.0000 61.9970 0.0000 18.3783
#
#
#
# Elastic Compliance Matrix: (Units=1/GPa)
#
#
# Indices 1 2 3 4 5 6 
#
# 1 0.026802 0.002012 -0.003961 0.000000 -0.001359 0.000000
# 2 0.002012 0.016865 -0.000734 0.000000 -0.000179 0.000000
# 3 -0.003961 -0.000734 0.005583 0.000000 -0.000293 0.000000
# 4 0.000000 0.000000 0.000000 -0.007885 0.000000 0.026598
# 5 -0.001359 -0.000179 -0.000293 0.000000 0.022930 0.000000
# 6 0.000000 0.000000 0.000000 0.026598 0.000000 -0.035313
#
#
# Mechanical properties :
#
#
# Convention : Reuss Voigt Hill
#
# Bulk Modulus (GPa) = 22.78783 40.58137 31.68460
# Shear Modulus (GPa) = 102.08899 47.03545 74.56222
#
# Velocity S-wave (km/s) = 6.73407 4.57089 5.75503
# Velocity P-wave (km/s) = 8.40154 6.77374 7.63117
#
# Compressibility (1/GPa) = 0.04388307
#
# Stress axis : x y z
#
# Youngs Moduli (GPa) = 37.31097 59.29544 179.10327
#
# Poissons Ratio (x) = -0.11930 0.70950
# Poissons Ratio (y) = -0.07507 0.13145
# Poissons Ratio (z) = 0.14780 0.04352
#
# Static dielectric constant tensor:
#      x y z
#    x 1.775220 0.000000 -0.000060 
#    y 0.000000 1.869100 0.000000 
#    z -0.000060 0.000000 1.822430 
# 
# From -- ./inp_files/66418.got.cif
#   From: 2010.05.17/outbox.cif.g08.bks.cpg/sg10_34_cif.got.tgz:66418.got - 2010.06.03 11:33:40.
