data_PCOD9147146
_publ_section_title
;
Structure prediction by ZEFSAII (Michael W. Deem and Ramdas Pophale) SiO2 
 PCOD9147146
Probable space group: P 2/M
;
_chemical_formula_sum "Si O2"
_cell_formula_units_Z 32
_cell_length_a 16.344076
_cell_length_b 13.692131
_cell_length_c 11.614376
_cell_angle_alpha 90.000000
_cell_angle_beta 33.948557
_cell_angle_gamma 90.000000
_cell_volume 1451.477455
_symmetry_space_group_name_H-M "P 2/M"
_symmetry_group_IT_number 10
_symmetry_cell_setting 'monoclinic'
loop_
_space_group_symop_operation_xyz
x,y,z
-x,y,-z
-x,-y,-z
x,-y,z
loop_
_atom_site_type_symbol
_atom_site_label
_atom_site_fract_x
_atom_site_fract_y
_atom_site_fract_z
Si Si1 0.859805 0.114415 0.594761
Si Si2 0.905017 0.389443 0.373692
Si Si3 0.135427 0.750408 0.021978
Si Si4 0.249267 0.300097 0.660483
Si Si5 0.820090 0.388238 0.715841
Si Si6 0.470906 0.207758 0.662450
Si Si7 0.595560 0.217821 0.005745
Si Si8 0.127899 0.884195 0.684525
O O1 0.715304 0.136012 0.834404
O O2 0.838755 0.145350 0.487073
O O3 0.000000 0.156541 0.500000
O O4 0.886869 0.000000 0.552606
O O5 0.958916 0.500000 0.309776
O O6 0.815926 0.363800 0.363765
O O7 0.794828 0.378747 0.608037
O O8 0.042041 0.315576 0.217526
O O9 0.158675 0.685060 0.881577
O O10 0.297097 0.779679 0.866140
O O11 0.038701 0.845927 0.107266
O O12 0.422810 0.301962 0.473294
O O13 0.220084 0.185591 0.660494
O O14 0.794533 0.500000 0.783715
O O15 0.700976 0.312797 0.904948
O O16 0.000000 0.375941 0.500000
O O17 0.500000 0.157295 0.500000
O O18 0.490837 0.184250 0.777607
O O19 0.500000 0.231504 0.000000
O O20 0.145094 0.000000 0.681918
#
# Coordination Sequence:
#
# PCOD9147146 Si02
#       8
#     4   4   4   4   4   4   4   4
#     4  10  21  36  56  83 112 142 182 232 282 334
#     4  10  19  34  57  83 110 140 181 235 286 329
#     4  10  20  35  57  79 109 149 187 228 272 334
#     4  10  21  37  53  77 111 147 190 230 272 330
#     4  10  21  36  56  83 112 142 182 232 282 334
#     4  10  22  40  58  80 116 156 188 226 278 332
#     4  12  22  36  62  86 112 150 188 230 280 332
#     4  10  19  34  57  83 110 140 181 235 286 329
#
# _framework density 22.046500000000002
#
# number of rings (size 3 to 8) (size 9 to 14) (size 15 to 20)
#    0.000    1.750    0.000    6.375    0.000    2.500 
#    0.000    2.500    0.000    8.250    0.000    0.000 
#    0.000    0.000    0.000    0.000    0.000    0.000 
#
# Total GULP energy -178138.624267 kJ/mol
# GULP energy per Si atom -5566.832008 kJ/mol
# Density = 2.199632 g / cm^3
# Si number density = 22.046500 Si / 1000 Ang^3
#
#
#
# Elastic Constant Matrix: (Units=GPa)
#
#
# Indices 1 2 3 4 5 6 
#
# 1 90.4296 -12.9246 21.2978 0.0000 7.4658 0.0000
# 2 -12.9246 36.7669 -19.3603 0.0000 3.1576 0.0000
# 3 21.2978 -19.3603 89.8521 0.0000 16.9561 0.0000
# 4 0.0000 0.0000 0.0000 4.4300 0.0000 0.3319
# 5 7.4658 3.1576 16.9561 0.0000 51.3494 0.0000
# 6 0.0000 0.0000 0.0000 0.3319 0.0000 8.7729
#
#
#
# Elastic Compliance Matrix: (Units=1/GPa)
#
#
# Indices 1 2 3 4 5 6 
#
# 1 0.012096 0.003374 -0.001887 0.000000 -0.001343 0.000000
# 2 0.003374 0.032555 0.007129 0.000000 -0.004847 0.000000
# 3 -0.001887 0.007129 0.014017 0.000000 -0.004793 0.000000
# 4 0.000000 0.000000 0.000000 0.226373 0.000000 -0.008563
# 5 -0.001343 -0.004847 -0.004793 0.000000 0.021550 0.000000
# 6 0.000000 0.000000 0.000000 -0.008563 0.000000 0.114311
#
#
# Mechanical properties :
#
#
# Convention : Reuss Voigt Hill
#
# Bulk Modulus (GPa) = 13.17507 21.67496 17.42502
# Shear Modulus (GPa) = 11.65584 28.11284 19.88434
#
# Velocity S-wave (km/s) = 2.30183 3.57481 3.00647
# Velocity P-wave (km/s) = 3.61297 5.18574 4.46908
#
# Compressibility (1/GPa) = 0.07590092
#
# Stress axis : x y z
#
# Youngs Moduli (GPa) = 82.67361 30.71751 71.34098
#
# Poissons Ratio (x) = -0.10364 0.13460
# Poissons Ratio (y) = -0.27893 -0.50862
# Poissons Ratio (z) = 0.15598 -0.21900
#
# Static dielectric constant tensor:
#      x y z
#    x 1.966700 0.000000 0.027400 
#    y 0.000000 1.788860 0.000000 
#    z 0.027400 0.000000 1.812110 
# 
# From -- ./inp_files/54026.got.cif
#   From: 2010.05.17/outbox.cif.g08.bks.cpg/sg10_28_cif.got.tgz:54026.got - 2010.06.03 11:33:40.
