data_PCOD9147352
_publ_section_title
;
Structure prediction by ZEFSAII (Michael W. Deem and Ramdas Pophale) SiO2 
 PCOD9147352
Probable space group: P 2/M
;
_chemical_formula_sum "Si O2"
_cell_formula_units_Z 32
_cell_length_a 21.966857
_cell_length_b 7.614811
_cell_length_c 12.388522
_cell_angle_alpha 90.000000
_cell_angle_beta 133.360623
_cell_angle_gamma 90.000000
_cell_volume 1506.637799
_symmetry_space_group_name_H-M "P 2/M"
_symmetry_group_IT_number 10
_symmetry_cell_setting 'monoclinic'
loop_
_space_group_symop_operation_xyz
x,y,z
-x,y,-z
-x,-y,-z
x,-y,z
loop_
_atom_site_type_symbol
_atom_site_label
_atom_site_fract_x
_atom_site_fract_y
_atom_site_fract_z
Si Si1 0.854603 0.297882 0.068670
Si Si2 0.795396 0.796337 0.375619
Si Si3 0.577805 0.785049 0.736305
Si Si4 0.713639 0.202351 0.062093
Si Si5 0.388690 0.212130 0.463447
Si Si6 0.096339 0.284775 0.106709
Si Si7 0.762159 0.295484 0.563245
Si Si8 0.017937 0.789525 0.395749
O O1 0.827077 0.500000 0.028729
O O2 0.789394 0.204567 0.068119
O O3 0.946191 0.290925 0.234407
O O4 0.863999 0.227190 0.958921
O O5 0.747624 0.717117 0.214848
O O6 0.746680 0.789322 0.428470
O O7 0.888176 0.722907 0.510344
O O8 0.811245 0.000000 0.364982
O O9 0.616780 0.731450 0.668283
O O10 0.480604 0.733215 0.617299
O O11 0.579533 0.000000 0.739090
O O12 0.633738 0.719929 0.903243
O O13 0.691182 0.000000 0.059012
O O14 0.314229 0.276313 0.447366
O O15 0.386699 0.000000 0.461996
O O16 0.096974 0.500000 0.106386
O O17 0.154899 0.224854 0.275977
O O18 0.000000 0.229638 0.000000
O O19 0.775664 0.500000 0.558226
O O20 0.000000 0.756684 0.500000
O O21 0.013236 0.000000 0.372095
#
# Coordination Sequence:
#
# PCOD9147352 Si02
#       8
#     4   4   4   4   4   4   4   4
#     4  11  21  32  52  80 106 136 175 218 264 315
#     4  10  21  36  54  74 102 140 180 221 262 306
#     4   8  16  32  59  86 107 134 172 218 265 315
#     4  10  19  35  55  77 105 138 173 216 268 314
#     4   9  17  34  58  85 110 134 171 218 264 315
#     4   9  19  35  51  71 104 140 173 213 258 306
#     4  11  22  36  55  77 106 144 180 213 262 320
#     4  10  19  35  53  73 103 140 177 219 264 304
#
# _framework density 21.239343999999999
#
# number of rings (size 3 to 8) (size 9 to 14) (size 15 to 20)
#    0.000    2.250    1.250    3.000    0.000    2.250 
#    0.000    4.375    0.000    8.250    0.000    0.000 
#    0.000    0.000    0.000    0.000    0.000    0.000 
#
# Total GULP energy -178742.471906 kJ/mol
# GULP energy per Si atom -5585.702247 kJ/mol
# Density = 2.119100 g / cm^3
# Si number density = 21.239344 Si / 1000 Ang^3
#
#
#
# Elastic Constant Matrix: (Units=GPa)
#
#
# Indices 1 2 3 4 5 6 
#
# 1 84.2629 -4.6512 35.8370 0.0000 -3.5413 0.0000
# 2 -4.6512 45.6689 1.0510 0.0000 -2.0375 0.0000
# 3 35.8370 1.0510 137.8717 0.0000 -4.3750 0.0000
# 4 0.0000 0.0000 0.0000 1.0177 0.0000 1.1712
# 5 -3.5413 -2.0375 -4.3750 0.0000 28.3092 0.0000
# 6 0.0000 0.0000 0.0000 1.1712 0.0000 18.8953
#
#
#
# Elastic Compliance Matrix: (Units=1/GPa)
#
#
# Indices 1 2 3 4 5 6 
#
# 1 0.013482 0.001509 -0.003476 0.000000 0.001258 0.000000
# 2 0.001509 0.022138 -0.000507 0.000000 0.001704 0.000000
# 3 -0.003476 -0.000507 0.008186 0.000000 0.000794 0.000000
# 4 0.000000 0.000000 0.000000 1.058134 0.000000 -0.065589
# 5 0.001258 0.001704 0.000794 0.000000 0.035727 0.000000
# 6 0.000000 0.000000 0.000000 -0.065589 0.000000 0.056989
#
#
# Mechanical properties :
#
#
# Convention : Reuss Voigt Hill
#
# Bulk Modulus (GPa) = 25.73444 36.91967 31.32706
# Shear Modulus (GPa) = 4.12352 25.34888 14.73620
#
# Velocity S-wave (km/s) = 1.39487 3.45844 2.63690
# Velocity P-wave (km/s) = 3.83887 5.77651 4.90434
#
# Compressibility (1/GPa) = 0.03885843
#
# Stress axis : x y z
#
# Youngs Moduli (GPa) = 74.17218 45.17094 122.16439
#
# Poissons Ratio (x) = -0.06817 0.42464
# Poissons Ratio (y) = -0.11194 0.06194
# Poissons Ratio (z) = 0.25782 0.02290
#
# Static dielectric constant tensor:
#      x y z
#    x 1.732080 0.000000 -0.002590 
#    y 0.000000 1.805770 0.000000 
#    z -0.002590 0.000000 1.779340 
# 
# From -- ./inp_files/55343.got.cif
#   From: 2010.05.17/outbox.cif.g08.bks.cpg/sg10_28_cif.got.tgz:55343.got - 2010.06.03 11:33:40.
