data_PCOD9147798
_publ_section_title
;
Structure prediction by ZEFSAII (Michael W. Deem and Ramdas Pophale) SiO2 
 PCOD9147798
Probable space group: P 2/M
;
_chemical_formula_sum "Si O2"
_cell_formula_units_Z 24
_cell_length_a 25.687304
_cell_length_b 8.060033
_cell_length_c 4.926723
_cell_angle_alpha 90.000000
_cell_angle_beta 90.737975
_cell_angle_gamma 90.000000
_cell_volume 1019.946673
_symmetry_space_group_name_H-M "P 2/M"
_symmetry_group_IT_number 10
_symmetry_cell_setting 'monoclinic'
loop_
_space_group_symop_operation_xyz
x,y,z
-x,y,-z
-x,-y,-z
x,-y,z
loop_
_atom_site_type_symbol
_atom_site_label
_atom_site_fract_x
_atom_site_fract_y
_atom_site_fract_z
Si Si1 0.449324 0.807921 0.651529
Si Si2 0.113693 0.194020 0.651584
Si Si3 0.219986 0.201833 0.385631
Si Si4 0.716842 0.200415 0.110384
Si Si5 0.390584 0.311120 0.159333
Si Si6 0.052480 0.693862 0.147973
O O1 0.500000 0.739552 0.500000
O O2 0.432853 0.719542 0.925617
O O3 0.459222 0.000000 0.720176
O O4 0.403714 0.797062 0.423896
O O5 0.165878 0.259573 0.509514
O O6 0.097044 0.284483 0.924149
O O7 0.121108 0.000000 0.719854
O O8 0.069010 0.214511 0.422065
O O9 0.267099 0.251807 0.587526
O O10 0.217139 0.000000 0.386713
O O11 0.235559 0.249815 0.084443
O O12 0.664041 0.270332 0.985409
O O13 0.712427 0.000000 0.106135
O O14 0.391792 0.500000 0.251255
O O15 0.045147 0.500000 0.213738
O O16 0.000000 0.756643 0.000000
#
# Coordination Sequence:
#
# PCOD9147798 Si02
#       6
#     4   4   4   4   4   4
#     4  11  24  43  66  90 118 159 208 247 288 356
#     4  11  22  39  64  92 118 149 200 255 298 346
#     4   9  19  35  58  86 114 149 194 245 294 344
#     4  10  19  36  60  83 114 158 200 234 284 355
#     4  12  25  40  61  93 128 157 194 249 306 349
#     4  11  24  41  59  84 122 163 198 237 296 364
#
# _framework density 23.530642
#
# number of rings (size 3 to 8) (size 9 to 14) (size 15 to 20)
#    0.000    1.333    0.000    6.000    0.000   10.667 
#    0.000    5.000    0.000    0.000    0.000    0.000 
#    0.000    0.000    0.000    0.000    0.000    0.000 
#
# Total GULP energy -134375.373733 kJ/mol
# GULP energy per Si atom -5598.973906 kJ/mol
# Density = 2.347709 g / cm^3
# Si number density = 23.530642 Si / 1000 Ang^3
#
#
#
# Elastic Constant Matrix: (Units=GPa)
#
#
# Indices 1 2 3 4 5 6 
#
# 1 64.0641 -2.0802 -9.1697 0.0000 -1.0945 0.0000
# 2 -2.0802 35.6955 -2.5582 0.0000 -3.1718 0.0000
# 3 -9.1697 -2.5582 87.8063 0.0000 -0.2260 0.0000
# 4 0.0000 0.0000 0.0000 418.2136 0.0000 141.5221
# 5 -1.0945 -3.1718 -0.2260 0.0000 37.8650 0.0000
# 6 0.0000 0.0000 0.0000 141.5221 0.0000 3.9889
#
#
#
# Elastic Compliance Matrix: (Units=1/GPa)
#
#
# Indices 1 2 3 4 5 6 
#
# 1 0.015897 0.001098 0.001694 0.000000 0.000562 0.000000
# 2 0.001098 0.028361 0.000947 0.000000 0.002413 0.000000
# 3 0.001694 0.000947 0.011594 0.000000 0.000197 0.000000
# 4 0.000000 0.000000 0.000000 -0.000217 0.000000 0.007708
# 5 0.000562 0.002413 0.000197 0.000000 0.026629 0.000000
# 6 0.000000 0.000000 0.000000 0.007708 0.000000 -0.022778
#
#
# Mechanical properties :
#
#
# Convention : Reuss Voigt Hill
#
# Bulk Modulus (GPa) = 15.79068 17.77217 16.78143
# Shear Modulus (GPa) = 68.38253 105.43843 86.91048
#
# Velocity S-wave (km/s) = 5.39668 6.70121 6.08401
# Velocity P-wave (km/s) = 6.74963 8.21244 7.51670
#
# Compressibility (1/GPa) = 0.06332848
#
# Stress axis : x y z
#
# Youngs Moduli (GPa) = 62.90494 35.25973 86.25394
#
# Poissons Ratio (x) = -0.03870 -0.14608
# Poissons Ratio (y) = -0.06905 -0.08169
# Poissons Ratio (z) = -0.10653 -0.03340
#
# Static dielectric constant tensor:
#      x y z
#    x 1.934010 0.000000 -0.005450 
#    y 0.000000 1.824020 0.000000 
#    z -0.005450 0.000000 1.820260 
# 
# From -- ./inp_files/13001.got.cif
#   From: 2010.05.17/outbox.cif.g08.bks.cpg/sg10_7_cif.got.tgz:13001.got - 2010.06.03 11:33:40.
