data_PCOD9147596
_publ_section_title
;
Structure prediction by ZEFSAII (Michael W. Deem and Ramdas Pophale) SiO2 
 PCOD9147596
Probable space group: P 2/M
;
_chemical_formula_sum "Si O2"
_cell_formula_units_Z 22
_cell_length_a 13.064559
_cell_length_b 12.328943
_cell_length_c 16.760970
_cell_angle_alpha 90.000000
_cell_angle_beta 25.182722
_cell_angle_gamma 90.000000
_cell_volume 1148.750886
_symmetry_space_group_name_H-M "P 2/M"
_symmetry_group_IT_number 10
_symmetry_cell_setting 'monoclinic'
loop_
_space_group_symop_operation_xyz
x,y,z
-x,y,-z
-x,-y,-z
x,-y,z
loop_
_atom_site_type_symbol
_atom_site_label
_atom_site_fract_x
_atom_site_fract_y
_atom_site_fract_z
Si Si1 0.858850 0.258699 0.015641
Si Si2 0.860208 0.500000 0.014323
Si Si3 0.861794 0.272722 0.342037
Si Si4 0.783152 0.623565 0.792606
Si Si5 0.712010 0.500000 0.412965
Si Si6 0.000000 0.761611 0.500000
Si Si7 0.629741 0.129154 0.638135
O O1 0.745102 0.381047 0.091452
O O2 0.638796 0.176350 0.160791
O O3 0.000000 0.247221 0.000000
O O4 0.059112 0.248910 0.804223
O O5 0.000000 0.500000 0.000000
O O6 0.042915 0.500000 0.811107
O O7 0.706176 0.383747 0.459280
O O8 0.731017 0.179309 0.483723
O O9 0.105849 0.305413 0.215115
O O10 0.878552 0.500000 0.728837
O O11 0.856420 0.683346 0.660590
O O12 0.500000 0.618864 0.000000
O O13 0.500000 0.500000 0.500000
O O14 0.812157 0.830231 0.579058
O O15 0.626654 0.000000 0.638185
#
# Coordination Sequence:
#
# PCOD9147596 Si02
#       7
#     4   2   4   4   2   2   4
#     4  10  22  40  62  91 126 158 198 245 297 359
#     4   8  18  34  54  88 116 151 190 230 290 353
#     4  10  22  38  59  92 121 157 197 243 299 358
#     4  10  19  35  59  87 124 153 185 240 306 369
#     4  10  20  32  59  84 120 153 188 237 291 359
#     4  10  22  42  60  86 114 153 207 254 300 352
#     4  11  25  42  63  85 116 163 210 254 297 348
#
# _framework density 19.151236999999998
#
# number of rings (size 3 to 8) (size 9 to 14) (size 15 to 20)
#    0.000    2.000    0.909    1.636    7.636    1.091 
#    3.273    0.909    0.000    6.000    0.000    0.000 
#    0.000    0.000    0.000    0.000    0.000    0.000 
#
# Total GULP energy -122737.915341 kJ/mol
# GULP energy per Si atom -5578.996152 kJ/mol
# Density = 1.910765 g / cm^3
# Si number density = 19.151237 Si / 1000 Ang^3
#
#
#
# Elastic Constant Matrix: (Units=GPa)
#
#
# Indices 1 2 3 4 5 6 
#
# 1 79.2984 32.2030 37.7751 0.0000 16.2978 0.0000
# 2 32.2030 124.7068 49.0115 0.0000 4.9245 0.0000
# 3 37.7751 49.0115 72.3751 0.0000 9.9594 0.0000
# 4 0.0000 0.0000 0.0000 29.1691 0.0000 -1.1535
# 5 16.2978 4.9245 9.9594 0.0000 37.0484 0.0000
# 6 0.0000 0.0000 0.0000 -1.1535 0.0000 21.1138
#
#
#
# Elastic Compliance Matrix: (Units=1/GPa)
#
#
# Indices 1 2 3 4 5 6 
#
# 1 0.017997 -0.001415 -0.007655 0.000000 -0.005671 0.000000
# 2 -0.001415 0.011049 -0.006882 0.000000 0.001004 0.000000
# 3 -0.007655 -0.006882 0.022724 0.000000 -0.001827 0.000000
# 4 0.000000 0.000000 0.000000 0.034357 0.000000 0.001877
# 5 -0.005671 0.001004 -0.001827 0.000000 0.029844 0.000000
# 6 0.000000 0.000000 0.000000 0.001877 0.000000 0.047465
#
#
# Mechanical properties :
#
#
# Convention : Reuss Voigt Hill
#
# Bulk Modulus (GPa) = 50.33497 57.15108 53.74302
# Shear Modulus (GPa) = 24.75704 27.95897 26.35800
#
# Velocity S-wave (km/s) = 3.59933 3.82501 3.71389
# Velocity P-wave (km/s) = 6.60405 7.02954 6.82011
#
# Compressibility (1/GPa) = 0.01986690
#
# Stress axis : x y z
#
# Youngs Moduli (GPa) = 55.56382 90.50341 44.00644
#
# Poissons Ratio (x) = 0.12807 0.33686
# Poissons Ratio (y) = 0.07863 0.30285
# Poissons Ratio (z) = 0.42533 0.62285
#
# Static dielectric constant tensor:
#      x y z
#    x 1.670750 0.000000 0.010370 
#    y 0.000000 1.663260 0.000000 
#    z 0.010370 0.000000 1.663410 
# 
# From -- ./inp_files/64628.got.cif
#   From: 2010.05.17/outbox.cif.g08.bks.cpg/sg10_33_cif.got.tgz:64628.got - 2010.06.03 11:33:40.
