data_PCOD9147668
_publ_section_title
;
Structure prediction by ZEFSAII (Michael W. Deem and Ramdas Pophale) SiO2 
 PCOD9147668
Probable space group: P 2/M
;
_chemical_formula_sum "Si O2"
_cell_formula_units_Z 30
_cell_length_a 20.373689
_cell_length_b 16.341987
_cell_length_c 8.531182
_cell_angle_alpha 90.000000
_cell_angle_beta 30.477247
_cell_angle_gamma 90.000000
_cell_volume 1440.654018
_symmetry_space_group_name_H-M "P 2/M"
_symmetry_group_IT_number 10
_symmetry_cell_setting 'monoclinic'
loop_
_space_group_symop_operation_xyz
x,y,z
-x,y,-z
-x,-y,-z
x,-y,z
loop_
_atom_site_type_symbol
_atom_site_label
_atom_site_fract_x
_atom_site_fract_y
_atom_site_fract_z
Si Si1 0.912648 0.408003 0.028499
Si Si2 0.873157 0.845197 0.357285
Si Si3 0.313003 0.814527 0.527425
Si Si4 0.219033 0.000000 0.320321
Si Si5 0.276836 0.714347 0.136573
Si Si6 0.356502 0.637404 0.278143
Si Si7 0.551823 0.129349 0.225437
Si Si8 0.876272 0.727593 0.846779
O O1 0.948034 0.500000 0.905949
O O2 0.763223 0.405808 0.391563
O O3 0.924280 0.341755 0.867704
O O4 0.000000 0.386947 0.000000
O O5 0.763648 0.861495 0.450206
O O6 0.828218 0.768843 0.552892
O O7 0.887149 0.926948 0.427730
O O8 0.000000 0.823175 0.000000
O O9 0.356914 0.728798 0.356571
O O10 0.434380 0.863620 0.344914
O O11 0.211833 0.790911 0.873610
O O12 0.330846 0.071330 0.063566
O O13 0.322685 0.646720 0.164348
O O14 0.216510 0.689503 0.095951
O O15 0.392572 0.778710 0.871184
O O16 0.500000 0.602874 0.000000
O O17 0.500000 0.102102 0.500000
O O18 0.000000 0.763559 0.500000
#
# Coordination Sequence:
#
# PCOD9147668 Si02
#       8
#     4   4   4   2   4   4   4   4
#     4  10  23  42  61  86 125 167 196 229 285 354
#     4  10  21  38  56  80 119 152 198 250 298 350
#     4  10  21  34  59  87 113 151 188 251 307 343
#     4  10  24  35  58  79 110 162 206 233 296 367
#     4  10  20  33  60  89 113 152 190 250 303 343
#     4  10  19  35  61  92 119 150 200 248 295 348
#     4  11  20  37  56  83 120 148 193 246 300 357
#     4  11  21  36  60  90 116 147 196 240 292 351
#
# _framework density 20.823875999999998
#
# number of rings (size 3 to 8) (size 9 to 14) (size 15 to 20)
#    0.000    1.733    2.667    2.000    0.000    5.333 
#    0.000    0.667    0.000    1.600    0.000    0.000 
#    0.000    0.000    0.000    0.000    0.000    0.000 
#
# Total GULP energy -167098.887015 kJ/mol
# GULP energy per Si atom -5569.962900 kJ/mol
# Density = 2.077648 g / cm^3
# Si number density = 20.823876 Si / 1000 Ang^3
#
#
#
# Elastic Constant Matrix: (Units=GPa)
#
#
# Indices 1 2 3 4 5 6 
#
# 1 97.7480 -2.4974 2.7985 0.0000 3.2636 0.0000
# 2 -2.4974 34.3166 -3.8942 0.0000 3.9380 0.0000
# 3 2.7985 -3.8942 99.9715 0.0000 9.0703 0.0000
# 4 0.0000 0.0000 0.0000 -5.6270 0.0000 150.4647
# 5 3.2636 3.9380 9.0703 0.0000 28.0588 0.0000
# 6 0.0000 0.0000 0.0000 150.4647 0.0000-2021.7410
#
#
#
# Elastic Compliance Matrix: (Units=1/GPa)
#
#
# Indices 1 2 3 4 5 6 
#
# 1 0.010299 0.000880 -0.000138 0.000000 -0.001277 0.000000
# 2 0.000880 0.029936 0.001578 0.000000 -0.004814 0.000000
# 3 -0.000138 0.001578 0.010392 0.000000 -0.003565 0.000000
# 4 0.000000 0.000000 0.000000 0.179499 0.000000 0.013359
# 5 -0.001277 -0.004814 -0.003565 0.000000 0.037616 0.000000
# 6 0.000000 0.000000 0.000000 0.013359 0.000000 0.000500
#
#
# Mechanical properties :
#
#
# Convention : Reuss Voigt Hill
#
# Bulk Modulus (GPa) = 18.09365 24.98332 21.53848
# Shear Modulus (GPa) = 17.72901 -384.15324 -183.21211
#
# Velocity S-wave (km/s) = 2.92101 -13.59698 -9.39003
# Velocity P-wave (km/s) = 4.48153 15.31275 10.35365
#
# Compressibility (1/GPa) = 0.05526801
#
# Stress axis : x y z
#
# Youngs Moduli (GPa) = 97.09235 33.40460 96.23145
#
# Poissons Ratio (x) = -0.02941 0.01330
# Poissons Ratio (y) = -0.08548 -0.15188
# Poissons Ratio (z) = 0.01342 -0.05272
#
# Static dielectric constant tensor:
#      x y z
#    x 1.774810 0.000000 -0.010830 
#    y 0.000000 1.730700 0.000000 
#    z -0.010830 0.000000 1.780750 
# 
# From -- ./inp_files/35413.got.cif
#   From: 2010.05.17/outbox.cif.g08.bks.cpg/sg10_18_cif.got.tgz:35413.got - 2010.06.03 11:33:40.
