data_PCOD9147691
_publ_section_title
;
Structure prediction by ZEFSAII (Michael W. Deem and Ramdas Pophale) SiO2 
 PCOD9147691
Probable space group: P 2/M
;
_chemical_formula_sum "Si O2"
_cell_formula_units_Z 32
_cell_length_a 13.552905
_cell_length_b 17.734241
_cell_length_c 11.484081
_cell_angle_alpha 90.000000
_cell_angle_beta 147.338122
_cell_angle_gamma 90.000000
_cell_volume 1489.627945
_symmetry_space_group_name_H-M "P 2/M"
_symmetry_group_IT_number 10
_symmetry_cell_setting 'monoclinic'
loop_
_space_group_symop_operation_xyz
x,y,z
-x,y,-z
-x,-y,-z
x,-y,z
loop_
_atom_site_type_symbol
_atom_site_label
_atom_site_fract_x
_atom_site_fract_y
_atom_site_fract_z
Si Si1 0.957851 0.634383 0.725472
Si Si2 0.515708 0.175967 0.386113
Si Si3 0.605132 0.348302 0.487498
Si Si4 0.706446 0.831856 0.215525
Si Si5 0.792056 0.330547 0.331032
Si Si6 0.660223 0.585530 0.970580
Si Si7 0.867596 0.198093 0.118820
Si Si8 0.816769 0.088667 0.546046
O O1 0.813406 0.623165 0.684828
O O2 0.831717 0.621516 0.485260
O O3 0.141602 0.587201 0.895641
O O4 0.033388 0.720895 0.795482
O O5 0.500000 0.143495 0.500000
O O6 0.613564 0.257354 0.492670
O O7 0.632278 0.122110 0.419098
O O8 0.314154 0.193133 0.137986
O O9 0.500000 0.371282 0.500000
O O10 0.481315 0.374362 0.255814
O O11 0.698882 0.748852 0.267719
O O12 0.797963 0.816381 0.181900
O O13 0.812021 0.887343 0.405641
O O14 0.500000 0.859870 0.000000
O O15 0.692194 0.370775 0.124453
O O16 0.000000 0.312247 0.500000
O O17 0.604475 0.500000 0.938186
O O18 0.012498 0.133787 0.231219
O O19 0.830450 0.000000 0.574317
#
# Coordination Sequence:
#
# PCOD9147691 Si02
#       8
#     4   4   4   4   4   4   4   4
#     4  11  22  40  71  97 134 177 223 272 337 405
#     4  11  24  46  72  99 131 181 240 286 326 399
#     4  11  24  44  70  98 129 181 239 283 326 396
#     4  12  21  37  70  99 135 178 218 272 342 411
#     4  10  19  35  64  96 128 173 211 265 330 408
#     4  11  25  43  65 102 142 175 221 282 346 403
#     4  12  22  43  70 100 132 181 222 274 339 412
#     4  12  27  44  67 104 142 177 224 283 347 407
#
# _framework density 21.481874999999999
#
# number of rings (size 3 to 8) (size 9 to 14) (size 15 to 20)
#    0.000    0.750    7.500    0.375    1.750    6.000 
#    0.000    1.875    0.000    0.000    0.000    0.000 
#    0.000    0.000    0.000    0.000    0.000    0.000 
#
# Total GULP energy -178922.624245 kJ/mol
# GULP energy per Si atom -5591.332008 kJ/mol
# Density = 2.143298 g / cm^3
# Si number density = 21.481875 Si / 1000 Ang^3
#
#
#
# Elastic Constant Matrix: (Units=GPa)
#
#
# Indices 1 2 3 4 5 6 
#
# 1 102.4325 7.4737 37.2552 0.0000 13.9034 0.0000
# 2 7.4737 79.3767 -5.0427 0.0000 -0.1516 0.0000
# 3 37.2552 -5.0427 62.2342 0.0000 10.8518 0.0000
# 4 0.0000 0.0000 0.0000 -99.9148 0.0000 -111.7343
# 5 13.9034 -0.1516 10.8518 0.0000 29.4650 0.0000
# 6 0.0000 0.0000 0.0000 -111.7343 0.0000 -100.7883
#
#
#
# Elastic Compliance Matrix: (Units=1/GPa)
#
#
# Indices 1 2 3 4 5 6 
#
# 1 0.013021 -0.001698 -0.007330 0.000000 -0.003453 0.000000
# 2 -0.001698 0.012888 0.002041 0.000000 0.000116 0.000000
# 3 -0.007330 0.002041 0.021391 0.000000 -0.004409 0.000000
# 4 0.000000 0.000000 0.000000 0.041746 0.000000 -0.046280
# 5 -0.003453 0.000116 -0.004409 0.000000 0.037192 0.000000
# 6 0.000000 0.000000 0.000000 -0.046280 0.000000 0.041384
#
#
# Mechanical properties :
#
#
# Convention : Reuss Voigt Hill
#
# Bulk Modulus (GPa) = 30.00859 35.93510 32.97184
# Shear Modulus (GPa) = 25.94620 -20.62380 2.66120
#
# Velocity S-wave (km/s) = 3.47914 -3.10184 1.11423
# Velocity P-wave (km/s) = 5.48988 1.98391 4.12763
#
# Compressibility (1/GPa) = 0.03332380
#
# Stress axis : x y z
#
# Youngs Moduli (GPa) = 76.79761 77.59206 46.74954
#
# Poissons Ratio (x) = 0.13177 0.34269
# Poissons Ratio (y) = 0.13043 -0.09540
# Poissons Ratio (z) = 0.56295 -0.15834
#
# Static dielectric constant tensor:
#      x y z
#    x 1.861600 0.000000 -0.009940 
#    y 0.000000 1.735060 0.000000 
#    z -0.009940 0.000000 1.775810 
# 
# From -- ./inp_files/51980.got.cif
#   From: 2010.05.17/outbox.cif.g08.bks.cpg/sg10_26_cif.got.tgz:51980.got - 2010.06.03 11:33:40.
