data_PCOD9147458
_publ_section_title
;
Structure prediction by ZEFSAII (Michael W. Deem and Ramdas Pophale) SiO2 
 PCOD9147458
Probable space group: P 2/M
;
_chemical_formula_sum "Si O2"
_cell_formula_units_Z 28
_cell_length_a 16.671506
_cell_length_b 7.545549
_cell_length_c 18.352770
_cell_angle_alpha 90.000000
_cell_angle_beta 145.294333
_cell_angle_gamma 90.000000
_cell_volume 1314.482747
_symmetry_space_group_name_H-M "P 2/M"
_symmetry_group_IT_number 10
_symmetry_cell_setting 'monoclinic'
loop_
_space_group_symop_operation_xyz
x,y,z
-x,y,-z
-x,-y,-z
x,-y,z
loop_
_atom_site_type_symbol
_atom_site_label
_atom_site_fract_x
_atom_site_fract_y
_atom_site_fract_z
Si Si1 0.698020 0.717977 0.436022
Si Si2 0.839199 0.283439 0.390231
Si Si3 0.148880 0.717791 0.146750
Si Si4 0.191453 0.793764 0.924974
Si Si5 0.130382 0.294833 0.296533
Si Si6 0.338773 0.285543 0.882290
Si Si7 0.622429 0.291647 0.796971
O O1 0.699801 0.500000 0.436302
O O2 0.773561 0.773765 0.417845
O O3 0.784233 0.779707 0.571236
O O4 0.536028 0.778818 0.317143
O O5 0.838767 0.500000 0.389843
O O6 0.745728 0.225535 0.251989
O O7 0.000000 0.226655 0.500000
O O8 0.148461 0.500000 0.146648
O O9 0.157825 0.780433 0.236674
O O10 0.276576 0.779619 0.191156
O O11 0.000000 0.770377 0.000000
O O12 0.261426 0.767306 0.898662
O O13 0.036768 0.709941 0.813613
O O14 0.170538 0.000000 0.923187
O O15 0.295189 0.725153 0.065305
O O16 0.174165 0.500000 0.324801
O O17 0.340704 0.500000 0.882599
O O18 0.500000 0.223795 0.000000
O O19 0.606976 0.500000 0.770043
#
# Coordination Sequence:
#
# PCOD9147458 Si02
#       7
#     4   4   4   4   4   4   4
#     4   9  18  31  54  86 110 137 179 228 280 328
#     4   9  16  28  48  76 106 133 170 217 263 316
#     4   9  16  29  53  84 111 140 178 224 277 326
#     4  12  24  36  53  80 111 147 189 227 271 324
#     4  10  19  35  58  82 110 142 181 226 274 327
#     4  10  20  35  57  80 104 139 181 227 277 324
#     4  10  19  35  57  80 111 144 182 231 279 331
#
# _framework density 21.301155000000001
#
# number of rings (size 3 to 8) (size 9 to 14) (size 15 to 20)
#    0.000    2.143    1.429    3.000    0.000    5.429 
#    0.000    5.000    0.000    3.857    0.000    2.000 
#    0.000    0.000    0.000    0.000    0.000    0.000 
#
# Total GULP energy -156469.431963 kJ/mol
# GULP energy per Si atom -5588.193999 kJ/mol
# Density = 2.125267 g / cm^3
# Si number density = 21.301155 Si / 1000 Ang^3
#
#
#
# Elastic Constant Matrix: (Units=GPa)
#
#
# Indices 1 2 3 4 5 6 
#
# 1 232.3776 -2.4118 134.4821 0.0000 -12.4069 0.0000
# 2 -2.4118 43.5347 -14.8529 0.0000 14.0816 0.0000
# 3 134.4821 -14.8529 205.2014 0.0000 10.5447 0.0000
# 4 0.0000 0.0000 0.0000 51.3120 0.0000 1.6172
# 5 -12.4069 14.0816 10.5447 0.0000 17.7795 0.0000
# 6 0.0000 0.0000 0.0000 1.6172 0.0000 -131.6096
#
#
#
# Elastic Compliance Matrix: (Units=1/GPa)
#
#
# Indices 1 2 3 4 5 6 
#
# 1 0.009685 -0.007819 -0.007817 0.000000 0.017588 0.000000
# 2 -0.007819 0.040011 0.010241 0.000000 -0.043220 0.000000
# 3 -0.007817 0.010241 0.011794 0.000000 -0.020561 0.000000
# 4 0.000000 0.000000 0.000000 0.019481 0.000000 0.000239
# 5 0.017588 -0.043220 -0.020561 0.000000 0.114943 0.000000
# 6 0.000000 0.000000 0.000000 0.000239 0.000000 -0.007595
#
#
# Mechanical properties :
#
#
# Convention : Reuss Voigt Hill
#
# Bulk Modulus (GPa) = 19.72368 79.50538 49.61453
# Shear Modulus (GPa) = 23.14724 11.75614 17.45169
#
# Velocity S-wave (km/s) = 3.30004 2.35181 2.86542
# Velocity P-wave (km/s) = 4.87851 6.69180 5.85577
#
# Compressibility (1/GPa) = 0.05070048
#
# Stress axis : x y z
#
# Youngs Moduli (GPa) = 103.25124 24.99323 84.78760
#
# Poissons Ratio (x) = 0.19543 0.66279
# Poissons Ratio (y) = 0.80735 -0.86835
# Poissons Ratio (z) = 0.80712 -0.25597
#
# Static dielectric constant tensor:
#      x y z
#    x 1.725830 0.000000 0.000760 
#    y 0.000000 1.780110 0.000000 
#    z 0.000760 0.000000 1.743600 
# 
# From -- ./inp_files/77818.got.cif
#   From: 2010.05.17/outbox.cif.g08.bks.cpg/sg10_39_cif.got.tgz:77818.got - 2010.06.03 11:33:40.
