data_PCOD9147732
_publ_section_title
;
Structure prediction by ZEFSAII (Michael W. Deem and Ramdas Pophale) SiO2 
 PCOD9147732
Probable space group: P 2/M
;
_chemical_formula_sum "Si O2"
_cell_formula_units_Z 28
_cell_length_a 18.072702
_cell_length_b 13.329015
_cell_length_c 8.799765
_cell_angle_alpha 90.000000
_cell_angle_beta 136.634289
_cell_angle_gamma 90.000000
_cell_volume 1455.557161
_symmetry_space_group_name_H-M "P 2/M"
_symmetry_group_IT_number 10
_symmetry_cell_setting 'monoclinic'
loop_
_space_group_symop_operation_xyz
x,y,z
-x,y,-z
-x,-y,-z
x,-y,z
loop_
_atom_site_type_symbol
_atom_site_label
_atom_site_fract_x
_atom_site_fract_y
_atom_site_fract_z
Si Si1 0.368585 0.616613 0.471877
Si Si2 0.612270 0.615311 0.865834
Si Si3 0.128518 0.881231 0.865703
Si Si4 0.940011 0.771062 0.767061
Si Si5 0.255447 0.821302 0.336951
Si Si6 0.382238 0.884748 0.788411
Si Si7 0.788729 0.752039 0.287070
O O1 0.346059 0.500000 0.481457
O O2 0.487869 0.646128 0.711179
O O3 0.375492 0.619103 0.298696
O O4 0.283388 0.702531 0.386775
O O5 0.619345 0.500000 0.924165
O O6 0.709783 0.674319 0.087219
O O7 0.147999 0.817959 0.742626
O O8 0.025635 0.836963 0.801699
O O9 0.118605 0.000000 0.824058
O O10 0.228846 0.858016 0.128963
O O11 0.851887 0.838871 0.723244
O O12 0.872803 0.711139 0.538864
O O13 0.000000 0.718223 0.000000
O O14 0.352515 0.875749 0.566800
O O15 0.293128 0.823910 0.745867
O O16 0.378657 0.000000 0.831202
O O17 0.500000 0.844203 0.000000
#
# Coordination Sequence:
#
# PCOD9147732 Si02
#       7
#     4   4   4   4   4   4   4
#     4   9  17  33  59  89 118 146 182 226 281 343
#     4   9  18  33  58  90 117 145 181 230 287 339
#     4  11  22  36  57  85 109 142 197 250 284 327
#     4   9  22  37  54  76 108 146 183 231 289 333
#     4  10  19  36  57  80 113 150 186 231 287 337
#     4  10  21  35  50  75 116 159 187 217 278 349
#     4  11  20  36  60  82 111 145 192 240 281 334
#
# _framework density 19.236619999999998
#
# number of rings (size 3 to 8) (size 9 to 14) (size 15 to 20)
#    0.000    2.143    1.429    3.000    0.000    6.000 
#    0.000    2.857    0.000   21.429    0.000    0.000 
#    0.000    0.000    0.000    0.000    0.000    0.000 
#
# Total GULP energy -155990.950911 kJ/mol
# GULP energy per Si atom -5571.105390 kJ/mol
# Density = 1.919284 g / cm^3
# Si number density = 19.236620 Si / 1000 Ang^3
#
#
#
# Elastic Constant Matrix: (Units=GPa)
#
#
# Indices 1 2 3 4 5 6 
#
# 1 63.8582 23.0303 30.3947 0.0000 0.6732 0.0000
# 2 23.0303 68.8423 30.4205 0.0000 6.2242 0.0000
# 3 30.3947 30.4205 158.5339 0.0000 -6.7116 0.0000
# 4 0.0000 0.0000 0.0000 15.8347 0.0000 -1.9261
# 5 0.6732 6.2242 -6.7116 0.0000 24.7229 0.0000
# 6 0.0000 0.0000 0.0000 -1.9261 0.0000 14.3140
#
#
#
# Elastic Compliance Matrix: (Units=1/GPa)
#
#
# Indices 1 2 3 4 5 6 
#
# 1 0.018749 -0.005126 -0.002608 0.000000 0.000072 0.000000
# 2 -0.005126 0.017877 -0.002663 0.000000 -0.005084 0.000000
# 3 -0.002608 -0.002663 0.007436 0.000000 0.002760 0.000000
# 4 0.000000 0.000000 0.000000 0.064203 0.000000 0.008639
# 5 0.000072 -0.005084 0.002760 0.000000 0.042476 0.000000
# 6 0.000000 0.000000 0.000000 0.008639 0.000000 0.071024
#
#
# Mechanical properties :
#
#
# Convention : Reuss Voigt Hill
#
# Bulk Modulus (GPa) = 42.97797 50.99172 46.98484
# Shear Modulus (GPa) = 19.97481 24.80024 22.38753
#
# Velocity S-wave (km/s) = 3.22588 3.59447 3.41515
# Velocity P-wave (km/s) = 6.02207 6.61756 6.32682
#
# Compressibility (1/GPa) = 0.02326774
#
# Stress axis : x y z
#
# Youngs Moduli (GPa) = 53.33612 55.93702 134.48831
#
# Poissons Ratio (x) = 0.28675 0.35073
# Poissons Ratio (y) = 0.27342 0.35811
# Poissons Ratio (z) = 0.13909 0.14895
#
# Static dielectric constant tensor:
#      x y z
#    x 1.675080 0.000000 -0.003390 
#    y 0.000000 1.644010 0.000000 
#    z -0.003390 0.000000 1.755650 
# 
# From -- ./inp_files/28343.got.cif
#   From: 2010.05.17/outbox.cif.g08.bks.cpg/sg10_15_cif.got.tgz:28343.got - 2010.06.03 11:33:40.
