data_PCOD9147603
_publ_section_title
;
Structure prediction by ZEFSAII (Michael W. Deem and Ramdas Pophale) SiO2 
 PCOD9147603
Probable space group: P 2/M
;
_chemical_formula_sum "Si O2"
_cell_formula_units_Z 22
_cell_length_a 7.392807
_cell_length_b 16.843667
_cell_length_c 11.382140
_cell_angle_alpha 90.000000
_cell_angle_beta 141.448396
_cell_angle_gamma 90.000000
_cell_volume 883.305218
_symmetry_space_group_name_H-M "P 2/M"
_symmetry_group_IT_number 10
_symmetry_cell_setting 'monoclinic'
loop_
_space_group_symop_operation_xyz
x,y,z
-x,y,-z
-x,-y,-z
x,-y,z
loop_
_atom_site_type_symbol
_atom_site_label
_atom_site_fract_x
_atom_site_fract_y
_atom_site_fract_z
Si Si1 0.223209 0.843941 0.721777
Si Si2 0.413492 0.329017 0.289264
Si Si3 0.987238 0.319827 0.301526
Si Si4 0.039618 0.500000 0.663331
Si Si5 0.136158 0.090616 0.918578
Si Si6 0.745634 0.500000 0.773482
Si Si7 0.000000 0.218547 0.000000
O O1 0.116352 0.902567 0.769824
O O2 0.000000 0.848036 0.500000
O O3 0.211014 0.756215 0.776348
O O4 0.553214 0.875937 0.876312
O O5 0.176659 0.320975 0.275764
O O6 0.739480 0.303738 0.473616
O O7 0.432340 0.422465 0.286446
O O8 0.265085 0.278357 0.113606
O O9 0.850322 0.407578 0.256846
O O10 0.830542 0.500000 0.677882
O O11 0.000000 0.500000 0.500000
O O12 0.917893 0.156765 0.856914
O O13 0.097469 0.000000 0.933003
O O14 0.000000 0.500000 0.000000
#
# Coordination Sequence:
#
# PCOD9147603 Si02
#       7
#     4   4   4   2   4   2   2
#     4  11  22  42  67  93 124 166 213 258 320 393
#     4  10  20  35  63  93 126 169 214 261 310 369
#     4  10  20  38  61  91 127 168 218 259 305 377
#     4  10  21  35  57  86 130 172 211 257 310 371
#     4  11  26  44  66  93 124 163 209 268 338 401
#     4  10  19  35  59  95 131 174 220 267 314 377
#     4  12  21  41  64  94 128 158 206 273 325 378
#
# _framework density 24.906455000000001
#
# number of rings (size 3 to 8) (size 9 to 14) (size 15 to 20)
#    0.000    1.455    2.727    3.545    0.000    3.636 
#    0.000    0.000    0.000    7.636    0.000    0.000 
#    0.000    0.000    0.000    0.000    0.000    0.000 
#
# Total GULP energy -122554.572074 kJ/mol
# GULP energy per Si atom -5570.662367 kJ/mol
# Density = 2.484977 g / cm^3
# Si number density = 24.906455 Si / 1000 Ang^3
#
#
#
# Elastic Constant Matrix: (Units=GPa)
#
#
# Indices 1 2 3 4 5 6 
#
# 1 117.3824 39.7763 20.3479 0.0000 -6.9757 0.0000
# 2 39.7763 225.1131 31.5810 0.0000 0.5453 0.0000
# 3 20.3479 31.5810 104.8970 0.0000 -17.0129 0.0000
# 4 0.0000 0.0000 0.0000 24.0621 0.0000 -17.5056
# 5 -6.9757 0.5453 -17.0129 0.0000 19.1277 0.0000
# 6 0.0000 0.0000 0.0000 -17.5056 0.0000 4.2138
#
#
#
# Elastic Compliance Matrix: (Units=1/GPa)
#
#
# Indices 1 2 3 4 5 6 
#
# 1 0.009354 -0.001529 -0.000928 0.000000 0.002630 0.000000
# 2 -0.001529 0.004931 -0.001520 0.000000 -0.002051 0.000000
# 3 -0.000928 -0.001520 0.011829 0.000000 0.010227 0.000000
# 4 0.000000 0.000000 0.000000 -0.020550 0.000000 -0.085371
# 5 0.002630 -0.002051 0.010227 0.000000 0.062394 0.000000
# 6 0.000000 0.000000 0.000000 -0.085371 0.000000 -0.117346
#
#
# Mechanical properties :
#
#
# Convention : Reuss Voigt Hill
#
# Bulk Modulus (GPa) = 55.06548 70.08922 62.57735
# Shear Modulus (GPa) = -141.32514 33.19320 -54.06597
#
# Velocity S-wave (km/s) = -7.54093 3.65460 -4.66420
# Velocity P-wave (km/s) = 7.32556 6.78308 1.95623
#
# Compressibility (1/GPa) = 0.01816020
#
# Stress axis : x y z
#
# Youngs Moduli (GPa) = 106.90140 202.81263 84.53461
#
# Poissons Ratio (x) = 0.31012 0.07842
# Poissons Ratio (y) = 0.16346 0.12853
# Poissons Ratio (z) = 0.09917 0.30836
#
# Static dielectric constant tensor:
#      x y z
#    x 2.164960 0.000000 -0.038670 
#    y 0.000000 1.905820 0.000000 
#    z -0.038670 0.000000 1.978760 
# 
# From -- ./inp_files/62424.got.cif
#   From: 2010.05.17/outbox.cif.g08.bks.cpg/sg10_32_cif.got.tgz:62424.got - 2010.06.03 11:33:40.
