data_PCOD9147490
_publ_section_title
;
Structure prediction by ZEFSAII (Michael W. Deem and Ramdas Pophale) SiO2 
 PCOD9147490
Probable space group: P 2/M
;
_chemical_formula_sum "Si O2"
_cell_formula_units_Z 28
_cell_length_a 13.451513
_cell_length_b 8.472229
_cell_length_c 18.996175
_cell_angle_alpha 90.000000
_cell_angle_beta 142.647029
_cell_angle_gamma 90.000000
_cell_volume 1313.487218
_symmetry_space_group_name_H-M "P 2/M"
_symmetry_group_IT_number 10
_symmetry_cell_setting 'monoclinic'
loop_
_space_group_symop_operation_xyz
x,y,z
-x,y,-z
-x,-y,-z
x,-y,z
loop_
_atom_site_type_symbol
_atom_site_label
_atom_site_fract_x
_atom_site_fract_y
_atom_site_fract_z
Si Si1 0.260685 0.185700 0.333751
Si Si2 0.792421 0.178656 0.530882
Si Si3 0.105881 0.808851 0.880034
Si Si4 0.680010 0.809095 0.131595
Si Si5 0.468312 0.680248 0.331341
Si Si6 0.913981 0.317216 0.379420
Si Si7 0.185068 0.811521 0.078201
O O1 0.256812 0.194007 0.415397
O O2 0.398121 0.277016 0.368839
O O3 0.079612 0.245909 0.212320
O O4 0.278321 0.000000 0.324010
O O5 0.623293 0.214681 0.396675
O O6 0.936504 0.294564 0.590913
O O7 0.851392 0.000000 0.552385
O O8 0.192946 0.755556 0.857982
O O9 0.092965 0.000000 0.867080
O O10 0.202218 0.774384 0.005411
O O11 0.754999 0.753727 0.249117
O O12 0.678531 0.000000 0.133140
O O13 0.500000 0.760971 0.000000
O O14 0.520898 0.500000 0.358817
O O15 0.316383 0.716242 0.195841
O O16 0.877060 0.500000 0.372639
O O17 0.000000 0.250455 0.500000
O O18 0.210860 0.000000 0.102943
O O19 0.000000 0.779642 0.000000
#
# Coordination Sequence:
#
# PCOD9147490 Si02
#       7
#     4   4   4   4   4   4   4
#     4  10  19  37  62  86 115 156 207 254 299 354
#     4  11  23  41  66  90 117 158 212 260 303 361
#     4   9  17  34  60  88 115 150 200 256 303 349
#     4  10  21  40  67  98 126 158 212 270 315 374
#     4  12  25  37  54  88 132 165 201 250 306 371
#     4  11  25  44  66  95 134 171 205 256 326 390
#     4  10  19  35  58  80 112 160 208 249 296 357
#
# _framework density 21.317299999999999
#
# number of rings (size 3 to 8) (size 9 to 14) (size 15 to 20)
#    0.000    1.571    2.857    2.571    0.000    5.714 
#    0.000    2.143    0.000    0.000    0.000    0.000 
#    0.000    0.000    0.000    0.000    0.000    0.000 
#
# Total GULP energy -156253.840620 kJ/mol
# GULP energy per Si atom -5580.494308 kJ/mol
# Density = 2.126878 g / cm^3
# Si number density = 21.317300 Si / 1000 Ang^3
#
#
#
# Elastic Constant Matrix: (Units=GPa)
#
#
# Indices 1 2 3 4 5 6 
#
# 1 36.2493 3.8596 31.0422 0.0000 -11.6075 0.0000
# 2 3.8596 13.4725 15.0924 0.0000 -9.7796 0.0000
# 3 31.0422 15.0924 122.0090 0.0000 -6.2359 0.0000
# 4 0.0000 0.0000 0.0000 -6.7063 0.0000 10.6482
# 5 -11.6075 -9.7796 -6.2359 0.0000 32.3165 0.0000
# 6 0.0000 0.0000 0.0000 10.6482 0.0000 5.3308
#
#
#
# Elastic Compliance Matrix: (Units=1/GPa)
#
#
# Indices 1 2 3 4 5 6 
#
# 1 0.041072 0.012686 -0.011179 0.000000 0.016434 0.000000
# 2 0.012686 0.114179 -0.015506 0.000000 0.036117 0.000000
# 3 -0.011179 -0.015506 0.012638 0.000000 -0.006269 0.000000
# 4 0.000000 0.000000 0.000000 -0.035745 0.000000 0.071400
# 5 0.016434 0.036117 -0.006269 0.000000 0.046567 0.000000
# 6 0.000000 0.000000 0.000000 0.071400 0.000000 0.044968
#
#
# Mechanical properties :
#
#
# Convention : Reuss Voigt Hill
#
# Bulk Modulus (GPa) = 7.14838 30.19104 18.66971
# Shear Modulus (GPa) = 16.76134 14.30397 15.53266
#
# Velocity S-wave (km/s) = 2.80711 2.59318 2.70226
# Velocity P-wave (km/s) = 3.72385 4.81244 4.30271
#
# Compressibility (1/GPa) = 0.13989186
#
# Stress axis : x y z
#
# Youngs Moduli (GPa) = 24.34767 8.75821 79.12658
#
# Poissons Ratio (x) = -0.11111 0.88456
# Poissons Ratio (y) = -0.30889 1.22691
# Poissons Ratio (z) = 0.27218 0.13580
#
# Static dielectric constant tensor:
#      x y z
#    x 1.761420 0.000000 -0.044400 
#    y 0.000000 1.765100 0.000000 
#    z -0.044400 0.000000 1.842080 
# 
# From -- ./inp_files/84992.got.cif
#   From: 2010.05.17/outbox.cif.g08.bks.cpg/sg10_43_cif.got.tgz:84992.got - 2010.06.03 11:33:40.
