data_PCOD9147114
_publ_section_title
;
Structure prediction by ZEFSAII (Michael W. Deem and Ramdas Pophale) SiO2 
 PCOD9147114
Probable space group: P 2/M
;
_chemical_formula_sum "Si O2"
_cell_formula_units_Z 32
_cell_length_a 14.808415
_cell_length_b 7.579381
_cell_length_c 23.893995
_cell_angle_alpha 90.000000
_cell_angle_beta 31.436957
_cell_angle_gamma 90.000000
_cell_volume 1398.734957
_symmetry_space_group_name_H-M "P 2/M"
_symmetry_group_IT_number 10
_symmetry_cell_setting 'monoclinic'
loop_
_space_group_symop_operation_xyz
x,y,z
-x,y,-z
-x,-y,-z
x,-y,z
loop_
_atom_site_type_symbol
_atom_site_label
_atom_site_fract_x
_atom_site_fract_y
_atom_site_fract_z
Si Si1 0.007587 0.786718 0.676883
Si Si2 0.684333 0.293960 0.922924
Si Si3 0.795970 0.796904 0.986185
Si Si4 0.378443 0.783694 0.513713
Si Si5 0.506228 0.799081 0.326867
Si Si6 0.078075 0.785063 0.399588
Si Si7 0.455281 0.783796 0.230269
Si Si8 0.107380 0.702180 0.889909
O O1 0.830661 0.726092 0.798691
O O2 0.015517 0.728353 0.607849
O O3 0.177164 0.731624 0.621783
O O4 0.005003 0.000000 0.678197
O O5 0.658820 0.500000 0.949021
O O6 0.751506 0.210455 0.944654
O O7 0.500000 0.220626 0.000000
O O8 0.974690 0.706892 0.908640
O O9 0.818106 0.000000 0.991311
O O10 0.631407 0.723797 0.107534
O O11 0.500000 0.723247 0.500000
O O12 0.447775 0.721658 0.416675
O O13 0.385100 0.000000 0.510910
O O14 0.446872 0.721983 0.298975
O O15 0.714360 0.800164 0.214970
O O16 0.438024 0.000000 0.362882
O O17 0.280251 0.734140 0.291090
O O18 0.000000 0.724828 0.500000
O O19 0.070367 0.000000 0.404549
O O20 0.461354 0.000000 0.227590
O O21 0.154889 0.500000 0.877544
O O22 0.000000 0.771728 0.000000
#
# Coordination Sequence:
#
# PCOD9147114 Si02
#       8
#     4   4   4   4   4   4   4   4
#     4  10  20  36  60  88 117 154 201 249 296 353
#     4  11  25  43  61  85 122 164 200 243 302 362
#     4  11  22  37  60  87 115 149 199 250 296 351
#     4   9  19  34  54  84 117 149 193 248 300 347
#     4  10  19  34  57  81 113 153 197 243 293 348
#     4   9  16  28  51  83 116 144 179 233 295 344
#     4   9  17  29  49  80 110 140 182 235 287 340
#     4  11  23  38  56  84 123 160 196 241 297 358
#
# _framework density 22.877815999999999
#
# number of rings (size 3 to 8) (size 9 to 14) (size 15 to 20)
#    0.000    2.000    1.250    2.625    1.750    5.500 
#    0.000    0.625    0.000    1.125    0.000    0.000 
#    0.000    0.000    0.000    0.000    0.000    0.000 
#
# Total GULP energy -178885.784472 kJ/mol
# GULP energy per Si atom -5590.180765 kJ/mol
# Density = 2.282574 g / cm^3
# Si number density = 22.877816 Si / 1000 Ang^3
#
#
#
# Elastic Constant Matrix: (Units=GPa)
#
#
# Indices 1 2 3 4 5 6 
#
# 1 151.5129 -2.3741 30.1611 0.0000 -8.9835 0.0000
# 2 -2.3741 55.6435 -7.2014 0.0000 -0.8135 0.0000
# 3 30.1611 -7.2014 79.8642 0.0000 -3.1023 0.0000
# 4 0.0000 0.0000 0.0000 11.7221 0.0000 0.2225
# 5 -8.9835 -0.8135 -3.1023 0.0000 42.0063 0.0000
# 6 0.0000 0.0000 0.0000 0.2225 0.0000 -4.1835
#
#
#
# Elastic Compliance Matrix: (Units=1/GPa)
#
#
# Indices 1 2 3 4 5 6 
#
# 1 0.007212 -0.000019 -0.002673 0.000000 0.001345 0.000000
# 2 -0.000019 0.018193 0.001666 0.000000 0.000471 0.000000
# 3 -0.002673 0.001666 0.013699 0.000000 0.000472 0.000000
# 4 0.000000 0.000000 0.000000 0.085223 0.000000 0.004532
# 5 0.001345 0.000471 0.000472 0.000000 0.024138 0.000000
# 6 0.000000 0.000000 0.000000 0.004532 0.000000 -0.238793
#
#
# Mechanical properties :
#
#
# Convention : Reuss Voigt Hill
#
# Bulk Modulus (GPa) = 26.98857 36.46575 31.72716
# Shear Modulus (GPa) = -65.85360 27.67132 -19.09114
#
# Velocity S-wave (km/s) = -5.37098 3.48160 -2.89188
# Velocity P-wave (km/s) = 5.16147 5.66886 1.65759
#
# Compressibility (1/GPa) = 0.03705272
#
# Stress axis : x y z
#
# Youngs Moduli (GPa) = 138.66511 54.96545 72.99664
#
# Poissons Ratio (x) = 0.00102 0.19512
# Poissons Ratio (y) = 0.00258 -0.12160
# Poissons Ratio (z) = 0.37065 -0.09156
#
# Static dielectric constant tensor:
#      x y z
#    x 1.830980 0.000000 -0.002880 
#    y 0.000000 1.879770 0.000000 
#    z -0.002880 0.000000 1.819710 
# 
# From -- ./inp_files/89477.got.cif
#   From: 2010.05.17/outbox.cif.g08.bks.cpg/sg10_45_cif.got.tgz:89477.got - 2010.06.03 11:33:40.
