data_PCOD9147440
_publ_section_title
;
Structure prediction by ZEFSAII (Michael W. Deem and Ramdas Pophale) SiO2 
 PCOD9147440
Probable space group: P 2/M
;
_chemical_formula_sum "Si O2"
_cell_formula_units_Z 32
_cell_length_a 21.485415
_cell_length_b 7.621104
_cell_length_c 26.940229
_cell_angle_alpha 90.000000
_cell_angle_beta 159.223115
_cell_angle_gamma 90.000000
_cell_volume 1564.806296
_symmetry_space_group_name_H-M "P 2/M"
_symmetry_group_IT_number 10
_symmetry_cell_setting 'monoclinic'
loop_
_space_group_symop_operation_xyz
x,y,z
-x,y,-z
-x,-y,-z
x,-y,z
loop_
_atom_site_type_symbol
_atom_site_label
_atom_site_fract_x
_atom_site_fract_y
_atom_site_fract_z
Si Si1 0.506826 0.794958 0.331770
Si Si2 0.186547 0.214810 0.161009
Si Si3 0.236400 0.287943 0.940195
Si Si4 0.157840 0.297310 0.355182
Si Si5 0.195455 0.208407 0.638650
Si Si6 0.483610 0.287865 0.931683
Si Si7 0.295423 0.212188 0.350516
Si Si8 0.473448 0.209640 0.765137
O O1 0.349974 0.722838 0.249266
O O2 0.689386 0.784813 0.497563
O O3 0.522660 0.719618 0.288028
O O4 0.462926 0.000000 0.292408
O O5 0.207814 0.269922 0.233881
O O6 0.192155 0.000000 0.165752
O O7 0.000000 0.268149 0.000000
O O8 0.229637 0.500000 0.934579
O O9 0.038262 0.221613 0.787803
O O10 0.356266 0.227878 0.983675
O O11 0.343441 0.238725 0.069524
O O12 0.150477 0.500000 0.365147
O O13 0.213136 0.285795 0.339033
O O14 0.307259 0.233982 0.771973
O O15 0.317311 0.279652 0.684501
O O16 0.000000 0.281402 0.500000
O O17 0.178150 0.000000 0.616816
O O18 0.487586 0.500000 0.935386
O O19 0.500000 0.224431 0.000000
O O20 0.500000 0.258463 0.500000
O O21 0.284236 0.000000 0.345614
O O22 0.446788 0.000000 0.742309
#
# Coordination Sequence:
#
# PCOD9147440 Si02
#       8
#     4   4   4   4   4   4   4   4
#     4  10  20  36  54  76 104 132 172 218 256 301
#     4   9  18  32  52  77 100 125 162 212 261 297
#     4   9  20  37  53  74 107 141 172 212 263 311
#     4  11  23  36  52  76 108 142 172 207 261 318
#     4   9  18  33  51  76 110 140 167 207 264 316
#     4   9  18  34  55  77 102 135 179 223 254 295
#     4  10  19  35  57  77 100 132 172 216 259 300
#     4   9  19  34  55  79 102 135 177 217 255 306
#
# _framework density 20.449815000000001
#
# number of rings (size 3 to 8) (size 9 to 14) (size 15 to 20)
#    0.000    2.500    1.250    0.375    1.750    3.250 
#    0.000    0.000    0.000    0.750    0.000    0.000 
#    0.000    0.000    0.000    0.000    0.000    0.000 
#
# Total GULP energy -178594.198530 kJ/mol
# GULP energy per Si atom -5581.068704 kJ/mol
# Density = 2.040327 g / cm^3
# Si number density = 20.449815 Si / 1000 Ang^3
#
#
#
# Elastic Constant Matrix: (Units=GPa)
#
#
# Indices 1 2 3 4 5 6 
#
# 1 135.9982 -3.8042 81.5038 0.0000 -21.1175 0.0000
# 2 -3.8042 36.9237 -9.4177 0.0000 2.4844 0.0000
# 3 81.5038 -9.4177 155.6375 0.0000 4.8980 0.0000
# 4 0.0000 0.0000 0.0000 28.0523 0.0000 2.9581
# 5 -21.1175 2.4844 4.8980 0.0000 32.3995 0.0000
# 6 0.0000 0.0000 0.0000 2.9581 0.0000 21.0867
#
#
#
# Elastic Compliance Matrix: (Units=1/GPa)
#
#
# Indices 1 2 3 4 5 6 
#
# 1 0.013220 -0.001160 -0.007302 0.000000 0.009809 0.000000
# 2 -0.001160 0.027792 0.002392 0.000000 -0.003249 0.000000
# 3 -0.007302 0.002392 0.010600 0.000000 -0.006545 0.000000
# 4 0.000000 0.000000 0.000000 0.036183 0.000000 -0.005076
# 5 0.009809 -0.003249 -0.006545 0.000000 0.038497 0.000000
# 6 0.000000 0.000000 0.000000 -0.005076 0.000000 0.048135
#
#
# Mechanical properties :
#
#
# Convention : Reuss Voigt Hill
#
# Bulk Modulus (GPa) = 25.33556 51.68036 38.50796
# Shear Modulus (GPa) = 25.03454 33.65953 29.34703
#
# Velocity S-wave (km/s) = 3.50264 4.06144 3.79235
# Velocity P-wave (km/s) = 5.36415 6.87898 6.16824
#
# Compressibility (1/GPa) = 0.03947021
#
# Stress axis : x y z
#
# Youngs Moduli (GPa) = 75.64486 35.98164 94.34283
#
# Poissons Ratio (x) = 0.04175 0.68887
# Poissons Ratio (y) = 0.08778 -0.22563
# Poissons Ratio (z) = 0.55234 -0.08605
#
# Static dielectric constant tensor:
#      x y z
#    x 1.725280 0.000000 0.017830 
#    y 0.000000 1.795600 0.000000 
#    z 0.017830 0.000000 1.693400 
# 
# From -- ./inp_files/93805.got.cif
#   From: 2010.05.17/outbox.cif.g08.bks.cpg/sg10_47_cif.got.tgz:93805.got - 2010.06.03 11:33:40.
