data_PCOD9147588
_publ_section_title
;
Structure prediction by ZEFSAII (Michael W. Deem and Ramdas Pophale) SiO2 
 PCOD9147588
Probable space group: P 2/M
;
_chemical_formula_sum "Si O2"
_cell_formula_units_Z 25
_cell_length_a 14.748773
_cell_length_b 7.307072
_cell_length_c 14.874975
_cell_angle_alpha 90.000000
_cell_angle_beta 40.575402
_cell_angle_gamma 90.000000
_cell_volume 1042.721269
_symmetry_space_group_name_H-M "P 2/M"
_symmetry_group_IT_number 10
_symmetry_cell_setting 'monoclinic'
loop_
_space_group_symop_operation_xyz
x,y,z
-x,y,-z
-x,-y,-z
x,-y,z
loop_
_atom_site_type_symbol
_atom_site_label
_atom_site_fract_x
_atom_site_fract_y
_atom_site_fract_z
Si Si1 0.671128 0.778907 0.606592
Si Si2 0.747921 0.221873 0.937372
Si Si3 0.622666 0.221402 0.220735
Si Si4 0.122799 0.288520 0.843234
Si Si5 0.062584 0.206452 0.690550
Si Si6 0.752794 0.779759 0.737704
Si Si7 0.000000 0.500000 0.500000
O O1 0.537143 0.716642 0.651962
O O2 0.819552 0.705627 0.460430
O O3 0.657522 0.741006 0.722536
O O4 0.676510 0.000000 0.592399
O O5 0.689042 0.264242 0.883280
O O6 0.908727 0.286334 0.813524
O O7 0.748078 0.000000 0.944964
O O8 0.677215 0.285159 0.082112
O O9 0.731658 0.277334 0.214462
O O10 0.622573 0.000000 0.221349
O O11 0.088219 0.500000 0.852500
O O12 0.122944 0.199605 0.745715
O O13 0.000000 0.213271 0.000000
O O14 0.041499 0.000000 0.672030
O O15 0.891054 0.660769 0.618707
O O16 0.781548 0.000000 0.714566
#
# Coordination Sequence:
#
# PCOD9147588 Si02
#       7
#     4   4   4   4   4   4   1
#     4   9  20  38  61  88 123 159 192 247 309 357
#     4   9  18  34  62  90 115 157 202 247 299 350
#     4  10  20  38  63  89 114 155 207 243 299 371
#     4  11  23  39  56  85 116 153 194 253 313 355
#     4  10  19  35  59  86 113 150 198 245 299 358
#     4  10  21  40  60  90 133 162 205 260 295 360
#     4  12  22  36  60  96 116 172 216 240 312 358
#
# _framework density 23.975726000000002
#
# number of rings (size 3 to 8) (size 9 to 14) (size 15 to 20)
#    0.000    2.080    1.600    1.680    0.000    4.480 
#    8.640    6.400    0.000    0.960    0.000    0.000 
#    0.000    0.000    0.000    0.000    0.000    0.000 
#
# Total GULP energy -139467.132007 kJ/mol
# GULP energy per Si atom -5578.685280 kJ/mol
# Density = 2.392116 g / cm^3
# Si number density = 23.975726 Si / 1000 Ang^3
#
#
#
# Elastic Constant Matrix: (Units=GPa)
#
#
# Indices 1 2 3 4 5 6 
#
# 1 73.3304 -11.2616 8.1647 0.0000 8.7160 0.0000
# 2 -11.2616 110.4439 -11.7280 0.0000 1.3078 0.0000
# 3 8.1647 -11.7280 40.6279 0.0000 0.9444 0.0000
# 4 0.0000 0.0000 0.0000 -4.7809 0.0000 -1.3748
# 5 8.7160 1.3078 0.9444 0.0000 37.3362 0.0000
# 6 0.0000 0.0000 0.0000 -1.3748 0.0000 272.3899
#
#
#
# Elastic Compliance Matrix: (Units=1/GPa)
#
#
# Indices 1 2 3 4 5 6 
#
# 1 0.014506 0.001256 -0.002474 0.000000 -0.003368 0.000000
# 2 0.001256 0.009455 0.002493 0.000000 -0.000688 0.000000
# 3 -0.002474 0.002493 0.025834 0.000000 -0.000163 0.000000
# 4 0.000000 0.000000 0.000000 -0.208864 0.000000 -0.001054
# 5 -0.003368 -0.000688 -0.000163 0.000000 0.027598 0.000000
# 6 0.000000 0.000000 0.000000 -0.001054 0.000000 0.003666
#
#
# Mechanical properties :
#
#
# Convention : Reuss Voigt Hill
#
# Bulk Modulus (GPa) = 19.10391 21.63917 20.37154
# Shear Modulus (GPa) = -44.28461 76.93750 16.32644
#
# Velocity S-wave (km/s) = -4.30241 5.67093 2.61235
# Velocity P-wave (km/s) = 4.08603 7.20585 4.19694
#
# Compressibility (1/GPa) = 0.05234530
#
# Stress axis : x y z
#
# Youngs Moduli (GPa) = 68.93893 105.76044 38.70822
#
# Poissons Ratio (x) = -0.13286 0.09577
# Poissons Ratio (y) = -0.08660 -0.09650
# Poissons Ratio (z) = 0.17057 -0.26366
#
# Static dielectric constant tensor:
#      x y z
#    x 1.906090 0.000000 0.002660 
#    y 0.000000 1.960250 0.000000 
#    z 0.002660 0.000000 1.894840 
# 
# From -- ./inp_files/66347.got.cif
#   From: 2010.05.17/outbox.cif.g08.bks.cpg/sg10_34_cif.got.tgz:66347.got - 2010.06.03 11:33:40.
