data_PCOD9147757
_publ_section_title
;
Structure prediction by ZEFSAII (Michael W. Deem and Ramdas Pophale) SiO2 
 PCOD9147757
Probable space group: P 2/M
;
_chemical_formula_sum "Si O2"
_cell_formula_units_Z 32
_cell_length_a 26.471101
_cell_length_b 9.147804
_cell_length_c 11.479104
_cell_angle_alpha 90.000000
_cell_angle_beta 145.151315
_cell_angle_gamma 90.000000
_cell_volume 1588.347492
_symmetry_space_group_name_H-M "P 2/M"
_symmetry_group_IT_number 10
_symmetry_cell_setting 'monoclinic'
loop_
_space_group_symop_operation_xyz
x,y,z
-x,y,-z
-x,-y,-z
x,-y,z
loop_
_atom_site_type_symbol
_atom_site_label
_atom_site_fract_x
_atom_site_fract_y
_atom_site_fract_z
Si Si1 0.553733 0.322224 0.717287
Si Si2 0.034253 0.665842 0.196959
Si Si3 0.257092 0.673483 0.848707
Si Si4 0.102507 0.171681 0.686420
Si Si5 0.483845 0.669666 0.837893
Si Si6 0.786824 0.829671 0.454173
Si Si7 0.725792 0.663598 0.557962
Si Si8 0.141302 0.666167 0.981540
O O1 0.500000 0.272201 0.500000
O O2 0.544991 0.500000 0.702411
O O3 0.521487 0.270812 0.785524
O O4 0.658437 0.287724 0.911608
O O5 0.069167 0.500000 0.278249
O O6 0.111492 0.779752 0.365383
O O7 0.949826 0.681799 0.119740
O O8 0.000000 0.679196 0.000000
O O9 0.250509 0.500000 0.832441
O O10 0.165215 0.741692 0.717703
O O11 0.270878 0.737687 0.746228
O O12 0.143088 0.211396 0.887872
O O13 0.000000 0.219829 0.500000
O O14 0.104092 0.000000 0.662846
O O15 0.516175 0.500000 0.905562
O O16 0.378442 0.669944 0.622887
O O17 0.500000 0.732506 0.000000
O O18 0.757642 0.783056 0.527292
O O19 0.776925 0.000000 0.413780
O O20 0.748621 0.500000 0.555186
O O21 0.778442 0.678828 0.777277
O O22 0.143201 0.500000 0.934709
#
# Coordination Sequence:
#
# PCOD9147757 Si02
#       8
#     4   4   4   4   4   4   4   4
#     4   9  19  35  60  95 125 152 199 262 316 362
#     4  10  19  36  58  83 117 155 200 252 300 354
#     4  11  23  40  66  92 120 158 205 255 304 359
#     4  11  25  43  61  85 121 162 205 252 303 362
#     4   9  17  31  56  89 122 152 190 249 312 361
#     4  12  24  37  57  87 125 162 201 244 302 366
#     4  10  20  36  60  88 119 155 200 248 299 356
#     4  10  21  36  59  88 116 152 199 250 303 358
#
# _framework density 20.146726000000001
#
# number of rings (size 3 to 8) (size 9 to 14) (size 15 to 20)
#    0.000    1.750    1.250    3.375    1.750    6.250 
#    0.000    0.000    0.000    5.625    0.000    0.000 
#    0.000    0.000    0.000    0.000    0.000    0.000 
#
# Total GULP energy -178634.062535 kJ/mol
# GULP energy per Si atom -5582.314454 kJ/mol
# Density = 2.010087 g / cm^3
# Si number density = 20.146726 Si / 1000 Ang^3
#
#
#
# Elastic Constant Matrix: (Units=GPa)
#
#
# Indices 1 2 3 4 5 6 
#
# 1 66.9941 19.8743 35.0864 0.0000 -9.3991 0.0000
# 2 19.8743 47.3663 29.9140 0.0000 1.9113 0.0000
# 3 35.0864 29.9140 104.5535 0.0000 3.1671 0.0000
# 4 0.0000 0.0000 0.0000 -48.2616 0.0000 39.2217
# 5 -9.3991 1.9113 3.1671 0.0000 26.6453 0.0000
# 6 0.0000 0.0000 0.0000 39.2217 0.0000 -62.9083
#
#
#
# Elastic Compliance Matrix: (Units=1/GPa)
#
#
# Indices 1 2 3 4 5 6 
#
# 1 0.020662 -0.005453 -0.005627 0.000000 0.008349 0.000000
# 2 -0.005453 0.027233 -0.005865 0.000000 -0.003180 0.000000
# 3 -0.005627 -0.005865 0.013226 0.000000 -0.003136 0.000000
# 4 0.000000 0.000000 0.000000 -0.042003 0.000000 -0.026188
# 5 0.008349 -0.003180 -0.003136 0.000000 0.041076 0.000000
# 6 0.000000 0.000000 0.000000 -0.026188 0.000000 -0.032224
#
#
# Mechanical properties :
#
#
# Convention : Reuss Voigt Hill
#
# Bulk Modulus (GPa) = 36.72310 43.18481 39.95395
# Shear Modulus (GPa) = 70.48467 -7.96896 31.25785
#
# Velocity S-wave (km/s) = 5.92129 -1.99099 3.94319
# Velocity P-wave (km/s) = 8.06326 4.02446 6.37230
#
# Compressibility (1/GPa) = 0.02723082
#
# Stress axis : x y z
#
# Youngs Moduli (GPa) = 48.39687 36.72068 75.60964
#
# Poissons Ratio (x) = 0.20024 0.42543
# Poissons Ratio (y) = 0.26391 0.44347
# Poissons Ratio (z) = 0.27231 0.21538
#
# Static dielectric constant tensor:
#      x y z
#    x 1.771490 0.000000 -0.021360 
#    y 0.000000 1.684240 0.000000 
#    z -0.021360 0.000000 1.722120 
# 
# From -- ./inp_files/58309.got.cif
#   From: 2010.05.17/outbox.cif.g08.bks.cpg/sg10_30_cif.got.tgz:58309.got - 2010.06.03 11:33:40.
