data_PCOD9147566
_publ_section_title
;
Structure prediction by ZEFSAII (Michael W. Deem and Ramdas Pophale) SiO2 
 PCOD9147566
Probable space group: P 2/M
;
_chemical_formula_sum "Si O2"
_cell_formula_units_Z 26
_cell_length_a 21.369197
_cell_length_b 14.374137
_cell_length_c 19.164746
_cell_angle_alpha 90.000000
_cell_angle_beta 12.865905
_cell_angle_gamma 90.000000
_cell_volume 1310.795099
_symmetry_space_group_name_H-M "P 2/M"
_symmetry_group_IT_number 10
_symmetry_cell_setting 'monoclinic'
loop_
_space_group_symop_operation_xyz
x,y,z
-x,y,-z
-x,-y,-z
x,-y,z
loop_
_atom_site_type_symbol
_atom_site_label
_atom_site_fract_x
_atom_site_fract_y
_atom_site_fract_z
Si Si1 0.545267 0.206037 0.765464
Si Si2 0.977096 0.674196 0.683490
Si Si3 0.203806 0.605259 0.969570
Si Si4 0.183486 0.500000 0.369724
Si Si5 0.508889 0.000000 0.768151
Si Si6 0.822626 0.850589 0.130092
Si Si7 0.141648 0.000000 0.027773
Si Si8 0.728447 0.713475 0.418826
O O1 0.803451 0.248192 0.528179
O O2 0.484272 0.096479 0.837460
O O3 0.622551 0.224811 0.599584
O O4 0.277604 0.269632 0.074391
O O5 0.113802 0.593001 0.489362
O O6 0.847870 0.623930 0.892307
O O7 0.286762 0.500000 0.866090
O O8 0.455046 0.675485 0.676698
O O9 0.907482 0.628691 0.256248
O O10 0.000000 0.500000 0.500000
O O11 0.500000 0.500000 0.000000
O O12 0.302897 0.000000 0.925601
O O13 0.817358 0.000000 0.399816
O O14 0.500000 0.828516 0.500000
O O15 0.796639 0.912168 0.088477
O O16 0.000000 0.899198 0.000000
O O17 0.041018 0.768486 0.875430
#
# Coordination Sequence:
#
# PCOD9147566 Si02
#       8
#     4   4   4   2   2   4   2   4
#     4  10  21  36  60  84 124 157 196 255 300 350
#     4  10  21  38  57  93 125 161 200 232 289 360
#     4  10  19  35  59  83 111 143 186 245 299 355
#     4  12  24  40  66 100 140 174 194 235 288 343
#     4  12  22  37  62  90 122 155 194 259 321 348
#     4  12  24  39  55  75 111 156 199 241 304 378
#     4  12  24  37  56  82 118 145 202 241 303 390
#     4  10  21  34  56  80 107 146 194 246 305 348
#
# _framework density 19.835290000000001
#
# number of rings (size 3 to 8) (size 9 to 14) (size 15 to 20)
#    0.000    1.231    2.308    4.615    4.308    0.000 
#    0.000    0.000    0.000    9.231    0.000   10.769 
#    0.000    0.000    0.000    0.000    0.000    0.000 
#
# Total GULP energy -145202.184808 kJ/mol
# GULP energy per Si atom -5584.699416 kJ/mol
# Density = 1.979014 g / cm^3
# Si number density = 19.835290 Si / 1000 Ang^3
#
#
#
# Elastic Constant Matrix: (Units=GPa)
#
#
# Indices 1 2 3 4 5 6 
#
# 1 49.8222 16.6680 27.4611 0.0000 -13.0598 0.0000
# 2 16.6680 116.5863 37.3388 0.0000 9.5282 0.0000
# 3 27.4611 37.3388 144.1207 0.0000 -12.0654 0.0000
# 4 0.0000 0.0000 0.0000 22.7931 0.0000 1.9973
# 5 -13.0598 9.5282 -12.0654 0.0000 35.6157 0.0000
# 6 0.0000 0.0000 0.0000 1.9973 0.0000 15.2459
#
#
#
# Elastic Compliance Matrix: (Units=1/GPa)
#
#
# Indices 1 2 3 4 5 6 
#
# 1 0.025339 -0.003341 -0.003201 0.000000 0.009101 0.000000
# 2 -0.003341 0.010217 -0.002410 0.000000 -0.004775 0.000000
# 3 -0.003201 -0.002410 0.008366 0.000000 0.002305 0.000000
# 4 0.000000 0.000000 0.000000 0.044382 0.000000 -0.005814
# 5 0.009101 -0.004775 0.002305 0.000000 0.033473 0.000000
# 6 0.000000 0.000000 0.000000 -0.005814 0.000000 0.066353
#
#
# Mechanical properties :
#
#
# Convention : Reuss Voigt Hill
#
# Bulk Modulus (GPa) = 38.43511 52.60721 45.52116
# Shear Modulus (GPa) = 23.28749 30.00170 26.64459
#
# Velocity S-wave (km/s) = 3.43015 3.89336 3.66907
# Velocity P-wave (km/s) = 5.92512 6.84037 6.39913
#
# Compressibility (1/GPa) = 0.02601788
#
# Stress axis : x y z
#
# Youngs Moduli (GPa) = 39.46481 97.87408 119.53319
#
# Poissons Ratio (x) = 0.32704 0.38257
# Poissons Ratio (y) = 0.13187 0.28809
# Poissons Ratio (z) = 0.12631 0.23589
#
# Static dielectric constant tensor:
#      x y z
#    x 1.694060 0.000000 -0.004090 
#    y 0.000000 1.732740 0.000000 
#    z -0.004090 0.000000 1.669590 
# 
# From -- ./inp_files/86621.got.cif
#   From: 2010.05.17/outbox.cif.g08.bks.cpg/sg10_44_cif.got.tgz:86621.got - 2010.06.03 11:33:40.
