data_PCOD9147292
_publ_section_title
;
Structure prediction by ZEFSAII (Michael W. Deem and Ramdas Pophale) SiO2 
 PCOD9147292
Probable space group: P 2/M
;
_chemical_formula_sum "Si O2"
_cell_formula_units_Z 24
_cell_length_a 9.101800
_cell_length_b 13.019528
_cell_length_c 9.828159
_cell_angle_alpha 90.000000
_cell_angle_beta 84.574673
_cell_angle_gamma 90.000000
_cell_volume 1159.430734
_symmetry_space_group_name_H-M "P 2/M"
_symmetry_group_IT_number 10
_symmetry_cell_setting 'monoclinic'
loop_
_space_group_symop_operation_xyz
x,y,z
-x,y,-z
-x,-y,-z
x,-y,z
loop_
_atom_site_type_symbol
_atom_site_label
_atom_site_fract_x
_atom_site_fract_y
_atom_site_fract_z
Si Si1 0.845235 0.163330 0.950074
Si Si2 0.694750 0.114759 0.687167
Si Si3 0.898448 0.615118 0.834325
Si Si4 0.246481 0.385535 0.734097
Si Si5 0.172503 0.309176 0.451612
Si Si6 0.579347 0.207627 0.132422
O O1 0.809053 0.119878 0.804653
O O2 0.847613 0.287773 0.926989
O O3 0.713709 0.138779 0.064876
O O4 0.000000 0.132587 0.000000
O O5 0.746243 0.201292 0.577916
O O6 0.539514 0.147950 0.767194
O O7 0.689549 0.000000 0.632409
O O8 0.866924 0.500000 0.888933
O O9 0.825862 0.630634 0.691756
O O10 0.075324 0.624577 0.797229
O O11 0.296686 0.500000 0.763046
O O12 0.239839 0.369353 0.572212
O O13 0.349565 0.300441 0.790986
O O14 0.000000 0.290854 0.500000
O O15 0.500000 0.243776 0.000000
#
# Coordination Sequence:
#
# PCOD9147292 Si02
#       6
#     4   4   4   4   4   4
#     4  10  19  35  60  88 116 147 193 244 276 331
#     4  10  23  42  61  80 111 155 192 240 305 347
#     4   9  17  31  57  90 120 153 188 228 284 340
#     4  10  19  34  59  87 118 157 193 225 277 342
#     4   9  19  37  61  87 117 144 189 249 287 334
#     4  10  22  38  56  82 124 157 187 233 281 339
#
# _framework density 20.699812000000001
#
# number of rings (size 3 to 8) (size 9 to 14) (size 15 to 20)
#    0.000    2.333    1.667    0.500    0.000    7.667 
#    0.000   10.000    0.000    0.000    0.000    0.000 
#    0.000    0.000    0.000    0.000    0.000    0.000 
#
# Total GULP energy -134081.588600 kJ/mol
# GULP energy per Si atom -5586.732858 kJ/mol
# Density = 2.065270 g / cm^3
# Si number density = 20.699812 Si / 1000 Ang^3
#
#
#
# Elastic Constant Matrix: (Units=GPa)
#
#
# Indices 1 2 3 4 5 6 
#
# 1 67.3047 1.0398 4.6314 0.0000 11.2515 0.0000
# 2 1.0398 94.9011 -3.5965 0.0000 -1.0576 0.0000
# 3 4.6314 -3.5965 44.8197 0.0000 1.6982 0.0000
# 4 0.0000 0.0000 0.0000 -29.3163 0.0000 34.4355
# 5 11.2515 -1.0576 1.6982 0.0000 22.8189 0.0000
# 6 0.0000 0.0000 0.0000 34.4355 0.0000 -23.8388
#
#
#
# Elastic Compliance Matrix: (Units=1/GPa)
#
#
# Indices 1 2 3 4 5 6 
#
# 1 0.016287 -0.000320 -0.001408 0.000000 -0.007941 0.000000
# 2 -0.000320 0.010580 0.000860 0.000000 0.000584 0.000000
# 3 -0.001408 0.000860 0.022562 0.000000 -0.000945 0.000000
# 4 0.000000 0.000000 0.000000 0.048957 0.000000 0.070719
# 5 -0.007941 0.000584 -0.000945 0.000000 0.047836 0.000000
# 6 0.000000 0.000000 0.000000 0.070719 0.000000 0.060206
#
#
# Mechanical properties :
#
#
# Convention : Reuss Voigt Hill
#
# Bulk Modulus (GPa) = 20.96767 23.46389 22.21578
# Shear Modulus (GPa) = 22.31529 7.59614 14.95571
#
# Velocity S-wave (km/s) = 3.28692 1.91772 2.69086
# Velocity P-wave (km/s) = 4.95545 4.03279 4.51774
#
# Compressibility (1/GPa) = 0.04769248
#
# Stress axis : x y z
#
# Youngs Moduli (GPa) = 61.39824 94.51890 44.32250
#
# Poissons Ratio (x) = 0.03027 0.06240
# Poissons Ratio (y) = 0.01967 -0.03811
# Poissons Ratio (z) = 0.08644 -0.08128
#
# Static dielectric constant tensor:
#      x y z
#    x 1.743180 0.000000 0.002280 
#    y 0.000000 1.727920 0.000000 
#    z 0.002280 0.000000 1.738160 
# 
# From -- ./inp_files/41993.got.cif
#   From: 2010.05.17/outbox.cif.g08.bks.cpg/sg10_21_cif.got.tgz:41993.got - 2010.06.03 11:33:40.
