data_PCOD9147338
_publ_section_title
;
Structure prediction by ZEFSAII (Michael W. Deem and Ramdas Pophale) SiO2 
 PCOD9147338
Probable space group: P 2/M
;
_chemical_formula_sum "Si O2"
_cell_formula_units_Z 26
_cell_length_a 9.962291
_cell_length_b 7.639941
_cell_length_c 21.507256
_cell_angle_alpha 90.000000
_cell_angle_beta 132.319769
_cell_angle_gamma 90.000000
_cell_volume 1210.355636
_symmetry_space_group_name_H-M "P 2/M"
_symmetry_group_IT_number 10
_symmetry_cell_setting 'monoclinic'
loop_
_space_group_symop_operation_xyz
x,y,z
-x,y,-z
-x,-y,-z
x,-y,z
loop_
_atom_site_type_symbol
_atom_site_label
_atom_site_fract_x
_atom_site_fract_y
_atom_site_fract_z
Si Si1 0.714310 0.000000 0.550692
Si Si2 0.687987 0.711890 0.302656
Si Si3 0.654576 0.298626 0.739522
Si Si4 0.201671 0.209270 0.079995
Si Si5 0.543599 0.295052 0.125213
Si Si6 0.126202 0.000000 0.260518
Si Si7 0.297829 0.000000 0.902461
Si Si8 0.920907 0.707607 0.545331
O O1 0.500000 0.000000 0.500000
O O2 0.836265 0.000000 0.652802
O O3 0.767129 0.831644 0.524755
O O4 0.686357 0.500000 0.305592
O O5 0.554762 0.766064 0.316789
O O6 0.596498 0.766635 0.210581
O O7 0.895218 0.762136 0.362010
O O8 0.655039 0.500000 0.718223
O O9 0.735331 0.293301 0.835245
O O10 0.769349 0.170297 0.733105
O O11 0.329780 0.254519 0.060978
O O12 0.206634 0.000000 0.090336
O O13 0.000000 0.263868 0.000000
O O14 0.571527 0.500000 0.126614
O O15 0.668960 0.184542 0.120522
O O16 0.924967 0.000000 0.164863
O O17 0.500000 0.000000 0.000000
O O18 0.879770 0.500000 0.539324
O O19 0.000000 0.730853 0.500000
#
# Coordination Sequence:
#
# PCOD9147338 Si02
#       8
#     2   4   4   4   4   2   2   4
#     4  12  29  46  66 105 143 181 225 266 333 418
#     4   8  17  36  65  97 122 157 213 267 326 386
#     4  10  22  39  63  97 129 167 219 272 332 399
#     4  10  19  34  62  92 125 157 200 270 337 387
#     4  10  21  39  61  85 115 157 207 264 318 373
#     4  12  28  45  63  89 133 188 214 259 335 392
#     4  12  28  43  59  84 120 169 227 263 308 384
#     4  10  22  43  73 102 132 172 221 279 333 390
#
# _framework density 21.481290000000001
#
# number of rings (size 3 to 8) (size 9 to 14) (size 15 to 20)
#    0.000    1.846    1.538    2.538    4.308    3.692 
#    0.000    0.000    0.000    0.000    0.000    0.000 
#    0.000    0.000    0.000    0.000    0.000    0.000 
#
# Total GULP energy -144787.812297 kJ/mol
# GULP energy per Si atom -5568.762011 kJ/mol
# Density = 2.143240 g / cm^3
# Si number density = 21.481290 Si / 1000 Ang^3
#
#
#
# Elastic Constant Matrix: (Units=GPa)
#
#
# Indices 1 2 3 4 5 6 
#
# 1 116.8393 61.4810 23.0352 0.0000 30.2710 0.0000
# 2 61.4810 107.0582 10.4865 0.0000 4.8907 0.0000
# 3 23.0352 10.4865 40.5643 0.0000 13.3294 0.0000
# 4 0.0000 0.0000 0.0000 4.2342 0.0000 30.5765
# 5 30.2710 4.8907 13.3294 0.0000 29.2336 0.0000
# 6 0.0000 0.0000 0.0000 30.5765 0.0000 -124.2743
#
#
#
# Elastic Compliance Matrix: (Units=1/GPa)
#
#
# Indices 1 2 3 4 5 6 
#
# 1 0.018235 -0.009480 -0.002612 0.000000 -0.016105 0.000000
# 2 -0.009480 0.014520 -0.000938 0.000000 0.007815 0.000000
# 3 -0.002612 -0.000938 0.029921 0.000000 -0.010781 0.000000
# 4 0.000000 0.000000 0.000000 0.085054 0.000000 0.020927
# 5 -0.016105 0.007815 -0.010781 0.000000 0.054492 0.000000
# 6 0.000000 0.000000 0.000000 0.020927 0.000000 -0.002898
#
#
# Mechanical properties :
#
#
# Convention : Reuss Voigt Hill
#
# Bulk Modulus (GPa) = 27.31181 50.49636 38.90408
# Shear Modulus (GPa) = 21.04479 -6.86404 7.09038
#
# Velocity S-wave (km/s) = 3.13338 -1.78950 1.81876
# Velocity P-wave (km/s) = 5.08258 4.39186 4.74979
#
# Compressibility (1/GPa) = 0.03661420
#
# Stress axis : x y z
#
# Youngs Moduli (GPa) = 54.84051 68.87131 33.42171
#
# Poissons Ratio (x) = 0.65291 0.08730
# Poissons Ratio (y) = 0.51990 0.03136
# Poissons Ratio (z) = 0.14325 0.06462
#
# Static dielectric constant tensor:
#      x y z
#    x 1.823740 0.000000 0.063460 
#    y 0.000000 1.749510 0.000000 
#    z 0.063460 0.000000 2.058470 
# 
# From -- ./inp_files/82272.got.cif
#   From: 2010.05.17/outbox.cif.g08.bks.cpg/sg10_42_cif.got.tgz:82272.got - 2010.06.03 11:33:40.
