data_PCOD9147348
_publ_section_title
;
Structure prediction by ZEFSAII (Michael W. Deem and Ramdas Pophale) SiO2 
 PCOD9147348
Probable space group: P 2/M
;
_chemical_formula_sum "Si O2"
_cell_formula_units_Z 32
_cell_length_a 31.731423
_cell_length_b 9.088973
_cell_length_c 14.348976
_cell_angle_alpha 90.000000
_cell_angle_beta 28.341458
_cell_angle_gamma 90.000000
_cell_volume 1964.570138
_symmetry_space_group_name_H-M "P 2/M"
_symmetry_group_IT_number 10
_symmetry_cell_setting 'monoclinic'
loop_
_space_group_symop_operation_xyz
x,y,z
-x,y,-z
-x,-y,-z
x,-y,z
loop_
_atom_site_type_symbol
_atom_site_label
_atom_site_fract_x
_atom_site_fract_y
_atom_site_fract_z
Si Si1 0.713311 0.673761 0.892251
Si Si2 0.848103 0.674110 0.087043
Si Si3 0.008421 0.169197 0.680319
Si Si4 0.601603 0.677158 0.279657
Si Si5 0.812415 0.828955 0.543475
Si Si6 0.138603 0.827390 0.273808
Si Si7 0.104320 0.178130 0.811887
Si Si8 0.249451 0.826283 0.882280
O O1 0.712130 0.500000 0.881740
O O2 0.735700 0.748109 0.750393
O O3 0.794476 0.722082 0.801192
O O4 0.628903 0.717057 0.120078
O O5 0.838469 0.500000 0.112890
O O6 0.858521 0.748240 0.167529
O O7 0.770716 0.744439 0.174511
O O8 0.938090 0.718270 0.857240
O O9 0.096754 0.178309 0.572543
O O10 0.043749 0.194965 0.506917
O O11 0.974571 0.000000 0.753734
O O12 0.500000 0.712140 0.500000
O O13 0.614062 0.500000 0.264558
O O14 0.668742 0.758012 0.219404
O O15 0.839532 0.775532 0.388198
O O16 0.788506 0.000000 0.583039
O O17 0.160407 0.000000 0.252327
O O18 0.162992 0.807895 0.118545
O O19 0.108159 0.000000 0.812396
O O20 0.000000 0.215443 0.000000
O O21 0.262222 0.000000 0.843529
#
# Coordination Sequence:
#
# PCOD9147348 Si02
#       8
#     4   4   4   4   4   4   4   4
#     4   9  16  26  45  73 102 128 155 192 238 288
#     4  12  24  33  44  67  98 129 164 208 255 294
#     4   9  16  30  47  64  88 125 169 205 242 285
#     4   9  18  34  55  79 107 134 157 188 237 295
#     4   9  17  30  49  68  92 127 166 209 249 284
#     4   8  16  30  47  64  87 124 166 202 236 279
#     4  10  19  35  53  67  88 127 176 216 249 289
#     4  10  20  35  52  70  95 128 166 204 240 287
#
# _framework density 16.288551999999999
#
# number of rings (size 3 to 8) (size 9 to 14) (size 15 to 20)
#    0.000    2.500    1.250    2.625    0.000    4.500 
#    0.000    2.500    0.000    0.000    0.000    0.875 
#    0.000    7.000    0.000    0.000    0.000    0.000 
#
# Total GULP energy -178334.949017 kJ/mol
# GULP energy per Si atom -5572.967157 kJ/mol
# Density = 1.625148 g / cm^3
# Si number density = 16.288552 Si / 1000 Ang^3
#
#
#
# Elastic Constant Matrix: (Units=GPa)
#
#
# Indices 1 2 3 4 5 6 
#
# 1 111.1348 46.6994 54.3338 0.0000 26.2637 0.0000
# 2 46.6994 52.4026 45.4715 0.0000 12.7942 0.0000
# 3 54.3338 45.4715 106.3254 0.0000 18.6767 0.0000
# 4 0.0000 0.0000 0.0000 20.2570 0.0000 5.7124
# 5 26.2637 12.7942 18.6767 0.0000 23.4367 0.0000
# 6 0.0000 0.0000 0.0000 5.7124 0.0000 16.5801
#
#
#
# Elastic Compliance Matrix: (Units=1/GPa)
#
#
# Indices 1 2 3 4 5 6 
#
# 1 0.017368 -0.010634 -0.002243 0.000000 -0.011871 0.000000
# 2 -0.010634 0.037947 -0.010754 0.000000 -0.000229 0.000000
# 3 -0.002243 -0.010754 0.015904 0.000000 -0.004290 0.000000
# 4 0.000000 0.000000 0.000000 0.054678 0.000000 -0.018839
# 5 -0.011871 -0.000229 -0.004290 0.000000 0.059515 0.000000
# 6 0.000000 0.000000 0.000000 -0.018839 0.000000 0.066804
#
#
# Mechanical properties :
#
#
# Convention : Reuss Voigt Hill
#
# Bulk Modulus (GPa) = 41.73960 62.54137 52.14048
# Shear Modulus (GPa) = 16.26210 20.27864 18.27037
#
# Velocity S-wave (km/s) = 3.16314 3.53223 3.35277
# Velocity P-wave (km/s) = 6.24671 7.42393 6.86062
#
# Compressibility (1/GPa) = 0.02395806
#
# Stress axis : x y z
#
# Youngs Moduli (GPa) = 57.57664 26.35235 62.87762
#
# Poissons Ratio (x) = 0.28022 0.14101
# Poissons Ratio (y) = 0.61225 0.67622
# Poissons Ratio (z) = 0.12912 0.28341
#
# Static dielectric constant tensor:
#      x y z
#    x 1.559250 0.000000 0.024720 
#    y 0.000000 1.540140 0.000000 
#    z 0.024720 0.000000 1.562180 
# 
# From -- ./inp_files/72541.got.cif
#   From: 2010.05.17/outbox.cif.g08.bks.cpg/sg10_37_cif.got.tgz:72541.got - 2010.06.03 11:33:40.
