data_PCOD9147409
_publ_section_title
;
Structure prediction by ZEFSAII (Michael W. Deem and Ramdas Pophale) SiO2 
 PCOD9147409
Probable space group: P 2/M
;
_chemical_formula_sum "Si O2"
_cell_formula_units_Z 32
_cell_length_a 8.683198
_cell_length_b 20.325887
_cell_length_c 9.876130
_cell_angle_alpha 90.000000
_cell_angle_beta 62.397112
_cell_angle_gamma 90.000000
_cell_volume 1544.678365
_symmetry_space_group_name_H-M "P 2/M"
_symmetry_group_IT_number 10
_symmetry_cell_setting 'monoclinic'
loop_
_space_group_symop_operation_xyz
x,y,z
-x,y,-z
-x,-y,-z
x,-y,z
loop_
_atom_site_type_symbol
_atom_site_label
_atom_site_fract_x
_atom_site_fract_y
_atom_site_fract_z
Si Si1 0.786096 0.318031 0.910323
Si Si2 0.796849 0.723918 0.602400
Si Si3 0.393630 0.428099 0.863247
Si Si4 0.168991 0.128092 0.348106
Si Si5 0.347388 0.603922 0.457145
Si Si6 0.533584 0.071814 0.147064
Si Si7 0.162308 0.168648 0.031380
Si Si8 0.079342 0.427882 0.772902
O O1 0.747659 0.298838 0.772232
O O2 0.809697 0.247617 0.973275
O O3 0.955417 0.365621 0.843120
O O4 0.642743 0.364614 0.033589
O O5 0.784757 0.801897 0.602230
O O6 0.684411 0.681748 0.544888
O O7 0.000000 0.707508 0.500000
O O8 0.381057 0.500000 0.932821
O O9 0.578359 0.423029 0.712913
O O10 0.237467 0.424676 0.815644
O O11 0.343854 0.085581 0.286119
O O12 0.136192 0.143568 0.199544
O O13 0.000000 0.103218 0.500000
O O14 0.500000 0.589164 0.500000
O O15 0.170830 0.575584 0.589261
O O16 0.600706 0.000000 0.164245
O O17 0.500000 0.068581 0.000000
O O18 0.672406 0.130621 0.099985
O O19 0.000000 0.154989 0.000000
O O20 0.995748 0.500000 0.823757
#
# Coordination Sequence:
#
# PCOD9147409 Si02
#       8
#     4   4   4   4   4   4   4   4
#     4  11  21  35  56  81 114 145 191 239 293 338
#     4  10  20  38  56  79 112 147 184 234 291 347
#     4  10  21  35  52  79 110 143 187 242 295 342
#     4   9  20  38  61  89 121 156 198 246 294 342
#     4  10  21  37  57  79 104 146 191 236 290 353
#     4   9  19  38  63  91 124 164 201 232 287 362
#     4  10  21  37  60  91 123 159 199 243 292 356
#     4  10  19  35  56  76 108 151 191 235 292 351
#
# _framework density 20.716287000000001
#
# number of rings (size 3 to 8) (size 9 to 14) (size 15 to 20)
#    0.000    2.125    1.250    1.875    1.750    3.500 
#    0.000    4.375    0.000    0.750    0.000    0.000 
#    0.000    0.000    0.000    0.000    0.000    0.000 
#
# Total GULP energy -178505.238899 kJ/mol
# GULP energy per Si atom -5578.288716 kJ/mol
# Density = 2.066914 g / cm^3
# Si number density = 20.716287 Si / 1000 Ang^3
#
#
#
# Elastic Constant Matrix: (Units=GPa)
#
#
# Indices 1 2 3 4 5 6 
#
# 1 47.0686 36.0026 20.4843 0.0000 -17.0047 0.0000
# 2 36.0026 118.2066 47.7826 0.0000 -26.7054 0.0000
# 3 20.4843 47.7826 134.7000 0.0000 -30.6066 0.0000
# 4 0.0000 0.0000 0.0000 13.4674 0.0000 -10.4579
# 5 -17.0047 -26.7054 -30.6066 0.0000 24.1653 0.0000
# 6 0.0000 0.0000 0.0000 -10.4579 0.0000 1.9888
#
#
#
# Elastic Compliance Matrix: (Units=1/GPa)
#
#
# Indices 1 2 3 4 5 6 
#
# 1 0.031633 -0.006338 0.001269 0.000000 0.016863 0.000000
# 2 -0.006338 0.012809 -0.001933 0.000000 0.007247 0.000000
# 3 0.001269 -0.001933 0.010719 0.000000 0.012333 0.000000
# 4 0.000000 0.000000 0.000000 -0.024083 0.000000 -0.126635
# 5 0.016863 0.007247 0.012333 0.000000 0.076877 0.000000
# 6 0.000000 0.000000 0.000000 -0.126635 0.000000 -0.163077
#
#
# Mechanical properties :
#
#
# Convention : Reuss Voigt Hill
#
# Bulk Modulus (GPa) = 24.29699 56.50157 40.39928
# Shear Modulus (GPa) = -182.48767 20.97136 -80.75816
#
# Velocity S-wave (km/s) = -9.39576 3.18514 -6.25040
# Velocity P-wave (km/s) = 10.29335 6.39218 5.70496
#
# Compressibility (1/GPa) = 0.04115736
#
# Stress axis : x y z
#
# Youngs Moduli (GPa) = 31.61224 78.07128 93.29277
#
# Poissons Ratio (x) = 0.49482 -0.11843
# Poissons Ratio (y) = 0.20036 0.18036
# Poissons Ratio (z) = -0.04013 0.15093
#
# Static dielectric constant tensor:
#      x y z
#    x 1.747660 0.000000 0.008830 
#    y 0.000000 1.741040 0.000000 
#    z 0.008830 0.000000 1.823780 
# 
# From -- ./inp_files/43585.got.cif
#   From: 2010.05.17/outbox.cif.g08.bks.cpg/sg10_22_cif.got.tgz:43585.got - 2010.06.03 11:33:40.
