data_PCOD9147286
_publ_section_title
;
Structure prediction by ZEFSAII (Michael W. Deem and Ramdas Pophale) SiO2 
 PCOD9147286
Probable space group: P 2/M
;
_chemical_formula_sum "Si O2"
_cell_formula_units_Z 32
_cell_length_a 11.661511
_cell_length_b 8.140279
_cell_length_c 15.402893
_cell_angle_alpha 90.000000
_cell_angle_beta 84.274964
_cell_angle_gamma 90.000000
_cell_volume 1454.871936
_symmetry_space_group_name_H-M "P 2/M"
_symmetry_group_IT_number 10
_symmetry_cell_setting 'monoclinic'
loop_
_space_group_symop_operation_xyz
x,y,z
-x,y,-z
-x,-y,-z
x,-y,z
loop_
_atom_site_type_symbol
_atom_site_label
_atom_site_fract_x
_atom_site_fract_y
_atom_site_fract_z
Si Si1 0.967034 0.308921 0.270826
Si Si2 0.523009 0.198904 0.695344
Si Si3 0.661825 0.306876 0.047634
Si Si4 0.084521 0.700905 0.916799
Si Si5 0.899642 0.810520 0.577511
Si Si6 0.330638 0.685166 0.475261
Si Si7 0.413755 0.192385 0.125210
Si Si8 0.279805 0.189919 0.663825
O O1 0.000084 0.500000 0.268825
O O2 0.963294 0.245871 0.172732
O O3 0.835661 0.291498 0.314097
O O4 0.048340 0.215494 0.331511
O O5 0.575670 0.262105 0.602074
O O6 0.593753 0.252291 0.774980
O O7 0.389069 0.249266 0.711086
O O8 0.524184 0.000000 0.693738
O O9 0.647295 0.500000 0.068428
O O10 0.783452 0.247681 0.076395
O O11 0.549098 0.213326 0.090496
O O12 0.657742 0.284612 0.943401
O O13 0.086748 0.500000 0.915963
O O14 0.000000 0.753298 0.000000
O O15 0.791203 0.699251 0.564594
O O16 0.000000 0.776704 0.500000
O O17 0.863560 0.000000 0.569274
O O18 0.351729 0.500000 0.503330
O O19 0.319605 0.796663 0.561002
O O20 0.384205 0.000000 0.123783
O O21 0.254302 0.000000 0.686395
#
# Coordination Sequence:
#
# PCOD9147286 Si02
#       8
#     4   4   4   4   4   4   4   4
#     4  11  22  37  63  93 118 152 202 254 296 345
#     4  10  23  40  58  83 119 159 197 238 294 361
#     4  10  19  34  59  86 115 152 195 240 291 352
#     4   9  20  38  58  85 122 157 190 237 298 353
#     4  11  23  41  64  86 117 159 197 241 295 354
#     4  12  25  39  60  88 118 152 194 247 296 347
#     4  10  20  36  58  84 115 152 194 242 291 344
#     4  11  22  39  61  84 117 159 197 238 294 357
#
# _framework density 21.995062000000001
#
# number of rings (size 3 to 8) (size 9 to 14) (size 15 to 20)
#    0.000    1.500    1.250    4.875    0.000    5.000 
#    0.000    3.125    0.000    5.250    0.000    0.000 
#    0.000    0.000    0.000    0.000    0.000    0.000 
#
# Total GULP energy -178976.292587 kJ/mol
# GULP energy per Si atom -5593.009143 kJ/mol
# Density = 2.194500 g / cm^3
# Si number density = 21.995062 Si / 1000 Ang^3
#
#
#
# Elastic Constant Matrix: (Units=GPa)
#
#
# Indices 1 2 3 4 5 6 
#
# 1 31.3098 14.2744 12.1317 0.0000 15.2964 0.0000
# 2 14.2744 21.1354 -13.0664 0.0000 0.5038 0.0000
# 3 12.1317 -13.0664 102.7220 0.0000 13.7368 0.0000
# 4 0.0000 0.0000 0.0000 30.1687 0.0000 -6.4747
# 5 15.2964 0.5038 13.7368 0.0000 32.2144 0.0000
# 6 0.0000 0.0000 0.0000 -6.4747 0.0000 25.2812
#
#
#
# Elastic Compliance Matrix: (Units=1/GPa)
#
#
# Indices 1 2 3 4 5 6 
#
# 1 0.080841 -0.061989 -0.013181 0.000000 -0.031796 0.000000
# 2 -0.061989 0.099329 0.017209 0.000000 0.020543 0.000000
# 3 -0.013181 0.017209 0.013446 0.000000 0.000256 0.000000
# 4 0.000000 0.000000 0.000000 0.035075 0.000000 0.008983
# 5 -0.031796 0.020543 0.000256 0.000000 0.045709 0.000000
# 6 0.000000 0.000000 0.000000 0.008983 0.000000 0.041856
#
#
# Mechanical properties :
#
#
# Convention : Reuss Voigt Hill
#
# Bulk Modulus (GPa) = 12.87083 20.20517 16.53800
# Shear Modulus (GPa) = 10.91522 26.98805 18.95163
#
# Velocity S-wave (km/s) = 2.23010 3.50666 2.93854
# Velocity P-wave (km/s) = 3.53490 5.05982 4.36447
#
# Compressibility (1/GPa) = 0.07769506
#
# Stress axis : x y z
#
# Youngs Moduli (GPa) = 12.36997 10.06754 74.36893
#
# Poissons Ratio (x) = 0.62408 0.98023
# Poissons Ratio (y) = 0.76680 -1.27980
# Poissons Ratio (z) = 0.16304 -0.17325
#
# Static dielectric constant tensor:
#      x y z
#    x 1.787220 0.000000 0.009930 
#    y 0.000000 1.745980 0.000000 
#    z 0.009930 0.000000 1.817570 
# 
# From -- ./inp_files/63838.got.cif
#   From: 2010.05.17/outbox.cif.g08.bks.cpg/sg10_32_cif.got.tgz:63838.got - 2010.06.03 11:33:40.
