data_PCOD9147206
_publ_section_title
;
Structure prediction by ZEFSAII (Michael W. Deem and Ramdas Pophale) SiO2 
 PCOD9147206
Probable space group: P 2/M
;
_chemical_formula_sum "Si O2"
_cell_formula_units_Z 22
_cell_length_a 10.661113
_cell_length_b 11.205439
_cell_length_c 14.064632
_cell_angle_alpha 90.000000
_cell_angle_beta 147.117650
_cell_angle_gamma 90.000000
_cell_volume 912.204603
_symmetry_space_group_name_H-M "P 2/M"
_symmetry_group_IT_number 10
_symmetry_cell_setting 'monoclinic'
loop_
_space_group_symop_operation_xyz
x,y,z
-x,y,-z
-x,-y,-z
x,-y,z
loop_
_atom_site_type_symbol
_atom_site_label
_atom_site_fract_x
_atom_site_fract_y
_atom_site_fract_z
Si Si1 0.614574 0.294851 0.166185
Si Si2 0.285283 0.738023 0.415055
Si Si3 0.690128 0.862631 0.393443
Si Si4 0.789339 0.133463 0.795183
Si Si5 0.548828 0.500000 0.379284
Si Si6 0.048085 0.500000 0.686622
Si Si7 0.275877 0.500000 0.025360
O O1 0.698377 0.206274 0.300507
O O2 0.813112 0.385024 0.258284
O O3 0.420473 0.383058 0.086631
O O4 0.500000 0.236580 0.000000
O O5 0.500000 0.809440 0.500000
O O6 0.171273 0.800337 0.432446
O O7 0.133658 0.756033 0.225769
O O8 0.406335 0.618489 0.529973
O O9 0.433412 0.850508 0.276958
O O10 0.748077 0.000000 0.419698
O O11 0.776524 0.000000 0.740412
O O12 0.000000 0.126394 0.000000
O O13 0.320361 0.500000 0.168911
O O14 0.793741 0.500000 0.478588
O O15 0.058667 0.500000 0.811329
#
# Coordination Sequence:
#
# PCOD9147206 Si02
#       7
#     4   4   4   4   2   2   2
#     4   9  18  35  55  81 111 146 188 238 278 337
#     4  10  21  37  55  84 116 146 187 229 282 347
#     4  10  19  34  58  81 110 153 187 227 285 334
#     4   9  19  36  58  83 113 149 189 229 277 340
#     4  12  21  37  62  86 112 154 188 239 290 337
#     4   9  22  37  60  86 107 151 202 232 282 341
#     4   9  18  37  55  79 112 147 184 235 281 338
#
# _framework density 24.117397
#
# number of rings (size 3 to 8) (size 9 to 14) (size 15 to 20)
#    0.000    2.364    1.818    1.909    0.000    6.909 
#    0.000    0.455    0.000    3.273    0.000    0.000 
#    0.000    0.000    0.000    0.000    0.000    0.000 
#
# Total GULP energy -122529.764435 kJ/mol
# GULP energy per Si atom -5569.534747 kJ/mol
# Density = 2.406250 g / cm^3
# Si number density = 24.117397 Si / 1000 Ang^3
#
#
#
# Elastic Constant Matrix: (Units=GPa)
#
#
# Indices 1 2 3 4 5 6 
#
# 1 52.0434 30.2097 31.8808 0.0000 -22.6990 0.0000
# 2 30.2097 136.1522 47.7929 0.0000 -48.3145 0.0000
# 3 31.8808 47.7929 102.6434 0.0000 -44.7338 0.0000
# 4 0.0000 0.0000 0.0000 -161.2205 0.0000 12.9271
# 5 -22.6990 -48.3145 -44.7338 0.0000 48.3153 0.0000
# 6 0.0000 0.0000 0.0000 12.9271 0.0000 29.7078
#
#
#
# Elastic Compliance Matrix: (Units=1/GPa)
#
#
# Indices 1 2 3 4 5 6 
#
# 1 0.025709 -0.002043 -0.004460 0.000000 0.005906 0.000000
# 2 -0.002043 0.011567 -0.000216 0.000000 0.010407 0.000000
# 3 -0.004460 -0.000216 0.017135 0.000000 0.013554 0.000000
# 4 0.000000 0.000000 0.000000 -0.005994 0.000000 0.002608
# 5 0.005906 0.010407 0.013554 0.000000 0.046428 0.000000
# 6 0.000000 0.000000 0.000000 0.002608 0.000000 0.032526
#
#
# Mechanical properties :
#
#
# Convention : Reuss Voigt Hill
#
# Bulk Modulus (GPa) = 24.40588 56.73397 40.56993
# Shear Modulus (GPa) = 32.36953 -4.57576 13.89688
#
# Velocity S-wave (km/s) = 3.66753 -1.37891 2.40306
# Velocity P-wave (km/s) = 5.29868 4.58693 4.95560
#
# Compressibility (1/GPa) = 0.04097373
#
# Stress axis : x y z
#
# Youngs Moduli (GPa) = 38.89759 86.45492 58.35943
#
# Poissons Ratio (x) = 0.17663 0.26027
# Poissons Ratio (y) = 0.07947 0.01258
# Poissons Ratio (z) = 0.17348 0.01864
#
# Static dielectric constant tensor:
#      x y z
#    x 1.977510 0.000000 -0.102130 
#    y 0.000000 2.026260 0.000000 
#    z -0.102130 0.000000 -0.602080 
# 
# From -- ./inp_files/46914.got.cif
#   From: 2010.05.17/outbox.cif.g08.bks.cpg/sg10_24_cif.got.tgz:46914.got - 2010.06.03 11:33:40.
