data_PCOD9147015
_publ_section_title
;
Structure prediction by ZEFSAII (Michael W. Deem and Ramdas Pophale) SiO2 
 PCOD9147015
Probable space group: P 2/M
;
_chemical_formula_sum "Si O2"
_cell_formula_units_Z 28
_cell_length_a 26.900669
_cell_length_b 8.770910
_cell_length_c 8.297111
_cell_angle_alpha 90.000000
_cell_angle_beta 140.626339
_cell_angle_gamma 90.000000
_cell_volume 1241.883466
_symmetry_space_group_name_H-M "P 2/M"
_symmetry_group_IT_number 10
_symmetry_cell_setting 'monoclinic'
loop_
_space_group_symop_operation_xyz
x,y,z
-x,y,-z
-x,-y,-z
x,-y,z
loop_
_atom_site_type_symbol
_atom_site_label
_atom_site_fract_x
_atom_site_fract_y
_atom_site_fract_z
Si Si1 0.034260 0.183759 0.829077
Si Si2 0.170994 0.318305 0.992890
Si Si3 0.681443 0.317998 0.449458
Si Si4 0.883665 0.815304 0.628476
Si Si5 0.456446 0.176063 0.715494
Si Si6 0.736213 0.182497 0.075655
Si Si7 0.599396 0.318041 0.909806
O O1 0.085023 0.254707 0.814084
O O2 0.945501 0.233629 0.644903
O O3 0.034857 0.000000 0.812894
O O4 0.080270 0.226664 0.109506
O O5 0.168595 0.500000 0.965107
O O6 0.217120 0.241095 0.962337
O O7 0.228667 0.281838 0.288681
O O8 0.672068 0.500000 0.433073
O O9 0.627115 0.247988 0.453079
O O10 0.647385 0.268906 0.191971
O O11 0.796184 0.766247 0.368482
O O12 0.884115 0.000000 0.626855
O O13 0.448582 0.000000 0.651294
O O14 0.500000 0.185200 0.000000
O O15 0.511964 0.259625 0.726434
O O16 0.650516 0.249595 0.893663
O O17 0.730891 0.000000 0.059196
O O18 0.598438 0.500000 0.895427
#
# Coordination Sequence:
#
# PCOD9147015 Si02
#       7
#     4   4   4   4   4   4   4
#     4   9  17  35  60  82 103 133 174 218 264 312
#     4  11  23  37  51  75 110 144 177 214 259 310
#     4   9  19  35  55  77 105 140 175 213 261 313
#     4   8  17  34  58  83 105 132 172 220 265 310
#     4   9  17  30  52  82 109 133 169 216 260 306
#     4  11  22  36  53  76 106 141 179 217 259 309
#     4  10  19  34  56  80 106 137 172 214 265 315
#
# _framework density 22.546399999999998
#
# number of rings (size 3 to 8) (size 9 to 14) (size 15 to 20)
#    0.000    2.429    0.000    3.429    0.000    4.000 
#    0.000    7.143    0.000    4.286    0.000    0.000 
#    0.000    0.000    0.000    0.000    0.000    0.000 
#
# Total GULP energy -156443.618803 kJ/mol
# GULP energy per Si atom -5587.272100 kJ/mol
# Density = 2.249508 g / cm^3
# Si number density = 22.546400 Si / 1000 Ang^3
#
#
#
# Elastic Constant Matrix: (Units=GPa)
#
#
# Indices 1 2 3 4 5 6 
#
# 1 171.3285 31.9964 23.5668 0.0000 31.7702 0.0000
# 2 31.9964 -5.9447 11.5172 0.0000 9.0756 0.0000
# 3 23.5668 11.5172 54.5217 0.0000 18.6055 0.0000
# 4 0.0000 0.0000 0.0000 15.6002 0.0000 11.6605
# 5 31.7702 9.0756 18.6055 0.0000 44.5743 0.0000
# 6 0.0000 0.0000 0.0000 11.6605 0.0000 50.8998
#
#
#
# Elastic Compliance Matrix: (Units=1/GPa)
#
#
# Indices 1 2 3 4 5 6 
#
# 1 0.004785 0.012568 -0.003132 0.000000 -0.004662 0.000000
# 2 0.012568 -0.077239 0.009998 0.000000 0.002595 0.000000
# 3 -0.003132 0.009998 0.020426 0.000000 -0.008329 0.000000
# 4 0.000000 0.000000 0.000000 0.077346 0.000000 -0.017719
# 5 -0.004662 0.002595 -0.008329 0.000000 0.028705 0.000000
# 6 0.000000 0.000000 0.000000 -0.017719 0.000000 0.023706
#
#
# Mechanical properties :
#
#
# Convention : Reuss Voigt Hill
#
# Bulk Modulus (GPa) = -75.98234 39.34070 -18.32082
# Shear Modulus (GPa) = 145.03778 32.40320 88.72049
#
# Velocity S-wave (km/s) = 8.02921 3.79513 6.27978
# Velocity P-wave (km/s) = 7.22385 6.05728 6.66613
#
# Compressibility (1/GPa) = -0.01316095
#
# Stress axis : x y z
#
# Youngs Moduli (GPa) = 208.99047 -12.94684 48.95839
#
# Poissons Ratio (x) = 0.16272 0.15335
# Poissons Ratio (y) = -2.62664 -0.48948
# Poissons Ratio (z) = 0.65462 0.12944
#
# Static dielectric constant tensor:
#      x y z
#    x 1.832540 0.000000 -0.061200 
#    y 0.000000 1.745550 0.000000 
#    z -0.061200 0.000000 1.925600 
# 
# From -- ./inp_files/37291.got.cif
#   From: 2010.05.17/outbox.cif.g08.bks.cpg/sg10_19_cif.got.tgz:37291.got - 2010.06.03 11:33:40.
