data_PCOD9147066
_publ_section_title
;
Structure prediction by ZEFSAII (Michael W. Deem and Ramdas Pophale) SiO2 
 PCOD9147066
Probable space group: P 2/M
;
_chemical_formula_sum "Si O2"
_cell_formula_units_Z 28
_cell_length_a 14.937584
_cell_length_b 7.456346
_cell_length_c 12.875666
_cell_angle_alpha 90.000000
_cell_angle_beta 119.977227
_cell_angle_gamma 90.000000
_cell_volume 1242.242437
_symmetry_space_group_name_H-M "P 2/M"
_symmetry_group_IT_number 10
_symmetry_cell_setting 'monoclinic'
loop_
_space_group_symop_operation_xyz
x,y,z
-x,y,-z
-x,-y,-z
x,-y,z
loop_
_atom_site_type_symbol
_atom_site_label
_atom_site_fract_x
_atom_site_fract_y
_atom_site_fract_z
Si Si1 0.112059 0.710168 0.093021
Si Si2 0.107670 0.216730 0.513203
Si Si3 0.499754 0.793845 0.826965
Si Si4 0.269394 0.217090 0.000484
Si Si5 0.794468 0.709941 0.640936
Si Si6 0.428921 0.716986 0.556590
Si Si7 0.281081 0.219059 0.775149
O O1 0.094406 0.500000 0.106521
O O2 0.189527 0.722002 0.041247
O O3 0.164619 0.787610 0.227305
O O4 0.000000 0.787851 0.000000
O O5 0.123668 0.273357 0.404067
O O6 0.203997 0.278807 0.639698
O O7 0.000000 0.277390 0.500000
O O8 0.108109 0.000000 0.515137
O O9 0.613630 0.717111 0.910335
O O10 0.472813 0.789467 0.689613
O O11 0.398459 0.716772 0.824680
O O12 0.506920 0.000000 0.867225
O O13 0.269558 0.000000 0.005765
O O14 0.242269 0.269057 0.866950
O O15 0.772397 0.500000 0.647066
O O16 0.686445 0.783893 0.534705
O O17 0.500000 0.762860 0.500000
O O18 0.428614 0.500000 0.567219
O O19 0.283674 0.000000 0.772231
#
# Coordination Sequence:
#
# PCOD9147066 Si02
#       7
#     4   4   4   4   4   4   4
#     4  10  23  42  60  80 110 149 189 230 280 330
#     4  10  21  36  58  86 112 143 184 231 282 331
#     4  10  19  34  56  83 113 146 183 224 274 330
#     4  10  21  36  58  86 113 147 189 228 274 330
#     4  10  21  38  58  81 111 146 185 229 277 329
#     4  10  20  34  54  79 110 148 184 223 274 327
#     4   9  18  35  56  82 116 147 178 224 279 331
#
# _framework density 22.539883
#
# number of rings (size 3 to 8) (size 9 to 14) (size 15 to 20)
#    0.000    2.143    1.429    1.286    2.000    4.857 
#    0.000    1.429    0.000    1.714    0.000    0.000 
#    0.000    0.000    0.000    0.000    0.000    0.000 
#
# Total GULP energy -156502.701149 kJ/mol
# GULP energy per Si atom -5589.382184 kJ/mol
# Density = 2.248858 g / cm^3
# Si number density = 22.539883 Si / 1000 Ang^3
#
#
#
# Elastic Constant Matrix: (Units=GPa)
#
#
# Indices 1 2 3 4 5 6 
#
# 1 110.1486 -15.9899 35.2860 0.0000 -7.0355 0.0000
# 2 -15.9899 64.8861 -3.8278 0.0000 9.6494 0.0000
# 3 35.2860 -3.8278 116.8746 0.0000 -18.2382 0.0000
# 4 0.0000 0.0000 0.0000 0.8928 0.0000 -0.2377
# 5 -7.0355 9.6494 -18.2382 0.0000 38.4327 0.0000
# 6 0.0000 0.0000 0.0000 -0.2377 0.0000 -9.7013
#
#
#
# Elastic Compliance Matrix: (Units=1/GPa)
#
#
# Indices 1 2 3 4 5 6 
#
# 1 0.010407 0.002407 -0.003089 0.000000 -0.000165 0.000000
# 2 0.002407 0.016567 -0.000826 0.000000 -0.004111 0.000000
# 3 -0.003089 -0.000826 0.010158 0.000000 0.004462 0.000000
# 4 0.000000 0.000000 0.000000 1.112770 0.000000 -0.027260
# 5 -0.000165 -0.004111 0.004462 0.000000 0.029139 0.000000
# 6 0.000000 0.000000 0.000000 -0.027260 0.000000 -0.102411
#
#
# Mechanical properties :
#
#
# Convention : Reuss Voigt Hill
#
# Bulk Modulus (GPa) = 29.31059 35.87175 32.59117
# Shear Modulus (GPa) = 4.58288 24.35426 14.46857
#
# Velocity S-wave (km/s) = 1.42746 3.29066 2.53634
# Velocity P-wave (km/s) = 3.96850 5.51246 4.80293
#
# Compressibility (1/GPa) = 0.03411736
#
# Stress axis : x y z
#
# Youngs Moduli (GPa) = 96.08874 60.35957 98.44383
#
# Poissons Ratio (x) = -0.14528 0.30409
# Poissons Ratio (y) = -0.23128 0.08127
# Poissons Ratio (z) = 0.29681 0.04983
#
# Static dielectric constant tensor:
#      x y z
#    x 1.791540 0.000000 0.025370 
#    y 0.000000 1.867640 0.000000 
#    z 0.025370 0.000000 1.807680 
# 
# From -- ./inp_files/49546.got.cif
#   From: 2010.05.17/outbox.cif.g08.bks.cpg/sg10_25_cif.got.tgz:49546.got - 2010.06.03 11:33:40.
