data_PCOD9147432
_publ_section_title
;
Structure prediction by ZEFSAII (Michael W. Deem and Ramdas Pophale) SiO2 
 PCOD9147432
Probable space group: P 2/M
;
_chemical_formula_sum "Si O2"
_cell_formula_units_Z 32
_cell_length_a 11.172066
_cell_length_b 8.258802
_cell_length_c 15.457865
_cell_angle_alpha 90.000000
_cell_angle_beta 94.623535
_cell_angle_gamma 90.000000
_cell_volume 1421.623173
_symmetry_space_group_name_H-M "P 2/M"
_symmetry_group_IT_number 10
_symmetry_cell_setting 'monoclinic'
loop_
_space_group_symop_operation_xyz
x,y,z
-x,y,-z
-x,-y,-z
x,-y,z
loop_
_atom_site_type_symbol
_atom_site_label
_atom_site_fract_x
_atom_site_fract_y
_atom_site_fract_z
Si Si1 0.275966 0.320348 0.428168
Si Si2 0.729071 0.811402 0.754741
Si Si3 0.471751 0.802904 0.773902
Si Si4 0.038861 0.178253 0.404581
Si Si5 0.114034 0.697433 0.951046
Si Si6 0.001843 0.308540 0.764906
Si Si7 0.585206 0.193101 0.423442
Si Si8 0.621661 0.304918 0.052678
O O1 0.325955 0.500000 0.423761
O O2 0.314053 0.211315 0.348623
O O3 0.134497 0.320475 0.405037
O O4 0.292014 0.246364 0.524002
O O5 0.610944 0.748585 0.797342
O O6 0.859347 0.730353 0.774550
O O7 0.743872 0.000000 0.774073
O O8 0.432403 0.746717 0.674974
O O9 0.390677 0.740005 0.846936
O O10 0.471131 0.000000 0.773570
O O11 0.955381 0.215351 0.318688
O O12 0.000000 0.173854 0.500000
O O13 0.093889 0.000000 0.389835
O O14 0.114902 0.500000 0.958305
O O15 0.250073 0.753220 0.977806
O O16 0.079981 0.740930 0.851264
O O17 0.000000 0.755329 0.000000
O O18 0.014100 0.500000 0.755099
O O19 0.500000 0.248236 0.500000
O O20 0.575991 0.000000 0.420085
O O21 0.621543 0.500000 0.045400
O O22 0.500000 0.242224 0.000000
#
# Coordination Sequence:
#
# PCOD9147432 Si02
#       8
#     4   4   4   4   4   4   4   4
#     4  11  21  32  51  82 117 152 198 254 302 349
#     4  10  19  35  56  82 118 160 203 244 300 361
#     4  10  22  38  60  86 119 164 202 250 311 364
#     4  10  21  37  56  78 111 159 204 245 297 362
#     4   9  20  40  64  91 125 160 196 242 308 377
#     4  10  20  34  59  89 117 152 196 252 308 358
#     4  10  19  36  56  78 116 165 207 242 293 363
#     4  10  23  42  66  95 124 158 201 254 310 370
#
# _framework density 22.50948
#
# number of rings (size 3 to 8) (size 9 to 14) (size 15 to 20)
#    0.000    2.000    1.250    3.750    1.750    4.000 
#    0.000    3.750    0.000    1.875    0.000    0.000 
#    0.000    0.000    0.000    0.000    0.000    0.000 
#
# Total GULP energy -178289.383873 kJ/mol
# GULP energy per Si atom -5571.543246 kJ/mol
# Density = 2.245825 g / cm^3
# Si number density = 22.509480 Si / 1000 Ang^3
#
#
#
# Elastic Constant Matrix: (Units=GPa)
#
#
# Indices 1 2 3 4 5 6 
#
# 1 100.7571 7.7065 46.4783 0.0000 3.9735 0.0000
# 2 7.7065 42.9331 4.8119 0.0000 0.1632 0.0000
# 3 46.4783 4.8119 91.9603 0.0000 6.3007 0.0000
# 4 0.0000 0.0000 0.0000 16.8326 0.0000 -20.2959
# 5 3.9735 0.1632 6.3007 0.0000 29.6777 0.0000
# 6 0.0000 0.0000 0.0000 -20.2959 0.0000 -57.0828
#
#
#
# Elastic Compliance Matrix: (Units=1/GPa)
#
#
# Indices 1 2 3 4 5 6 
#
# 1 0.013056 -0.001615 -0.006490 0.000000 -0.000361 0.000000
# 2 -0.001615 0.023630 -0.000432 0.000000 0.000178 0.000000
# 3 -0.006490 -0.000432 0.014326 0.000000 -0.002170 0.000000
# 4 0.000000 0.000000 0.000000 0.041582 0.000000 -0.014785
# 5 -0.000361 0.000178 -0.002170 0.000000 0.034203 0.000000
# 6 0.000000 0.000000 0.000000 -0.014785 0.000000 -0.012262
#
#
# Mechanical properties :
#
#
# Convention : Reuss Voigt Hill
#
# Bulk Modulus (GPa) = 29.46581 39.29376 34.37978
# Shear Modulus (GPa) = 34.98421 9.66241 22.32331
#
# Velocity S-wave (km/s) = 3.94661 2.07411 3.15259
# Velocity P-wave (km/s) = 5.82121 4.81978 5.34400
#
# Compressibility (1/GPa) = 0.03393764
#
# Stress axis : x y z
#
# Youngs Moduli (GPa) = 76.59191 42.31955 69.80551
#
# Poissons Ratio (x) = 0.06834 0.45301
# Poissons Ratio (y) = 0.12369 0.03019
# Poissons Ratio (z) = 0.49705 0.01830
#
# Static dielectric constant tensor:
#      x y z
#    x 2.069480 0.000000 0.059800 
#    y 0.000000 1.780210 0.000000 
#    z 0.059800 0.000000 1.914160 
# 
# From -- ./inp_files/63826.got.cif
#   From: 2010.05.17/outbox.cif.g08.bks.cpg/sg10_32_cif.got.tgz:63826.got - 2010.06.03 11:33:40.
