data_PCOD9147581
_publ_section_title
;
Structure prediction by ZEFSAII (Michael W. Deem and Ramdas Pophale) SiO2 
 PCOD9147581
Probable space group: P 2/M
;
_chemical_formula_sum "Si O2"
_cell_formula_units_Z 24
_cell_length_a 11.749895
_cell_length_b 7.763070
_cell_length_c 12.676628
_cell_angle_alpha 90.000000
_cell_angle_beta 111.023776
_cell_angle_gamma 90.000000
_cell_volume 1079.328759
_symmetry_space_group_name_H-M "P 2/M"
_symmetry_group_IT_number 10
_symmetry_cell_setting 'monoclinic'
loop_
_space_group_symop_operation_xyz
x,y,z
-x,y,-z
-x,-y,-z
x,-y,z
loop_
_atom_site_type_symbol
_atom_site_label
_atom_site_fract_x
_atom_site_fract_y
_atom_site_fract_z
Si Si1 0.800702 0.792933 0.174699
Si Si2 0.588745 0.303685 0.263701
Si Si3 0.858769 0.211572 0.961227
Si Si4 0.974854 0.209195 0.610325
Si Si5 0.341566 0.800866 0.262858
Si Si6 0.693559 0.792480 0.523548
O O1 0.682386 0.751223 0.204395
O O2 0.921192 0.727938 0.276049
O O3 0.809651 0.000000 0.174152
O O4 0.803819 0.732746 0.055312
O O5 0.555350 0.500000 0.234894
O O6 0.461600 0.204727 0.231455
O O7 0.653633 0.284506 0.399143
O O8 0.773052 0.274454 0.837816
O O9 0.856860 0.000000 0.957934
O O10 0.000000 0.262483 0.000000
O O11 0.835779 0.247037 0.591397
O O12 0.000000 0.269991 0.500000
O O13 0.983759 0.000000 0.611993
O O14 0.370345 0.731810 0.389614
O O15 0.309580 0.000000 0.272564
O O16 0.676898 0.000000 0.503806
#
# Coordination Sequence:
#
# PCOD9147581 Si02
#       6
#     4   4   4   4   4   4
#     4  10  19  35  60  86 116 149 183 226 279 337
#     4  12  25  38  53  78 115 153 194 237 276 323
#     4   9  18  35  62  94 117 136 176 235 286 331
#     4   9  15  27  53  85 111 137 175 221 272 330
#     4  10  21  37  59  85 113 146 186 229 279 338
#     4  10  19  35  59  85 113 146 185 230 282 339
#
# _framework density 22.236042999999999
#
# number of rings (size 3 to 8) (size 9 to 14) (size 15 to 20)
#    0.000    2.000    1.667    3.000    0.000    7.333 
#    0.000    5.833    0.000    4.000    0.000    0.000 
#    0.000    0.000    0.000    0.000    0.000    0.000 
#
# Total GULP energy -134058.932028 kJ/mol
# GULP energy per Si atom -5585.788834 kJ/mol
# Density = 2.218543 g / cm^3
# Si number density = 22.236043 Si / 1000 Ang^3
#
#
#
# Elastic Constant Matrix: (Units=GPa)
#
#
# Indices 1 2 3 4 5 6 
#
# 1 101.3885 -10.1677 38.0831 0.0000 -13.4725 0.0000
# 2 -10.1677 30.5176 3.9500 0.0000 -2.5980 0.0000
# 3 38.0831 3.9500 112.9373 0.0000 -15.6975 0.0000
# 4 0.0000 0.0000 0.0000 81.2653 0.0000 79.9338
# 5 -13.4725 -2.5980 -15.6975 0.0000 35.9633 0.0000
# 6 0.0000 0.0000 0.0000 79.9338 0.0000 38.4304
#
#
#
# Elastic Compliance Matrix: (Units=1/GPa)
#
#
# Indices 1 2 3 4 5 6 
#
# 1 0.012223 0.004846 -0.003839 0.000000 0.003254 0.000000
# 2 0.004846 0.034974 -0.002400 0.000000 0.003295 0.000000
# 3 -0.003839 -0.002400 0.010655 0.000000 0.003039 0.000000
# 4 0.000000 0.000000 0.000000 -0.011766 0.000000 0.024472
# 5 0.003254 0.003295 0.003039 0.000000 0.030590 0.000000
# 6 0.000000 0.000000 0.000000 0.024472 0.000000 -0.024880
#
#
# Mechanical properties :
#
#
# Convention : Reuss Voigt Hill
#
# Bulk Modulus (GPa) = 18.15928 34.28602 26.22265
# Shear Modulus (GPa) = 68.55177 45.33034 56.94105
#
# Velocity S-wave (km/s) = 5.55842 4.51998 5.06588
# Velocity P-wave (km/s) = 7.02702 6.53398 6.78498
#
# Compressibility (1/GPa) = 0.05506827
#
# Stress axis : x y z
#
# Youngs Moduli (GPa) = 81.81003 28.59285 93.84901
#
# Poissons Ratio (x) = -0.13857 0.36030
# Poissons Ratio (y) = -0.39649 0.22519
# Poissons Ratio (z) = 0.31408 0.06861
#
# Static dielectric constant tensor:
#      x y z
#    x 1.822770 0.000000 -0.015240 
#    y 0.000000 1.823110 0.000000 
#    z -0.015240 0.000000 1.824030 
# 
# From -- ./inp_files/45269.got.cif
#   From: 2010.05.17/outbox.cif.g08.bks.cpg/sg10_23_cif.got.tgz:45269.got - 2010.06.03 11:33:40.
