data_PCOD9147519
_publ_section_title
;
Structure prediction by ZEFSAII (Michael W. Deem and Ramdas Pophale) SiO2 
 PCOD9147519
Probable space group: P 2/M
;
_chemical_formula_sum "Si O2"
_cell_formula_units_Z 28
_cell_length_a 5.086153
_cell_length_b 32.281521
_cell_length_c 9.329143
_cell_angle_alpha 90.000000
_cell_angle_beta 120.406400
_cell_angle_gamma 90.000000
_cell_volume 1321.060420
_symmetry_space_group_name_H-M "P 2/M"
_symmetry_group_IT_number 10
_symmetry_cell_setting 'monoclinic'
loop_
_space_group_symop_operation_xyz
x,y,z
-x,y,-z
-x,-y,-z
x,-y,z
loop_
_atom_site_type_symbol
_atom_site_label
_atom_site_fract_x
_atom_site_fract_y
_atom_site_fract_z
Si Si1 0.161484 0.125547 0.199365
Si Si2 0.204117 0.311510 0.318533
Si Si3 0.418481 0.733411 0.809370
Si Si4 0.285256 0.548606 0.687031
Si Si5 0.862122 0.046214 0.617595
Si Si6 0.666733 0.172389 0.202310
Si Si7 0.907202 0.595469 0.809637
O O1 0.091055 0.081854 0.253297
O O2 0.506367 0.138845 0.260752
O O3 0.009639 0.159909 0.259970
O O4 0.000000 0.126266 0.000000
O O5 0.500000 0.308480 0.500000
O O6 0.313509 0.288468 0.204482
O O7 0.129597 0.359321 0.268502
O O8 0.902121 0.290091 0.296883
O O9 0.379205 0.781314 0.754687
O O10 0.500000 0.732287 0.000000
O O11 0.349391 0.500000 0.724207
O O12 0.586225 0.571288 0.713345
O O13 0.000000 0.552775 0.500000
O O14 0.166161 0.569947 0.798493
O O15 0.500000 0.043970 0.500000
O O16 0.000000 0.056171 0.500000
O O17 0.975326 0.000000 0.690082
O O18 0.500000 0.170853 0.000000
O O19 0.000000 0.599983 0.000000
#
# Coordination Sequence:
#
# PCOD9147519 Si02
#       7
#     4   4   4   4   4   4   4
#     4  10  19  35  58  84 111 145 191 237 285 342
#     4  12  25  42  62  89 125 159 197 250 305 351
#     4  11  22  41  65  88 117 158 203 242 293 360
#     4  11  24  43  66  93 127 164 199 243 304 362
#     4  10  21  37  55  78 112 151 188 231 288 346
#     4   9  19  35  58  85 114 147 186 238 292 344
#     4  12  25  42  65  93 123 160 207 251 295 353
#
# _framework density 21.195091999999999
#
# number of rings (size 3 to 8) (size 9 to 14) (size 15 to 20)
#    0.000    1.286    0.000    6.429    0.000    5.429 
#    0.000    7.143    0.000    5.143    0.000    0.000 
#    0.000    0.000    0.000    0.000    0.000    0.000 
#
# Total GULP energy -156600.503301 kJ/mol
# GULP energy per Si atom -5592.875118 kJ/mol
# Density = 2.114685 g / cm^3
# Si number density = 21.195092 Si / 1000 Ang^3
#
#
#
# Elastic Constant Matrix: (Units=GPa)
#
#
# Indices 1 2 3 4 5 6 
#
# 1 125.4647 43.8958 3.5380 0.0000 -12.4675 0.0000
# 2 43.8958 134.5753 13.3070 0.0000 -7.1860 0.0000
# 3 3.5380 13.3070 36.3329 0.0000 -0.6516 0.0000
# 4 0.0000 0.0000 0.0000 -4.2705 0.0000 -2.9157
# 5 -12.4675 -7.1860 -0.6516 0.0000 26.0751 0.0000
# 6 0.0000 0.0000 0.0000 -2.9157 0.0000 53.4282
#
#
#
# Elastic Compliance Matrix: (Units=1/GPa)
#
#
# Indices 1 2 3 4 5 6 
#
# 1 0.009334 -0.002869 0.000208 0.000000 0.003677 0.000000
# 2 -0.002869 0.008703 -0.002891 0.000000 0.000955 0.000000
# 3 0.000208 -0.002891 0.028562 0.000000 0.000016 0.000000
# 4 0.000000 0.000000 0.000000 -0.225755 0.000000 -0.012320
# 5 0.003677 0.000955 0.000016 0.000000 0.040372 0.000000
# 6 0.000000 0.000000 0.000000 -0.012320 0.000000 0.018044
#
#
# Mechanical properties :
#
#
# Convention : Reuss Voigt Hill
#
# Bulk Modulus (GPa) = 28.17298 46.42828 37.30063
# Shear Modulus (GPa) = -51.12318 30.75539 -10.18390
#
# Velocity S-wave (km/s) = -4.91657 3.81341 -2.19437
# Velocity P-wave (km/s) = 4.34846 6.42979 3.34911
#
# Compressibility (1/GPa) = 0.03549500
#
# Stress axis : x y z
#
# Youngs Moduli (GPa) = 107.14028 114.89870 35.01129
#
# Poissons Ratio (x) = 0.32960 -0.00727
# Poissons Ratio (y) = 0.30734 0.10122
# Poissons Ratio (z) = -0.02225 0.33219
#
# Static dielectric constant tensor:
#      x y z
#    x 1.716110 0.000000 -0.001480 
#    y 0.000000 1.747060 0.000000 
#    z -0.001480 0.000000 1.770180 
# 
# From -- ./inp_files/15912.got.cif
#   From: 2010.05.17/outbox.cif.g08.bks.cpg/sg10_8_cif.got.tgz:15912.got - 2010.06.03 11:33:40.
