data_PCOD9147558
_publ_section_title
;
Structure prediction by ZEFSAII (Michael W. Deem and Ramdas Pophale) SiO2 
 PCOD9147558
Probable space group: P 2/M
;
_chemical_formula_sum "Si O2"
_cell_formula_units_Z 28
_cell_length_a 26.706761
_cell_length_b 9.471131
_cell_length_c 8.451770
_cell_angle_alpha 90.000000
_cell_angle_beta 38.744696
_cell_angle_gamma 90.000000
_cell_volume 1337.956131
_symmetry_space_group_name_H-M "P 2/M"
_symmetry_group_IT_number 10
_symmetry_cell_setting 'monoclinic'
loop_
_space_group_symop_operation_xyz
x,y,z
-x,y,-z
-x,-y,-z
x,-y,z
loop_
_atom_site_type_symbol
_atom_site_label
_atom_site_fract_x
_atom_site_fract_y
_atom_site_fract_z
Si Si1 0.543373 0.340716 0.639064
Si Si2 0.304218 0.350159 0.965158
Si Si3 0.180946 0.327695 0.808313
Si Si4 0.871829 0.338881 0.730201
Si Si5 0.346173 0.159011 0.420665
Si Si6 0.087783 0.329049 0.719238
Si Si7 0.394425 0.154877 0.939497
O O1 0.522968 0.500000 0.740776
O O2 0.617896 0.351844 0.336049
O O3 0.580389 0.240362 0.680305
O O4 0.467000 0.265052 0.752482
O O5 0.301214 0.500000 0.063770
O O6 0.317586 0.216737 0.040745
O O7 0.223820 0.343207 0.063794
O O8 0.189225 0.500000 0.794386
O O9 0.265390 0.250524 0.627638
O O10 0.147574 0.288857 0.715840
O O11 0.122792 0.286208 0.100929
O O12 0.903307 0.500000 0.657214
O O13 0.901545 0.275269 0.488530
O O14 0.335702 0.000000 0.513461
O O15 0.370440 0.145951 0.179774
O O16 0.095518 0.500000 0.688310
O O17 0.000000 0.295829 0.000000
O O18 0.416937 0.000000 0.823800
#
# Coordination Sequence:
#
# PCOD9147558 Si02
#       7
#     4   4   4   4   4   4   4
#     4  11  22  37  57  80 107 144 191 237 287 344
#     4  10  20  36  55  77 106 143 190 237 281 337
#     4  10  19  35  59  82 112 153 190 233 287 336
#     4   9  17  32  53  80 114 148 188 233 278 339
#     4  11  23  38  55  78 111 146 188 239 285 339
#     4   9  18  31  53  89 123 148 180 227 284 341
#     4  11  24  37  51  77 111 147 187 236 294 342
#
# _framework density 20.927443
#
# number of rings (size 3 to 8) (size 9 to 14) (size 15 to 20)
#    0.000    1.857    1.429    3.000    0.000    8.571 
#    0.000    2.857    0.000    0.429    0.000    1.000 
#    0.000    0.000    0.000    0.000    0.000    0.000 
#
# Total GULP energy -156073.083115 kJ/mol
# GULP energy per Si atom -5574.038683 kJ/mol
# Density = 2.087981 g / cm^3
# Si number density = 20.927443 Si / 1000 Ang^3
#
#
#
# Elastic Constant Matrix: (Units=GPa)
#
#
# Indices 1 2 3 4 5 6 
#
# 1 52.1912 23.5459 8.2600 0.0000 5.4315 0.0000
# 2 23.5459 83.4948 5.0242 0.0000 1.1557 0.0000
# 3 8.2600 5.0242 91.5436 0.0000 15.6676 0.0000
# 4 0.0000 0.0000 0.0000 -12.2174 0.0000 6.9607
# 5 5.4315 1.1557 15.6676 0.0000 28.9735 0.0000
# 6 0.0000 0.0000 0.0000 6.9607 0.0000 25.8058
#
#
#
# Elastic Compliance Matrix: (Units=1/GPa)
#
#
# Indices 1 2 3 4 5 6 
#
# 1 0.022498 -0.006231 -0.001112 0.000000 -0.003368 0.000000
# 2 -0.006231 0.013743 -0.000329 0.000000 0.000798 0.000000
# 3 -0.001112 -0.000329 0.012126 0.000000 -0.006336 0.000000
# 4 0.000000 0.000000 0.000000 -0.070948 0.000000 0.019137
# 5 -0.003368 0.000798 -0.006336 0.000000 0.038540 0.000000
# 6 0.000000 0.000000 0.000000 0.019137 0.000000 0.033589
#
#
# Mechanical properties :
#
#
# Convention : Reuss Voigt Hill
#
# Bulk Modulus (GPa) = 30.28027 33.43221 31.85624
# Shear Modulus (GPa) = 65.87696 21.20568 43.54132
#
# Velocity S-wave (km/s) = 5.61668 3.18668 4.56629
# Velocity P-wave (km/s) = 7.52086 5.43598 6.56176
#
# Compressibility (1/GPa) = 0.03302480
#
# Stress axis : x y z
#
# Youngs Moduli (GPa) = 44.44872 72.76599 82.46412
#
# Poissons Ratio (x) = 0.45340 0.09167
# Poissons Ratio (y) = 0.27696 0.02709
# Poissons Ratio (z) = 0.04941 0.02391
#
# Static dielectric constant tensor:
#      x y z
#    x 1.787750 0.000000 0.053710 
#    y 0.000000 1.775310 0.000000 
#    z 0.053710 0.000000 1.792550 
# 
# From -- ./inp_files/36897.got.cif
#   From: 2010.05.17/outbox.cif.g08.bks.cpg/sg10_19_cif.got.tgz:36897.got - 2010.06.03 11:33:40.
