data_PCOD9147676
_publ_section_title
;
Structure prediction by ZEFSAII (Michael W. Deem and Ramdas Pophale) SiO2 
 PCOD9147676
Probable space group: P 2/M
;
_chemical_formula_sum "Si O2"
_cell_formula_units_Z 24
_cell_length_a 9.992784
_cell_length_b 7.904886
_cell_length_c 20.729803
_cell_angle_alpha 90.000000
_cell_angle_beta 128.269179
_cell_angle_gamma 90.000000
_cell_volume 1285.605150
_symmetry_space_group_name_H-M "P 2/M"
_symmetry_group_IT_number 10
_symmetry_cell_setting 'monoclinic'
loop_
_space_group_symop_operation_xyz
x,y,z
-x,y,-z
-x,-y,-z
x,-y,z
loop_
_atom_site_type_symbol
_atom_site_label
_atom_site_fract_x
_atom_site_fract_y
_atom_site_fract_z
Si Si1 0.924204 0.310231 0.163445
Si Si2 0.745833 0.302138 0.826940
Si Si3 0.203636 0.000000 0.063086
Si Si4 0.466952 0.298747 0.363534
Si Si5 0.146010 0.796190 0.494509
Si Si6 0.700741 0.000000 0.056994
Si Si7 0.150203 0.800630 0.349025
O O1 0.854559 0.500000 0.138059
O O2 0.786125 0.164760 0.114423
O O3 0.067488 0.288194 0.150439
O O4 0.028985 0.289711 0.261190
O O5 0.721065 0.500000 0.837649
O O6 0.614387 0.256377 0.730338
O O7 0.735512 0.167402 0.880775
O O8 0.000000 0.000000 0.000000
O O9 0.258803 0.000000 0.006345
O O10 0.452779 0.500000 0.366609
O O11 0.662809 0.247435 0.426666
O O12 0.344072 0.221026 0.381530
O O13 0.126795 0.736513 0.414807
O O14 0.000000 0.733555 0.500000
O O15 0.133326 0.000000 0.488940
O O16 0.500000 0.000000 0.000000
O O17 0.110115 0.000000 0.335046
#
# Coordination Sequence:
#
# PCOD9147676 Si02
#       7
#     4   4   2   4   4   2   4
#     4  10  20  39  65  90 121 157 197 248 297 353
#     4   9  20  37  61  95 121 146 197 252 295 346
#     4  12  22  38  68  91 112 159 193 240 305 354
#     4  10  21  36  57  86 119 154 196 245 290 345
#     4  10  22  38  55  84 120 160 199 241 292 347
#     4  12  26  44  60  91 124 157 199 240 301 366
#     4  10  19  35  62  88 115 154 202 246 290 345
#
# _framework density 18.668251999999999
#
# number of rings (size 3 to 8) (size 9 to 14) (size 15 to 20)
#    0.000    1.833    2.500    2.500    4.667    5.000 
#    3.000    0.000    0.000    0.000    0.000    0.000 
#    0.000    0.000    0.000    0.000    0.000    0.000 
#
# Total GULP energy -134019.533680 kJ/mol
# GULP energy per Si atom -5584.147237 kJ/mol
# Density = 1.862576 g / cm^3
# Si number density = 18.668252 Si / 1000 Ang^3
#
#
#
# Elastic Constant Matrix: (Units=GPa)
#
#
# Indices 1 2 3 4 5 6 
#
# 1 107.4768 31.2182 65.6800 0.0000 4.2053 0.0000
# 2 31.2182 80.0700 46.2226 0.0000 4.7130 0.0000
# 3 65.6800 46.2226 92.6313 0.0000 6.2375 0.0000
# 4 0.0000 0.0000 0.0000 -2.2508 0.0000 4.0904
# 5 4.2053 4.7130 6.2375 0.0000 23.7213 0.0000
# 6 0.0000 0.0000 0.0000 4.0904 0.0000 -2.8178
#
#
#
# Elastic Compliance Matrix: (Units=1/GPa)
#
#
# Indices 1 2 3 4 5 6 
#
# 1 0.016430 0.000445 -0.011880 0.000000 0.000123 0.000000
# 2 0.000445 0.017588 -0.009011 0.000000 -0.001204 0.000000
# 3 -0.011880 -0.009011 0.023876 0.000000 -0.002382 0.000000
# 4 0.000000 0.000000 0.000000 0.271222 0.000000 0.393714
# 5 0.000123 -0.001204 -0.002382 0.000000 0.043000 0.000000
# 6 0.000000 0.000000 0.000000 0.393714 0.000000 0.216642
#
#
# Mechanical properties :
#
#
# Convention : Reuss Voigt Hill
#
# Bulk Modulus (GPa) = 58.81578 62.93555 60.87567
# Shear Modulus (GPa) = 7.87007 12.86768 10.36888
#
# Velocity S-wave (km/s) = 2.05546 2.62827 2.35931
# Velocity P-wave (km/s) = 6.09979 6.55715 6.33260
#
# Compressibility (1/GPa) = 0.01700224
#
# Stress axis : x y z
#
# Youngs Moduli (GPa) = 60.86276 56.85622 41.88320
#
# Poissons Ratio (x) = -0.02530 0.49758
# Poissons Ratio (y) = -0.02708 0.37740
# Poissons Ratio (z) = 0.72306 0.51232
#
# Static dielectric constant tensor:
#      x y z
#    x 1.615440 0.000000 -0.014190 
#    y 0.000000 1.665630 0.000000 
#    z -0.014190 0.000000 1.633940 
# 
# From -- ./inp_files/80149.got.cif
#   From: 2010.05.17/outbox.cif.g08.bks.cpg/sg10_41_cif.got.tgz:80149.got - 2010.06.03 11:33:40.
