data_PCOD9147236
_publ_section_title
;
Structure prediction by ZEFSAII (Michael W. Deem and Ramdas Pophale) SiO2 
 PCOD9147236
Probable space group: P 2/M
;
_chemical_formula_sum "Si O2"
_cell_formula_units_Z 28
_cell_length_a 8.236735
_cell_length_b 8.013700
_cell_length_c 29.039963
_cell_angle_alpha 90.000000
_cell_angle_beta 45.415203
_cell_angle_gamma 90.000000
_cell_volume 1365.191959
_symmetry_space_group_name_H-M "P 2/M"
_symmetry_group_IT_number 10
_symmetry_cell_setting 'monoclinic'
loop_
_space_group_symop_operation_xyz
x,y,z
-x,y,-z
-x,-y,-z
x,-y,z
loop_
_atom_site_type_symbol
_atom_site_label
_atom_site_fract_x
_atom_site_fract_y
_atom_site_fract_z
Si Si1 0.593863 0.699641 0.839552
Si Si2 0.608266 0.796169 0.430312
Si Si3 0.793999 0.701676 0.157244
Si Si4 0.539222 0.312800 0.702861
Si Si5 0.312177 0.199902 0.073932
Si Si6 0.891353 0.197372 0.702355
Si Si7 0.760638 0.198907 0.566569
O O1 0.601104 0.500000 0.834675
O O2 0.367011 0.755475 0.854578
O O3 0.614023 0.744409 0.889318
O O4 0.816924 0.775162 0.769676
O O5 0.500000 0.740971 0.500000
O O6 0.438788 0.733640 0.425321
O O7 0.861215 0.750858 0.364736
O O8 0.608638 0.000000 0.431328
O O9 0.777782 0.500000 0.161456
O O10 0.680463 0.764657 0.228136
O O11 0.059582 0.747074 0.107038
O O12 0.485066 0.500000 0.698162
O O13 0.714350 0.309490 0.710077
O O14 0.679309 0.226672 0.634464
O O15 0.314119 0.000000 0.073738
O O16 0.500000 0.261465 0.000000
O O17 0.861520 0.000000 0.697553
O O18 0.000000 0.266847 0.500000
O O19 0.770704 0.000000 0.557684
#
# Coordination Sequence:
#
# PCOD9147236 Si02
#       7
#     4   4   4   4   4   4   4
#     4  10  22  41  64  91 125 162 204 250 303 367
#     4   9  18  32  51  78 109 142 187 239 289 345
#     4   9  21  41  63  89 121 162 205 249 302 364
#     4  10  21  37  56  82 114 149 191 241 297 354
#     4  11  25  42  63  94 128 161 202 253 305 363
#     4  10  19  34  58  85 112 147 192 244 297 349
#     4  10  20  34  54  79 108 148 194 241 296 353
#
# _framework density 20.509934999999999
#
# number of rings (size 3 to 8) (size 9 to 14) (size 15 to 20)
#    0.000    2.143    0.000    3.429    2.000    7.714 
#    0.000    3.571    0.000    3.000    0.000    0.000 
#    0.000    0.000    0.000    0.000    0.000    0.000 
#
# Total GULP energy -155991.874833 kJ/mol
# GULP energy per Si atom -5571.138387 kJ/mol
# Density = 2.046325 g / cm^3
# Si number density = 20.509935 Si / 1000 Ang^3
#
#
#
# Elastic Constant Matrix: (Units=GPa)
#
#
# Indices 1 2 3 4 5 6 
#
# 1 85.8438 8.3411 79.5694 0.0000 -2.0195 0.0000
# 2 8.3411 32.0444 8.3443 0.0000 -5.4358 0.0000
# 3 79.5694 8.3443 193.6959 0.0000 -10.8353 0.0000
# 4 0.0000 0.0000 0.0000 653.2857 0.0000 114.9285
# 5 -2.0195 -5.4358 -10.8353 0.0000 43.1186 0.0000
# 6 0.0000 0.0000 0.0000 114.9285 0.0000 44.4553
#
#
#
# Elastic Compliance Matrix: (Units=1/GPa)
#
#
# Indices 1 2 3 4 5 6 
#
# 1 0.019176 -0.003204 -0.007822 0.000000 -0.001471 0.000000
# 2 -0.003204 0.032686 0.000132 0.000000 0.004004 0.000000
# 3 -0.007822 0.000132 0.008470 0.000000 0.001779 0.000000
# 4 0.000000 0.000000 0.000000 0.002808 0.000000 -0.007259
# 5 -0.001471 0.004004 0.001779 0.000000 0.024075 0.000000
# 6 0.000000 0.000000 0.000000 -0.007259 0.000000 0.041260
#
#
# Mechanical properties :
#
#
# Convention : Reuss Voigt Hill
#
# Bulk Modulus (GPa) = 25.94470 56.01043 40.97757
# Shear Modulus (GPa) = 30.65452 162.52718 96.59085
#
# Velocity S-wave (km/s) = 3.87022 8.91152 6.87000
# Velocity P-wave (km/s) = 5.71391 11.54362 9.10780
#
# Compressibility (1/GPa) = 0.03854351
#
# Stress axis : x y z
#
# Youngs Moduli (GPa) = 52.14948 30.59459 118.06946
#
# Poissons Ratio (x) = 0.09803 0.92348
# Poissons Ratio (y) = 0.16710 -0.01561
# Poissons Ratio (z) = 0.40789 -0.00404
#
# Static dielectric constant tensor:
#      x y z
#    x 1.959250 0.000000 0.073440 
#    y 0.000000 1.750560 0.000000 
#    z 0.073440 0.000000 2.169910 
# 
# From -- ./inp_files/94487.got.cif
#   From: 2010.05.17/outbox.cif.g08.bks.cpg/sg10_48_cif.got.tgz:94487.got - 2010.06.03 11:33:40.
