data_PCOD9147120
_publ_section_title
;
Structure prediction by ZEFSAII (Michael W. Deem and Ramdas Pophale) SiO2 
 PCOD9147120
Probable space group: P 2/M
;
_chemical_formula_sum "Si O2"
_cell_formula_units_Z 32
_cell_length_a 21.994327
_cell_length_b 7.953526
_cell_length_c 15.110605
_cell_angle_alpha 90.000000
_cell_angle_beta 35.991084
_cell_angle_gamma 90.000000
_cell_volume 1553.380636
_symmetry_space_group_name_H-M "P 2/M"
_symmetry_group_IT_number 10
_symmetry_cell_setting 'monoclinic'
loop_
_space_group_symop_operation_xyz
x,y,z
-x,y,-z
-x,-y,-z
x,-y,z
loop_
_atom_site_type_symbol
_atom_site_label
_atom_site_fract_x
_atom_site_fract_y
_atom_site_fract_z
Si Si1 0.702228 0.203297 0.871615
Si Si2 0.309519 0.794282 0.316932
Si Si3 0.500367 0.199780 0.788465
Si Si4 0.037845 0.794553 0.050947
Si Si5 0.123203 0.695593 0.213116
Si Si6 0.078799 0.203083 0.633773
Si Si7 0.469194 0.692496 0.630668
Si Si8 0.241125 0.194496 0.903086
O O1 0.675865 0.252752 0.802596
O O2 0.813819 0.266937 0.772211
O O3 0.706335 0.000000 0.870294
O O4 0.610081 0.264362 0.044810
O O5 0.402621 0.734025 0.269602
O O6 0.195509 0.738375 0.481253
O O7 0.309583 0.000000 0.320223
O O8 0.510739 0.227570 0.671842
O O9 0.497168 0.000000 0.807560
O O10 0.967549 0.740235 0.216855
O O11 0.036249 0.000000 0.053197
O O12 0.155608 0.745861 0.933780
O O13 0.000000 0.736965 0.000000
O O14 0.133406 0.500000 0.180212
O O15 0.003081 0.742706 0.344952
O O16 0.183296 0.796313 0.065395
O O17 0.079557 0.000000 0.633367
O O18 0.500000 0.770533 0.500000
O O19 0.505190 0.500000 0.588177
O O20 0.345382 0.702152 0.781783
O O21 0.268321 0.000000 0.853825
#
# Coordination Sequence:
#
# PCOD9147120 Si02
#       8
#     4   4   4   4   4   4   4   4
#     4  10  19  34  58  85 113 146 189 236 288 342
#     4   9  19  35  57  85 114 148 188 239 292 341
#     4  10  20  36  60  86 113 146 191 240 284 336
#     4   8  15  28  50  79 105 133 174 227 279 327
#     4  11  21  34  55  80 111 147 186 231 281 336
#     4   9  18  34  54  77 110 147 188 232 284 339
#     4  11  24  39  55  80 116 154 188 227 281 335
#     4  10  19  34  57  82 107 140 184 233 281 331
#
# _framework density 20.600231999999998
#
# number of rings (size 3 to 8) (size 9 to 14) (size 15 to 20)
#    0.000    2.250    1.250    3.000    0.000    4.000 
#    0.000    6.875    0.000   12.375    0.000    0.000 
#    0.000    0.000    0.000    0.000    0.000    0.000 
#
# Total GULP energy -178608.763657 kJ/mol
# GULP energy per Si atom -5581.523864 kJ/mol
# Density = 2.055335 g / cm^3
# Si number density = 20.600232 Si / 1000 Ang^3
#
#
#
# Elastic Constant Matrix: (Units=GPa)
#
#
# Indices 1 2 3 4 5 6 
#
# 1 172.9105 8.5666 46.3670 0.0000 -3.1674 0.0000
# 2 8.5666 25.9885 5.9782 0.0000 -2.9527 0.0000
# 3 46.3670 5.9782 66.1697 0.0000 -2.9629 0.0000
# 4 0.0000 0.0000 0.0000 0.2862 0.0000 14.4369
# 5 -3.1674 -2.9527 -2.9629 0.0000 25.9870 0.0000
# 6 0.0000 0.0000 0.0000 14.4369 0.0000 -64.4048
#
#
#
# Elastic Compliance Matrix: (Units=1/GPa)
#
#
# Indices 1 2 3 4 5 6 
#
# 1 0.007161 -0.001213 -0.004900 0.000000 0.000176 0.000000
# 2 -0.001213 0.039936 -0.002575 0.000000 0.004096 0.000000
# 3 -0.004900 -0.002575 0.018835 0.000000 0.001258 0.000000
# 4 0.000000 0.000000 0.000000 0.283902 0.000000 0.063639
# 5 0.000176 0.004096 0.001258 0.000000 0.039111 0.000000
# 6 0.000000 0.000000 0.000000 0.063639 0.000000 -0.001262
#
#
# Mechanical properties :
#
#
# Convention : Reuss Voigt Hill
#
# Bulk Modulus (GPa) = 20.59469 42.98804 31.79136
# Shear Modulus (GPa) = 11.86959 5.98414 8.92687
#
# Velocity S-wave (km/s) = 2.40299 1.70622 2.08394
# Velocity P-wave (km/s) = 4.20930 4.97942 4.61047
#
# Compressibility (1/GPa) = 0.04855621
#
# Stress axis : x y z
#
# Youngs Moduli (GPa) = 139.65130 25.03998 53.09178
#
# Poissons Ratio (x) = 0.03038 0.26016
# Poissons Ratio (y) = 0.16942 0.13669
# Poissons Ratio (z) = 0.68432 0.06447
#
# Static dielectric constant tensor:
#      x y z
#    x 1.733710 0.000000 0.004170 
#    y 0.000000 1.731690 0.000000 
#    z 0.004170 0.000000 1.725400 
# 
# From -- ./inp_files/69979.got.cif
#   From: 2010.05.17/outbox.cif.g08.bks.cpg/sg10_35_cif.got.tgz:69979.got - 2010.06.03 11:33:40.
