data_PCOD9147538
_publ_section_title
;
Structure prediction by ZEFSAII (Michael W. Deem and Ramdas Pophale) SiO2 
 PCOD9147538
Probable space group: P 2/M
;
_chemical_formula_sum "Si O2"
_cell_formula_units_Z 26
_cell_length_a 9.476178
_cell_length_b 9.194430
_cell_length_c 18.091687
_cell_angle_alpha 90.000000
_cell_angle_beta 127.911457
_cell_angle_gamma 90.000000
_cell_volume 1243.634471
_symmetry_space_group_name_H-M "P 2/M"
_symmetry_group_IT_number 10
_symmetry_cell_setting 'monoclinic'
loop_
_space_group_symop_operation_xyz
x,y,z
-x,y,-z
-x,-y,-z
x,-y,z
loop_
_atom_site_type_symbol
_atom_site_label
_atom_site_fract_x
_atom_site_fract_y
_atom_site_fract_z
Si Si1 0.375671 0.825111 0.798357
Si Si2 0.393182 0.833036 0.636206
Si Si3 0.913270 0.671724 0.857350
Si Si4 0.985710 0.337264 0.329920
Si Si5 0.272540 0.826959 0.336968
Si Si6 0.000000 0.740315 0.500000
Si Si7 0.716277 0.329854 0.952036
O O1 0.416504 0.772714 0.726635
O O2 0.539656 0.767162 0.899520
O O3 0.183105 0.755529 0.753259
O O4 0.363266 0.000000 0.795518
O O5 0.525611 0.774303 0.616231
O O6 0.184574 0.827065 0.551043
O O7 0.449600 0.000000 0.660914
O O8 0.891065 0.500000 0.830493
O O9 0.833590 0.779851 0.771383
O O10 0.809613 0.691294 0.901711
O O11 0.123348 0.699467 0.939201
O O12 0.978311 0.500000 0.297517
O O13 0.168211 0.258200 0.366529
O O14 0.976171 0.342499 0.415608
O O15 0.266073 0.000000 0.349578
O O16 0.666977 0.500000 0.941988
#
# Coordination Sequence:
#
# PCOD9147538 Si02
#       7
#     4   4   4   4   4   2   4
#     4  10  19  35  58  87 117 155 199 240 288 343
#     4   9  19  35  59  87 119 151 187 234 291 347
#     4   9  18  33  54  85 122 160 197 236 284 338
#     4  11  24  42  61  84 115 152 193 242 297 351
#     4  11  22  38  58  88 121 156 194 238 292 346
#     4  10  22  42  64  88 111 146 195 240 285 354
#     4   9  17  31  55  86 120 158 200 239 281 336
#
# _framework density 20.906466000000002
#
# number of rings (size 3 to 8) (size 9 to 14) (size 15 to 20)
#    0.000    2.154    1.538    2.769    0.000    3.077 
#    0.000    6.923    0.000    4.615    0.000    0.000 
#    0.000    0.000    0.000    0.000    0.000    0.000 
#
# Total GULP energy -145031.434756 kJ/mol
# GULP energy per Si atom -5578.132106 kJ/mol
# Density = 2.085888 g / cm^3
# Si number density = 20.906466 Si / 1000 Ang^3
#
#
#
# Elastic Constant Matrix: (Units=GPa)
#
#
# Indices 1 2 3 4 5 6 
#
# 1 118.6851 40.1000 23.5081 0.0000 28.3499 0.0000
# 2 40.1000 73.3596 17.9559 0.0000 16.2361 0.0000
# 3 23.5081 17.9559 59.0122 0.0000 27.5554 0.0000
# 4 0.0000 0.0000 0.0000 -6.1192 0.0000 -1.5715
# 5 28.3499 16.2361 27.5554 0.0000 35.8096 0.0000
# 6 0.0000 0.0000 0.0000 -1.5715 0.0000 13.6201
#
#
#
# Elastic Compliance Matrix: (Units=1/GPa)
#
#
# Indices 1 2 3 4 5 6 
#
# 1 0.011767 -0.004872 0.000177 0.000000 -0.007243 0.000000
# 2 -0.004872 0.017353 -0.002289 0.000000 -0.002249 0.000000
# 3 0.000177 -0.002289 0.026772 0.000000 -0.019703 0.000000
# 4 0.000000 0.000000 0.000000 -0.158717 0.000000 -0.018313
# 5 -0.007243 -0.002249 -0.019703 0.000000 0.049841 0.000000
# 6 0.000000 0.000000 0.000000 -0.018313 0.000000 0.071308
#
#
# Mechanical properties :
#
#
# Convention : Reuss Voigt Hill
#
# Bulk Modulus (GPa) = 23.85315 46.02054 34.93685
# Shear Modulus (GPa) = 108.06955 19.96162 64.01559
#
# Velocity S-wave (km/s) = 7.19751 3.09335 5.53954
# Velocity P-wave (km/s) = 8.97254 5.90074 7.59359
#
# Compressibility (1/GPa) = 0.04192318
#
# Stress axis : x y z
#
# Youngs Moduli (GPa) = 84.98436 57.62742 37.35266
#
# Poissons Ratio (x) = 0.28078 -0.00661
# Poissons Ratio (y) = 0.41408 0.08549
# Poissons Ratio (z) = -0.01505 0.13190
#
# Static dielectric constant tensor:
#      x y z
#    x 1.799230 0.000000 -0.017510 
#    y 0.000000 1.719580 0.000000 
#    z -0.017510 0.000000 1.760460 
# 
# From -- ./inp_files/82238.got.cif
#   From: 2010.05.17/outbox.cif.g08.bks.cpg/sg10_42_cif.got.tgz:82238.got - 2010.06.03 11:33:40.
