data_PCOD9147842
_publ_section_title
;
Structure prediction by ZEFSAII (Michael W. Deem and Ramdas Pophale) SiO2 
 PCOD9147842
Probable space group: P 2/M
;
_chemical_formula_sum "Si O2"
_cell_formula_units_Z 32
_cell_length_a 13.056772
_cell_length_b 8.614826
_cell_length_c 32.536502
_cell_angle_alpha 90.000000
_cell_angle_beta 27.043009
_cell_angle_gamma 90.000000
_cell_volume 1663.945810
_symmetry_space_group_name_H-M "P 2/M"
_symmetry_group_IT_number 10
_symmetry_cell_setting 'monoclinic'
loop_
_space_group_symop_operation_xyz
x,y,z
-x,y,-z
-x,-y,-z
x,-y,z
loop_
_atom_site_type_symbol
_atom_site_label
_atom_site_fract_x
_atom_site_fract_y
_atom_site_fract_z
Si Si1 0.053575 0.684718 0.574075
Si Si2 0.246105 0.189031 0.899520
Si Si3 0.175565 0.313239 0.706266
Si Si4 0.417832 0.812013 0.288167
Si Si5 0.333068 0.684621 0.094424
Si Si6 0.413098 0.181445 0.151116
Si Si7 0.577215 0.813470 0.618281
Si Si8 0.884447 0.819336 0.360626
O O1 0.052183 0.500000 0.574025
O O2 0.205088 0.750240 0.483116
O O3 0.156777 0.741184 0.580674
O O4 0.801429 0.747568 0.656733
O O5 0.357058 0.236710 0.816755
O O6 0.421784 0.233051 0.872090
O O7 0.236727 0.000000 0.902020
O O8 0.000000 0.246172 0.000000
O O9 0.179289 0.500000 0.704943
O O10 0.362212 0.248744 0.670274
O O11 0.213863 0.256472 0.645651
O O12 0.925850 0.257898 0.810171
O O13 0.422321 0.764581 0.334164
O O14 0.403375 0.000000 0.291780
O O15 0.316585 0.500000 0.094238
O O16 0.438147 0.721143 0.101031
O O17 0.500000 0.749173 0.000000
O O18 0.155043 0.192319 0.257864
O O19 0.457813 0.000000 0.126105
O O20 0.578441 0.000000 0.616548
O O21 0.820555 0.000000 0.385126
#
# Coordination Sequence:
#
# PCOD9147842 Si02
#       8
#     4   4   4   4   4   4   4   4
#     4  12  24  38  61  89 116 152 197 243 296 355
#     4   9  17  32  56  86 116 147 186 236 292 338
#     4  10  21  38  58  84 120 155 194 242 294 348
#     4  10  21  40  61  84 117 157 199 243 289 346
#     4   9  19  35  55  79 111 154 192 229 284 346
#     4   9  17  31  54  81 109 143 186 239 286 331
#     4  11  24  40  60  85 117 158 198 242 295 350
#     4  10  19  36  61  86 114 149 193 241 290 346
#
# _framework density 19.231394999999999
#
# number of rings (size 3 to 8) (size 9 to 14) (size 15 to 20)
#    0.000    2.000    1.250    2.625    0.000    5.250 
#    0.000    3.750    0.000    1.500    0.000    0.000 
#    0.000    0.000    0.000    0.000    0.000    0.000 
#
# Total GULP energy -178646.675439 kJ/mol
# GULP energy per Si atom -5582.708607 kJ/mol
# Density = 1.918762 g / cm^3
# Si number density = 19.231395 Si / 1000 Ang^3
#
#
#
# Elastic Constant Matrix: (Units=GPa)
#
#
# Indices 1 2 3 4 5 6 
#
# 1 92.1421 21.8396 47.0861 0.0000 16.1106 0.0000
# 2 21.8396 38.1088 20.3385 0.0000 5.0092 0.0000
# 3 47.0861 20.3385 110.8559 0.0000 22.4555 0.0000
# 4 0.0000 0.0000 0.0000 14.9197 0.0000 11.0020
# 5 16.1106 5.0092 22.4555 0.0000 28.2500 0.0000
# 6 0.0000 0.0000 0.0000 11.0020 0.0000 -91.1333
#
#
#
# Elastic Compliance Matrix: (Units=1/GPa)
#
#
# Indices 1 2 3 4 5 6 
#
# 1 0.015283 -0.005765 -0.004619 0.000000 -0.004022 0.000000
# 2 -0.005765 0.031291 -0.003378 0.000000 0.000424 0.000000
# 3 -0.004619 -0.003378 0.013049 0.000000 -0.007139 0.000000
# 4 0.000000 0.000000 0.000000 0.061546 0.000000 0.007430
# 5 -0.004022 0.000424 -0.007139 0.000000 0.043291 0.000000
# 6 0.000000 0.000000 0.000000 0.007430 0.000000 -0.010076
#
#
# Mechanical properties :
#
#
# Convention : Reuss Voigt Hill
#
# Bulk Modulus (GPa) = 31.15393 46.62613 38.89003
# Shear Modulus (GPa) = 25.95946 0.53012 13.24479
#
# Velocity S-wave (km/s) = 3.67801 0.52560 2.62717
# Velocity P-wave (km/s) = 5.85421 4.96646 5.42851
#
# Compressibility (1/GPa) = 0.03209868
#
# Stress axis : x y z
#
# Youngs Moduli (GPa) = 65.43340 31.95760 76.63656
#
# Poissons Ratio (x) = 0.18422 0.35399
# Poissons Ratio (y) = 0.37719 0.25891
# Poissons Ratio (z) = 0.30224 0.10797
#
# Static dielectric constant tensor:
#      x y z
#    x 1.644500 0.000000 0.002440 
#    y 0.000000 1.655450 0.000000 
#    z 0.002440 0.000000 1.691150 
# 
# From -- ./inp_files/94964.got.cif
#   From: 2010.05.17/outbox.cif.g08.bks.cpg/sg10_48_cif.got.tgz:94964.got - 2010.06.03 11:33:40.
