data_PCOD9147395
_publ_section_title
;
Structure prediction by ZEFSAII (Michael W. Deem and Ramdas Pophale) SiO2 
 PCOD9147395
Probable space group: P 2/M
;
_chemical_formula_sum "Si O2"
_cell_formula_units_Z 28
_cell_length_a 10.002115
_cell_length_b 14.391544
_cell_length_c 19.461575
_cell_angle_alpha 90.000000
_cell_angle_beta 143.970192
_cell_angle_gamma 90.000000
_cell_volume 1647.808405
_symmetry_space_group_name_H-M "P 2/M"
_symmetry_group_IT_number 10
_symmetry_cell_setting 'monoclinic'
loop_
_space_group_symop_operation_xyz
x,y,z
-x,y,-z
-x,-y,-z
x,-y,z
loop_
_atom_site_type_symbol
_atom_site_label
_atom_site_fract_x
_atom_site_fract_y
_atom_site_fract_z
Si Si1 0.080608 0.111029 0.371947
Si Si2 0.601744 0.604753 0.466072
Si Si3 0.942465 0.888681 0.795980
Si Si4 0.781337 0.110506 0.958657
Si Si5 0.462436 0.797694 0.618717
Si Si6 0.903614 0.605156 0.381861
Si Si7 0.326763 0.202694 0.715351
O O1 0.873751 0.144395 0.333067
O O2 0.025785 0.136839 0.270375
O O3 0.308157 0.160840 0.493605
O O4 0.110952 0.000000 0.388556
O O5 0.500000 0.613514 0.500000
O O6 0.551716 0.500000 0.420216
O O7 0.507384 0.688111 0.381255
O O8 0.875336 0.615012 0.575220
O O9 0.704952 0.846108 0.721267
O O10 0.922373 0.000000 0.791095
O O11 0.139243 0.863566 0.931417
O O12 0.567054 0.169330 0.844955
O O13 0.724429 0.000000 0.932962
O O14 0.000000 0.123364 0.000000
O O15 0.333901 0.813616 0.636666
O O16 0.813862 0.500000 0.337656
O O17 0.731325 0.688761 0.297491
O O18 0.000000 0.614477 0.500000
#
# Coordination Sequence:
#
# PCOD9147395 Si02
#       7
#     4   4   4   4   4   4   4
#     4  11  23  35  52  84 116 143 180 233 290 337
#     4  10  20  34  55  83 115 150 185 222 272 337
#     4  10  22  39  57  77 109 154 193 229 275 331
#     4  10  21  39  59  78 105 150 202 237 268 324
#     4  12  21  34  56  83 118 147 179 225 285 348
#     4  10  19  35  55  81 117 148 179 223 281 341
#     4  12  22  35  56  84 112 147 187 232 278 334
#
# _framework density 16.992266000000001
#
# number of rings (size 3 to 8) (size 9 to 14) (size 15 to 20)
#    0.000    1.286    4.286    2.571    0.000    4.000 
#    0.000    2.143    0.000    1.286    0.000    1.000 
#    0.000    0.000    0.000    0.000    0.000    0.000 
#
# Total GULP energy -156320.189630 kJ/mol
# GULP energy per Si atom -5582.863915 kJ/mol
# Density = 1.695359 g / cm^3
# Si number density = 16.992266 Si / 1000 Ang^3
#
#
#
# Elastic Constant Matrix: (Units=GPa)
#
#
# Indices 1 2 3 4 5 6 
#
# 1 89.8450 30.7959 20.5547 0.0000 -8.3223 0.0000
# 2 30.7959 59.9272 49.5516 0.0000 -3.9682 0.0000
# 3 20.5547 49.5516 93.8230 0.0000 -4.6552 0.0000
# 4 0.0000 0.0000 0.0000 11.4297 0.0000 9.4822
# 5 -8.3223 -3.9682 -4.6552 0.0000 25.3769 0.0000
# 6 0.0000 0.0000 0.0000 9.4822 0.0000 26.4787
#
#
#
# Elastic Compliance Matrix: (Units=1/GPa)
#
#
# Indices 1 2 3 4 5 6 
#
# 1 0.013903 -0.008054 0.001384 0.000000 0.003554 0.000000
# 2 -0.008054 0.034368 -0.016401 0.000000 -0.000276 0.000000
# 3 0.001384 -0.016401 0.019086 0.000000 0.001390 0.000000
# 4 0.000000 0.000000 0.000000 0.124470 0.000000 -0.044573
# 5 0.003554 -0.000276 0.001390 0.000000 0.040784 0.000000
# 6 0.000000 0.000000 0.000000 -0.044573 0.000000 0.053728
#
#
# Mechanical properties :
#
#
# Convention : Reuss Voigt Hill
#
# Bulk Modulus (GPa) = 47.13214 49.48883 48.31048
# Shear Modulus (GPa) = 14.72527 22.16993 18.44760
#
# Velocity S-wave (km/s) = 2.94698 3.61599 3.29849
# Velocity P-wave (km/s) = 6.27513 6.82799 6.55739
#
# Compressibility (1/GPa) = 0.02121695
#
# Stress axis : x y z
#
# Youngs Moduli (GPa) = 71.92451 29.09652 52.39463
#
# Poissons Ratio (x) = 0.23434 -0.07251
# Poissons Ratio (y) = 0.57926 0.85930
# Poissons Ratio (z) = -0.09954 0.47720
#
# Static dielectric constant tensor:
#      x y z
#    x 1.598050 0.000000 -0.017970 
#    y 0.000000 1.581170 0.000000 
#    z -0.017970 0.000000 1.547820 
# 
# From -- ./inp_files/24923.got.cif
#   From: 2010.05.17/outbox.cif.g08.bks.cpg/sg10_13_cif.got.tgz:24923.got - 2010.06.03 11:33:40.
