data_PCOD9147967
_publ_section_title
;
Structure prediction by ZEFSAII (Michael W. Deem and Ramdas Pophale) SiO2 
 PCOD9147967
Probable space group: P 2/M
;
_chemical_formula_sum "Si O2"
_cell_formula_units_Z 28
_cell_length_a 15.412097
_cell_length_b 8.555060
_cell_length_c 12.092190
_cell_angle_alpha 90.000000
_cell_angle_beta 61.989373
_cell_angle_gamma 90.000000
_cell_volume 1407.608379
_symmetry_space_group_name_H-M "P 2/M"
_symmetry_group_IT_number 10
_symmetry_cell_setting 'monoclinic'
loop_
_space_group_symop_operation_xyz
x,y,z
-x,y,-z
-x,-y,-z
x,-y,z
loop_
_atom_site_type_symbol
_atom_site_label
_atom_site_fract_x
_atom_site_fract_y
_atom_site_fract_z
Si Si1 0.170953 0.314978 0.122788
Si Si2 0.710551 0.322726 0.730649
Si Si3 0.316558 0.689487 0.858928
Si Si4 0.507294 0.177617 0.863354
Si Si5 0.385434 0.688108 0.572612
Si Si6 0.216377 0.179559 0.522023
Si Si7 0.990623 0.687709 0.377135
O O1 0.151894 0.500000 0.117667
O O2 0.257721 0.300969 0.161897
O O3 0.075363 0.250566 0.243526
O O4 0.216481 0.256191 0.980134
O O5 0.738434 0.500000 0.682519
O O6 0.596098 0.292847 0.782237
O O7 0.766959 0.204508 0.618430
O O8 0.321191 0.500000 0.866003
O O9 0.407651 0.763490 0.869326
O O10 0.334661 0.728172 0.720180
O O11 0.529927 0.000000 0.813088
O O12 0.500000 0.176116 0.000000
O O13 0.500000 0.740805 0.500000
O O14 0.387088 0.500000 0.560670
O O15 0.313946 0.755432 0.522163
O O16 0.116145 0.271148 0.606374
O O17 0.203753 0.000000 0.557973
O O18 0.001962 0.500000 0.375495
O O19 0.000000 0.743186 0.500000
#
# Coordination Sequence:
#
# PCOD9147967 Si02
#       7
#     4   4   4   4   4   4   4
#     4   9  18  33  57  87 114 146 193 246 297 343
#     4  11  20  35  58  83 115 154 199 244 291 350
#     4  10  20  37  60  85 114 154 205 254 296 347
#     4  11  22  33  49  83 125 159 190 232 296 365
#     4  10  22  41  64  88 115 155 207 253 294 349
#     4  12  25  39  59  89 123 157 197 244 305 368
#     4  10  19  37  62  88 118 156 200 248 298 353
#
# _framework density 19.891895999999999
#
# number of rings (size 3 to 8) (size 9 to 14) (size 15 to 20)
#    0.000    1.571    2.857    3.000    0.000    2.857 
#    0.000    1.429    0.000    4.286    0.000    0.000 
#    0.000    0.000    0.000    0.000    0.000    0.000 
#
# Total GULP energy -156230.847466 kJ/mol
# GULP energy per Si atom -5579.673124 kJ/mol
# Density = 1.984662 g / cm^3
# Si number density = 19.891896 Si / 1000 Ang^3
#
#
#
# Elastic Constant Matrix: (Units=GPa)
#
#
# Indices 1 2 3 4 5 6 
#
# 1 63.1988 9.0908 18.9196 0.0000 -17.3040 0.0000
# 2 9.0908 13.5445 18.1800 0.0000 2.1709 0.0000
# 3 18.9196 18.1800 103.1069 0.0000 -16.8859 0.0000
# 4 0.0000 0.0000 0.0000 6.8236 0.0000 8.8218
# 5 -17.3040 2.1709 -16.8859 0.0000 33.9789 0.0000
# 6 0.0000 0.0000 0.0000 8.8218 0.0000 -1.3680
#
#
#
# Elastic Compliance Matrix: (Units=1/GPa)
#
#
# Indices 1 2 3 4 5 6 
#
# 1 0.021574 -0.018410 0.001393 0.000000 0.012855 0.000000
# 2 -0.018410 0.121085 -0.022615 0.000000 -0.028350 0.000000
# 3 0.001393 -0.022615 0.015005 0.000000 0.009611 0.000000
# 4 0.000000 0.000000 0.000000 0.015695 0.000000 0.101215
# 5 0.012855 -0.028350 0.009611 0.000000 0.042564 0.000000
# 6 0.000000 0.000000 0.000000 0.101215 0.000000 -0.078290
#
#
# Mechanical properties :
#
#
# Convention : Reuss Voigt Hill
#
# Bulk Modulus (GPa) = 12.75509 30.24789 21.50149
# Shear Modulus (GPa) = 20.57361 16.79756 18.68559
#
# Velocity S-wave (km/s) = 3.21950 2.90908 3.06822
# Velocity P-wave (km/s) = 4.49959 5.15003 4.83576
#
# Compressibility (1/GPa) = 0.07840007
#
# Stress axis : x y z
#
# Youngs Moduli (GPa) = 46.35198 8.25866 66.64640
#
# Poissons Ratio (x) = 0.15204 -0.09281
# Poissons Ratio (y) = 0.85332 1.50719
# Poissons Ratio (z) = -0.06455 0.18677
#
# Static dielectric constant tensor:
#      x y z
#    x 1.671340 0.000000 -0.021230 
#    y 0.000000 1.678450 0.000000 
#    z -0.021230 0.000000 1.753080 
# 
# From -- ./inp_files/49564.got.cif
#   From: 2010.05.17/outbox.cif.g08.bks.cpg/sg10_25_cif.got.tgz:49564.got - 2010.06.03 11:33:40.
