data_PCOD9147358
_publ_section_title
;
Structure prediction by ZEFSAII (Michael W. Deem and Ramdas Pophale) SiO2 
 PCOD9147358
Probable space group: P 2/M
;
_chemical_formula_sum "Si O2"
_cell_formula_units_Z 28
_cell_length_a 5.458388
_cell_length_b 15.627206
_cell_length_c 23.273211
_cell_angle_alpha 90.000000
_cell_angle_beta 110.597611
_cell_angle_gamma 90.000000
_cell_volume 1858.285018
_symmetry_space_group_name_H-M "P 2/M"
_symmetry_group_IT_number 10
_symmetry_cell_setting 'monoclinic'
loop_
_space_group_symop_operation_xyz
x,y,z
-x,y,-z
-x,-y,-z
x,-y,z
loop_
_atom_site_type_symbol
_atom_site_label
_atom_site_fract_x
_atom_site_fract_y
_atom_site_fract_z
Si Si1 0.975518 0.656173 0.650346
Si Si2 0.868902 0.163848 0.579268
Si Si3 0.206801 0.603602 0.137867
Si Si4 0.392839 0.395673 0.928560
Si Si5 0.218250 0.596022 0.478833
Si Si6 0.335424 0.098407 0.556949
Si Si7 0.423708 0.603695 0.282472
O O1 0.920928 0.746209 0.613952
O O2 0.890428 0.590835 0.593619
O O3 0.781447 0.640709 0.687814
O O4 0.281996 0.640709 0.687815
O O5 0.637086 0.117076 0.594157
O O6 0.756402 0.157809 0.504268
O O7 0.145386 0.117076 0.594157
O O8 0.199749 0.500000 0.133166
O O9 0.408043 0.632931 0.105048
O O10 0.314964 0.623292 0.209976
O O11 0.907102 0.632931 0.105048
O O12 0.389896 0.500000 0.926597
O O13 0.500000 0.371009 0.000000
O O14 0.500000 0.639476 0.500000
O O15 0.260965 0.500000 0.507310
O O16 0.000000 0.639476 0.500000
O O17 0.303615 0.000000 0.535744
O O18 0.435433 0.500000 0.290288
#
# Coordination Sequence:
#
# PCOD9147358 Si02
#       7
#     4   4   4   4   4   4   4
#     4  12  23  33  49  64  85 108 146 191 227 259
#     4  10  20  30  49  72  88 106 129 167 218 267
#     4   9  17  28  42  58  78 109 145 177 218 267
#     4   9  15  24  40  63  85 101 126 175 234 276
#     4  10  21  33  45  57  74 100 134 177 228 274
#     4  10  19  35  54  72  90 108 126 155 219 293
#     4  11  22  36  48  59  82 121 162 192 219 260
#
# _framework density 15.067655999999999
#
# number of rings (size 3 to 8) (size 9 to 14) (size 15 to 20)
#    0.000    1.857    0.000    6.429    4.000    5.143 
#    0.000    0.000    0.000    0.000    0.000    0.000 
#    0.000    0.000    0.000    0.000    0.000    0.000 
#
# Total GULP energy -155962.375829 kJ/mol
# GULP energy per Si atom -5570.084851 kJ/mol
# Density = 1.503336 g / cm^3
# Si number density = 15.067656 Si / 1000 Ang^3
#
#
#
# Elastic Constant Matrix: (Units=GPa)
#
#
# Indices 1 2 3 4 5 6 
#
# 1 200.2043 34.5838 76.8215 0.0000 -2.6739 0.0000
# 2 34.5838 66.2476 27.1959 0.0000 -0.3079 0.0000
# 3 76.8215 27.1959 105.1336 0.0000 -1.2888 0.0000
# 4 0.0000 0.0000 0.0000 6.0921 0.0000 -0.6734
# 5 -2.6739 -0.3079 -1.2888 0.0000 29.6740 0.0000
# 6 0.0000 0.0000 0.0000 -0.6734 0.0000 22.2476
#
#
#
# Elastic Compliance Matrix: (Units=1/GPa)
#
#
# Indices 1 2 3 4 5 6 
#
# 1 0.007127 -0.001771 -0.004744 0.000000 0.000418 0.000000
# 2 -0.001771 0.017328 -0.003190 0.000000 -0.000118 0.000000
# 3 -0.004744 -0.003190 0.013805 0.000000 0.000139 0.000000
# 4 0.000000 0.000000 0.000000 0.164699 0.000000 0.004985
# 5 0.000418 -0.000118 0.000139 0.000000 0.033742 0.000000
# 6 0.000000 0.000000 0.000000 0.004985 0.000000 0.045100
#
#
# Mechanical properties :
#
#
# Convention : Reuss Voigt Hill
#
# Bulk Modulus (GPa) = 53.05021 72.08752 62.56887
# Shear Modulus (GPa) = 16.26042 27.13502 21.69772
#
# Velocity S-wave (km/s) = 3.28862 4.24828 3.79888
# Velocity P-wave (km/s) = 7.05014 8.48589 7.80111
#
# Compressibility (1/GPa) = 0.01885007
#
# Stress axis : x y z
#
# Youngs Moduli (GPa) = 140.31346 57.70893 72.43560
#
# Poissons Ratio (x) = 0.10220 0.34367
# Poissons Ratio (y) = 0.24848 0.23107
# Poissons Ratio (z) = 0.66571 0.18409
#
# Static dielectric constant tensor:
#      x y z
#    x 1.569910 0.000000 -0.003840 
#    y 0.000000 1.514620 0.000000 
#    z -0.003840 0.000000 1.477870 
# 
# From -- ./inp_files/81321.got.cif
#   From: 2010.05.17/outbox.cif.g08.bks.cpg/sg10_41_cif.got.tgz:81321.got - 2010.06.03 11:33:40.
