data_PCOD9147659
_publ_section_title
;
Structure prediction by ZEFSAII (Michael W. Deem and Ramdas Pophale) SiO2 
 PCOD9147659
Probable space group: P 2/M
;
_chemical_formula_sum "Si O2"
_cell_formula_units_Z 24
_cell_length_a 12.543182
_cell_length_b 7.856334
_cell_length_c 11.891823
_cell_angle_alpha 90.000000
_cell_angle_beta 68.836818
_cell_angle_gamma 90.000000
_cell_volume 1092.825986
_symmetry_space_group_name_H-M "P 2/M"
_symmetry_group_IT_number 10
_symmetry_cell_setting 'monoclinic'
loop_
_space_group_symop_operation_xyz
x,y,z
-x,y,-z
-x,-y,-z
x,-y,z
loop_
_atom_site_type_symbol
_atom_site_label
_atom_site_fract_x
_atom_site_fract_y
_atom_site_fract_z
Si Si1 0.965276 0.803589 0.688412
Si Si2 0.224670 0.791772 0.606232
Si Si3 0.098966 0.698096 0.046911
Si Si4 0.477639 0.701126 0.134506
Si Si5 0.304959 0.199174 0.817679
Si Si6 0.745275 0.793491 0.651479
O O1 0.871609 0.730852 0.638832
O O2 0.092669 0.731894 0.651691
O O3 0.982084 0.000000 0.648417
O O4 0.908429 0.794659 0.833055
O O5 0.282821 0.735019 0.699853
O O6 0.280808 0.741488 0.466654
O O7 0.225334 0.000000 0.608474
O O8 0.075817 0.500000 0.080346
O O9 0.218982 0.714179 0.938183
O O10 0.000000 0.760592 0.000000
O O11 0.500166 0.500000 0.124218
O O12 0.566791 0.780274 0.188055
O O13 0.349814 0.732277 0.225644
O O14 0.500000 0.768050 0.000000
O O15 0.274476 0.000000 0.830290
O O16 0.746701 0.000000 0.655659
#
# Coordination Sequence:
#
# PCOD9147659 Si02
#       6
#     4   4   4   4   4   4
#     4  10  19  35  61  89 119 155 197 241 285 341
#     4   9  19  36  59  90 122 151 188 241 295 340
#     4  11  22  35  54  84 122 157 190 234 289 343
#     4  11  25  44  62  82 116 155 194 242 294 348
#     4  11  22  38  63  89 117 152 196 244 288 343
#     4  10  21  38  62  89 117 153 197 240 287 344
#
# _framework density 21.961410000000001
#
# number of rings (size 3 to 8) (size 9 to 14) (size 15 to 20)
#    0.000    1.667    1.667    3.000    0.000    8.000 
#    0.000    5.833    0.000    2.000    0.000    0.000 
#    0.000    0.000    0.000    0.000    0.000    0.000 
#
# Total GULP energy -134146.213590 kJ/mol
# GULP energy per Si atom -5589.425566 kJ/mol
# Density = 2.191142 g / cm^3
# Si number density = 21.961410 Si / 1000 Ang^3
#
#
#
# Elastic Constant Matrix: (Units=GPa)
#
#
# Indices 1 2 3 4 5 6 
#
# 1 99.7314 -2.9614 33.3933 0.0000 13.6801 0.0000
# 2 -2.9614 30.8382 4.6872 0.0000 4.2863 0.0000
# 3 33.3933 4.6872 129.5585 0.0000 19.3665 0.0000
# 4 0.0000 0.0000 0.0000 756.3003 0.0000 -433.3155
# 5 13.6801 4.2863 19.3665 0.0000 31.1212 0.0000
# 6 0.0000 0.0000 0.0000 -433.3155 0.0000 258.1444
#
#
#
# Elastic Compliance Matrix: (Units=1/GPa)
#
#
# Indices 1 2 3 4 5 6 
#
# 1 0.011425 0.001994 -0.002453 0.000000 -0.003770 0.000000
# 2 0.001994 0.033446 -0.000997 0.000000 -0.004863 0.000000
# 3 -0.002453 -0.000997 0.009047 0.000000 -0.004414 0.000000
# 4 0.000000 0.000000 0.000000 0.034547 0.000000 0.057990
# 5 -0.003770 -0.004863 -0.004414 0.000000 0.037206 0.000000
# 6 0.000000 0.000000 0.000000 0.057990 0.000000 0.101214
#
#
# Mechanical properties :
#
#
# Convention : Reuss Voigt Hill
#
# Bulk Modulus (GPa) = 19.60599 36.70736 28.15667
# Shear Modulus (GPa) = 20.25943 224.11377 122.18660
#
# Velocity S-wave (km/s) = 3.04057 10.11288 7.46711
# Velocity P-wave (km/s) = 4.61233 12.37382 9.33769
#
# Compressibility (1/GPa) = 0.05100482
#
# Stress axis : x y z
#
# Youngs Moduli (GPa) = 87.52955 29.89878 110.53721
#
# Poissons Ratio (x) = -0.05962 0.27118
# Poissons Ratio (y) = -0.17453 0.11022
# Poissons Ratio (z) = 0.21473 0.02981
#
# Static dielectric constant tensor:
#      x y z
#    x 1.791300 0.000000 0.018650 
#    y 0.000000 1.817640 0.000000 
#    z 0.018650 0.000000 1.787310 
# 
# From -- ./inp_files/45018.got.cif
#   From: 2010.05.17/outbox.cif.g08.bks.cpg/sg10_23_cif.got.tgz:45018.got - 2010.06.03 11:33:40.
