data_PCOD9147052
_publ_section_title
;
Structure prediction by ZEFSAII (Michael W. Deem and Ramdas Pophale) SiO2 
 PCOD9147052
Probable space group: P 2/M
;
_chemical_formula_sum "Si O2"
_cell_formula_units_Z 28
_cell_length_a 15.215186
_cell_length_b 8.949982
_cell_length_c 11.938482
_cell_angle_alpha 90.000000
_cell_angle_beta 118.382417
_cell_angle_gamma 90.000000
_cell_volume 1430.308683
_symmetry_space_group_name_H-M "P 2/M"
_symmetry_group_IT_number 10
_symmetry_cell_setting 'monoclinic'
loop_
_space_group_symop_operation_xyz
x,y,z
-x,y,-z
-x,-y,-z
x,-y,z
loop_
_atom_site_type_symbol
_atom_site_label
_atom_site_fract_x
_atom_site_fract_y
_atom_site_fract_z
Si Si1 0.518681 0.667620 0.879586
Si Si2 0.815026 0.675662 0.115444
Si Si3 0.687241 0.174478 0.856161
Si Si4 0.290825 0.331182 0.720724
Si Si5 0.011238 0.680138 0.374889
Si Si6 0.782393 0.825530 0.527458
Si Si7 0.617229 0.320848 0.583729
O O1 0.560267 0.500000 0.881619
O O2 0.590637 0.791206 0.874512
O O3 0.407472 0.674215 0.763087
O O4 0.500000 0.680012 0.000000
O O5 0.823642 0.500000 0.092606
O O6 0.730180 0.688856 0.160680
O O7 0.915645 0.722579 0.241396
O O8 0.780227 0.765017 0.985461
O O9 0.662822 0.264471 0.728657
O O10 0.697935 0.000000 0.838656
O O11 0.253050 0.500000 0.670566
O O12 0.235533 0.209382 0.614283
O O13 0.017747 0.500000 0.377183
O O14 0.111146 0.750302 0.384077
O O15 0.000000 0.723176 0.500000
O O16 0.690356 0.748402 0.535305
O O17 0.784014 0.000000 0.552518
O O18 0.500000 0.275796 0.500000
O O19 0.620310 0.500000 0.579084
#
# Coordination Sequence:
#
# PCOD9147052 Si02
#       7
#     4   4   4   4   4   4   4
#     4  10  19  34  56  82 116 160 208 251 295 362
#     4  10  20  38  63  89 121 164 212 257 301 362
#     4  12  25  39  59  90 131 165 199 258 326 381
#     4  10  19  35  59  86 119 162 211 256 299 361
#     4  10  20  39  66  93 124 167 218 264 305 364
#     4  12  25  39  61  94 132 164 200 259 326 381
#     4  11  25  47  72  92 117 164 222 265 302 368
#
# _framework density 19.576194999999998
#
# number of rings (size 3 to 8) (size 9 to 14) (size 15 to 20)
#    0.000    1.286    2.857    3.857    0.000    6.857 
#    0.000    0.714    0.000    4.286    0.000    0.000 
#    0.000    0.000    0.000    0.000    0.000    0.000 
#
# Total GULP energy -156392.508831 kJ/mol
# GULP energy per Si atom -5585.446744 kJ/mol
# Density = 1.953164 g / cm^3
# Si number density = 19.576195 Si / 1000 Ang^3
#
#
#
# Elastic Constant Matrix: (Units=GPa)
#
#
# Indices 1 2 3 4 5 6 
#
# 1 90.5389 38.2818 36.7343 0.0000 17.2426 0.0000
# 2 38.2818 64.5992 36.7848 0.0000 7.0250 0.0000
# 3 36.7343 36.7848 111.3781 0.0000 16.0018 0.0000
# 4 0.0000 0.0000 0.0000 0.3935 0.0000 36.0315
# 5 17.2426 7.0250 16.0018 0.0000 29.6131 0.0000
# 6 0.0000 0.0000 0.0000 36.0315 0.0000 -74.5469
#
#
#
# Elastic Compliance Matrix: (Units=1/GPa)
#
#
# Indices 1 2 3 4 5 6 
#
# 1 0.016429 -0.007969 -0.001826 0.000000 -0.006689 0.000000
# 2 -0.007969 0.022971 -0.005250 0.000000 0.002027 0.000000
# 3 -0.001826 -0.005250 0.011907 0.000000 -0.004126 0.000000
# 4 0.000000 0.000000 0.000000 0.056151 0.000000 0.027140
# 5 -0.006689 0.002027 -0.004126 0.000000 0.039412 0.000000
# 6 0.000000 0.000000 0.000000 0.027140 0.000000 -0.000296
#
#
# Mechanical properties :
#
#
# Convention : Reuss Voigt Hill
#
# Bulk Modulus (GPa) = 47.12773 54.45754 50.79264
# Shear Modulus (GPa) = 27.21294 1.40630 14.30962
#
# Velocity S-wave (km/s) = 3.73245 0.84849 2.70658
# Velocity P-wave (km/s) = 6.53462 5.37015 5.98079
#
# Compressibility (1/GPa) = 0.02121893
#
# Stress axis : x y z
#
# Youngs Moduli (GPa) = 60.86795 43.53243 83.98330
#
# Poissons Ratio (x) = 0.34691 0.15332
# Poissons Ratio (y) = 0.48505 0.44089
# Poissons Ratio (z) = 0.11112 0.22853
#
# Static dielectric constant tensor:
#      x y z
#    x 1.702250 0.000000 0.013690 
#    y 0.000000 1.662040 0.000000 
#    z 0.013690 0.000000 1.735090 
# 
# From -- ./inp_files/50046.got.cif
#   From: 2010.05.17/outbox.cif.g08.bks.cpg/sg10_26_cif.got.tgz:50046.got - 2010.06.03 11:33:40.
