data_PCOD9147578
_publ_section_title
;
Structure prediction by ZEFSAII (Michael W. Deem and Ramdas Pophale) SiO2 
 PCOD9147578
Probable space group: P 2/M
;
_chemical_formula_sum "Si O2"
_cell_formula_units_Z 30
_cell_length_a 17.230463
_cell_length_b 10.435932
_cell_length_c 13.823507
_cell_angle_alpha 90.000000
_cell_angle_beta 42.125760
_cell_angle_gamma 90.000000
_cell_volume 1667.299701
_symmetry_space_group_name_H-M "P 2/M"
_symmetry_group_IT_number 10
_symmetry_cell_setting 'monoclinic'
loop_
_space_group_symop_operation_xyz
x,y,z
-x,y,-z
-x,-y,-z
x,-y,z
loop_
_atom_site_type_symbol
_atom_site_label
_atom_site_fract_x
_atom_site_fract_y
_atom_site_fract_z
Si Si1 0.793959 0.140624 0.565377
Si Si2 0.636229 0.652802 0.085087
Si Si3 0.000000 0.225725 0.500000
Si Si4 0.526075 0.859371 0.863217
Si Si5 0.501173 0.654438 0.607384
Si Si6 0.098137 0.653493 0.210572
Si Si7 0.750828 0.650135 0.451702
Si Si8 0.029542 0.651807 0.866903
O O1 0.663607 0.152291 0.724557
O O2 0.804519 0.259150 0.483030
O O3 0.889979 0.150597 0.559489
O O4 0.805380 0.000000 0.507569
O O5 0.615099 0.500000 0.089569
O O6 0.544345 0.742219 0.116356
O O7 0.609610 0.680032 0.223078
O O8 0.765480 0.681225 0.929795
O O9 0.048538 0.298492 0.359253
O O10 0.492066 0.000000 0.853262
O O11 0.500000 0.860806 0.000000
O O12 0.500000 0.706640 0.500000
O O13 0.509237 0.500000 0.593039
O O14 0.620520 0.693080 0.549265
O O15 0.083476 0.500000 0.225129
O O16 0.035768 0.701881 0.169206
O O17 0.750808 0.500000 0.481359
O O18 0.834007 0.660281 0.281997
O O19 0.999241 0.500000 0.898427
O O20 0.000000 0.706188 0.000000
#
# Coordination Sequence:
#
# PCOD9147578 Si02
#       8
#     4   4   2   4   4   4   4   4
#     4  11  23  38  58  82 111 148 190 237 284 338
#     4  10  20  35  55  83 113 141 180 226 278 330
#     4  12  22  38  56  78 111 152 197 234 287 350
#     4  10  21  38  57  77 105 143 183 224 276 334
#     4   9  18  31  53  86 117 143 178 230 282 333
#     4  10  21  34  53  84 117 147 182 238 291 334
#     4  10  19  35  59  85 111 148 188 228 287 344
#     4   9  18  32  53  82 113 146 187 231 278 335
#
# _framework density 17.993165000000001
#
# number of rings (size 3 to 8) (size 9 to 14) (size 15 to 20)
#    0.000    2.000    2.667    1.200    1.867    0.800 
#    0.000    0.667    0.000    2.000    0.000    0.000 
#    0.000    0.000    0.000    0.000    0.000    0.000 
#
# Total GULP energy -167017.963355 kJ/mol
# GULP energy per Si atom -5567.265445 kJ/mol
# Density = 1.795221 g / cm^3
# Si number density = 17.993165 Si / 1000 Ang^3
#
#
#
# Elastic Constant Matrix: (Units=GPa)
#
#
# Indices 1 2 3 4 5 6 
#
# 1 82.6759 31.9443 56.8813 0.0000 1.6393 0.0000
# 2 31.9443 48.9290 45.2767 0.0000 -2.4932 0.0000
# 3 56.8813 45.2767 128.1645 0.0000 6.7510 0.0000
# 4 0.0000 0.0000 0.0000 -38.0212 0.0000 -11.7515
# 5 1.6393 -2.4932 6.7510 0.0000 28.6635 0.0000
# 6 0.0000 0.0000 0.0000 -11.7515 0.0000 -4.1184
#
#
#
# Elastic Compliance Matrix: (Units=1/GPa)
#
#
# Indices 1 2 3 4 5 6 
#
# 1 0.018811 -0.006808 -0.005929 0.000000 -0.000272 0.000000
# 2 -0.006808 0.033623 -0.009144 0.000000 0.005468 0.000000
# 3 -0.005929 -0.009144 0.013860 0.000000 -0.003721 0.000000
# 4 0.000000 0.000000 0.000000 -0.222747 0.000000 0.635589
# 5 -0.000272 0.005468 -0.003721 0.000000 0.036255 0.000000
# 6 0.000000 0.000000 0.000000 0.635589 0.000000 -2.056413
#
#
# Mechanical properties :
#
#
# Convention : Reuss Voigt Hill
#
# Bulk Modulus (GPa) = 44.38404 58.66378 51.52391
# Shear Modulus (GPa) = -2.35257 5.68258 1.66501
#
# Velocity S-wave (km/s) = -1.14469 1.77906 0.96300
# Velocity P-wave (km/s) = 4.79308 6.07406 5.47119
#
# Compressibility (1/GPa) = 0.02253062
#
# Stress axis : x y z
#
# Youngs Moduli (GPa) = 53.16174 29.74132 72.14869
#
# Poissons Ratio (x) = 0.20249 0.42776
# Poissons Ratio (y) = 0.36194 0.65976
# Poissons Ratio (z) = 0.31519 0.27197
#
# Static dielectric constant tensor:
#      x y z
#    x 1.640380 0.000000 -0.009110 
#    y 0.000000 1.616090 0.000000 
#    z -0.009110 0.000000 1.651470 
# 
# From -- ./inp_files/51063.got.cif
#   From: 2010.05.17/outbox.cif.g08.bks.cpg/sg10_26_cif.got.tgz:51063.got - 2010.06.03 11:33:40.
